AV-unprocessed.smi:702|AV-procd|sdf|3421|dock5
  -GOLD-   22720 0403D 1   1.00000     0.00000
 Structure written by MMmdl.
 51 53  0  0  0  0  0  0  0  0  3 V2000
  145.6046  139.2703  153.1061 C   0  0  0  0  0  0  0  0  0  0  0  0
  146.5787  138.3620  153.8813 C   0  0  1  0  0  0  0  0  0  0  0  0
  146.8092  137.1470  153.0901 N   0  0  0  0  0  0  0  0  0  0  0  0
  145.8825  136.2636  152.6877 C   0  0  0  0  0  0  0  0  0  0  0  0
  144.6811  136.3782  152.9277 O   0  0  0  0  0  0  0  0  0  0  0  0
  146.4436  135.2595  151.9918 N   0  0  0  0  0  0  0  0  0  0  0  0
  145.8211  134.1206  151.4102 C   0  0  0  0  0  0  0  0  0  0  0  0
  144.4173  134.0150  151.5304 C   0  0  0  0  0  0  0  0  0  0  0  0
  143.7502  132.9117  150.9597 C   0  0  0  0  0  0  0  0  0  0  0  0
  144.4543  131.9700  150.2962 N   0  3  0  0  0  0  0  0  0  0  0  0
  145.7942  132.0342  150.1426 C   0  0  0  0  0  0  0  0  0  0  0  0
  146.5158  133.1143  150.6908 C   0  0  0  0  0  0  0  0  0  0  0  0
  147.9225  139.0772  154.2789 C   0  0  0  0  0  0  0  0  0  0  0  0
  149.0578  138.0776  154.3401 N   0  3  0  0  0  0  0  0  0  0  0  0
  150.4252  138.6650  154.4558 C   0  0  0  0  0  0  0  0  0  0  0  0
  151.5044  137.5742  154.3479 C   0  0  0  0  0  0  0  0  0  0  0  0
  151.2956  136.5861  155.3449 O   0  0  0  0  0  0  0  0  0  0  0  0
  150.0411  135.9428  155.1826 C   0  0  0  0  0  0  0  0  0  0  0  0
  148.9111  136.9733  155.3372 C   0  0  0  0  0  0  0  0  0  0  0  0
  148.2445  140.2282  153.2766 C   0  0  0  0  0  0  0  0  0  0  0  0
  147.9505  141.5445  153.9982 C   0  0  0  0  0  0  0  0  0  0  0  0
  148.2496  141.2384  155.4602 C   0  0  0  0  0  0  0  0  0  0  0  0
  147.7330  139.8109  155.6465 C   0  0  0  0  0  0  0  0  0  0  0  0
  145.3307  140.1537  153.6825 H   0  0  0  0  0  0  0  0  0  0  0  0
  144.6794  138.7405  152.8768 H   0  0  0  0  0  0  0  0  0  0  0  0
  146.0295  139.6096  152.1613 H   0  0  0  0  0  0  0  0  0  0  0  0
  146.0630  138.0514  154.7876 H   0  0  0  0  0  0  0  0  0  0  0  0
  147.7688  136.9606  152.8365 H   0  0  0  0  0  0  0  0  0  0  0  0
  147.4340  135.3453  151.8152 H   0  0  0  0  0  0  0  0  0  0  0  0
  143.8525  134.7688  152.0598 H   0  0  0  0  0  0  0  0  0  0  0  0
  142.6825  132.7567  151.0129 H   0  0  0  0  0  0  0  0  0  0  0  0
  146.2461  131.2274  149.5840 H   0  0  0  0  0  0  0  0  0  0  0  0
  147.5831  133.1519  150.5366 H   0  0  0  0  0  0  0  0  0  0  0  0
  150.6272  139.3856  153.6677 H   0  0  0  0  0  0  0  0  0  0  0  0
  150.5314  139.1923  155.4044 H   0  0  0  0  0  0  0  0  0  0  0  0
  151.4980  137.1169  153.3572 H   0  0  0  0  0  0  0  0  0  0  0  0
  152.4934  138.0109  154.4884 H   0  0  0  0  0  0  0  0  0  0  0  0
  149.9905  135.4478  154.2113 H   0  0  0  0  0  0  0  0  0  0  0  0
  149.9448  135.1653  155.9407 H   0  0  0  0  0  0  0  0  0  0  0  0
  148.9287  137.3654  156.3534 H   0  0  0  0  0  0  0  0  0  0  0  0
  147.9707  136.4388  155.2286 H   0  0  0  0  0  0  0  0  0  0  0  0
  149.2931  140.2365  152.9851 H   0  0  0  0  0  0  0  0  0  0  0  0
  147.6864  140.1489  152.3434 H   0  0  0  0  0  0  0  0  0  0  0  0
  148.5447  142.3743  153.6140 H   0  0  0  0  0  0  0  0  0  0  0  0
  146.8984  141.8079  153.8821 H   0  0  0  0  0  0  0  0  0  0  0  0
  149.3253  141.2776  155.6344 H   0  0  0  0  0  0  0  0  0  0  0  0
  147.7764  141.9468  156.1408 H   0  0  0  0  0  0  0  0  0  0  0  0
  146.6815  139.8906  155.9189 H   0  0  0  0  0  0  0  0  0  0  0  0
  148.1849  139.3009  156.4962 H   0  0  0  0  0  0  0  0  0  0  0  0
  149.0410  137.6196  153.4399 H   0  0  0  0  0  0  0  0  0  0  0  0
  143.9527  131.1797  149.8898 H   0  0  0  0  0  0  0  0  0  0  0  0
  1  2  1  0  0  0  0
  1 24  1  0  0  0  0
  1 25  1  0  0  0  0
  1 26  1  0  0  0  0
  2  3  1  0  0  0  0
  2 13  1  0  0  0  0
  2 27  1  0  0  0  0
  3  4  1  0  0  0  0
  3 28  1  0  0  0  0
  4  5  2  0  0  0  0
  4  6  1  0  0  0  0
  6  7  1  0  0  0  0
  6 29  1  0  0  0  0
  7 12  1  0  0  0  0
  7  8  2  0  0  0  0
  8  9  1  0  0  0  0
  8 30  1  0  0  0  0
  9 10  2  0  0  0  0
  9 31  1  0  0  0  0
 10 11  1  0  0  0  0
 10 51  1  0  0  0  0
 11 12  2  0  0  0  0
 11 32  1  0  0  0  0
 12 33  1  0  0  0  0
 13 23  1  0  0  0  0
 13 14  1  0  0  0  0
 13 20  1  0  0  0  0
 14 19  1  0  0  0  0
 14 15  1  0  0  0  0
 14 50  1  0  0  0  0
 15 16  1  0  0  0  0
 15 34  1  0  0  0  0
 15 35  1  0  0  0  0
 16 17  1  0  0  0  0
 16 36  1  0  0  0  0
 16 37  1  0  0  0  0
 17 18  1  0  0  0  0
 18 19  1  0  0  0  0
 18 38  1  0  0  0  0
 18 39  1  0  0  0  0
 19 40  1  0  0  0  0
 19 41  1  0  0  0  0
 20 21  1  0  0  0  0
 20 42  1  0  0  0  0
 20 43  1  0  0  0  0
 21 22  1  0  0  0  0
 21 44  1  0  0  0  0
 21 45  1  0  0  0  0
 22 23  1  0  0  0  0
 22 46  1  0  0  0  0
 22 47  1  0  0  0  0
 23 48  1  0  0  0  0
 23 49  1  0  0  0  0
M  CHG  1  10   1
M  CHG  1  14   1
M  END
> <s_m_source_file>
AV-unprocessed.smi

> <i_m_source_file_index>
702

> <i_lp_mmshare_version>
43012

> <i_f3d_flags>
0

> <s_epik_input>
W0NIMl0xW0NIMl1PW0NIMl1bQ0gyXU4xQzIoW0NIMl1bQ0gyXVtDSDJdW0NIMl0yKVtDQEhdKFtDSDNdKVtOSF1DKD1PKVtOSF1jM1tjSF1bY0hdbltjSF1bY0hdMw==

> <s_epik_cmdline>
J2VwaWtfcHl0aG9uJywgJy1waCcsICc3LjAnLCAnLXRuJywgJzgnLCAnLW1hJywgJzIwMCcsICctbWV0YWxfYmluZGluZycsICctaW1hZScsICc8aW5maWxlLm1hZT4nLCAnLW9tYWUnLCAnPG91dGZpbGUubWFlPic=

> <r_epik_Ionization_Penalty>
1.42147

> <r_epik_Ionization_Penalty_Charging>
1.42145

> <r_epik_Ionization_Penalty_Neutral>
1.94713e-05

> <r_epik_State_Penalty>
1.44789

> <r_epik_Charging_Adjusted_Penalty>
2.86934

> <i_epik_Tot_Q>
2

> <i_epik_Tot_abs_Q>
2

> <r_epik_Metal_State_Penalty>
1.5401

> <b_epik_Metal_Only>
0

> <s_lp_Force_Field>
OPLS_2005

> <r_lp_Energy>
62.23

> <b_lp_Chiralities_Consistent>
1

> <s_lp_Variant>
AV-unprocessed.smi:702-6

> <Gold.Version>
5.8.1

> <Gold.Id.Protein>
6NUR|6NUR_protein|mol2

> <Gold.PLP.Fitness>
41.8593

> <Gold.PLP.PLP>
-29.4237

> <Gold.PLP.part.hbond>
-4.0000

> <Gold.PLP.part.metal>
0.0000

> <Gold.PLP.part.buried>
4.2315

> <Gold.PLP.part.nonpolar>
-30.7483

> <Gold.PLP.part.repulsive>
0.4400

> <Gold.PLP.ligand.clash>
0.0000

> <Gold.PLP.ligand.torsion>
1.3501

> <Gold.PLP.Chemscore.Hbond>
5.0000

> <Gold.PLP.Chemscore.CHOScore>
0.0000

> <Gold.PLP.Chemscore.Metal>
0.0000

> <Gold.Chemscore.Hbonds>
donor molecule, donor type, donor heavy atom, donor atom, acceptor molecule, acceptor atom, score
      L1  H     3    28       P1  7948  1.00
      L1  H     6    29       P1  7948  1.00
      L1  H    14    50       P1  7948  1.76
      P1  H 10752 10764       L1    17  0.61

> <Gold.PLP.Chemscore.Internal.Correction>
0.1358

> <Gold.Rescore>
     Score         DG    S(hbond)    S(metal)    S(lipo)     H(rot)  DE(clash)    DE(int)     intcor
     18.63     -24.78       3.54        0.00      96.31       1.48       3.33       2.82       ----

> <Gold.Chemscore.Fitness>
18.6317

> <Gold.Chemscore.DG>
-24.7803

> <Gold.Chemscore.ZeroCoef>
-5.4800

> <Gold.Chemscore.Hbond>
3.5380

> <Gold.Chemscore.Metal>
0.0000

> <Gold.Chemscore.Lipo>
96.3150

> <Gold.Chemscore.Internal_Hbond>
0.0000

> <Gold.Chemscore.DEClash>
3.3265

> <Gold.Chemscore.DEInternal>
2.8222

> <Gold.Chemscore.Rot>
1.4787

> <Gold.Chemscore.Internal.Correction>
   9.000000E+99

> <Gold.Chemscore.Hbonds>
donor molecule, donor type, donor heavy atom, donor atom, acceptor molecule, acceptor atom, score
      L1  H     3    28       P1  7948  0.96
      L1  H     6    29       P1  7948  0.95
      L1  H    14    50       P1  7948  0.84
      P1  H 10752 10764       L1    17  0.06

> <Gold.Chemscore.Hbond.Weighted>
-11.8169

> <Gold.Chemscore.Metal.Weighted>
-0.0000

> <Gold.Chemscore.Lipo.Weighted>
-11.2689

> <Gold.Chemscore.Internal_Hbond.Weighted>
0.0000

> <Gold.Chemscore.DEClash.Weighted>
3.3265

> <Gold.Chemscore.DEInternal.Weighted>
2.8222

> <Gold.Chemscore.Rot.Weighted>
3.7854

> <Gold.Chemscore.Internal.Correction.Weighted>
   9.000000E+99

> <Gold.Protein.RotatedTorsions>
[ 6907 6896 6895 6894 ] final -139.74 input  -60.11 | X-H torsion
[ 7974 7965 7964 7962 ] final  -14.99 input  175.53 | X-H torsion
[ 8008 7997 7996 7995 ] final    6.44 input   59.86 | X-H torsion
[ 10167 10162 10161 10158 ] final  -16.19 input  -65.29 | X-H torsion
[ 10718 10713 10712 10709 ] final   86.44 input   66.30 | X-H torsion
[ 10763 10752 10751 10750 ] final  -42.40 input  -60.55 | X-H torsion
[ 11005 11000 10999 10996 ] final -111.37 input  -57.11 | X-H torsion

> <Gold.Protein.ActiveResidues>
 VAL166  LYS551  ARG553  GLY616  TRP617  ASP618  TYR619  PRO620  LYS621  CYS622 
 ASP623  PHE694  ASN695  SER759  ASP760  ASP761  ALA762  ILE779  LEU786  VAL792 
 PHE793  MET794  SER795  GLU796  ALA797  LYS798  CYS799  TRP800  GLU811  SER814 

> <Gold.Protein.RotatedAtoms>
  151.0517  133.5618  159.2641 H   0  0  0  0  0  0  0  0  0  0  0  0  # atno 6907 bound_to 6896
  151.2627  135.0658  159.9114 H   0  0  0  0  0  0  0  0  0  0  0  0  # atno 6908 bound_to 6896
  152.5383  134.0260  159.8057 H   0  0  0  0  0  0  0  0  0  0  0  0  # atno 6909 bound_to 6896
  146.2051  140.3428  142.8410 H   0  0  0  0  0  0  0  0  0  0  0  0  # atno 7974 bound_to 7965
  154.7411  140.2749  155.6373 H   0  0  0  0  0  0  0  0  0  0  0  0  # atno 8008 bound_to 7997
  156.2874  140.2697  156.2064 H   0  0  0  0  0  0  0  0  0  0  0  0  # atno 8009 bound_to 7997
  155.0258  140.0371  157.2445 H   0  0  0  0  0  0  0  0  0  0  0  0  # atno 8010 bound_to 7997
  140.7230  143.5141  150.9713 H   0  0  0  0  0  0  0  0  0  0  0  0  # atno 10167 bound_to 10162
  157.6928  131.0216  150.2974 H   0  0  0  0  0  0  0  0  0  0  0  0  # atno 10718 bound_to 10713
  153.9784  135.6720  153.4749 H   0  0  0  0  0  0  0  0  0  0  0  0  # atno 10763 bound_to 10752
  153.0760  135.4948  154.8401 H   0  0  0  0  0  0  0  0  0  0  0  0  # atno 10764 bound_to 10752
  154.7178  135.3111  154.9056 H   0  0  0  0  0  0  0  0  0  0  0  0  # atno 10765 bound_to 10752
  141.0738  133.9335  157.2431 H   0  0  0  0  0  0  0  0  0  0  0  0  # atno 11005 bound_to 11000
  144.8773  140.7354  143.6009 LP  0  0  0  0  0  0  0  0  0  0  0  0  # atno 17320 bound_to 7965
  145.3348  139.1749  143.4517 LP  0  0  0  0  0  0  0  0  0  0  0  0  # atno 17321 bound_to 7965
  139.8856  143.7017  152.3152 LP  0  0  0  0  0  0  0  0  0  0  0  0  # atno 17342 bound_to 10162
  139.7315  144.7581  151.0795 LP  0  0  0  0  0  0  0  0  0  0  0  0  # atno 17343 bound_to 10162
  156.3495  130.3828  149.7341 LP  0  0  0  0  0  0  0  0  0  0  0  0  # atno 17370 bound_to 10713
  156.4823  130.8047  151.3060 LP  0  0  0  0  0  0  0  0  0  0  0  0  # atno 17371 bound_to 10713
  139.9551  135.0167  156.9104 LP  0  0  0  0  0  0  0  0  0  0  0  0  # atno 17394 bound_to 11000
  140.5616  134.0529  155.7401 LP  0  0  0  0  0  0  0  0  0  0  0  0  # atno 17395 bound_to 11000

$$$$
