#       Name:                AV-unprocessed.smi:3031
#       Creating user name   scv26
#       Creation time:       Fri Mar 27 16:52:00 2020


#       File generated by GOLD software.
#

@<TRIPOS>MOLECULE
AV-unprocessed.smi:3031
    53    54     1
SMALL
NO_CHARGES


@<TRIPOS>ATOM
      1 ****        -2.4209  -4.3502   1.6623 C.3            1 S1                 0.0000
      2 ****        -2.4391  -2.8891   1.3170 C.2            1 S1                 0.0000
      3 ****        -1.6363  -1.8518   1.8708 C.2            1 S1                 0.0000
      4 ****        -1.8975  -0.6652   1.3483 N.2            1 S1                 0.0000
      5 ****        -2.8672  -0.9012   0.4384 N.pl3          1 S1                 0.0000
      6 ****        -3.4069   0.1984  -0.3466 C.3            1 S1                 0.0000
      7 ****        -2.6625   0.4355  -1.6856 C.3            1 S1                 0.0000
      8 ****        -2.7790  -0.7652  -2.6378 C.3            1 S1                 0.0000
      9 ****        -1.2467   0.7713  -1.4999 N.3            1 S1                 0.0000
     10 ****        -0.9780   2.0207  -0.7880 C.3            1 S1                 0.0000
     11 ****         0.5333   2.2598  -0.6432 C.3            1 S1                 0.0000
     12 ****         0.7065   3.5832  -0.1801 O.3            1 S1                 0.0000
     13 ****         1.1738   1.3047   0.3888 C.3            1 S1                 0.0000
     14 ****         2.6363   1.3233   0.4453 N.3            1 S1                 0.0000
     15 ****         3.2530   0.7388  -0.7447 C.3            1 S1                 0.0000
     16 ****         4.7891   0.7361  -0.6540 C.3            1 S1                 0.0000
     17 ****         5.2001   0.0474   0.5225 O.3            1 S1                 0.0000
     18 ****         4.6558   0.6162   1.7087 C.3            1 S1                 0.0000
     19 ****         3.1199   0.6106   1.6232 C.3            1 S1                 0.0000
     20 ****        -3.2185  -2.2344   0.4055 C.2            1 S1                 0.0000
     21 ****        -1.5019  -4.8301   1.3256 H              1 S1                 0.0000
     22 ****        -3.2510  -4.8873   1.2029 H              1 S1                 0.0000
     23 ****        -2.4920  -4.5099   2.7383 H              1 S1                 0.0000
     24 ****        -0.8761  -1.9258   2.6344 H              1 S1                 0.0000
     25 ****        -4.4550  -0.0228  -0.5515 H              1 S1                 0.0000
     26 ****        -3.4188   1.0989   0.2676 H              1 S1                 0.0000
     27 ****        -3.1512   1.2755  -2.1809 H              1 S1                 0.0000
     28 ****        -3.8222  -1.0393  -2.7977 H              1 S1                 0.0000
     29 ****        -2.2586  -1.6418  -2.2507 H              1 S1                 0.0000
     30 ****        -2.3496  -0.5330  -3.6129 H              1 S1                 0.0000
     31 ****        -0.7778   0.7862  -2.4000 H              1 S1                 0.0000
     32 ****        -1.4263   2.8490  -1.3384 H              1 S1                 0.0000
     33 ****        -1.4357   2.0174   0.2008 H              1 S1                 0.0000
     34 ****         1.0011   2.1759  -1.6234 H              1 S1                 0.0000
     35 ****         0.3146   3.6534   0.6769 H              1 S1                 0.0000
     36 ****         0.7699   1.5510   1.3724 H              1 S1                 0.0000
     37 ****         0.8452   0.2834   0.1900 H              1 S1                 0.0000
     38 ****         2.8993  -0.2845  -0.8797 H              1 S1                 0.0000
     39 ****         2.9613   1.2901  -1.6374 H              1 S1                 0.0000
     40 ****         5.2193   0.2410  -1.5249 H              1 S1                 0.0000
     41 ****         5.1772   1.7559  -0.6412 H              1 S1                 0.0000
     42 ****         4.9907   0.0363   2.5687 H              1 S1                 0.0000
     43 ****         5.0319   1.6321   1.8402 H              1 S1                 0.0000
     44 ****         2.7097   1.0659   2.5255 H              1 S1                 0.0000
     45 ****         2.7634  -0.4207   1.6052 H              1 S1                 0.0000
     46 ****        -3.9828  -2.6040  -0.2624 H              1 S1                 0.0000
     47 ****        -1.4722   0.2107   1.5761 LP             1 S1                 0.0000
     48 ****        -0.8869   0.0509  -0.9068 LP             1 S1                 0.0000
     49 ****         0.2616   4.2216  -0.8081 LP             1 S1                 0.0000
     50 ****         1.6819   3.7962  -0.1238 LP             1 S1                 0.0000
     51 ****         2.8994   2.2868   0.4937 LP             1 S1                 0.0000
     52 ****         6.1979   0.0798   0.5805 LP             1 S1                 0.0000
     53 ****         4.9008  -0.9046   0.4574 LP             1 S1                 0.0000
@<TRIPOS>BOND
    1    1    2 1     
    2    1   21 1     
    3    1   22 1     
    4    1   23 1     
    5    2   20 2     
    6    2    3 1     
    7    3    4 2     
    8    3   24 1     
    9    4    5 1     
   10    5    6 1     
   11    5   20 1     
   12    6    7 1     
   13    6   25 1     
   14    6   26 1     
   15    7    8 1     
   16    7    9 1     
   17    7   27 1     
   18    8   28 1     
   19    8   29 1     
   20    8   30 1     
   21    9   10 1     
   22    9   31 1     
   23   10   11 1     
   24   10   32 1     
   25   10   33 1     
   26   11   12 1     
   27   11   13 1     
   28   11   34 1     
   29   12   35 1     
   30   13   14 1     
   31   13   36 1     
   32   13   37 1     
   33   14   19 1     
   34   14   15 1     
   35   15   16 1     
   36   15   38 1     
   37   15   39 1     
   38   16   17 1     
   39   16   40 1     
   40   16   41 1     
   41   17   18 1     
   42   18   19 1     
   43   18   42 1     
   44   18   43 1     
   45   19   44 1     
   46   19   45 1     
   47   20   46 1     
   48    4   47 1     
   49    9   48 1     
   50   12   49 1     
   51   12   50 1     
   52   14   51 1     
   53   17   52 1     
   54   17   53 1     
@<TRIPOS>SUBSTRUCTURE
      1 S1             1
@<TRIPOS>SET
LONE_PAIRS      STATIC     ATOMS    <user>   **** ""
7 47 48 49 50 51 52 53
DONOR_HYDROGENS      STATIC     ATOMS    <user>   **** ""
2 31 35
ATOM$BLUE        STATIC     ATOMS    COLORGROUP SYSTEM
7 47 48 49 50 51 52 53
ATOM$RED        STATIC     ATOMS    COLORGROUP SYSTEM
2 31 35
