#       Name:                AV-unprocessed.smi:2034
#       Creating user name   scv26
#       Creation time:       Fri Mar 27 10:53:53 2020


#       File generated by GOLD software.
#

@<TRIPOS>MOLECULE
AV-unprocessed.smi:2034
    58    60     1
SMALL
NO_CHARGES


@<TRIPOS>ATOM
      1 ****        -6.3914  -1.2423  -1.8220 C.3            1 S1                 0.0000
      2 ****        -5.7540  -0.3725  -0.7336 C.3            1 S1                 0.0000
      3 ****        -4.2278  -0.2576  -0.9062 C.3            1 S1                 0.0000
      4 ****        -3.6723   0.6682   0.0773 N.3            1 S1                 0.0000
      5 ****        -2.2683   0.6408   0.2261 C.ar           1 S1                 0.0000
      6 ****        -1.5982  -0.5859   0.4455 C.ar           1 S1                 0.0000
      7 ****        -0.1978  -0.5923   0.5904 C.ar           1 S1                 0.0000
      8 ****         0.5043   0.6336   0.5226 C.ar           1 S1                 0.0000
      9 ****         1.9155   0.7657   0.6386 N.am           1 S1                 0.0000
     10 ****         2.8111  -0.1174   1.1131 C.2            1 S1                 0.0000
     11 ****         2.5471  -1.2294   1.5692 O.2            1 S1                 0.0000
     12 ****         4.0565   0.3722   1.0419 N.am           1 S1                 0.0000
     13 ****         5.2586  -0.3389   1.4618 C.3            1 S1                 0.0000
     14 ****         5.7406  -1.3191   0.3800 C.3            1 S1                 0.0000
     15 ****         6.9512  -2.1501   0.8002 C.3            1 S1                 0.0000
     16 ****         7.5570  -2.5018  -0.5389 C.3            1 S1                 0.0000
     17 ****         7.3404  -1.2128  -1.3260 C.3            1 S1                 0.0000
     18 ****         6.1663  -0.6131  -0.7836 O.3            1 S1                 0.0000
     19 ****        -0.2490   1.8024   0.2956 C.ar           1 S1                 0.0000
     20 ****        -1.5912   1.8130   0.1574 N.ar           1 S1                 0.0000
     21 ****        -4.3410   1.9678   0.0871 C.3            1 S1                 0.0000
     22 ****        -5.8642   1.7888   0.2300 C.3            1 S1                 0.0000
     23 ****        -6.6139   3.1207   0.1224 C.3            1 S1                 0.0000
     24 ****        -6.3334   0.9274  -0.8036 O.3            1 S1                 0.0000
     25 ****        -5.9857  -2.2540  -1.8034 H              1 S1                 0.0000
     26 ****        -6.2115  -0.8275  -2.8142 H              1 S1                 0.0000
     27 ****        -7.4701  -1.3138  -1.6812 H              1 S1                 0.0000
     28 ****        -5.9809  -0.8137   0.2386 H              1 S1                 0.0000
     29 ****        -3.7871  -1.2497  -0.8220 H              1 S1                 0.0000
     30 ****        -3.9890   0.1104  -1.9051 H              1 S1                 0.0000
     31 ****        -2.1378  -1.5183   0.5153 H              1 S1                 0.0000
     32 ****         0.3003  -1.5369   0.7401 H              1 S1                 0.0000
     33 ****         2.2873   1.6615   0.3585 H              1 S1                 0.0000
     34 ****         4.1864   1.2952   0.6545 H              1 S1                 0.0000
     35 ****         6.0363   0.3946   1.6763 H              1 S1                 0.0000
     36 ****         5.0680  -0.8703   2.3958 H              1 S1                 0.0000
     37 ****         4.9355  -1.9953   0.0872 H              1 S1                 0.0000
     38 ****         7.6521  -1.5477   1.3800 H              1 S1                 0.0000
     39 ****         6.6804  -3.0256   1.3914 H              1 S1                 0.0000
     40 ****         8.6060  -2.7919  -0.4746 H              1 S1                 0.0000
     41 ****         7.0016  -3.3210  -0.9974 H              1 S1                 0.0000
     42 ****         8.1767  -0.5295  -1.1759 H              1 S1                 0.0000
     43 ****         7.2379  -1.3923  -2.3963 H              1 S1                 0.0000
     44 ****         0.2385   2.7638   0.2253 H              1 S1                 0.0000
     45 ****        -3.9703   2.5753   0.9138 H              1 S1                 0.0000
     46 ****        -4.1083   2.4976  -0.8379 H              1 S1                 0.0000
     47 ****        -6.0916   1.3409   1.1992 H              1 S1                 0.0000
     48 ****        -6.2964   3.8139   0.9016 H              1 S1                 0.0000
     49 ****        -7.6887   2.9715   0.2274 H              1 S1                 0.0000
     50 ****        -6.4364   3.5966  -0.8424 H              1 S1                 0.0000
     51 ****        -3.9210   0.2930   0.9702 LP             1 S1                 0.0000
     52 ****         1.5978  -1.5414   1.6082 LP             1 S1                 0.0000
     53 ****         3.2819  -1.8212   1.9008 LP             1 S1                 0.0000
     54 ****         6.3638   0.3362  -0.5393 LP             1 S1                 0.0000
     55 ****         5.4378  -0.6365  -1.4683 LP             1 S1                 0.0000
     56 ****        -2.0791   2.6728   0.0066 LP             1 S1                 0.0000
     57 ****        -7.3264   0.8409  -0.7232 LP             1 S1                 0.0000
     58 ****        -6.1047   1.3335  -1.6883 LP             1 S1                 0.0000
@<TRIPOS>BOND
    1    1    2 1     
    2    1   25 1     
    3    1   26 1     
    4    1   27 1     
    5    2   24 1     
    6    2    3 1     
    7    2   28 1     
    8    3    4 1     
    9    3   29 1     
   10    3   30 1     
   11    4    5 1     
   12    4   21 1     
   13    5   20 ar    
   14    5    6 ar    
   15    6    7 ar    
   16    6   31 1     
   17    7    8 ar    
   18    7   32 1     
   19    8    9 1     
   20    8   19 ar    
   21    9   10 am    
   22    9   33 1     
   23   10   11 2     
   24   10   12 am    
   25   12   13 1     
   26   12   34 1     
   27   13   14 1     
   28   13   35 1     
   29   13   36 1     
   30   14   18 1     
   31   14   15 1     
   32   14   37 1     
   33   15   16 1     
   34   15   38 1     
   35   15   39 1     
   36   16   17 1     
   37   16   40 1     
   38   16   41 1     
   39   17   18 1     
   40   17   42 1     
   41   17   43 1     
   42   19   20 ar    
   43   19   44 1     
   44   21   22 1     
   45   21   45 1     
   46   21   46 1     
   47   22   23 1     
   48   22   24 1     
   49   22   47 1     
   50   23   48 1     
   51   23   49 1     
   52   23   50 1     
   53    4   51 1     
   54   11   52 1     
   55   11   53 1     
   56   18   54 1     
   57   18   55 1     
   58   20   56 1     
   59   24   57 1     
   60   24   58 1     
@<TRIPOS>SUBSTRUCTURE
      1 S1             1
@<TRIPOS>SET
LONE_PAIRS      STATIC     ATOMS    <user>   **** ""
8 51 52 53 54 55 56 57 58
DONOR_HYDROGENS      STATIC     ATOMS    <user>   **** ""
2 33 34
ATOM$BLUE        STATIC     ATOMS    COLORGROUP SYSTEM
8 51 52 53 54 55 56 57 58
ATOM$RED        STATIC     ATOMS    COLORGROUP SYSTEM
2 33 34
