#       Name:                AV-unprocessed.smi:3250
#       Creating user name   scv26
#       Creation time:       Fri Mar 27 18:32:21 2020


#       File generated by GOLD software.
#

@<TRIPOS>MOLECULE
AV-unprocessed.smi:3250
    45    46     1
SMALL
NO_CHARGES


@<TRIPOS>ATOM
      1 ****        -3.1323   2.3020   2.8353 C.3            1 S1                 0.0000
      2 ****        -2.1965   2.9724   1.8196 C.3            1 S1                 0.0000
      3 ****        -2.3788   2.4468   0.4400 N.4            1 S1                 1.0000
      4 ****        -1.8552   3.3540  -0.6103 C.3            1 S1                 0.0000
      5 ****        -0.3230   3.2547  -0.7171 C.3            1 S1                 0.0000
      6 ****         0.0480   1.9036  -0.9631 O.3            1 S1                 0.0000
      7 ****        -0.3393   1.0263   0.0904 C.3            1 S1                 0.0000
      8 ****         0.1640  -0.3823  -0.2562 C.3            1 S1                 0.0000
      9 ****         1.6148  -0.4688  -0.1799 N.pl3          1 S1                 0.0000
     10 ****         2.3349  -1.6136  -0.4663 C.ar           1 S1                 0.0000
     11 ****         3.6699  -1.5509  -0.3537 N.pl3          1 S1                 1.0000
     12 ****         4.4208  -2.6474  -0.6219 C.ar           1 S1                 0.0000
     13 ****         3.8071  -3.8491  -1.0182 C.ar           1 S1                 0.0000
     14 ****         2.4061  -3.8455  -1.1191 C.ar           1 S1                 0.0000
     15 ****         1.7500  -4.9944  -1.5102 O.3            1 S1                 0.0000
     16 ****         0.3328  -4.9531  -1.6370 C.3            1 S1                 0.0000
     17 ****         1.6915  -2.7292  -0.8397 N.ar           1 S1                 0.0000
     18 ****        -1.8782   1.0643   0.2238 C.3            1 S1                 0.0000
     19 ****        -3.0484   2.7865   3.8083 H              1 S1                 0.0000
     20 ****        -2.8950   1.2485   2.9805 H              1 S1                 0.0000
     21 ****        -4.1739   2.3744   2.5204 H              1 S1                 0.0000
     22 ****        -2.4217   4.0395   1.8215 H              1 S1                 0.0000
     23 ****        -1.1592   2.8807   2.1413 H              1 S1                 0.0000
     24 ****        -2.3011   3.0684  -1.5639 H              1 S1                 0.0000
     25 ****        -2.1663   4.3825  -0.4238 H              1 S1                 0.0000
     26 ****         0.0343   3.8717  -1.5415 H              1 S1                 0.0000
     27 ****         0.1638   3.6228   0.1871 H              1 S1                 0.0000
     28 ****         0.1234   1.3453   1.0257 H              1 S1                 0.0000
     29 ****        -0.2562  -1.1055   0.4437 H              1 S1                 0.0000
     30 ****        -0.1709  -0.6695  -1.2538 H              1 S1                 0.0000
     31 ****         2.1305   0.3486   0.1123 H              1 S1                 0.0000
     32 ****         5.4885  -2.5266  -0.5108 H              1 S1                 0.0000
     33 ****         4.3869  -4.7340  -1.2373 H              1 S1                 0.0000
     34 ****        -0.0288  -5.9279  -1.9645 H              1 S1                 0.0000
     35 ****         0.0206  -4.2186  -2.3810 H              1 S1                 0.0000
     36 ****        -0.1475  -4.7248  -0.6845 H              1 S1                 0.0000
     37 ****        -2.2145   0.3983   1.0172 H              1 S1                 0.0000
     38 ****        -2.3284   0.6859  -0.6951 H              1 S1                 0.0000
     39 ****        -3.3793   2.4166   0.3025 H              1 S1                 0.0000
     40 ****         4.1323  -0.6874  -0.0681 H              1 S1                 0.0000
     41 ****         1.0415   1.8587  -1.0678 LP             1 S1                 0.0000
     42 ****        -0.3904   1.6005  -1.8092 LP             1 S1                 0.0000
     43 ****         1.9664  -5.7023  -0.8379 LP             1 S1                 0.0000
     44 ****         2.1193  -5.2573  -2.4016 LP             1 S1                 0.0000
     45 ****         0.6940  -2.7370  -0.9112 LP             1 S1                 0.0000
@<TRIPOS>BOND
    1    1    2 1     
    2    1   19 1     
    3    1   20 1     
    4    1   21 1     
    5    2    3 1     
    6    2   22 1     
    7    2   23 1     
    8    3   18 1     
    9    3    4 1     
   10    3   39 1     
   11    4    5 1     
   12    4   24 1     
   13    4   25 1     
   14    5    6 1     
   15    5   26 1     
   16    5   27 1     
   17    6    7 1     
   18    7    8 1     
   19    7   18 1     
   20    7   28 1     
   21    8    9 1     
   22    8   29 1     
   23    8   30 1     
   24    9   10 1     
   25    9   31 1     
   26   10   17 ar    
   27   10   11 ar    
   28   11   12 ar    
   29   11   40 1     
   30   12   13 ar    
   31   12   32 1     
   32   13   14 ar    
   33   13   33 1     
   34   14   15 1     
   35   14   17 ar    
   36   15   16 1     
   37   16   34 1     
   38   16   35 1     
   39   16   36 1     
   40   18   37 1     
   41   18   38 1     
   42    6   41 1     
   43    6   42 1     
   44   15   43 1     
   45   15   44 1     
   46   17   45 1     
@<TRIPOS>SUBSTRUCTURE
      1 S1             1
@<TRIPOS>SET
LONE_PAIRS      STATIC     ATOMS    <user>   **** ""
5 41 42 43 44 45
DONOR_HYDROGENS      STATIC     ATOMS    <user>   **** ""
3 39 31 40
ATOM$BLUE        STATIC     ATOMS    COLORGROUP SYSTEM
5 41 42 43 44 45
ATOM$RED        STATIC     ATOMS    COLORGROUP SYSTEM
3 39 31 40
