#       Name:                AV-unprocessed.smi:52
#       Creating user name   scv26
#       Creation time:       Thu Mar 26 16:38:09 2020


#       File generated by GOLD software.
#

@<TRIPOS>MOLECULE
AV-unprocessed.smi:52
    36    37     1
SMALL
NO_CHARGES


@<TRIPOS>ATOM
      1 ****        -5.4420   0.8314  -0.9594 O.co2          1 S1                 0.0000
      2 ****        -4.4621   0.1499  -1.3335 C.2            1 S1                 0.0000
      3 ****        -4.6014  -0.9775  -1.8568 O.co2          1 S1                -1.0000
      4 ****        -3.0925   0.6941  -1.1472 C.2            1 S1                 0.0000
      5 ****        -2.7561   1.9007  -0.5875 C.2            1 S1                 0.0000
      6 ****        -1.3937   2.0329  -0.5878 O.3            1 S1                 0.0000
      7 ****        -0.9468   0.8822  -1.1597 C.2            1 S1                 0.0000
      8 ****         0.5236   0.6681  -1.3045 C.3            1 S1                 0.0000
      9 ****         0.9806   0.3440   0.0675 N.4            1 S1                 1.0000
     10 ****         2.4426   0.4476   0.2524 C.3            1 S1                 0.0000
     11 ****         2.7549  -0.4502   1.4449 C.3            1 S1                 0.0000
     12 ****         1.7956  -1.6177   1.2347 C.3            1 S1                 0.0000
     13 ****         1.4976  -2.2756   2.4479 O.3            1 S1                 0.0000
     14 ****         0.5553  -0.9796   0.5917 C.3            1 S1                 0.0000
     15 ****        -1.9195   0.0470  -1.5148 N.2            1 S1                 0.0000
     16 ****         2.2409  -2.3298   0.5384 H              1 S1                 0.0000
     17 ****        -3.3275   2.7164  -0.1690 H              1 S1                 0.0000
     18 ****         0.7373  -0.1359  -2.0102 H              1 S1                 0.0000
     19 ****         0.9875   1.5872  -1.6646 H              1 S1                 0.0000
     20 ****         2.9539   0.0689  -0.6344 H              1 S1                 0.0000
     21 ****         2.7561   1.4801   0.4093 H              1 S1                 0.0000
     22 ****         3.8001  -0.7589   1.4852 H              1 S1                 0.0000
     23 ****         2.5208   0.0769   2.3717 H              1 S1                 0.0000
     24 ****         0.9078  -2.9923   2.2680 H              1 S1                 0.0000
     25 ****        -0.2375  -0.8135   1.3225 H              1 S1                 0.0000
     26 ****         0.1522  -1.6288  -0.1875 H              1 S1                 0.0000
     27 ****         0.5722   1.0328   0.6833 H              1 S1                 0.0000
     28 ****        -6.3703   0.4780  -1.0754 LP             1 S1                 0.0000
     29 ****        -5.2971   1.7296  -0.5444 LP             1 S1                 0.0000
     30 ****        -5.5167  -1.3588  -1.9867 LP             1 S1                 0.0000
     31 ****        -3.7975  -1.4976  -2.1454 LP             1 S1                 0.0000
     32 ****        -1.0460   2.1234   0.3454 LP             1 S1                 0.0000
     33 ****        -1.1147   2.8281  -1.1261 LP             1 S1                 0.0000
     34 ****         1.0641  -1.6341   3.0807 LP             1 S1                 0.0000
     35 ****         2.3402  -2.6277   2.8553 LP             1 S1                 0.0000
     36 ****        -1.8268  -0.8485  -1.9501 LP             1 S1                 0.0000
@<TRIPOS>BOND
    1    1    2 ar    
    2    2    3 ar    
    3    2    4 1     
    4    4   15 1     
    5    4    5 2     
    6    5    6 1     
    7    5   17 1     
    8    6    7 1     
    9    7    8 1     
   10    7   15 2     
   11    8    9 1     
   12    8   18 1     
   13    8   19 1     
   14    9   14 1     
   15    9   10 1     
   16    9   27 1     
   17   10   11 1     
   18   10   20 1     
   19   10   21 1     
   20   11   12 1     
   21   11   22 1     
   22   11   23 1     
   23   12   16 1     
   24   12   13 1     
   25   12   14 1     
   26   13   24 1     
   27   14   25 1     
   28   14   26 1     
   29    1   28 1     
   30    1   29 1     
   31    3   30 1     
   32    3   31 1     
   33    6   32 1     
   34    6   33 1     
   35   13   34 1     
   36   13   35 1     
   37   15   36 1     
@<TRIPOS>SUBSTRUCTURE
      1 S1             1
@<TRIPOS>SET
LONE_PAIRS      STATIC     ATOMS    <user>   **** ""
9 28 29 30 31 32 33 34 35 36
DONOR_HYDROGENS      STATIC     ATOMS    <user>   **** ""
2 27 24
ATOM$BLUE        STATIC     ATOMS    COLORGROUP SYSTEM
9 28 29 30 31 32 33 34 35 36
ATOM$RED        STATIC     ATOMS    COLORGROUP SYSTEM
2 27 24
