AV-unprocessed.smi:2038|AV-procd|sdf|8280|dock8
  -GOLD-   2272010553D 1   1.00000     0.00000
 Structure written by MMmdl.
 33 34  0  0  0  0  0  0  0  0  1 V2000
  150.1152  135.1196  156.6875 O   0  0  0  0  0  0  0  0  0  0  0  0
  150.0488  135.7413  155.6267 C   0  0  0  0  0  0  0  0  0  0  0  0
  149.7828  135.1836  154.4312 N   0  0  0  0  0  0  0  0  0  0  0  0
  149.5088  133.8212  154.1349 C   0  0  0  0  0  0  0  0  0  0  0  0
  150.2096  132.8313  154.8526 C   0  0  0  0  0  0  0  0  0  0  0  0
  149.9707  131.4746  154.5632 C   0  0  0  0  0  0  0  0  0  0  0  0
  149.0438  131.1488  153.5536 C   0  0  0  0  0  0  0  0  0  0  0  0
  148.8130  129.8177  153.2745 O   0  0  0  0  0  0  0  0  0  0  0  0
  147.7625  129.4849  152.3704 C   0  0  0  0  0  0  0  0  0  0  0  0
  147.9164  128.0238  151.9320 C   0  0  0  0  0  0  0  0  0  0  0  0
  149.1566  127.8257  151.4869 F   0  0  0  0  0  0  0  0  0  0  0  0
  147.6966  127.2078  152.9626 F   0  0  0  0  0  0  0  0  0  0  0  0
  147.0602  127.7448  150.9495 F   0  0  0  0  0  0  0  0  0  0  0  0
  148.3767  132.0933  152.8455 N   0  0  0  0  0  0  0  0  0  0  0  0
  148.6082  133.3930  153.1294 C   0  0  0  0  0  0  0  0  0  0  0  0
  150.2890  137.2556  155.6161 C   0  0  2  0  0  0  0  0  0  0  0  0
  149.1673  138.0594  154.9320 C   0  0  0  0  0  0  0  0  0  0  0  0
  149.8050  138.5416  153.6442 C   0  0  0  0  0  0  0  0  0  0  0  0
  151.2676  138.6583  154.0473 C   0  0  0  0  0  0  0  0  0  0  0  0
  151.4702  137.5113  154.8578 O   0  0  0  0  0  0  0  0  0  0  0  0
  149.8439  135.7992  153.6333 H   0  0  0  0  0  0  0  0  0  0  0  0
  150.9188  133.1046  155.6203 H   0  0  0  0  0  0  0  0  0  0  0  0
  150.4900  130.6979  155.1049 H   0  0  0  0  0  0  0  0  0  0  0  0
  146.7921  129.6227  152.8505 H   0  0  0  0  0  0  0  0  0  0  0  0
  147.7976  130.1359  151.4951 H   0  0  0  0  0  0  0  0  0  0  0  0
  148.0676  134.0930  152.5116 H   0  0  0  0  0  0  0  0  0  0  0  0
  150.4342  137.6228  156.6337 H   0  0  0  0  0  0  0  0  0  0  0  0
  148.2561  137.4881  154.7481 H   0  0  0  0  0  0  0  0  0  0  0  0
  148.8954  138.9123  155.5553 H   0  0  0  0  0  0  0  0  0  0  0  0
  149.6916  137.7878  152.8638 H   0  0  0  0  0  0  0  0  0  0  0  0
  149.3840  139.4795  153.2813 H   0  0  0  0  0  0  0  0  0  0  0  0
  151.9428  138.6709  153.1914 H   0  0  0  0  0  0  0  0  0  0  0  0
  151.4388  139.5592  154.6386 H   0  0  0  0  0  0  0  0  0  0  0  0
  1  2  2  0  0  0  0
  2  3  1  0  0  0  0
  2 16  1  0  0  0  0
  3  4  1  0  0  0  0
  3 21  1  0  0  0  0
  4 15  1  0  0  0  0
  4  5  2  0  0  0  0
  5  6  1  0  0  0  0
  5 22  1  0  0  0  0
  6  7  2  0  0  0  0
  6 23  1  0  0  0  0
  7  8  1  0  0  0  0
  7 14  1  0  0  0  0
  8  9  1  0  0  0  0
  9 10  1  0  0  0  0
  9 24  1  0  0  0  0
  9 25  1  0  0  0  0
 10 11  1  0  0  0  0
 10 12  1  0  0  0  0
 10 13  1  0  0  0  0
 14 15  2  0  0  0  0
 15 26  1  0  0  0  0
 16 20  1  0  0  0  0
 16 17  1  0  0  0  0
 16 27  1  0  0  0  0
 17 18  1  0  0  0  0
 17 28  1  0  0  0  0
 17 29  1  0  0  0  0
 18 19  1  0  0  0  0
 18 30  1  0  0  0  0
 18 31  1  0  0  0  0
 19 20  1  0  0  0  0
 19 32  1  0  0  0  0
 19 33  1  0  0  0  0
M  END
> <s_m_source_file>
AV-unprocessed.smi

> <i_m_source_file_index>
2038

> <i_lp_mmshare_version>
43012

> <i_f3d_flags>
0

> <s_epik_input>
TzFbQ0gyXVtDSDJdW0NIMl1bQ0BIXTFDKD1PKVtOSF1jMltjSF1bY0hdYyhuW2NIXTIpT1tDSDJdQyhGKShGKUY=

> <s_epik_cmdline>
J2VwaWtfcHl0aG9uJywgJy1waCcsICc3LjAnLCAnLXRuJywgJzgnLCAnLW1hJywgJzIwMCcsICctbWV0YWxfYmluZGluZycsICctaW1hZScsICc8aW5maWxlLm1hZT4nLCAnLW9tYWUnLCAnPG91dGZpbGUubWFlPic=

> <r_lp_tautomer_probability>
1

> <r_epik_Ionization_Penalty>
2.73305e-06

> <r_epik_Ionization_Penalty_Charging>
0

> <r_epik_Ionization_Penalty_Neutral>
2.73305e-06

> <r_epik_State_Penalty>
-0

> <r_epik_Charging_Adjusted_Penalty>
0

> <i_epik_Tot_Q>
0

> <i_epik_Tot_abs_Q>
0

> <r_epik_Metal_State_Penalty>
-0

> <b_epik_Metal_Only>
0

> <s_lp_Force_Field>
OPLS_2005

> <r_lp_Energy>
22.8429

> <b_lp_Chiralities_Consistent>
1

> <s_lp_Variant>
AV-unprocessed.smi:2038-1

> <Gold.Version>
5.8.1

> <Gold.Id.Protein>
6NUR|6NUR_protein|mol2

> <Gold.PLP.Fitness>
39.8419

> <Gold.PLP.PLP>
-34.2942

> <Gold.PLP.part.hbond>
-2.0000

> <Gold.PLP.part.metal>
0.0000

> <Gold.PLP.part.buried>
-6.0426

> <Gold.PLP.part.nonpolar>
-27.5102

> <Gold.PLP.part.repulsive>
0.3307

> <Gold.PLP.ligand.clash>
0.0000

> <Gold.PLP.ligand.torsion>
0.4912

> <Gold.PLP.Chemscore.Hbond>
1.1698

> <Gold.PLP.Chemscore.CHOScore>
1.0000

> <Gold.PLP.Chemscore.Metal>
0.0000

> <Gold.Chemscore.Hbonds>
donor molecule, donor type, donor heavy atom, donor atom, acceptor molecule, acceptor atom, score
      L1  H     3    21       P1  7948  0.60
      L1  C    15    26       P1  7948  0.74

> <Gold.PLP.Chemscore.Internal.Correction>
0.0208

> <Gold.Rescore>
     Score         DG    S(hbond)    S(metal)    S(lipo)     H(rot)  DE(clash)    DE(int)     intcor
     10.30     -12.01       1.37        0.00      53.87       1.69       0.01       1.71       ----

> <Gold.Chemscore.Fitness>
10.2983

> <Gold.Chemscore.DG>
-12.0123

> <Gold.Chemscore.ZeroCoef>
-5.4800

> <Gold.Chemscore.Hbond>
1.3654

> <Gold.Chemscore.Metal>
0.0000

> <Gold.Chemscore.Lipo>
53.8741

> <Gold.Chemscore.Internal_Hbond>
0.0000

> <Gold.Chemscore.DEClash>
0.0078

> <Gold.Chemscore.DEInternal>
1.7062

> <Gold.Chemscore.Rot>
1.6919

> <Gold.Chemscore.Internal.Correction>
   9.000000E+99

> <Gold.Chemscore.Hbonds>
donor molecule, donor type, donor heavy atom, donor atom, acceptor molecule, acceptor atom, score
      L1  H     3    21       P1  7948  0.06
      P1  H 10752 10764       L1    20  0.01

> <Gold.Chemscore.Hbond.Weighted>
-4.5603

> <Gold.Chemscore.Metal.Weighted>
-0.0000

> <Gold.Chemscore.Lipo.Weighted>
-6.3033

> <Gold.Chemscore.Internal_Hbond.Weighted>
0.0000

> <Gold.Chemscore.DEClash.Weighted>
0.0078

> <Gold.Chemscore.DEInternal.Weighted>
1.7062

> <Gold.Chemscore.Rot.Weighted>
4.3313

> <Gold.Chemscore.Internal.Correction.Weighted>
   9.000000E+99

> <Gold.Protein.RotatedTorsions>
[ 6907 6896 6895 6894 ] final  141.07 input  -60.11 | X-H torsion
[ 7974 7965 7964 7962 ] final    8.73 input  175.53 | X-H torsion
[ 8008 7997 7996 7995 ] final  -60.23 input   59.86 | X-H torsion
[ 10167 10162 10161 10158 ] final -150.59 input  -65.29 | X-H torsion
[ 10718 10713 10712 10709 ] final  -80.28 input   66.30 | X-H torsion
[ 10763 10752 10751 10750 ] final  -43.46 input  -60.55 | X-H torsion
[ 11005 11000 10999 10996 ] final   91.79 input  -57.11 | X-H torsion

> <Gold.Protein.ActiveResidues>
 VAL166  LYS551  ARG553  GLY616  TRP617  ASP618  TYR619  PRO620  LYS621  CYS622 
 ASP623  PHE694  ASN695  SER759  ASP760  ASP761  ALA762  ILE779  LEU786  VAL792 
 PHE793  MET794  SER795  GLU796  ALA797  LYS798  CYS799  TRP800  GLU811  SER814 

> <Gold.Protein.RotatedAtoms>
  152.2354  133.5092  159.5239 H   0  0  0  0  0  0  0  0  0  0  0  0  # atno 6907 bound_to 6896
  150.7049  134.1160  159.4026 H   0  0  0  0  0  0  0  0  0  0  0  0  # atno 6908 bound_to 6896
  151.9081  135.0350  160.0563 H   0  0  0  0  0  0  0  0  0  0  0  0  # atno 6909 bound_to 6896
  146.2412  139.9889  142.8428 H   0  0  0  0  0  0  0  0  0  0  0  0  # atno 7974 bound_to 7965
  154.4389  140.1044  156.6241 H   0  0  0  0  0  0  0  0  0  0  0  0  # atno 8008 bound_to 7997
  155.5675  140.3488  155.4488 H   0  0  0  0  0  0  0  0  0  0  0  0  # atno 8009 bound_to 7997
  156.0414  140.1283  157.0141 H   0  0  0  0  0  0  0  0  0  0  0  0  # atno 8010 bound_to 7997
  139.7341  143.8762  152.2543 H   0  0  0  0  0  0  0  0  0  0  0  0  # atno 10167 bound_to 10162
  156.0073  130.4570  150.3776 H   0  0  0  0  0  0  0  0  0  0  0  0  # atno 10718 bound_to 10713
  153.9959  135.6699  153.4756 H   0  0  0  0  0  0  0  0  0  0  0  0  # atno 10763 bound_to 10752
  153.0684  135.4988  154.8247 H   0  0  0  0  0  0  0  0  0  0  0  0  # atno 10764 bound_to 10752
  154.7081  135.3092  154.9201 H   0  0  0  0  0  0  0  0  0  0  0  0  # atno 10765 bound_to 10752
  139.8833  134.8695  156.3479 H   0  0  0  0  0  0  0  0  0  0  0  0  # atno 11005 bound_to 11000
  145.1522  140.9629  143.4426 LP  0  0  0  0  0  0  0  0  0  0  0  0  # atno 17320 bound_to 7965
  145.0195  139.3437  143.6079 LP  0  0  0  0  0  0  0  0  0  0  0  0  # atno 17321 bound_to 7965
  139.8694  144.7076  150.9005 LP  0  0  0  0  0  0  0  0  0  0  0  0  # atno 17342 bound_to 10162
  140.7776  143.3751  151.1578 LP  0  0  0  0  0  0  0  0  0  0  0  0  # atno 17343 bound_to 10162
  157.1858  131.0403  151.2725 LP  0  0  0  0  0  0  0  0  0  0  0  0  # atno 17370 bound_to 10713
  157.4106  130.7383  149.6836 LP  0  0  0  0  0  0  0  0  0  0  0  0  # atno 17371 bound_to 10713
  140.9614  133.7386  156.0406 LP  0  0  0  0  0  0  0  0  0  0  0  0  # atno 17394 bound_to 11000
  140.7985  134.3536  157.5446 LP  0  0  0  0  0  0  0  0  0  0  0  0  # atno 17395 bound_to 11000

$$$$
