AV-unprocessed.smi:37|AV-procd|sdf|313|dock1
  -GOLD-   2262016133D 1   1.00000     0.00000
 Structure written by MMmdl.
 44 45  0  0  0  0  0  0  0  0  1 V2000
  146.3021  134.2603  162.6540 C   0  0  0  0  0  0  0  0  0  0  0  0
  147.4818  135.2434  162.6845 C   0  0  0  0  0  0  0  0  0  0  0  0
  147.5537  136.1497  161.4540 C   0  0  0  0  0  0  0  0  0  0  0  0
  147.3090  137.3561  161.5087 O   0  0  0  0  0  0  0  0  0  0  0  0
  147.9030  135.4687  160.3507 O   0  0  0  0  0  0  0  0  0  0  0  0
  147.6422  136.0091  159.0635 C   0  0  0  0  0  0  0  0  0  0  0  0
  148.1514  135.0297  157.9953 C   0  0  2  0  0  0  0  0  0  0  0  0
  149.5771  135.0320  157.9176 O   0  0  0  0  0  0  0  0  0  0  0  0
  150.0013  134.8909  156.5908 C   0  0  2  0  0  0  0  0  0  0  0  0
  150.6941  136.1632  156.1398 N   0  0  0  0  0  0  0  0  0  0  0  0
  150.2419  136.9215  155.0650 C   0  0  0  0  0  0  0  0  0  0  0  0
  150.8699  138.0416  154.6364 C   0  0  0  0  0  0  0  0  0  0  0  0
  150.3776  138.7165  153.5839 F   0  0  0  0  0  0  0  0  0  0  0  0
  152.0762  138.5213  155.3036 C   0  0  0  0  0  0  0  0  0  0  0  0
  152.7158  139.5222  154.9872 O   0  0  0  0  0  0  0  0  0  0  0  0
  152.4890  137.7359  156.3833 N   0  0  0  0  0  0  0  0  0  0  0  0
  151.8529  136.5779  156.8333 C   0  0  0  0  0  0  0  0  0  0  0  0
  152.3090  135.9579  157.7931 O   0  0  0  0  0  0  0  0  0  0  0  0
  148.7479  134.6391  155.7386 C   0  0  1  0  0  0  0  0  0  0  0  0
  148.4081  132.6799  155.6179 Br  0  0  0  0  0  0  0  0  0  0  0  0
  147.6556  135.2895  156.5678 C   0  0  2  0  0  0  0  0  0  0  0  0
  147.6000  136.6889  156.3129 O   0  0  0  0  0  0  0  0  0  0  0  0
  147.1203  137.1605  155.1509 C   0  0  0  0  0  0  0  0  0  0  0  0
  146.5093  136.5093  154.3039 O   0  0  0  0  0  0  0  0  0  0  0  0
  147.4373  138.6402  154.9456 C   0  0  0  0  0  0  0  0  0  0  0  0
  147.0059  139.1449  153.5615 C   0  0  0  0  0  0  0  0  0  0  0  0
  153.3188  138.0302  156.8776 H   0  0  0  0  0  0  0  0  0  0  0  0
  146.3055  133.6298  163.5431 H   0  0  0  0  0  0  0  0  0  0  0  0
  146.3536  133.6036  161.7847 H   0  0  0  0  0  0  0  0  0  0  0  0
  145.3466  134.7853  162.6262 H   0  0  0  0  0  0  0  0  0  0  0  0
  147.4149  135.8708  163.5736 H   0  0  0  0  0  0  0  0  0  0  0  0
  148.4172  134.6884  162.7595 H   0  0  0  0  0  0  0  0  0  0  0  0
  146.5770  136.1926  158.9177 H   0  0  0  0  0  0  0  0  0  0  0  0
  148.1484  136.9700  158.9698 H   0  0  0  0  0  0  0  0  0  0  0  0
  147.8584  134.0179  158.2791 H   0  0  0  0  0  0  0  0  0  0  0  0
  150.7592  134.1087  156.5167 H   0  0  0  0  0  0  0  0  0  0  0  0
  149.3578  136.6222  154.5240 H   0  0  0  0  0  0  0  0  0  0  0  0
  148.8343  135.0275  154.7234 H   0  0  0  0  0  0  0  0  0  0  0  0
  146.6784  134.8341  156.3999 H   0  0  0  0  0  0  0  0  0  0  0  0
  146.9402  139.2178  155.7252 H   0  0  0  0  0  0  0  0  0  0  0  0
  148.5093  138.7907  155.0749 H   0  0  0  0  0  0  0  0  0  0  0  0
  147.3055  140.1833  153.4211 H   0  0  0  0  0  0  0  0  0  0  0  0
  145.9233  139.0977  153.4386 H   0  0  0  0  0  0  0  0  0  0  0  0
  147.4628  138.5580  152.7638 H   0  0  0  0  0  0  0  0  0  0  0  0
  1  2  1  0  0  0  0
  1 28  1  0  0  0  0
  1 29  1  0  0  0  0
  1 30  1  0  0  0  0
  2  3  1  0  0  0  0
  2 31  1  0  0  0  0
  2 32  1  0  0  0  0
  3  4  2  0  0  0  0
  3  5  1  0  0  0  0
  5  6  1  0  0  0  0
  6  7  1  0  0  0  0
  6 33  1  0  0  0  0
  6 34  1  0  0  0  0
  7 21  1  0  0  0  0
  7  8  1  0  0  0  0
  7 35  1  0  0  0  0
  8  9  1  0  0  0  0
  9 10  1  0  0  0  0
  9 19  1  0  0  0  0
  9 36  1  0  0  0  0
 10 17  1  0  0  0  0
 10 11  1  0  0  0  0
 11 12  2  0  0  0  0
 11 37  1  0  0  0  0
 12 13  1  0  0  0  0
 12 14  1  0  0  0  0
 14 15  2  0  0  0  0
 14 16  1  0  0  0  0
 16 27  1  0  0  0  0
 16 17  1  0  0  0  0
 17 18  2  0  0  0  0
 19 20  1  0  0  0  0
 19 21  1  0  0  0  0
 19 38  1  0  0  0  0
 21 22  1  0  0  0  0
 21 39  1  0  0  0  0
 22 23  1  0  0  0  0
 23 24  2  0  0  0  0
 23 25  1  0  0  0  0
 25 26  1  0  0  0  0
 25 40  1  0  0  0  0
 25 41  1  0  0  0  0
 26 42  1  0  0  0  0
 26 43  1  0  0  0  0
 26 44  1  0  0  0  0
M  END
> <s_m_source_file>
AV-unprocessed.smi

> <i_m_source_file_index>
37

> <i_lp_mmshare_version>
43012

> <i_f3d_flags>
0

> <s_epik_input>
W0NIM11bQ0gyXUMoPU8pT1tDSDJdW0NAQEhdMU9bQ0BASF0objJbY0hdYyhGKWMoPU8pW25IXWMyPU8pW0NAQEhdKEJyKVtDQEhdMU9DKD1PKVtDSDJdW0NIM10=

> <s_epik_cmdline>
J2VwaWtfcHl0aG9uJywgJy1waCcsICc3LjAnLCAnLXRuJywgJzgnLCAnLW1hJywgJzIwMCcsICctbWV0YWxfYmluZGluZycsICctaW1hZScsICc8aW5maWxlLm1hZT4nLCAnLW9tYWUnLCAnPG91dGZpbGUubWFlPic=

> <r_lp_tautomer_probability>
0.999537

> <r_epik_Ionization_Penalty>
0.104106

> <r_epik_Ionization_Penalty_Charging>
0.104106

> <r_epik_Ionization_Penalty_Neutral>
3.94675e-16

> <r_epik_State_Penalty>
0.0940182

> <r_epik_Charging_Adjusted_Penalty>
0.198124

> <i_epik_Tot_Q>
0

> <i_epik_Tot_abs_Q>
0

> <r_epik_Metal_State_Penalty>
3.05314

> <b_epik_Metal_Only>
0

> <s_epik_Chemistry_Notes>
This compound has an ester and may undergo hydrolysis at high or low pH. This compound contains an acetal/aminal-like group ( X-CH(R)-Y where X, Y are N, S, or O) that may be acid/base labile, releasing an aldehyde.

> <s_lp_Force_Field>
OPLS_2005

> <r_lp_Energy>
21.1206

> <b_lp_Chiralities_Consistent>
1

> <s_lp_Variant>
AV-unprocessed.smi:37-11

> <Gold.Version>
5.8.1

> <Gold.Id.Protein>
6NUR|6NUR_protein|mol2

> <Gold.PLP.Fitness>
46.7093

> <Gold.PLP.PLP>
-33.3834

> <Gold.PLP.part.hbond>
-5.9437

> <Gold.PLP.part.metal>
0.0000

> <Gold.PLP.part.buried>
-3.4574

> <Gold.PLP.part.nonpolar>
-24.2245

> <Gold.PLP.part.repulsive>
0.2869

> <Gold.PLP.ligand.clash>
0.0000

> <Gold.PLP.ligand.torsion>
0.6537

> <Gold.PLP.Chemscore.Hbond>
4.0741

> <Gold.PLP.Chemscore.CHOScore>
0.6979

> <Gold.PLP.Chemscore.Metal>
0.0000

> <Gold.Chemscore.Hbonds>
donor molecule, donor type, donor heavy atom, donor atom, acceptor molecule, acceptor atom, score
      P1  H  6896  6908       L1     8  1.00
      P1  H  6931  6943       L1     4  0.80
      P1  H  6934  6947       L1     4  0.91
      P1  H  7989  7998       L1    15  0.26
      P1  H  7997  8009       L1    15  0.75
      L1  C    11    37       P1  7948  0.57

> <Gold.PLP.Chemscore.Internal.Correction>
0.3172

> <Gold.Rescore>
     Score         DG    S(hbond)    S(metal)    S(lipo)     H(rot)  DE(clash)    DE(int)     intcor
     11.95     -15.47       3.82        0.00      49.25       3.33       0.07       3.45       ----

> <Gold.Chemscore.Fitness>
11.9522

> <Gold.Chemscore.DG>
-15.4739

> <Gold.Chemscore.ZeroCoef>
-5.4800

> <Gold.Chemscore.Hbond>
3.8196

> <Gold.Chemscore.Metal>
0.0000

> <Gold.Chemscore.Lipo>
49.2488

> <Gold.Chemscore.Internal_Hbond>
0.0000

> <Gold.Chemscore.DEClash>
0.0676

> <Gold.Chemscore.DEInternal>
3.4541

> <Gold.Chemscore.Rot>
3.3303

> <Gold.Chemscore.Internal.Correction>
   9.000000E+99

> <Gold.Chemscore.Hbonds>
donor molecule, donor type, donor heavy atom, donor atom, acceptor molecule, acceptor atom, score
      P1  H  6896  6908       L1     8  0.93
      P1  H  6896  6909       L1    18  0.01
      P1  H  6931  6943       L1     4  0.47
      P1  H  6934  6947       L1     4  0.88
      P1  H  7989  7998       L1    15  0.24
      P1  H  7997  8009       L1    15  0.71

> <Gold.Chemscore.Hbond.Weighted>
-12.7574

> <Gold.Chemscore.Metal.Weighted>
-0.0000

> <Gold.Chemscore.Lipo.Weighted>
-5.7621

> <Gold.Chemscore.Internal_Hbond.Weighted>
0.0000

> <Gold.Chemscore.DEClash.Weighted>
0.0676

> <Gold.Chemscore.DEInternal.Weighted>
3.4541

> <Gold.Chemscore.Rot.Weighted>
8.5256

> <Gold.Chemscore.Internal.Correction.Weighted>
   9.000000E+99

> <Gold.Protein.RotatedTorsions>
[ 6907 6896 6895 6894 ] final  155.38 input  -60.11 | X-H torsion
[ 7974 7965 7964 7962 ] final  147.28 input  175.53 | X-H torsion
[ 8008 7997 7996 7995 ] final -156.96 input   59.86 | X-H torsion
[ 10167 10162 10161 10158 ] final -147.54 input  -65.29 | X-H torsion
[ 10718 10713 10712 10709 ] final   13.02 input   66.30 | X-H torsion
[ 10763 10752 10751 10750 ] final   52.80 input  -60.55 | X-H torsion
[ 11005 11000 10999 10996 ] final -100.54 input  -57.11 | X-H torsion

> <Gold.Protein.ActiveResidues>
 VAL166  LYS551  ARG553  GLY616  TRP617  ASP618  TYR619  PRO620  LYS621  CYS622 
 ASP623  PHE694  ASN695  SER759  ASP760  ASP761  ALA762  ILE779  LEU786  VAL792 
 PHE793  MET794  SER795  GLU796  ALA797  LYS798  CYS799  TRP800  GLU811  SER814 

> <Gold.Protein.RotatedAtoms>
  152.0450  133.3994  159.4352 H   0  0  0  0  0  0  0  0  0  0  0  0  # atno 6907 bound_to 6896
  150.6873  134.3372  159.4861 H   0  0  0  0  0  0  0  0  0  0  0  0  # atno 6908 bound_to 6896
  152.1175  134.9229  160.0615 H   0  0  0  0  0  0  0  0  0  0  0  0  # atno 6909 bound_to 6896
  144.8604  139.6009  143.5933 H   0  0  0  0  0  0  0  0  0  0  0  0  # atno 7974 bound_to 7965
  155.7251  140.0795  157.2313 H   0  0  0  0  0  0  0  0  0  0  0  0  # atno 8008 bound_to 7997
  154.4040  140.1605  156.2500 H   0  0  0  0  0  0  0  0  0  0  0  0  # atno 8009 bound_to 7997
  155.9161  140.3401  155.6139 H   0  0  0  0  0  0  0  0  0  0  0  0  # atno 8010 bound_to 7997
  139.7613  143.8373  152.2607 H   0  0  0  0  0  0  0  0  0  0  0  0  # atno 10167 bound_to 10162
  157.0185  130.6145  149.5718 H   0  0  0  0  0  0  0  0  0  0  0  0  # atno 10718 bound_to 10713
  152.9791  135.5800  154.4637 H   0  0  0  0  0  0  0  0  0  0  0  0  # atno 10763 bound_to 10752
  154.4209  135.2771  155.1978 H   0  0  0  0  0  0  0  0  0  0  0  0  # atno 10764 bound_to 10752
  154.3727  135.6164  153.5802 H   0  0  0  0  0  0  0  0  0  0  0  0  # atno 10765 bound_to 10752
  141.1266  133.8407  157.1116 H   0  0  0  0  0  0  0  0  0  0  0  0  # atno 11005 bound_to 11000
  146.2856  139.6994  142.9198 LP  0  0  0  0  0  0  0  0  0  0  0  0  # atno 17320 bound_to 7965
  145.4324  141.0416  143.2903 LP  0  0  0  0  0  0  0  0  0  0  0  0  # atno 17321 bound_to 7965
  139.8380  144.7223  150.9367 LP  0  0  0  0  0  0  0  0  0  0  0  0  # atno 17342 bound_to 10162
  140.7807  143.4009  151.1150 LP  0  0  0  0  0  0  0  0  0  0  0  0  # atno 17343 bound_to 10162
  156.0110  130.5202  150.7989 LP  0  0  0  0  0  0  0  0  0  0  0  0  # atno 17370 bound_to 10713
  157.5267  131.0934  151.0008 LP  0  0  0  0  0  0  0  0  0  0  0  0  # atno 17371 bound_to 10713
  140.0272  134.9918  157.0708 LP  0  0  0  0  0  0  0  0  0  0  0  0  # atno 17394 bound_to 11000
  140.4344  134.1747  155.7170 LP  0  0  0  0  0  0  0  0  0  0  0  0  # atno 17395 bound_to 11000

$$$$
