AV-unprocessed.smi:2633|AV-procd|sdf|10252|dock1
  -GOLD-   2272014263D 1   1.00000     0.00000
 Structure written by MMmdl.
 35 37  0  0  0  0  0  0  0  0  1 V2000
  148.4280  142.6996  154.1026 O   0  0  0  0  0  0  0  0  0  0  0  0
  147.9596  141.6837  154.9646 C   0  0  0  0  0  0  0  0  0  0  0  0
  148.7211  141.6858  156.3011 C   0  0  0  0  0  0  0  0  0  0  0  0
  150.0630  141.1308  156.1796 N   0  0  0  0  0  0  0  0  0  0  0  0
  151.2304  141.6018  156.6916 C   0  0  0  0  0  0  0  0  0  0  0  0
  151.2991  142.8571  157.5187 C   0  0  0  0  0  0  0  0  0  0  0  0
  151.9941  142.6670  158.8565 C   0  0  0  0  0  0  0  0  0  0  0  0
  152.7620  141.5073  159.0934 C   0  0  0  0  0  0  0  0  0  0  0  0
  153.4119  141.3296  160.3302 C   0  0  0  0  0  0  0  0  0  0  0  0
  153.2963  142.3103  161.3342 C   0  0  0  0  0  0  0  0  0  0  0  0
  152.5303  143.4690  161.1014 C   0  0  0  0  0  0  0  0  0  0  0  0
  151.8798  143.6473  159.8647 C   0  0  0  0  0  0  0  0  0  0  0  0
  152.3172  140.8843  156.3953 N   0  0  0  0  0  0  0  0  0  0  0  0
  151.8075  139.8477  155.6403 C   0  0  0  0  0  0  0  0  0  0  0  0
  152.4554  138.7471  155.0351 C   0  0  0  0  0  0  0  0  0  0  0  0
  151.7143  137.7999  154.2989 C   0  0  0  0  0  0  0  0  0  0  0  0
  150.3184  137.9398  154.1568 C   0  0  0  0  0  0  0  0  0  0  0  0
  149.6542  139.0302  154.7510 C   0  0  0  0  0  0  0  0  0  0  0  0
  150.3988  139.9723  155.4860 C   0  0  0  0  0  0  0  0  0  0  0  0
  148.3367  143.5317  154.5410 H   0  0  0  0  0  0  0  0  0  0  0  0
  146.8924  141.8295  155.1337 H   0  0  0  0  0  0  0  0  0  0  0  0
  148.0764  140.7204  154.4677 H   0  0  0  0  0  0  0  0  0  0  0  0
  148.8109  142.7097  156.6654 H   0  0  0  0  0  0  0  0  0  0  0  0
  148.1644  141.1488  157.0686 H   0  0  0  0  0  0  0  0  0  0  0  0
  151.8116  143.6264  156.9404 H   0  0  0  0  0  0  0  0  0  0  0  0
  150.2986  143.2358  157.7221 H   0  0  0  0  0  0  0  0  0  0  0  0
  152.8568  140.7537  158.3250 H   0  0  0  0  0  0  0  0  0  0  0  0
  154.0005  140.4417  160.5079 H   0  0  0  0  0  0  0  0  0  0  0  0
  153.7961  142.1746  162.2821 H   0  0  0  0  0  0  0  0  0  0  0  0
  152.4429  144.2223  161.8703 H   0  0  0  0  0  0  0  0  0  0  0  0
  151.2978  144.5405  159.6910 H   0  0  0  0  0  0  0  0  0  0  0  0
  153.5242  138.6319  155.1384 H   0  0  0  0  0  0  0  0  0  0  0  0
  152.2195  136.9620  153.8411 H   0  0  0  0  0  0  0  0  0  0  0  0
  149.7582  137.2096  153.5914 H   0  0  0  0  0  0  0  0  0  0  0  0
  148.5854  139.1407  154.6444 H   0  0  0  0  0  0  0  0  0  0  0  0
  1  2  1  0  0  0  0
  1 20  1  0  0  0  0
  2  3  1  0  0  0  0
  2 21  1  0  0  0  0
  2 22  1  0  0  0  0
  3  4  1  0  0  0  0
  3 23  1  0  0  0  0
  3 24  1  0  0  0  0
  4 19  1  0  0  0  0
  4  5  1  0  0  0  0
  5  6  1  0  0  0  0
  5 13  2  0  0  0  0
  6  7  1  0  0  0  0
  6 25  1  0  0  0  0
  6 26  1  0  0  0  0
  7 12  1  0  0  0  0
  7  8  2  0  0  0  0
  8  9  1  0  0  0  0
  8 27  1  0  0  0  0
  9 10  2  0  0  0  0
  9 28  1  0  0  0  0
 10 11  1  0  0  0  0
 10 29  1  0  0  0  0
 11 12  2  0  0  0  0
 11 30  1  0  0  0  0
 12 31  1  0  0  0  0
 13 14  1  0  0  0  0
 14 19  2  0  0  0  0
 14 15  1  0  0  0  0
 15 16  2  0  0  0  0
 15 32  1  0  0  0  0
 16 17  1  0  0  0  0
 16 33  1  0  0  0  0
 17 18  2  0  0  0  0
 17 34  1  0  0  0  0
 18 19  1  0  0  0  0
 18 35  1  0  0  0  0
M  END
> <s_m_source_file>
AV-unprocessed.smi

> <i_m_source_file_index>
2633

> <i_lp_mmshare_version>
43012

> <i_f3d_flags>
0

> <s_epik_input>
W2NIXTFbY0hdW2NIXVtjSF1jKGMxMiluKFtDSDJdW0NIMl1bT0hdKWMobjIpW0NIMl1jM1tjSF1bY0hdW2NIXVtjSF1bY0hdMw==

> <s_epik_cmdline>
J2VwaWtfcHl0aG9uJywgJy1waCcsICc3LjAnLCAnLXRuJywgJzgnLCAnLW1hJywgJzIwMCcsICctbWV0YWxfYmluZGluZycsICctaW1hZScsICc8aW5maWxlLm1hZT4nLCAnLW9tYWUnLCAnPG91dGZpbGUubWFlPic=

> <r_epik_Ionization_Penalty>
0.0631471

> <r_epik_Ionization_Penalty_Charging>
0

> <r_epik_Ionization_Penalty_Neutral>
0.0631471

> <r_epik_State_Penalty>
0.0549237

> <r_epik_Charging_Adjusted_Penalty>
0.0549237

> <i_epik_Tot_Q>
0

> <i_epik_Tot_abs_Q>
0

> <r_epik_Metal_State_Penalty>
5.75471e-05

> <b_epik_Metal_Only>
0

> <s_lp_Force_Field>
OPLS_2005

> <r_lp_Energy>
13.1063

> <b_lp_Chiralities_Consistent>
1

> <s_lp_Variant>
AV-unprocessed.smi:2633-1

> <Gold.Version>
5.8.1

> <Gold.Id.Protein>
6NUR|6NUR_protein|mol2

> <Gold.PLP.Fitness>
47.1914

> <Gold.PLP.PLP>
-43.7731

> <Gold.PLP.part.hbond>
-3.9200

> <Gold.PLP.part.metal>
0.0000

> <Gold.PLP.part.buried>
3.5442

> <Gold.PLP.part.nonpolar>
-42.5972

> <Gold.PLP.part.repulsive>
0.0000

> <Gold.PLP.ligand.clash>
0.0000

> <Gold.PLP.ligand.torsion>
0.4694

> <Gold.PLP.Chemscore.Hbond>
1.4445

> <Gold.PLP.Chemscore.CHOScore>
0.0000

> <Gold.PLP.Chemscore.Metal>
0.0000

> <Gold.Chemscore.Hbonds>
donor molecule, donor type, donor heavy atom, donor atom, acceptor molecule, acceptor atom, score
      L1  H     1    20       P1  8028  1.00
      P1  H  7997  8009       L1    13  0.43
      P1  H  8011  8017       L1     1  0.02

> <Gold.PLP.Chemscore.Internal.Correction>
0.0234

> <Gold.Rescore>
     Score         DG    S(hbond)    S(metal)    S(lipo)     H(rot)  DE(clash)    DE(int)     intcor
     16.15     -19.35       1.20        0.00     127.28       1.96       1.43       1.77       ----

> <Gold.Chemscore.Fitness>
16.1453

> <Gold.Chemscore.DG>
-19.3479

> <Gold.Chemscore.ZeroCoef>
-5.4800

> <Gold.Chemscore.Hbond>
1.1951

> <Gold.Chemscore.Metal>
0.0000

> <Gold.Chemscore.Lipo>
127.2836

> <Gold.Chemscore.Internal_Hbond>
0.0000

> <Gold.Chemscore.DEClash>
1.4296

> <Gold.Chemscore.DEInternal>
1.7730

> <Gold.Chemscore.Rot>
1.9594

> <Gold.Chemscore.Internal.Correction>
   9.000000E+99

> <Gold.Chemscore.Hbonds>
donor molecule, donor type, donor heavy atom, donor atom, acceptor molecule, acceptor atom, score
      L1  H     1    20       P1  8028  0.95
      P1  H  7997  8009       L1    13  0.06
      P1  H  8011  8017       L1     1  0.04

> <Gold.Chemscore.Hbond.Weighted>
-3.9917

> <Gold.Chemscore.Metal.Weighted>
-0.0000

> <Gold.Chemscore.Lipo.Weighted>
-14.8922

> <Gold.Chemscore.Internal_Hbond.Weighted>
0.0000

> <Gold.Chemscore.DEClash.Weighted>
1.4296

> <Gold.Chemscore.DEInternal.Weighted>
1.7730

> <Gold.Chemscore.Rot.Weighted>
5.0160

> <Gold.Chemscore.Internal.Correction.Weighted>
   9.000000E+99

> <Gold.Protein.RotatedTorsions>
[ 6907 6896 6895 6894 ] final   32.08 input  -60.11 | X-H torsion
[ 7974 7965 7964 7962 ] final -115.21 input  175.53 | X-H torsion
[ 8008 7997 7996 7995 ] final -167.05 input   59.86 | X-H torsion
[ 10167 10162 10161 10158 ] final  159.43 input  -65.29 | X-H torsion
[ 10718 10713 10712 10709 ] final    0.92 input   66.30 | X-H torsion
[ 10763 10752 10751 10750 ] final  162.68 input  -60.55 | X-H torsion
[ 11005 11000 10999 10996 ] final  -21.32 input  -57.11 | X-H torsion

> <Gold.Protein.ActiveResidues>
 VAL166  LYS551  ARG553  GLY616  TRP617  ASP618  TYR619  PRO620  LYS621  CYS622 
 ASP623  PHE694  ASN695  SER759  ASP760  ASP761  ALA762  ILE779  LEU786  VAL792 
 PHE793  MET794  SER795  GLU796  ALA797  LYS798  CYS799  TRP800  GLU811  SER814 

> <Gold.Protein.RotatedAtoms>
  152.0694  134.9543  160.0574 H   0  0  0  0  0  0  0  0  0  0  0  0  # atno 6907 bound_to 6896
  152.0875  133.4179  159.4537 H   0  0  0  0  0  0  0  0  0  0  0  0  # atno 6908 bound_to 6896
  150.6836  134.2830  159.4678 H   0  0  0  0  0  0  0  0  0  0  0  0  # atno 6909 bound_to 6896
  145.1111  140.8612  143.3869 H   0  0  0  0  0  0  0  0  0  0  0  0  # atno 7974 bound_to 7965
  155.8723  140.0995  157.1541 H   0  0  0  0  0  0  0  0  0  0  0  0  # atno 8008 bound_to 7997
  154.3998  140.1344  156.4157 H   0  0  0  0  0  0  0  0  0  0  0  0  # atno 8009 bound_to 7997
  155.7736  140.3460  155.5262 H   0  0  0  0  0  0  0  0  0  0  0  0  # atno 8010 bound_to 7997
  139.4832  144.4731  151.8549 H   0  0  0  0  0  0  0  0  0  0  0  0  # atno 10167 bound_to 10162
  156.8405  130.5519  149.5678 H   0  0  0  0  0  0  0  0  0  0  0  0  # atno 10718 bound_to 10713
  154.2821  135.2763  155.2692 H   0  0  0  0  0  0  0  0  0  0  0  0  # atno 10763 bound_to 10752
  154.5209  135.5756  153.6683 H   0  0  0  0  0  0  0  0  0  0  0  0  # atno 10764 bound_to 10752
  152.9927  135.6204  154.2981 H   0  0  0  0  0  0  0  0  0  0  0  0  # atno 10765 bound_to 10752
  140.8550  133.7829  156.0009 H   0  0  0  0  0  0  0  0  0  0  0  0  # atno 11005 bound_to 11000
  145.0846  139.2935  143.5766 LP  0  0  0  0  0  0  0  0  0  0  0  0  # atno 17320 bound_to 7965
  146.3526  140.0363  142.8646 LP  0  0  0  0  0  0  0  0  0  0  0  0  # atno 17321 bound_to 7965
  140.4201  144.2254  150.5887 LP  0  0  0  0  0  0  0  0  0  0  0  0  # atno 17342 bound_to 10162
  140.4882  143.2356  151.8857 LP  0  0  0  0  0  0  0  0  0  0  0  0  # atno 17343 bound_to 10162
  156.0883  130.5876  150.9688 LP  0  0  0  0  0  0  0  0  0  0  0  0  # atno 17370 bound_to 10713
  157.6358  131.0916  150.8351 LP  0  0  0  0  0  0  0  0  0  0  0  0  # atno 17371 bound_to 10713
  140.8748  134.2683  157.5173 LP  0  0  0  0  0  0  0  0  0  0  0  0  # atno 17394 bound_to 11000
  139.8705  134.9585  156.4303 LP  0  0  0  0  0  0  0  0  0  0  0  0  # atno 17395 bound_to 11000

$$$$
