AV-unprocessed.smi:3330|AV-procd|sdf|12803|dock9
  -GOLD-   2272019163D 1   1.00000     0.00000
 Structure written by MMmdl.
 39 40  0  0  0  0  0  0  0  0  2 V2000
  147.7690  141.5308  154.4638 C   0  0  0  0  0  0  0  0  0  0  0  0
  148.4619  141.3474  155.8265 C   0  0  2  0  0  0  0  0  0  0  0  0
  147.9234  142.3518  156.7714 N   0  3  0  0  0  0  0  0  0  0  0  0
  146.4680  142.2663  157.0061 C   0  0  0  0  0  0  0  0  0  0  0  0
  146.1523  142.2849  158.5091 C   0  0  0  0  0  0  0  0  0  0  0  0
  146.1007  143.6552  159.0244 N   0  0  0  0  0  0  0  0  0  0  0  0
  146.8644  144.1162  160.0233 C   0  0  0  0  0  0  0  0  0  0  0  0
  147.7099  143.4951  160.6659 O   0  0  0  0  0  0  0  0  0  0  0  0
  146.5319  145.5756  160.2461 C   0  0  0  0  0  0  0  0  0  0  0  0
  145.5253  145.7460  159.2200 N   0  0  0  0  0  0  0  0  0  0  0  0
  145.3044  144.6201  158.5293 C   0  0  0  0  0  0  0  0  0  0  0  0
  144.5112  144.5024  157.5966 O   0  0  0  0  0  0  0  0  0  0  0  0
  150.0090  141.4540  155.7393 C   0  0  1  0  0  0  0  0  0  0  0  0
  150.6637  141.8633  157.0726 C   0  0  0  0  0  0  0  0  0  0  0  0
  150.6149  140.2237  155.2453 N   0  0  0  0  0  0  0  0  0  0  0  0
  151.8230  139.6623  155.6045 C   0  0  0  0  0  0  0  0  0  0  0  0
  151.9714  138.5140  154.8809 C   0  0  0  0  0  0  0  0  0  0  0  0
  150.7859  138.4525  154.0972 C   0  0  0  0  0  0  0  0  0  0  0  0
  149.9762  139.4753  154.3172 N   0  0  0  0  0  0  0  0  0  0  0  0
  148.0457  140.7470  153.7585 H   0  0  0  0  0  0  0  0  0  0  0  0
  148.0269  142.4899  154.0137 H   0  0  0  0  0  0  0  0  0  0  0  0
  146.6841  141.4947  154.5692 H   0  0  0  0  0  0  0  0  0  0  0  0
  148.2004  140.3492  156.1829 H   0  0  0  0  0  0  0  0  0  0  0  0
  148.4038  142.2503  157.6540 H   0  0  0  0  0  0  0  0  0  0  0  0
  145.9776  143.1045  156.5087 H   0  0  0  0  0  0  0  0  0  0  0  0
  146.0798  141.3527  156.5546 H   0  0  0  0  0  0  0  0  0  0  0  0
  145.2001  141.7850  158.6967 H   0  0  0  0  0  0  0  0  0  0  0  0
  146.9009  141.7085  159.0556 H   0  0  0  0  0  0  0  0  0  0  0  0
  146.1255  145.7494  161.2430 H   0  0  0  0  0  0  0  0  0  0  0  0
  147.3964  146.2173  160.0728 H   0  0  0  0  0  0  0  0  0  0  0  0
  145.0568  146.6242  159.0493 H   0  0  0  0  0  0  0  0  0  0  0  0
  150.2482  142.2293  155.0094 H   0  0  0  0  0  0  0  0  0  0  0  0
  150.3512  142.8601  157.3834 H   0  0  0  0  0  0  0  0  0  0  0  0
  151.7506  141.8827  156.9840 H   0  0  0  0  0  0  0  0  0  0  0  0
  150.4096  141.1690  157.8741 H   0  0  0  0  0  0  0  0  0  0  0  0
  152.4711  140.1221  156.3361 H   0  0  0  0  0  0  0  0  0  0  0  0
  152.8001  137.8221  154.9081 H   0  0  0  0  0  0  0  0  0  0  0  0
  150.4920  137.6999  153.3802 H   0  0  0  0  0  0  0  0  0  0  0  0
  148.1233  143.2703  156.4020 H   0  0  0  0  0  0  0  0  0  0  0  0
  1  2  1  0  0  0  0
  1 20  1  0  0  0  0
  1 21  1  0  0  0  0
  1 22  1  0  0  0  0
  2  3  1  0  0  0  0
  2 13  1  0  0  0  0
  2 23  1  0  0  0  0
  3  4  1  0  0  0  0
  3 24  1  0  0  0  0
  3 39  1  0  0  0  0
  4  5  1  0  0  0  0
  4 25  1  0  0  0  0
  4 26  1  0  0  0  0
  5  6  1  0  0  0  0
  5 27  1  0  0  0  0
  5 28  1  0  0  0  0
  6 11  1  0  0  0  0
  6  7  1  0  0  0  0
  7  8  2  0  0  0  0
  7  9  1  0  0  0  0
  9 10  1  0  0  0  0
  9 29  1  0  0  0  0
  9 30  1  0  0  0  0
 10 11  1  0  0  0  0
 10 31  1  0  0  0  0
 11 12  2  0  0  0  0
 13 14  1  0  0  0  0
 13 15  1  0  0  0  0
 13 32  1  0  0  0  0
 14 33  1  0  0  0  0
 14 34  1  0  0  0  0
 14 35  1  0  0  0  0
 15 19  1  0  0  0  0
 15 16  1  0  0  0  0
 16 17  2  0  0  0  0
 16 36  1  0  0  0  0
 17 18  1  0  0  0  0
 17 37  1  0  0  0  0
 18 19  2  0  0  0  0
 18 38  1  0  0  0  0
M  CHG  1   3   1
M  END
> <s_m_source_file>
AV-unprocessed.smi

> <i_m_source_file_index>
3330

> <i_lp_mmshare_version>
43012

> <i_f3d_flags>
0

> <s_epik_input>
bjFbY0hdW2NIXVtjSF1uMVtDQEBIXShbQ0gzXSlbQ0BIXShbQ0gzXSlbTkhdW0NIMl1bQ0gyXU4yQyg9TylbQ0gyXVtOSF1DMj1P

> <s_epik_cmdline>
J2VwaWtfcHl0aG9uJywgJy1waCcsICc3LjAnLCAnLXRuJywgJzgnLCAnLW1hJywgJzIwMCcsICctbWV0YWxfYmluZGluZycsICctaW1hZScsICc8aW5maWxlLm1hZT4nLCAnLW9tYWUnLCAnPG91dGZpbGUubWFlPic=

> <r_lp_tautomer_probability>
1

> <r_epik_Ionization_Penalty>
0.0124905

> <r_epik_Ionization_Penalty_Charging>
0.0123685

> <r_epik_Ionization_Penalty_Neutral>
0.000122059

> <r_epik_State_Penalty>
0.00957041

> <r_epik_Charging_Adjusted_Penalty>
0.0219389

> <i_epik_Tot_Q>
1

> <i_epik_Tot_abs_Q>
1

> <r_epik_Metal_State_Penalty>
0.0858301

> <b_epik_Metal_Only>
0

> <s_lp_Force_Field>
OPLS_2005

> <r_lp_Energy>
25.3738

> <b_lp_Chiralities_Consistent>
1

> <s_lp_Variant>
AV-unprocessed.smi:3330-3

> <Gold.Version>
5.8.1

> <Gold.Id.Protein>
6NUR|6NUR_protein|mol2

> <Gold.PLP.Fitness>
40.9634

> <Gold.PLP.PLP>
-31.6899

> <Gold.PLP.part.hbond>
-3.1757

> <Gold.PLP.part.metal>
0.0000

> <Gold.PLP.part.buried>
-3.9419

> <Gold.PLP.part.nonpolar>
-25.1866

> <Gold.PLP.part.repulsive>
0.3447

> <Gold.PLP.ligand.clash>
0.0000

> <Gold.PLP.ligand.torsion>
1.5735

> <Gold.PLP.Chemscore.Hbond>
3.0000

> <Gold.PLP.Chemscore.CHOScore>
1.1081

> <Gold.PLP.Chemscore.Metal>
0.0000

> <Gold.Chemscore.Hbonds>
donor molecule, donor type, donor heavy atom, donor atom, acceptor molecule, acceptor atom, score
      L1  H     3    39       P1  8028  2.00
      P1  H  6933  6944       L1     8  1.00
      L1  C    18    38       P1  7948  0.66
      L1  C    18    38       P1  7949  0.40

> <Gold.PLP.Chemscore.Internal.Correction>
0.0962

> <Gold.Rescore>
     Score         DG    S(hbond)    S(metal)    S(lipo)     H(rot)  DE(clash)    DE(int)     intcor
      8.16      -9.52       1.29        0.00      55.91       2.67       0.03       1.32       ----

> <Gold.Chemscore.Fitness>
8.1574

> <Gold.Chemscore.DG>
-9.5161

> <Gold.Chemscore.ZeroCoef>
-5.4800

> <Gold.Chemscore.Hbond>
1.2936

> <Gold.Chemscore.Metal>
0.0000

> <Gold.Chemscore.Lipo>
55.9129

> <Gold.Chemscore.Internal_Hbond>
0.0000

> <Gold.Chemscore.DEClash>
0.0347

> <Gold.Chemscore.DEInternal>
1.3240

> <Gold.Chemscore.Rot>
2.6666

> <Gold.Chemscore.Internal.Correction>
   9.000000E+99

> <Gold.Chemscore.Hbonds>
donor molecule, donor type, donor heavy atom, donor atom, acceptor molecule, acceptor atom, score
      L1  H     3    39       P1  8028  0.30
      P1  H  6933  6944       L1     8  0.98

> <Gold.Chemscore.Hbond.Weighted>
-4.3208

> <Gold.Chemscore.Metal.Weighted>
-0.0000

> <Gold.Chemscore.Lipo.Weighted>
-6.5418

> <Gold.Chemscore.Internal_Hbond.Weighted>
0.0000

> <Gold.Chemscore.DEClash.Weighted>
0.0347

> <Gold.Chemscore.DEInternal.Weighted>
1.3240

> <Gold.Chemscore.Rot.Weighted>
6.8265

> <Gold.Chemscore.Internal.Correction.Weighted>
   9.000000E+99

> <Gold.Protein.RotatedTorsions>
[ 6907 6896 6895 6894 ] final  -20.97 input  -60.11 | X-H torsion
[ 7974 7965 7964 7962 ] final   -2.03 input  175.53 | X-H torsion
[ 8008 7997 7996 7995 ] final  100.24 input   59.86 | X-H torsion
[ 10167 10162 10161 10158 ] final   91.45 input  -65.29 | X-H torsion
[ 10718 10713 10712 10709 ] final  103.41 input   66.30 | X-H torsion
[ 10763 10752 10751 10750 ] final -165.55 input  -60.55 | X-H torsion
[ 11005 11000 10999 10996 ] final  105.53 input  -57.11 | X-H torsion

> <Gold.Protein.ActiveResidues>
 VAL166  LYS551  ARG553  GLY616  TRP617  ASP618  TYR619  PRO620  LYS621  CYS622 
 ASP623  PHE694  ASN695  SER759  ASP760  ASP761  ALA762  ILE779  LEU786  VAL792 
 PHE793  MET794  SER795  GLU796  ALA797  LYS798  CYS799  TRP800  GLU811  SER814 

> <Gold.Protein.RotatedAtoms>
  151.2402  135.0586  159.9021 H   0  0  0  0  0  0  0  0  0  0  0  0  # atno 6907 bound_to 6896
  152.5394  134.0442  159.8091 H   0  0  0  0  0  0  0  0  0  0  0  0  # atno 6908 bound_to 6896
  151.0635  133.5476  159.2664 H   0  0  0  0  0  0  0  0  0  0  0  0  # atno 6909 bound_to 6896
  146.2410  140.1510  142.8334 H   0  0  0  0  0  0  0  0  0  0  0  0  # atno 7974 bound_to 7965
  156.1184  140.3216  155.8172 H   0  0  0  0  0  0  0  0  0  0  0  0  # atno 8008 bound_to 7997
  155.4549  140.0535  157.3014 H   0  0  0  0  0  0  0  0  0  0  0  0  # atno 8009 bound_to 7997
  154.4809  140.2052  155.9779 H   0  0  0  0  0  0  0  0  0  0  0  0  # atno 8010 bound_to 7997
  139.8374  144.6658  150.9325 H   0  0  0  0  0  0  0  0  0  0  0  0  # atno 10167 bound_to 10162
  157.6773  131.0778  150.5551 H   0  0  0  0  0  0  0  0  0  0  0  0  # atno 10718 bound_to 10713
  154.6921  135.2972  154.9464 H   0  0  0  0  0  0  0  0  0  0  0  0  # atno 10763 bound_to 10752
  154.0424  135.6655  153.4795 H   0  0  0  0  0  0  0  0  0  0  0  0  # atno 10764 bound_to 10752
  153.0619  135.5110  154.8019 H   0  0  0  0  0  0  0  0  0  0  0  0  # atno 10765 bound_to 10752
  139.8803  134.9339  156.5528 H   0  0  0  0  0  0  0  0  0  0  0  0  # atno 11005 bound_to 11000
  145.0168  140.8760  143.5191 LP  0  0  0  0  0  0  0  0  0  0  0  0  # atno 17320 bound_to 7965
  145.1552  139.2491  143.5420 LP  0  0  0  0  0  0  0  0  0  0  0  0  # atno 17321 bound_to 7965
  140.7801  143.3944  151.1254 LP  0  0  0  0  0  0  0  0  0  0  0  0  # atno 17342 bound_to 10162
  139.7593  143.8659  152.3096 LP  0  0  0  0  0  0  0  0  0  0  0  0  # atno 17343 bound_to 10162
  156.5855  130.4315  149.5959 LP  0  0  0  0  0  0  0  0  0  0  0  0  # atno 17370 bound_to 10713
  156.2626  130.6971  151.1744 LP  0  0  0  0  0  0  0  0  0  0  0  0  # atno 17371 bound_to 10713
  140.8227  133.8341  155.8910 LP  0  0  0  0  0  0  0  0  0  0  0  0  # atno 17394 bound_to 11000
  140.9403  134.1909  157.4802 LP  0  0  0  0  0  0  0  0  0  0  0  0  # atno 17395 bound_to 11000

$$$$
