#       Name:                AV-unprocessed.smi:695
#       Creating user name   scv26
#       Creation time:       Fri Mar 27 00:36:33 2020


#       File generated by GOLD software.
#

@<TRIPOS>MOLECULE
AV-unprocessed.smi:695
    41    42     1
SMALL
NO_CHARGES


@<TRIPOS>ATOM
      1 ****        -3.9167   0.4833   0.9497 C.3            1 S1                 0.0000
      2 ****        -3.4705   0.7821   2.3874 C.3            1 S1                 0.0000
      3 ****        -2.5058  -0.2043   2.8581 N.am           1 S1                 0.0000
      4 ****        -1.1931  -0.1791   2.5898 C.2            1 S1                 0.0000
      5 ****        -0.6381   0.7139   1.9492 O.2            1 S1                 0.0000
      6 ****        -0.5651  -1.2582   3.0794 N.am           1 S1                 0.0000
      7 ****         0.8518  -1.5677   2.9008 C.3            1 S1                 0.0000
      8 ****         1.1052  -2.4891   1.6908 C.3            1 S1                 0.0000
      9 ****         0.6747  -1.8920   0.3828 C.2            1 S1                 0.0000
     10 ****        -0.4682  -2.1830  -0.3211 C.2            1 S1                 0.0000
     11 ****        -0.6131  -1.2094  -1.7582 S.3            1 S1                 0.0000
     12 ****         0.9214  -0.4459  -1.3536 C.2            1 S1                 0.0000
     13 ****         1.4894   0.5430  -2.1515 N.pl3          1 S1                 0.0000
     14 ****         2.7649   1.2130  -1.9174 C.3            1 S1                 0.0000
     15 ****         3.1248   1.9832  -3.1851 C.3            1 S1                 0.0000
     16 ****         1.7597   2.3397  -3.7406 C.3            1 S1                 0.0000
     17 ****         0.9281   1.1128  -3.3727 C.3            1 S1                 0.0000
     18 ****         1.4630  -0.9101  -0.2249 N.2            1 S1                 0.0000
     19 ****        -4.6606   1.2072   0.6168 H              1 S1                 0.0000
     20 ****        -4.3616  -0.5092   0.8736 H              1 S1                 0.0000
     21 ****        -3.0771   0.5281   0.2551 H              1 S1                 0.0000
     22 ****        -3.0513   1.7873   2.4540 H              1 S1                 0.0000
     23 ****        -4.3332   0.7607   3.0533 H              1 S1                 0.0000
     24 ****        -2.8691  -0.9777   3.3954 H              1 S1                 0.0000
     25 ****        -1.1141  -1.9324   3.5921 H              1 S1                 0.0000
     26 ****         1.4364  -0.6509   2.8064 H              1 S1                 0.0000
     27 ****         1.2030  -2.0580   3.8088 H              1 S1                 0.0000
     28 ****         2.1669  -2.7350   1.6502 H              1 S1                 0.0000
     29 ****         0.5915  -3.4377   1.8510 H              1 S1                 0.0000
     30 ****        -1.2417  -2.8934  -0.0701 H              1 S1                 0.0000
     31 ****         2.6462   1.8965  -1.0758 H              1 S1                 0.0000
     32 ****         3.5438   0.4960  -1.6564 H              1 S1                 0.0000
     33 ****         3.7515   2.8538  -2.9907 H              1 S1                 0.0000
     34 ****         3.6521   1.3309  -3.8826 H              1 S1                 0.0000
     35 ****         1.3699   3.2216  -3.2304 H              1 S1                 0.0000
     36 ****         1.7706   2.5417  -4.8119 H              1 S1                 0.0000
     37 ****         0.9865   0.3627  -4.1621 H              1 S1                 0.0000
     38 ****        -0.1217   1.3756  -3.2393 H              1 S1                 0.0000
     39 ****        -1.1727   1.4808   1.5941 LP             1 S1                 0.0000
     40 ****         0.3473   0.6723   1.7839 LP             1 S1                 0.0000
     41 ****         2.3356  -0.5909   0.1448 LP             1 S1                 0.0000
@<TRIPOS>BOND
    1    1    2 1     
    2    1   19 1     
    3    1   20 1     
    4    1   21 1     
    5    2    3 1     
    6    2   22 1     
    7    2   23 1     
    8    3    4 am    
    9    3   24 1     
   10    4    5 2     
   11    4    6 am    
   12    6    7 1     
   13    6   25 1     
   14    7    8 1     
   15    7   26 1     
   16    7   27 1     
   17    8    9 1     
   18    8   28 1     
   19    8   29 1     
   20    9   18 1     
   21    9   10 2     
   22   10   11 1     
   23   10   30 1     
   24   11   12 1     
   25   12   13 1     
   26   12   18 2     
   27   13   17 1     
   28   13   14 1     
   29   14   15 1     
   30   14   31 1     
   31   14   32 1     
   32   15   16 1     
   33   15   33 1     
   34   15   34 1     
   35   16   17 1     
   36   16   35 1     
   37   16   36 1     
   38   17   37 1     
   39   17   38 1     
   40    5   39 1     
   41    5   40 1     
   42   18   41 1     
@<TRIPOS>SUBSTRUCTURE
      1 S1             1
@<TRIPOS>SET
LONE_PAIRS      STATIC     ATOMS    <user>   **** ""
3 39 40 41
DONOR_HYDROGENS      STATIC     ATOMS    <user>   **** ""
2 24 25
ATOM$BLUE        STATIC     ATOMS    COLORGROUP SYSTEM
3 39 40 41
ATOM$RED        STATIC     ATOMS    COLORGROUP SYSTEM
2 24 25
