AV-unprocessed.smi:1213|AV-procd|sdf|5085|dock5
  -GOLD-   22720 4133D 1   1.00000     0.00000
 Structure written by MMmdl.
 37 38  0  0  0  0  0  0  0  0  2 V2000
  144.7480  138.0661  153.0889 N   0  0  0  0  0  0  0  0  0  0  0  0
  145.8226  137.5035  152.5320 C   0  0  0  0  0  0  0  0  0  0  0  0
  146.0607  136.3014  152.6347 O   0  0  0  0  0  0  0  0  0  0  0  0
  146.7709  138.4316  151.7662 C   0  0  0  0  0  0  0  0  0  0  0  0
  147.4728  139.3982  152.6495 N   0  3  2  0  0  0  0  0  0  0  0  0
  148.0467  138.7522  153.8573 C   0  0  0  0  0  0  0  0  0  0  0  0
  148.8928  139.7476  154.6690 C   0  0  0  0  0  0  0  0  0  0  0  0
  148.0727  140.9880  155.0589 C   0  0  1  0  0  0  0  0  0  0  0  0
  148.9260  141.9495  155.7510 N   0  0  0  0  0  0  0  0  0  0  0  0
  149.7673  141.6522  156.7524 C   0  0  0  0  0  0  0  0  0  0  0  0
  149.9078  140.5152  157.2037 O   0  0  0  0  0  0  0  0  0  0  0  0
  150.4179  142.7470  157.1838 N   0  0  0  0  0  0  0  0  0  0  0  0
  151.3847  142.8420  158.2191 C   0  0  0  0  0  0  0  0  0  0  0  0
  151.8412  141.7998  158.9235 N   0  0  0  0  0  0  0  0  0  0  0  0
  152.7875  142.1852  159.8765 C   0  0  0  0  0  0  0  0  0  0  0  0
  153.0402  143.5344  159.8847 C   0  0  0  0  0  0  0  0  0  0  0  0
  152.0960  144.3795  158.6873 S   0  0  0  0  0  0  0  0  0  0  0  0
  147.4522  141.6134  153.7959 C   0  0  0  0  0  0  0  0  0  0  0  0
  146.6376  140.5763  153.0059 C   0  0  0  0  0  0  0  0  0  0  0  0
  144.0952  137.4940  153.6057 H   0  0  0  0  0  0  0  0  0  0  0  0
  144.5879  139.0590  152.9969 H   0  0  0  0  0  0  0  0  0  0  0  0
  147.4966  137.8524  151.1926 H   0  0  0  0  0  0  0  0  0  0  0  0
  146.1592  138.9724  151.0427 H   0  0  0  0  0  0  0  0  0  0  0  0
  147.2414  138.3492  154.4738 H   0  0  0  0  0  0  0  0  0  0  0  0
  148.6733  137.9096  153.5626 H   0  0  0  0  0  0  0  0  0  0  0  0
  149.2793  139.2578  155.5639 H   0  0  0  0  0  0  0  0  0  0  0  0
  149.7618  140.0461  154.0803 H   0  0  0  0  0  0  0  0  0  0  0  0
  147.2727  140.6718  155.7314 H   0  0  0  0  0  0  0  0  0  0  0  0
  148.8750  142.9098  155.4432 H   0  0  0  0  0  0  0  0  0  0  0  0
  150.1981  143.6145  156.7175 H   0  0  0  0  0  0  0  0  0  0  0  0
  153.2318  141.4315  160.5094 H   0  0  0  0  0  0  0  0  0  0  0  0
  153.7222  144.0800  160.5198 H   0  0  0  0  0  0  0  0  0  0  0  0
  146.8096  142.4524  154.0657 H   0  0  0  0  0  0  0  0  0  0  0  0
  148.2378  142.0196  153.1568 H   0  0  0  0  0  0  0  0  0  0  0  0
  146.2427  141.0454  152.1044 H   0  0  0  0  0  0  0  0  0  0  0  0
  145.7775  140.2506  153.5935 H   0  0  0  0  0  0  0  0  0  0  0  0
  148.2566  139.7447  152.1141 H   0  0  0  0  0  0  0  0  0  0  0  0
  1  2  1  0  0  0  0
  1 20  1  0  0  0  0
  1 21  1  0  0  0  0
  2  3  2  0  0  0  0
  2  4  1  0  0  0  0
  4  5  1  0  0  0  0
  4 22  1  0  0  0  0
  4 23  1  0  0  0  0
  5 19  1  0  0  0  0
  5  6  1  0  0  0  0
  5 37  1  0  0  0  0
  6  7  1  0  0  0  0
  6 24  1  0  0  0  0
  6 25  1  0  0  0  0
  7  8  1  0  0  0  0
  7 26  1  0  0  0  0
  7 27  1  0  0  0  0
  8  9  1  0  0  0  0
  8 18  1  0  0  0  0
  8 28  1  0  0  0  0
  9 10  1  0  0  0  0
  9 29  1  0  0  0  0
 10 11  2  0  0  0  0
 10 12  1  0  0  0  0
 12 13  1  0  0  0  0
 12 30  1  0  0  0  0
 13 17  1  0  0  0  0
 13 14  2  0  0  0  0
 14 15  1  0  0  0  0
 15 16  2  0  0  0  0
 15 31  1  0  0  0  0
 16 17  1  0  0  0  0
 16 32  1  0  0  0  0
 18 19  1  0  0  0  0
 18 33  1  0  0  0  0
 18 34  1  0  0  0  0
 19 35  1  0  0  0  0
 19 36  1  0  0  0  0
M  CHG  1   5   1
M  END
> <s_m_source_file>
AV-unprocessed.smi

> <i_m_source_file_index>
1213

> <i_lp_mmshare_version>
43012

> <i_f3d_flags>
0

> <s_epik_input>
W05IMl1DKD1PKVtDSDJdTjFbQ0gyXVtDSDJdW0NIXShbQ0gyXVtDSDJdMSlbTkhdQyg9TylbTkhdYzJuW2NIXVtjSF1zMg==

> <s_epik_cmdline>
J2VwaWtfcHl0aG9uJywgJy1waCcsICc3LjAnLCAnLXRuJywgJzgnLCAnLW1hJywgJzIwMCcsICctbWV0YWxfYmluZGluZycsICctaW1hZScsICc8aW5maWxlLm1hZT4nLCAnLW9tYWUnLCAnPG91dGZpbGUubWFlPic=

> <r_lp_tautomer_probability>
0.999

> <r_epik_Ionization_Penalty>
0.86253

> <r_epik_Ionization_Penalty_Charging>
0.862349

> <r_epik_Ionization_Penalty_Neutral>
0.000180085

> <r_epik_State_Penalty>
0.898939

> <r_epik_Charging_Adjusted_Penalty>
1.76129

> <i_epik_Tot_Q>
1

> <i_epik_Tot_abs_Q>
1

> <r_epik_Metal_State_Penalty>
0.948529

> <b_epik_Metal_Only>
0

> <s_lp_Force_Field>
OPLS_2005

> <r_lp_Energy>
9.96379

> <b_lp_Chiralities_Consistent>
1

> <s_lp_Variant>
AV-unprocessed.smi:1213-2

> <Gold.Version>
5.8.1

> <Gold.Id.Protein>
6NUR|6NUR_protein|mol2

> <Gold.PLP.Fitness>
47.0966

> <Gold.PLP.PLP>
-36.1041

> <Gold.PLP.part.hbond>
-3.9683

> <Gold.PLP.part.metal>
0.0000

> <Gold.PLP.part.buried>
-3.9565

> <Gold.PLP.part.nonpolar>
-30.5822

> <Gold.PLP.part.repulsive>
0.6834

> <Gold.PLP.ligand.clash>
0.0000

> <Gold.PLP.ligand.torsion>
0.3226

> <Gold.PLP.Chemscore.Hbond>
3.8720

> <Gold.PLP.Chemscore.CHOScore>
0.0000

> <Gold.PLP.Chemscore.Metal>
0.0000

> <Gold.Chemscore.Hbonds>
donor molecule, donor type, donor heavy atom, donor atom, acceptor molecule, acceptor atom, score
      L1  H     1    21       P1 10175  1.00
      L1  H     5    37       P1  7957  1.00
      L1  H     9    29       P1  8028  1.00
      L1  H    12    30       P1  8028  0.99

> <Gold.PLP.Chemscore.Internal.Correction>
0.0217

> <Gold.Rescore>
     Score         DG    S(hbond)    S(metal)    S(lipo)     H(rot)  DE(clash)    DE(int)     intcor
     18.26     -22.21       3.81        0.00      79.47       2.06       0.91       3.03       ----

> <Gold.Chemscore.Fitness>
18.2632

> <Gold.Chemscore.DG>
-22.2070

> <Gold.Chemscore.ZeroCoef>
-5.4800

> <Gold.Chemscore.Hbond>
3.8055

> <Gold.Chemscore.Metal>
0.0000

> <Gold.Chemscore.Lipo>
79.4730

> <Gold.Chemscore.Internal_Hbond>
0.0000

> <Gold.Chemscore.DEClash>
0.9112

> <Gold.Chemscore.DEInternal>
3.0326

> <Gold.Chemscore.Rot>
2.0631

> <Gold.Chemscore.Internal.Correction>
   9.000000E+99

> <Gold.Chemscore.Hbonds>
donor molecule, donor type, donor heavy atom, donor atom, acceptor molecule, acceptor atom, score
      L1  H     1    21       P1 10175  0.97
      L1  H     5    37       P1  7957  1.00
      L1  H     9    29       P1  8028  0.99
      L1  H    12    30       P1  8028  0.91

> <Gold.Chemscore.Hbond.Weighted>
-12.7103

> <Gold.Chemscore.Metal.Weighted>
-0.0000

> <Gold.Chemscore.Lipo.Weighted>
-9.2983

> <Gold.Chemscore.Internal_Hbond.Weighted>
0.0000

> <Gold.Chemscore.DEClash.Weighted>
0.9112

> <Gold.Chemscore.DEInternal.Weighted>
3.0326

> <Gold.Chemscore.Rot.Weighted>
5.2816

> <Gold.Chemscore.Internal.Correction.Weighted>
   9.000000E+99

> <Gold.Protein.RotatedTorsions>
[ 6907 6896 6895 6894 ] final -136.27 input  -60.11 | X-H torsion
[ 7974 7965 7964 7962 ] final   -9.33 input  175.53 | X-H torsion
[ 8008 7997 7996 7995 ] final    3.52 input   59.86 | X-H torsion
[ 10167 10162 10161 10158 ] final -141.39 input  -65.29 | X-H torsion
[ 10718 10713 10712 10709 ] final  173.38 input   66.30 | X-H torsion
[ 10763 10752 10751 10750 ] final   47.19 input  -60.55 | X-H torsion
[ 11005 11000 10999 10996 ] final  178.26 input  -57.11 | X-H torsion

> <Gold.Protein.ActiveResidues>
 VAL166  LYS551  ARG553  GLY616  TRP617  ASP618  TYR619  PRO620  LYS621  CYS622 
 ASP623  PHE694  ASN695  SER759  ASP760  ASP761  ALA762  ILE779  LEU786  VAL792 
 PHE793  MET794  SER795  GLU796  ALA797  LYS798  CYS799  TRP800  GLU811  SER814 

> <Gold.Protein.RotatedAtoms>
  151.0080  133.5992  159.2686 H   0  0  0  0  0  0  0  0  0  0  0  0  # atno 6907 bound_to 6896
  151.3154  135.0804  159.9297 H   0  0  0  0  0  0  0  0  0  0  0  0  # atno 6908 bound_to 6896
  152.5292  133.9737  159.7828 H   0  0  0  0  0  0  0  0  0  0  0  0  # atno 6909 bound_to 6896
  146.2255  140.2601  142.8351 H   0  0  0  0  0  0  0  0  0  0  0  0  # atno 7974 bound_to 7965
  154.7046  140.2680  155.6687 H   0  0  0  0  0  0  0  0  0  0  0  0  # atno 8008 bound_to 7997
  156.2776  140.2765  156.1592 H   0  0  0  0  0  0  0  0  0  0  0  0  # atno 8009 bound_to 7997
  155.0717  140.0372  157.2601 H   0  0  0  0  0  0  0  0  0  0  0  0  # atno 8010 bound_to 7997
  139.8189  143.7600  152.2665 H   0  0  0  0  0  0  0  0  0  0  0  0  # atno 10167 bound_to 10162
  156.9651  131.0073  151.2918 H   0  0  0  0  0  0  0  0  0  0  0  0  # atno 10718 bound_to 10713
  152.9802  135.5984  154.3723 H   0  0  0  0  0  0  0  0  0  0  0  0  # atno 10763 bound_to 10752
  154.3395  135.2768  155.2432 H   0  0  0  0  0  0  0  0  0  0  0  0  # atno 10764 bound_to 10752
  154.4520  135.5987  153.6253 H   0  0  0  0  0  0  0  0  0  0  0  0  # atno 10765 bound_to 10752
  140.3932  134.6844  157.4519 H   0  0  0  0  0  0  0  0  0  0  0  0  # atno 11005 bound_to 11000
  144.9346  140.8012  143.5668 LP  0  0  0  0  0  0  0  0  0  0  0  0  # atno 17320 bound_to 7965
  145.2547  139.2017  143.4923 LP  0  0  0  0  0  0  0  0  0  0  0  0  # atno 17321 bound_to 7965
  139.7772  144.7457  151.0139 LP  0  0  0  0  0  0  0  0  0  0  0  0  # atno 17342 bound_to 10162
  140.7814  143.4580  151.0317 LP  0  0  0  0  0  0  0  0  0  0  0  0  # atno 17343 bound_to 10162
  157.5631  130.8259  149.8291 LP  0  0  0  0  0  0  0  0  0  0  0  0  # atno 17370 bound_to 10713
  156.0306  130.3766  150.1699 LP  0  0  0  0  0  0  0  0  0  0  0  0  # atno 17371 bound_to 10713
  140.0391  134.6293  155.9004 LP  0  0  0  0  0  0  0  0  0  0  0  0  # atno 17394 bound_to 11000
  141.1883  133.6562  156.5320 LP  0  0  0  0  0  0  0  0  0  0  0  0  # atno 17395 bound_to 11000

$$$$
