AV-unprocessed.smi:378|AV-procd|sdf|2457|dock1
  -GOLD-   2262022393D 1   1.00000     0.00000
 Structure written by MMmdl.
 34 35  0  0  0  0  0  0  0  0  1 V2000
  156.5403  136.1996  164.2875 N   0  0  0  0  0  0  0  0  0  0  0  0
  155.4146  136.4661  164.2964 C   0  0  0  0  0  0  0  0  0  0  0  0
  153.9827  136.8041  164.3068 C   0  0  0  0  0  0  0  0  0  0  0  0
  153.3255  136.6902  162.9226 C   0  0  0  0  0  0  0  0  0  0  0  0
  153.8429  137.6860  161.9911 N   0  0  0  0  0  0  0  0  0  0  0  0
  153.5390  137.7480  160.6864 C   0  0  0  0  0  0  0  0  0  0  0  0
  152.7934  136.9399  160.1307 O   0  0  0  0  0  0  0  0  0  0  0  0
  154.1869  138.8976  159.8998 C   0  0  0  0  0  0  0  0  0  0  0  0
  153.6673  140.2309  160.2759 N   0  0  0  0  0  0  0  0  0  0  0  0
  153.9266  140.7236  161.5806 C   0  0  0  0  0  0  0  0  0  0  0  0
  154.5485  140.0486  162.4028 O   0  0  0  0  0  0  0  0  0  0  0  0
  153.4235  142.0673  161.8567 C   0  0  0  0  0  0  0  0  0  0  0  0
  153.6929  142.6113  163.1465 C   0  0  0  0  0  0  0  0  0  0  0  0
  153.9357  143.0459  164.1914 N   0  0  0  0  0  0  0  0  0  0  0  0
  152.7402  142.7595  160.9221 C   0  0  0  0  0  0  0  0  0  0  0  0
  152.4654  142.2468  159.6730 N   0  0  0  0  0  0  0  0  0  0  0  0
  151.8779  143.0574  158.6439 C   0  0  0  0  0  0  0  0  0  0  0  0
  152.6015  144.3067  158.1909 C   0  0  0  0  0  0  0  0  0  0  0  0
  151.3169  144.4269  158.9743 C   0  0  0  0  0  0  0  0  0  0  0  0
  152.9707  140.9825  159.2985 C   0  0  0  0  0  0  0  0  0  0  0  0
  152.8219  140.5485  158.1530 O   0  0  0  0  0  0  0  0  0  0  0  0
  153.4938  136.1261  165.0062 H   0  0  0  0  0  0  0  0  0  0  0  0
  153.8732  137.8106  164.7116 H   0  0  0  0  0  0  0  0  0  0  0  0
  153.5074  135.6990  162.5063 H   0  0  0  0  0  0  0  0  0  0  0  0
  152.2429  136.7962  163.0102 H   0  0  0  0  0  0  0  0  0  0  0  0
  154.4660  138.3858  162.3682 H   0  0  0  0  0  0  0  0  0  0  0  0
  155.2688  138.8573  160.0395 H   0  0  0  0  0  0  0  0  0  0  0  0
  154.0512  138.7020  158.8352 H   0  0  0  0  0  0  0  0  0  0  0  0
  152.3894  143.7535  161.1608 H   0  0  0  0  0  0  0  0  0  0  0  0
  151.3528  142.5073  157.8648 H   0  0  0  0  0  0  0  0  0  0  0  0
  153.5232  144.5795  158.7014 H   0  0  0  0  0  0  0  0  0  0  0  0
  152.5681  144.5486  157.1305 H   0  0  0  0  0  0  0  0  0  0  0  0
  150.4262  144.7455  158.4368 H   0  0  0  0  0  0  0  0  0  0  0  0
  151.3932  144.7820  160.0003 H   0  0  0  0  0  0  0  0  0  0  0  0
  1  2  3  0  0  0  0
  2  3  1  0  0  0  0
  3  4  1  0  0  0  0
  3 22  1  0  0  0  0
  3 23  1  0  0  0  0
  4  5  1  0  0  0  0
  4 24  1  0  0  0  0
  4 25  1  0  0  0  0
  5  6  1  0  0  0  0
  5 26  1  0  0  0  0
  6  7  2  0  0  0  0
  6  8  1  0  0  0  0
  8  9  1  0  0  0  0
  8 27  1  0  0  0  0
  8 28  1  0  0  0  0
  9 20  1  0  0  0  0
  9 10  1  0  0  0  0
 10 11  2  0  0  0  0
 10 12  1  0  0  0  0
 12 13  1  0  0  0  0
 12 15  2  0  0  0  0
 13 14  3  0  0  0  0
 15 16  1  0  0  0  0
 15 29  1  0  0  0  0
 16 17  1  0  0  0  0
 16 20  1  0  0  0  0
 17 19  1  0  0  0  0
 17 18  1  0  0  0  0
 17 30  1  0  0  0  0
 18 19  1  0  0  0  0
 18 31  1  0  0  0  0
 18 32  1  0  0  0  0
 19 33  1  0  0  0  0
 19 34  1  0  0  0  0
 20 21  2  0  0  0  0
M  END
> <s_m_source_file>
AV-unprocessed.smi

> <i_m_source_file_index>
378

> <i_lp_mmshare_version>
43012

> <i_f3d_flags>
0

> <s_epik_input>
TiNDW0NIMl1bQ0gyXVtOSF1DKD1PKVtDSDJdbjFjKD1PKWMoQyNOKVtjSF1uKGMxPU8pW0NIXTJbQ0gyXVtDSDJdMg==

> <s_epik_cmdline>
J2VwaWtfcHl0aG9uJywgJy1waCcsICc3LjAnLCAnLXRuJywgJzgnLCAnLW1hJywgJzIwMCcsICctbWV0YWxfYmluZGluZycsICctaW1hZScsICc8aW5maWxlLm1hZT4nLCAnLW9tYWUnLCAnPG91dGZpbGUubWFlPic=

> <r_lp_tautomer_probability>
1

> <r_epik_Ionization_Penalty>
1.80062e-07

> <r_epik_Ionization_Penalty_Charging>
6.75485e-11

> <r_epik_Ionization_Penalty_Neutral>
1.79994e-07

> <r_epik_State_Penalty>
-0

> <r_epik_Charging_Adjusted_Penalty>
6.75485e-11

> <i_epik_Tot_Q>
0

> <i_epik_Tot_abs_Q>
0

> <r_epik_Metal_State_Penalty>
-0

> <b_epik_Metal_Only>
0

> <s_lp_Force_Field>
OPLS_2005

> <r_lp_Energy>
28.3727

> <b_lp_Chiralities_Consistent>
1

> <s_lp_Variant>
AV-unprocessed.smi:378-1

> <Gold.Version>
5.8.1

> <Gold.Id.Protein>
6NUR|6NUR_protein|mol2

> <Gold.PLP.Fitness>
52.2163

> <Gold.PLP.PLP>
-47.5997

> <Gold.PLP.part.hbond>
-2.0684

> <Gold.PLP.part.metal>
0.0000

> <Gold.PLP.part.buried>
-5.1716

> <Gold.PLP.part.nonpolar>
-40.9250

> <Gold.PLP.part.repulsive>
0.1305

> <Gold.PLP.ligand.clash>
0.0041

> <Gold.PLP.ligand.torsion>
0.2293

> <Gold.PLP.Chemscore.Hbond>
1.5963

> <Gold.PLP.Chemscore.CHOScore>
0.0000

> <Gold.PLP.Chemscore.Metal>
0.0000

> <Gold.Chemscore.Hbonds>
donor molecule, donor type, donor heavy atom, donor atom, acceptor molecule, acceptor atom, score
      P1  H  6896  6907       L1     7  0.98
      P1  H  7997  8009       L1    21  0.59

> <Gold.PLP.Chemscore.Internal.Correction>
0.2905

> <Gold.Rescore>
     Score         DG    S(hbond)    S(metal)    S(lipo)     H(rot)  DE(clash)    DE(int)     intcor
     11.51     -14.41       1.63        0.00      84.53       2.50       0.22       2.68       ----

> <Gold.Chemscore.Fitness>
11.5142

> <Gold.Chemscore.DG>
-14.4126

> <Gold.Chemscore.ZeroCoef>
-5.4800

> <Gold.Chemscore.Hbond>
1.6292

> <Gold.Chemscore.Metal>
0.0000

> <Gold.Chemscore.Lipo>
84.5262

> <Gold.Chemscore.Internal_Hbond>
0.0000

> <Gold.Chemscore.DEClash>
0.2197

> <Gold.Chemscore.DEInternal>
2.6787

> <Gold.Chemscore.Rot>
2.4994

> <Gold.Chemscore.Internal.Correction>
   9.000000E+99

> <Gold.Chemscore.Hbonds>
donor molecule, donor type, donor heavy atom, donor atom, acceptor molecule, acceptor atom, score
      P1  H  6896  6907       L1     7  0.92
      P1  H  7997  8009       L1    21  0.57

> <Gold.Chemscore.Hbond.Weighted>
-5.4415

> <Gold.Chemscore.Metal.Weighted>
-0.0000

> <Gold.Chemscore.Lipo.Weighted>
-9.8896

> <Gold.Chemscore.Internal_Hbond.Weighted>
0.0000

> <Gold.Chemscore.DEClash.Weighted>
0.2197

> <Gold.Chemscore.DEInternal.Weighted>
2.6787

> <Gold.Chemscore.Rot.Weighted>
6.3984

> <Gold.Chemscore.Internal.Correction.Weighted>
   9.000000E+99

> <Gold.Protein.RotatedTorsions>
[ 6907 6896 6895 6894 ] final   29.84 input  -60.11 | X-H torsion
[ 7974 7965 7964 7962 ] final   81.19 input  175.53 | X-H torsion
[ 8008 7997 7996 7995 ] final  162.37 input   59.86 | X-H torsion
[ 10167 10162 10161 10158 ] final  -71.03 input  -65.29 | X-H torsion
[ 10718 10713 10712 10709 ] final   49.61 input   66.30 | X-H torsion
[ 10763 10752 10751 10750 ] final  -33.94 input  -60.55 | X-H torsion
[ 11005 11000 10999 10996 ] final   62.82 input  -57.11 | X-H torsion

> <Gold.Protein.ActiveResidues>
 VAL166  LYS551  ARG553  GLY616  TRP617  ASP618  TYR619  PRO620  LYS621  CYS622 
 ASP623  PHE694  ASN695  SER759  ASP760  ASP761  ALA762  ILE779  LEU786  VAL792 
 PHE793  MET794  SER795  GLU796  ALA797  LYS798  CYS799  TRP800  GLU811  SER814 

> <Gold.Protein.RotatedAtoms>
  152.0374  134.9732  160.0573 H   0  0  0  0  0  0  0  0  0  0  0  0  # atno 6907 bound_to 6896
  152.1184  133.4335  159.4672 H   0  0  0  0  0  0  0  0  0  0  0  0  # atno 6908 bound_to 6896
  150.6847  134.2483  159.4543 H   0  0  0  0  0  0  0  0  0  0  0  0  # atno 6909 bound_to 6896
  145.6414  139.2426  143.2028 H   0  0  0  0  0  0  0  0  0  0  0  0  # atno 7974 bound_to 7965
  156.2036  140.1752  156.7847 H   0  0  0  0  0  0  0  0  0  0  0  0  # atno 8008 bound_to 7997
  154.5625  140.0697  156.8871 H   0  0  0  0  0  0  0  0  0  0  0  0  # atno 8009 bound_to 7997
  155.2822  140.3350  155.4260 H   0  0  0  0  0  0  0  0  0  0  0  0  # atno 8010 bound_to 7997
  140.5306  143.2322  151.7269 H   0  0  0  0  0  0  0  0  0  0  0  0  # atno 10167 bound_to 10162
  157.4803  130.8311  149.8086 H   0  0  0  0  0  0  0  0  0  0  0  0  # atno 10718 bound_to 10713
  153.8385  135.6860  153.4806 H   0  0  0  0  0  0  0  0  0  0  0  0  # atno 10763 bound_to 10752
  153.1468  135.4634  154.9576 H   0  0  0  0  0  0  0  0  0  0  0  0  # atno 10764 bound_to 10752
  154.7855  135.3283  154.7841 H   0  0  0  0  0  0  0  0  0  0  0  0  # atno 10765 bound_to 10752
  140.0066  134.6360  155.9845 H   0  0  0  0  0  0  0  0  0  0  0  0  # atno 11005 bound_to 11000
  146.1277  140.7226  142.9427 LP  0  0  0  0  0  0  0  0  0  0  0  0  # atno 17320 bound_to 7965
  144.7156  140.4197  143.7047 LP  0  0  0  0  0  0  0  0  0  0  0  0  # atno 17321 bound_to 7965
  139.4953  144.4120  152.0070 LP  0  0  0  0  0  0  0  0  0  0  0  0  # atno 17342 bound_to 10162
  140.3222  144.3414  150.6007 LP  0  0  0  0  0  0  0  0  0  0  0  0  # atno 17343 bound_to 10162
  156.0118  130.3830  150.2239 LP  0  0  0  0  0  0  0  0  0  0  0  0  # atno 17370 bound_to 10713
  157.0425  131.0039  151.3279 LP  0  0  0  0  0  0  0  0  0  0  0  0  # atno 17371 bound_to 10713
  141.1681  133.6537  156.4553 LP  0  0  0  0  0  0  0  0  0  0  0  0  # atno 17394 bound_to 11000
  140.4629  134.6824  157.5094 LP  0  0  0  0  0  0  0  0  0  0  0  0  # atno 17395 bound_to 11000

$$$$
