AV-unprocessed.smi:2943|AV-procd|sdf|11270|dock1
  -GOLD-   2272016163D 1   1.00000     0.00000
 Structure written by MMmdl.
 37 39  0  0  0  0  0  0  0  0  2 V2000
  152.5133  139.5121  159.1456 C   0  0  0  0  0  0  0  0  0  0  0  0
  151.8984  140.5671  158.2738 C   0  0  0  0  0  0  0  0  0  0  0  0
  151.2450  140.3603  157.0795 C   0  0  0  0  0  0  0  0  0  0  0  0
  150.9847  139.0615  156.3796 C   0  0  0  0  0  0  0  0  0  0  0  0
  150.8264  141.5831  156.5497 N   0  0  0  0  0  0  0  0  0  0  0  0
  150.1159  141.7763  155.2932 C   0  0  0  0  0  0  0  0  0  0  0  0
  148.6532  141.3117  155.3808 C   0  0  2  0  0  0  0  0  0  0  0  0
  147.8213  141.6495  154.1459 C   0  0  0  0  0  0  0  0  0  0  0  0
  146.4211  141.6392  154.7147 C   0  0  0  0  0  0  0  0  0  0  0  0
  146.6370  142.2618  156.0917 C   0  0  0  0  0  0  0  0  0  0  0  0
  147.9753  141.9417  156.4653 O   0  0  0  0  0  0  0  0  0  0  0  0
  151.1936  142.5906  157.4271 C   0  0  0  0  0  0  0  0  0  0  0  0
  150.9769  143.9294  157.3165 N   0  3  0  0  0  0  0  0  0  0  0  0
  151.4264  144.7055  158.3083 C   0  0  0  0  0  0  0  0  0  0  0  0
  152.0686  144.2150  159.3783 N   0  0  0  0  0  0  0  0  0  0  0  0
  152.3030  142.8870  159.5198 C   0  0  0  0  0  0  0  0  0  0  0  0
  152.9736  142.4799  160.6708 N   0  0  0  0  0  0  0  0  0  0  0  0
  151.8628  141.9835  158.5175 C   0  0  0  0  0  0  0  0  0  0  0  0
  152.9018  138.6807  158.5573 H   0  0  0  0  0  0  0  0  0  0  0  0
  151.7837  139.1094  159.8482 H   0  0  0  0  0  0  0  0  0  0  0  0
  153.3488  139.9057  159.7236 H   0  0  0  0  0  0  0  0  0  0  0  0
  151.1339  138.2121  157.0457 H   0  0  0  0  0  0  0  0  0  0  0  0
  151.6539  138.9403  155.5275 H   0  0  0  0  0  0  0  0  0  0  0  0
  149.9587  139.0066  156.0158 H   0  0  0  0  0  0  0  0  0  0  0  0
  150.1602  142.8331  155.0275 H   0  0  0  0  0  0  0  0  0  0  0  0
  150.6381  141.2434  154.4985 H   0  0  0  0  0  0  0  0  0  0  0  0
  148.6113  140.2349  155.5513 H   0  0  0  0  0  0  0  0  0  0  0  0
  148.0654  142.6459  153.7745 H   0  0  0  0  0  0  0  0  0  0  0  0
  147.9585  140.9369  153.3320 H   0  0  0  0  0  0  0  0  0  0  0  0
  145.7041  142.1893  154.1046 H   0  0  0  0  0  0  0  0  0  0  0  0
  146.0666  140.6125  154.8173 H   0  0  0  0  0  0  0  0  0  0  0  0
  146.5444  143.3471  156.0383 H   0  0  0  0  0  0  0  0  0  0  0  0
  145.9200  141.8965  156.8275 H   0  0  0  0  0  0  0  0  0  0  0  0
  151.2483  145.7668  158.2166 H   0  0  0  0  0  0  0  0  0  0  0  0
  153.2729  143.1437  161.3706 H   0  0  0  0  0  0  0  0  0  0  0  0
  153.1989  141.5088  160.8337 H   0  0  0  0  0  0  0  0  0  0  0  0
  150.4839  144.3138  156.5104 H   0  0  0  0  0  0  0  0  0  0  0  0
  1  2  1  0  0  0  0
  1 19  1  0  0  0  0
  1 20  1  0  0  0  0
  1 21  1  0  0  0  0
  2 18  1  0  0  0  0
  2  3  2  0  0  0  0
  3  4  1  0  0  0  0
  3  5  1  0  0  0  0
  4 22  1  0  0  0  0
  4 23  1  0  0  0  0
  4 24  1  0  0  0  0
  5  6  1  0  0  0  0
  5 12  1  0  0  0  0
  6  7  1  0  0  0  0
  6 25  1  0  0  0  0
  6 26  1  0  0  0  0
  7 11  1  0  0  0  0
  7  8  1  0  0  0  0
  7 27  1  0  0  0  0
  8  9  1  0  0  0  0
  8 28  1  0  0  0  0
  8 29  1  0  0  0  0
  9 10  1  0  0  0  0
  9 30  1  0  0  0  0
  9 31  1  0  0  0  0
 10 11  1  0  0  0  0
 10 32  1  0  0  0  0
 10 33  1  0  0  0  0
 12 18  1  0  0  0  0
 12 13  2  0  0  0  0
 13 14  1  0  0  0  0
 13 37  1  0  0  0  0
 14 15  2  0  0  0  0
 14 34  1  0  0  0  0
 15 16  1  0  0  0  0
 16 17  1  0  0  0  0
 16 18  2  0  0  0  0
 17 35  1  0  0  0  0
 17 36  1  0  0  0  0
M  CHG  1  13   1
M  END
> <s_m_source_file>
AV-unprocessed.smi

> <i_m_source_file_index>
2943

> <i_lp_mmshare_version>
43012

> <i_f3d_flags>
0

> <s_epik_input>
bjFbY0hdbmMoW05IMl0pYyhjMTIpYyhbQ0gzXSljKFtDSDNdKW4yW0NIMl1bQ0BASF0zW0NIMl1bQ0gyXVtDSDJdTzM=

> <s_epik_cmdline>
J2VwaWtfcHl0aG9uJywgJy1waCcsICc3LjAnLCAnLXRuJywgJzgnLCAnLW1hJywgJzIwMCcsICctbWV0YWxfYmluZGluZycsICctaW1hZScsICc8aW5maWxlLm1hZT4nLCAnLW9tYWUnLCAnPG91dGZpbGUubWFlPic=

> <r_epik_Ionization_Penalty>
2.35523

> <r_epik_Ionization_Penalty_Charging>
2.35518

> <r_epik_Ionization_Penalty_Neutral>
5.21205e-05

> <r_epik_State_Penalty>
2.50981

> <r_epik_Charging_Adjusted_Penalty>
4.86499

> <i_epik_Tot_Q>
1

> <i_epik_Tot_abs_Q>
1

> <r_epik_Metal_State_Penalty>
2.52087

> <b_epik_Metal_Only>
0

> <s_lp_Force_Field>
OPLS_2005

> <r_lp_Energy>
21.0086

> <b_lp_Chiralities_Consistent>
1

> <s_lp_Variant>
AV-unprocessed.smi:2943-3

> <Gold.Version>
5.8.1

> <Gold.Id.Protein>
6NUR|6NUR_protein|mol2

> <Gold.PLP.Fitness>
39.9462

> <Gold.PLP.PLP>
-34.2793

> <Gold.PLP.part.hbond>
-1.0000

> <Gold.PLP.part.metal>
0.0000

> <Gold.PLP.part.buried>
-5.7211

> <Gold.PLP.part.nonpolar>
-27.8372

> <Gold.PLP.part.repulsive>
1.0440

> <Gold.PLP.ligand.clash>
0.0000

> <Gold.PLP.ligand.torsion>
0.1673

> <Gold.PLP.Chemscore.Hbond>
2.0000

> <Gold.PLP.Chemscore.CHOScore>
0.0000

> <Gold.PLP.Chemscore.Metal>
0.0000

> <Gold.Chemscore.Hbonds>
donor molecule, donor type, donor heavy atom, donor atom, acceptor molecule, acceptor atom, score
      L1  H    13    37       P1  8028  2.00

> <Gold.PLP.Chemscore.Internal.Correction>
0.0015

> <Gold.Rescore>
     Score         DG    S(hbond)    S(metal)    S(lipo)     H(rot)  DE(clash)    DE(int)     intcor
     12.30     -12.44       0.96        0.00      59.90       1.27       0.03       0.11       ----

> <Gold.Chemscore.Fitness>
12.2957

> <Gold.Chemscore.DG>
-12.4381

> <Gold.Chemscore.ZeroCoef>
-5.4800

> <Gold.Chemscore.Hbond>
0.9604

> <Gold.Chemscore.Metal>
0.0000

> <Gold.Chemscore.Lipo>
59.8968

> <Gold.Chemscore.Internal_Hbond>
0.0000

> <Gold.Chemscore.DEClash>
0.0348

> <Gold.Chemscore.DEInternal>
0.1076

> <Gold.Chemscore.Rot>
1.2725

> <Gold.Chemscore.Internal.Correction>
   9.000000E+99

> <Gold.Chemscore.Hbonds>
donor molecule, donor type, donor heavy atom, donor atom, acceptor molecule, acceptor atom, score
      L1  H    13    37       P1  8028  0.94

> <Gold.Chemscore.Hbond.Weighted>
-3.2077

> <Gold.Chemscore.Metal.Weighted>
-0.0000

> <Gold.Chemscore.Lipo.Weighted>
-7.0079

> <Gold.Chemscore.Internal_Hbond.Weighted>
0.0000

> <Gold.Chemscore.DEClash.Weighted>
0.0348

> <Gold.Chemscore.DEInternal.Weighted>
0.1076

> <Gold.Chemscore.Rot.Weighted>
3.2576

> <Gold.Chemscore.Internal.Correction.Weighted>
   9.000000E+99

> <Gold.Protein.RotatedTorsions>
[ 6907 6896 6895 6894 ] final -110.48 input  -60.11 | X-H torsion
[ 7974 7965 7964 7962 ] final  -63.02 input  175.53 | X-H torsion
[ 8008 7997 7996 7995 ] final  -19.58 input   59.86 | X-H torsion
[ 10167 10162 10161 10158 ] final   91.17 input  -65.29 | X-H torsion
[ 10718 10713 10712 10709 ] final  -31.89 input   66.30 | X-H torsion
[ 10763 10752 10751 10750 ] final  -53.51 input  -60.55 | X-H torsion
[ 11005 11000 10999 10996 ] final   44.24 input  -57.11 | X-H torsion

> <Gold.Protein.ActiveResidues>
 VAL166  LYS551  ARG553  GLY616  TRP617  ASP618  TYR619  PRO620  LYS621  CYS622 
 ASP623  PHE694  ASN695  SER759  ASP760  ASP761  ALA762  ILE779  LEU786  VAL792 
 PHE793  MET794  SER795  GLU796  ALA797  LYS798  CYS799  TRP800  GLU811  SER814 

> <Gold.Protein.RotatedAtoms>
  150.7627  133.9376  159.3445 H   0  0  0  0  0  0  0  0  0  0  0  0  # atno 6907 bound_to 6896
  151.7281  135.0878  160.0305 H   0  0  0  0  0  0  0  0  0  0  0  0  # atno 6908 bound_to 6896
  152.3607  133.6256  159.6049 H   0  0  0  0  0  0  0  0  0  0  0  0  # atno 6909 bound_to 6896
  145.7841  140.8746  143.0315 H   0  0  0  0  0  0  0  0  0  0  0  0  # atno 7974 bound_to 7965
  154.4827  140.2085  155.9726 H   0  0  0  0  0  0  0  0  0  0  0  0  # atno 8008 bound_to 7997
  156.1189  140.3216  155.8149 H   0  0  0  0  0  0  0  0  0  0  0  0  # atno 8009 bound_to 7997
  155.4503  140.0516  157.2992 H   0  0  0  0  0  0  0  0  0  0  0  0  # atno 8010 bound_to 7997
  139.8401  144.6645  150.9294 H   0  0  0  0  0  0  0  0  0  0  0  0  # atno 10167 bound_to 10162
  156.3816  130.4357  149.7464 H   0  0  0  0  0  0  0  0  0  0  0  0  # atno 10718 bound_to 10713
  154.1600  135.6476  153.4983 H   0  0  0  0  0  0  0  0  0  0  0  0  # atno 10763 bound_to 10752
  153.0113  135.5358  154.6721 H   0  0  0  0  0  0  0  0  0  0  0  0  # atno 10764 bound_to 10752
  154.6032  135.2946  155.0485 H   0  0  0  0  0  0  0  0  0  0  0  0  # atno 10765 bound_to 10752
  140.1570  134.4389  155.8343 H   0  0  0  0  0  0  0  0  0  0  0  0  # atno 11005 bound_to 11000
  144.6792  140.0031  143.7484 LP  0  0  0  0  0  0  0  0  0  0  0  0  # atno 17320 bound_to 7965
  146.0044  139.3117  143.0908 LP  0  0  0  0  0  0  0  0  0  0  0  0  # atno 17321 bound_to 7965
  140.7799  143.3921  151.1292 LP  0  0  0  0  0  0  0  0  0  0  0  0  # atno 17342 bound_to 10162
  139.7568  143.8696  152.3090 LP  0  0  0  0  0  0  0  0  0  0  0  0  # atno 17343 bound_to 10162
  156.4552  130.7926  151.2947 LP  0  0  0  0  0  0  0  0  0  0  0  0  # atno 17370 bound_to 10713
  157.7493  131.0083  150.3222 LP  0  0  0  0  0  0  0  0  0  0  0  0  # atno 17371 bound_to 10713
  141.2205  133.6897  156.7526 LP  0  0  0  0  0  0  0  0  0  0  0  0  # atno 17394 bound_to 11000
  140.2535  134.8522  157.3690 LP  0  0  0  0  0  0  0  0  0  0  0  0  # atno 17395 bound_to 11000

$$$$
