#       Name:                AV-unprocessed.smi:149
#       Creating user name   scv26
#       Creation time:       Thu Mar 26 18:44:21 2020


#       File generated by GOLD software.
#

@<TRIPOS>MOLECULE
AV-unprocessed.smi:149
    69    73     1
SMALL
NO_CHARGES


@<TRIPOS>ATOM
      1 ****        -4.2476  -2.3313  -0.6317 C.3            1 S1                 0.0000
      2 ****        -3.4456  -1.0590  -0.9684 C.3            1 S1                 0.0000
      3 ****        -1.9660  -1.2528  -0.5852 C.3            1 S1                 0.0000
      4 ****        -1.5443  -0.0440   0.1008 N.pl3          1 S1                 0.0000
      5 ****        -0.2290   0.2907   0.1842 C.ar           1 S1                 0.0000
      6 ****         0.0987   1.6015   0.3367 N.ar           1 S1                 0.0000
      7 ****         1.3771   1.9772   0.4249 C.ar           1 S1                 0.0000
      8 ****         2.4714   1.2176   0.3891 N.ar           1 S1                 0.0000
      9 ****         2.1581  -0.1019   0.2482 C.ar           1 S1                 0.0000
     10 ****         0.8454  -0.6480   0.1412 C.ar           1 S1                 0.0000
     11 ****         0.9260  -2.0312   0.0225 N.2            1 S1                 0.0000
     12 ****         2.2050  -2.2855   0.0489 C.2            1 S1                 0.0000
     13 ****         3.0207  -1.1850   0.1806 N.pl3          1 S1                 0.0000
     14 ****         4.4565  -1.1902   0.2357 C.3            1 S1                 0.0000
     15 ****         5.2138  -0.5235   1.3873 C.3            1 S1                 0.0000
     16 ****         6.3506  -0.1475   0.4071 C.3            1 S1                 0.0000
     17 ****         6.9699   1.2571   0.5512 C.3            1 S1                 0.0000
     18 ****         5.9939   2.2796   0.5858 O.3            1 S1                 0.0000
     19 ****         7.5145  -1.1534   0.3299 C.3            1 S1                 0.0000
     20 ****         8.2293  -1.2202   1.5475 O.3            1 S1                 0.0000
     21 ****         5.2941  -0.3237  -0.7091 C.3            1 S1                 0.0000
     22 ****        -2.5656   0.9755  -0.0423 C.3            1 S1                 0.0000
     23 ****        -3.8886   0.2170  -0.2100 C.3            1 S1                 0.0000
     24 ****        -4.9022   1.0740  -0.9031 N.4            1 S1                 1.0000
     25 ****        -6.1124   0.3840  -1.4165 C.3            1 S1                 0.0000
     26 ****        -7.0757   0.0285  -0.2688 C.3            1 S1                 0.0000
     27 ****        -7.4459   1.2198   0.4152 O.3            1 S1                 0.0000
     28 ****        -6.3264   1.8856   0.9883 C.3            1 S1                 0.0000
     29 ****        -5.3202   2.2657  -0.1171 C.3            1 S1                 0.0000
     30 ****        -4.2187  -2.5421   0.4379 H              1 S1                 0.0000
     31 ****        -3.8288  -3.1964  -1.1466 H              1 S1                 0.0000
     32 ****        -5.2938  -2.2669  -0.9204 H              1 S1                 0.0000
     33 ****        -3.4874  -0.8704  -2.0422 H              1 S1                 0.0000
     34 ****        -1.8404  -2.0976   0.0932 H              1 S1                 0.0000
     35 ****        -1.3588  -1.4405  -1.4718 H              1 S1                 0.0000
     36 ****         1.5483   3.0372   0.5419 H              1 S1                 0.0000
     37 ****         2.5890  -3.2927  -0.0270 H              1 S1                 0.0000
     38 ****         4.7648  -2.2338   0.1496 H              1 S1                 0.0000
     39 ****         4.6885   0.3402   1.7962 H              1 S1                 0.0000
     40 ****         5.5016  -1.2081   2.1857 H              1 S1                 0.0000
     41 ****         7.5573   1.3356   1.4663 H              1 S1                 0.0000
     42 ****         7.6474   1.4691  -0.2765 H              1 S1                 0.0000
     43 ****         6.4317   3.1106   0.6876 H              1 S1                 0.0000
     44 ****         7.1548  -2.1568   0.1010 H              1 S1                 0.0000
     45 ****         8.2081  -0.8894  -0.4691 H              1 S1                 0.0000
     46 ****         8.9264  -1.8514   1.4528 H              1 S1                 0.0000
     47 ****         5.6513  -0.8481  -1.5959 H              1 S1                 0.0000
     48 ****         4.7911   0.6018  -0.9904 H              1 S1                 0.0000
     49 ****        -2.5850   1.6303   0.8296 H              1 S1                 0.0000
     50 ****        -2.3466   1.5796  -0.9245 H              1 S1                 0.0000
     51 ****        -4.2502  -0.0757   0.7763 H              1 S1                 0.0000
     52 ****        -6.6224   1.0639  -2.1003 H              1 S1                 0.0000
     53 ****        -5.8594  -0.4825  -2.0229 H              1 S1                 0.0000
     54 ****        -7.9752  -0.4411  -0.6668 H              1 S1                 0.0000
     55 ****        -6.6277  -0.6822   0.4267 H              1 S1                 0.0000
     56 ****        -6.6776   2.7839   1.4965 H              1 S1                 0.0000
     57 ****        -5.8652   1.2562   1.7501 H              1 S1                 0.0000
     58 ****        -4.4643   2.7892   0.3068 H              1 S1                 0.0000
     59 ****        -5.7921   2.9748  -0.7987 H              1 S1                 0.0000
     60 ****        -4.4242   1.4276  -1.7197 H              1 S1                 0.0000
     61 ****        -0.6244   2.2906   0.3833 LP             1 S1                 0.0000
     62 ****         3.4045   1.5707   0.4570 LP             1 S1                 0.0000
     63 ****         0.1732  -2.6837  -0.0636 LP             1 S1                 0.0000
     64 ****         5.3747   2.1284   1.3563 LP             1 S1                 0.0000
     65 ****         5.4719   2.2760  -0.2671 LP             1 S1                 0.0000
     66 ****         7.6152  -1.5042   2.2838 LP             1 S1                 0.0000
     67 ****         8.6142  -0.3226   1.7621 LP             1 S1                 0.0000
     68 ****        -8.0881   0.9850   1.1449 LP             1 S1                 0.0000
     69 ****        -7.8898   1.8380  -0.2334 LP             1 S1                 0.0000
@<TRIPOS>BOND
    1    1    2 1     
    2    1   30 1     
    3    1   31 1     
    4    1   32 1     
    5    2   23 1     
    6    2    3 1     
    7    2   33 1     
    8    3    4 1     
    9    3   34 1     
   10    3   35 1     
   11    4    5 1     
   12    4   22 1     
   13    5   10 ar    
   14    5    6 ar    
   15    6    7 ar    
   16    7    8 ar    
   17    7   36 1     
   18    8    9 ar    
   19    9   13 1     
   20    9   10 ar    
   21   10   11 1     
   22   11   12 2     
   23   12   13 1     
   24   12   37 1     
   25   13   14 1     
   26   14   21 1     
   27   14   15 1     
   28   14   38 1     
   29   15   16 1     
   30   15   39 1     
   31   15   40 1     
   32   16   17 1     
   33   16   19 1     
   34   16   21 1     
   35   17   18 1     
   36   17   41 1     
   37   17   42 1     
   38   18   43 1     
   39   19   20 1     
   40   19   44 1     
   41   19   45 1     
   42   20   46 1     
   43   21   47 1     
   44   21   48 1     
   45   22   23 1     
   46   22   49 1     
   47   22   50 1     
   48   23   24 1     
   49   23   51 1     
   50   24   29 1     
   51   24   25 1     
   52   24   60 1     
   53   25   26 1     
   54   25   52 1     
   55   25   53 1     
   56   26   27 1     
   57   26   54 1     
   58   26   55 1     
   59   27   28 1     
   60   28   29 1     
   61   28   56 1     
   62   28   57 1     
   63   29   58 1     
   64   29   59 1     
   65    6   61 1     
   66    8   62 1     
   67   11   63 1     
   68   18   64 1     
   69   18   65 1     
   70   20   66 1     
   71   20   67 1     
   72   27   68 1     
   73   27   69 1     
@<TRIPOS>SUBSTRUCTURE
      1 S1             1
@<TRIPOS>SET
LONE_PAIRS      STATIC     ATOMS    <user>   **** ""
9 61 62 63 64 65 66 67 68 69
DONOR_HYDROGENS      STATIC     ATOMS    <user>   **** ""
3 43 46 60
ATOM$BLUE        STATIC     ATOMS    COLORGROUP SYSTEM
9 61 62 63 64 65 66 67 68 69
ATOM$RED        STATIC     ATOMS    COLORGROUP SYSTEM
3 43 46 60
