AV-unprocessed.smi:260|AV-procd|sdf|1976|dock4
  -GOLD-   2262021143D 1   1.00000     0.00000
 Structure written by MMmdl.
 53 56  0  0  0  0  0  0  0  0  1 V2000
  143.2474  137.2123  160.3255 C   0  0  0  0  0  0  0  0  0  0  0  0
  144.3328  136.3029  160.6591 N   0  0  0  0  0  0  0  0  0  0  0  0
  145.6188  136.6687  160.7821 C   0  0  0  0  0  0  0  0  0  0  0  0
  145.9847  137.8319  160.6071 O   0  0  0  0  0  0  0  0  0  0  0  0
  146.6678  135.5866  161.1509 C   0  0  2  0  0  0  0  0  0  0  0  0
  146.2790  134.9501  162.4999 C   0  0  0  0  0  0  0  0  0  0  0  0
  148.1293  136.0914  161.1530 C   0  0  0  0  0  0  0  0  0  0  0  0
  148.5773  136.0215  159.6873 C   0  0  0  0  0  0  0  0  0  0  0  0
  147.6843  135.0617  159.0552 N   0  0  0  0  0  0  0  0  0  0  0  0
  148.0503  134.3565  157.9534 C   0  0  0  0  0  0  0  0  0  0  0  0
  149.3727  134.1232  157.7412 N   0  0  0  0  0  0  0  0  0  0  0  0
  149.7783  133.4306  156.6737 C   0  0  0  0  0  0  0  0  0  0  0  0
  149.0419  132.8855  155.7048 N   0  0  0  0  0  0  0  0  0  0  0  0
  147.7125  133.1067  155.9114 C   0  0  0  0  0  0  0  0  0  0  0  0
  147.1336  133.8210  157.0003 C   0  0  0  0  0  0  0  0  0  0  0  0
  145.7485  133.8177  156.8737 N   0  0  0  0  0  0  0  0  0  0  0  0
  145.5239  133.1539  155.7736 C   0  0  0  0  0  0  0  0  0  0  0  0
  146.6491  132.7052  155.1211 N   0  0  0  0  0  0  0  0  0  0  0  0
  146.6882  131.9361  153.8889 C   0  0  0  0  0  0  0  0  0  0  0  0
  146.6869  132.8074  152.6115 C   0  0  2  0  0  0  0  0  0  0  0  0
  147.2386  134.0511  152.9941 O   0  0  0  0  0  0  0  0  0  0  0  0
  145.2930  133.0948  152.0071 C   0  0  2  0  0  0  0  0  0  0  0  0
  144.5491  131.8912  151.4226 C   0  0  0  0  0  0  0  0  0  0  0  0
  143.6212  132.5008  150.3845 C   0  0  0  0  0  0  0  0  0  0  0  0
  144.1998  133.8967  150.1508 C   0  0  0  0  0  0  0  0  0  0  0  0
  145.4386  133.8992  150.8452 O   0  0  0  0  0  0  0  0  0  0  0  0
  146.7404  134.5308  160.0312 C   0  0  0  0  0  0  0  0  0  0  0  0
  142.3044  136.6674  160.2875 H   0  0  0  0  0  0  0  0  0  0  0  0
  143.4132  137.6755  159.3522 H   0  0  0  0  0  0  0  0  0  0  0  0
  143.1568  137.9992  161.0750 H   0  0  0  0  0  0  0  0  0  0  0  0
  144.0930  135.3345  160.8146 H   0  0  0  0  0  0  0  0  0  0  0  0
  146.9664  134.1492  162.7739 H   0  0  0  0  0  0  0  0  0  0  0  0
  145.2781  134.5172  162.4701 H   0  0  0  0  0  0  0  0  0  0  0  0
  146.2992  135.6863  163.3045 H   0  0  0  0  0  0  0  0  0  0  0  0
  148.2717  137.0798  161.5912 H   0  0  0  0  0  0  0  0  0  0  0  0
  148.7475  135.4083  161.7372 H   0  0  0  0  0  0  0  0  0  0  0  0
  148.4604  136.9892  159.1988 H   0  0  0  0  0  0  0  0  0  0  0  0
  149.6234  135.7221  159.6149 H   0  0  0  0  0  0  0  0  0  0  0  0
  150.8460  133.2949  156.5833 H   0  0  0  0  0  0  0  0  0  0  0  0
  144.5244  132.9758  155.4040 H   0  0  0  0  0  0  0  0  0  0  0  0
  147.5574  131.2775  153.8992 H   0  0  0  0  0  0  0  0  0  0  0  0
  145.8112  131.2871  153.8970 H   0  0  0  0  0  0  0  0  0  0  0  0
  147.3396  132.3661  151.8575 H   0  0  0  0  0  0  0  0  0  0  0  0
  147.8744  134.3097  152.3447 H   0  0  0  0  0  0  0  0  0  0  0  0
  144.6525  133.6051  152.7294 H   0  0  0  0  0  0  0  0  0  0  0  0
  145.2492  131.2169  150.9276 H   0  0  0  0  0  0  0  0  0  0  0  0
  144.0053  131.3249  152.1777 H   0  0  0  0  0  0  0  0  0  0  0  0
  143.6110  131.9058  149.4708 H   0  0  0  0  0  0  0  0  0  0  0  0
  142.5978  132.5679  150.7549 H   0  0  0  0  0  0  0  0  0  0  0  0
  144.3438  134.1197  149.0935 H   0  0  0  0  0  0  0  0  0  0  0  0
  143.5467  134.6604  150.5755 H   0  0  0  0  0  0  0  0  0  0  0  0
  147.1153  133.5810  160.4157 H   0  0  0  0  0  0  0  0  0  0  0  0
  145.7691  134.3414  159.5716 H   0  0  0  0  0  0  0  0  0  0  0  0
  1  2  1  0  0  0  0
  1 28  1  0  0  0  0
  1 29  1  0  0  0  0
  1 30  1  0  0  0  0
  2  3  1  0  0  0  0
  2 31  1  0  0  0  0
  3  4  2  0  0  0  0
  3  5  1  0  0  0  0
  5 27  1  0  0  0  0
  5  6  1  0  0  0  0
  5  7  1  0  0  0  0
  6 32  1  0  0  0  0
  6 33  1  0  0  0  0
  6 34  1  0  0  0  0
  7  8  1  0  0  0  0
  7 35  1  0  0  0  0
  7 36  1  0  0  0  0
  8  9  1  0  0  0  0
  8 37  1  0  0  0  0
  8 38  1  0  0  0  0
  9 10  1  0  0  0  0
  9 27  1  0  0  0  0
 10 15  1  0  0  0  0
 10 11  2  0  0  0  0
 11 12  1  0  0  0  0
 12 13  2  0  0  0  0
 12 39  1  0  0  0  0
 13 14  1  0  0  0  0
 14 18  1  0  0  0  0
 14 15  2  0  0  0  0
 15 16  1  0  0  0  0
 16 17  2  0  0  0  0
 17 18  1  0  0  0  0
 17 40  1  0  0  0  0
 18 19  1  0  0  0  0
 19 20  1  0  0  0  0
 19 41  1  0  0  0  0
 19 42  1  0  0  0  0
 20 21  1  0  0  0  0
 20 22  1  0  0  0  0
 20 43  1  0  0  0  0
 21 44  1  0  0  0  0
 22 26  1  0  0  0  0
 22 23  1  0  0  0  0
 22 45  1  0  0  0  0
 23 24  1  0  0  0  0
 23 46  1  0  0  0  0
 23 47  1  0  0  0  0
 24 25  1  0  0  0  0
 24 48  1  0  0  0  0
 24 49  1  0  0  0  0
 25 26  1  0  0  0  0
 25 50  1  0  0  0  0
 25 51  1  0  0  0  0
 27 52  1  0  0  0  0
 27 53  1  0  0  0  0
M  END
> <s_m_source_file>
AV-unprocessed.smi

> <i_m_source_file_index>
260

> <i_lp_mmshare_version>
43012

> <i_f3d_flags>
0

> <s_epik_input>
W0NIM11bTkhdQyg9TylbQ0BAXTEoW0NIM10pW0NIMl1bQ0gyXU4oW0NIMl0xKWMobltjSF1uMiljKGMyMyluW2NIXW4zW0NIMl1bQ0BIXShbT0hdKVtDQEBIXTRbQ0gyXVtDSDJdW0NIMl1PNA==

> <s_epik_cmdline>
J2VwaWtfcHl0aG9uJywgJy1waCcsICc3LjAnLCAnLXRuJywgJzgnLCAnLW1hJywgJzIwMCcsICctbWV0YWxfYmluZGluZycsICctaW1hZScsICc8aW5maWxlLm1hZT4nLCAnLW9tYWUnLCAnPG91dGZpbGUubWFlPic=

> <r_lp_tautomer_probability>
1

> <r_epik_Ionization_Penalty>
0.00115068

> <r_epik_Ionization_Penalty_Charging>
0

> <r_epik_Ionization_Penalty_Neutral>
0.00115068

> <r_epik_State_Penalty>
0.000668876

> <r_epik_Charging_Adjusted_Penalty>
0.000668876

> <i_epik_Tot_Q>
0

> <i_epik_Tot_abs_Q>
0

> <r_epik_Metal_State_Penalty>
-0

> <b_epik_Metal_Only>
0

> <s_lp_Force_Field>
OPLS_2005

> <r_lp_Energy>
52.371

> <b_lp_Chiralities_Consistent>
1

> <s_lp_Variant>
AV-unprocessed.smi:260-2

> <Gold.Version>
5.8.1

> <Gold.Id.Protein>
6NUR|6NUR_protein|mol2

> <Gold.PLP.Fitness>
41.0961

> <Gold.PLP.PLP>
-31.8111

> <Gold.PLP.part.hbond>
-3.0000

> <Gold.PLP.part.metal>
0.0000

> <Gold.PLP.part.buried>
-5.3391

> <Gold.PLP.part.nonpolar>
-23.7780

> <Gold.PLP.part.repulsive>
0.1993

> <Gold.PLP.ligand.clash>
0.0000

> <Gold.PLP.ligand.torsion>
1.5099

> <Gold.PLP.Chemscore.Hbond>
2.9920

> <Gold.PLP.Chemscore.CHOScore>
0.9860

> <Gold.PLP.Chemscore.Metal>
0.0000

> <Gold.Chemscore.Hbonds>
donor molecule, donor type, donor heavy atom, donor atom, acceptor molecule, acceptor atom, score
      L1  H    21    44       P1  7948  0.41
      P1  H  6896  6909       L1    11  0.88
      P1  H  6934  6947       L1     4  1.00
      L1  C    17    40       P1 10957  1.00

> <Gold.PLP.Chemscore.Internal.Correction>
0.3706

> <Gold.Rescore>
     Score         DG    S(hbond)    S(metal)    S(lipo)     H(rot)  DE(clash)    DE(int)     intcor
     15.61     -16.81       2.82        0.00      71.52       2.53       0.02       1.18       ----

> <Gold.Chemscore.Fitness>
15.6145

> <Gold.Chemscore.DG>
-16.8135

> <Gold.Chemscore.ZeroCoef>
-5.4800

> <Gold.Chemscore.Hbond>
2.8241

> <Gold.Chemscore.Metal>
0.0000

> <Gold.Chemscore.Lipo>
71.5160

> <Gold.Chemscore.Internal_Hbond>
0.0000

> <Gold.Chemscore.DEClash>
0.0202

> <Gold.Chemscore.DEInternal>
1.1787

> <Gold.Chemscore.Rot>
2.5259

> <Gold.Chemscore.Internal.Correction>
   9.000000E+99

> <Gold.Chemscore.Hbonds>
donor molecule, donor type, donor heavy atom, donor atom, acceptor molecule, acceptor atom, score
      L1  H    21    44       P1  7948  0.12
      P1  H  6896  6909       L1    11  0.76
      P1  H  6934  6947       L1     4  0.98

> <Gold.Chemscore.Hbond.Weighted>
-9.4324

> <Gold.Chemscore.Metal.Weighted>
-0.0000

> <Gold.Chemscore.Lipo.Weighted>
-8.3674

> <Gold.Chemscore.Internal_Hbond.Weighted>
0.0000

> <Gold.Chemscore.DEClash.Weighted>
0.0202

> <Gold.Chemscore.DEInternal.Weighted>
1.1787

> <Gold.Chemscore.Rot.Weighted>
6.4663

> <Gold.Chemscore.Internal.Correction.Weighted>
   9.000000E+99

> <Gold.Protein.RotatedTorsions>
[ 6907 6896 6895 6894 ] final   27.82 input  -60.11 | X-H torsion
[ 7974 7965 7964 7962 ] final   99.76 input  175.53 | X-H torsion
[ 8008 7997 7996 7995 ] final   94.32 input   59.86 | X-H torsion
[ 10167 10162 10161 10158 ] final  -89.20 input  -65.29 | X-H torsion
[ 10718 10713 10712 10709 ] final  -23.30 input   66.30 | X-H torsion
[ 10763 10752 10751 10750 ] final  -24.56 input  -60.55 | X-H torsion
[ 11005 11000 10999 10996 ] final   47.21 input  -57.11 | X-H torsion

> <Gold.Protein.ActiveResidues>
 VAL166  LYS551  ARG553  GLY616  TRP617  ASP618  TYR619  PRO620  LYS621  CYS622 
 ASP623  PHE694  ASN695  SER759  ASP760  ASP761  ALA762  ILE779  LEU786  VAL792 
 PHE793  MET794  SER795  GLU796  ALA797  LYS798  CYS799  TRP800  GLU811  SER814 

> <Gold.Protein.RotatedAtoms>
  152.0079  134.9892  160.0566 H   0  0  0  0  0  0  0  0  0  0  0  0  # atno 6907 bound_to 6896
  152.1457  133.4486  159.4797 H   0  0  0  0  0  0  0  0  0  0  0  0  # atno 6908 bound_to 6896
  150.6870  134.2169  159.4424 H   0  0  0  0  0  0  0  0  0  0  0  0  # atno 6909 bound_to 6896
  145.3946  139.2357  143.3333 H   0  0  0  0  0  0  0  0  0  0  0  0  # atno 7974 bound_to 7965
  156.0566  140.3301  155.7413 H   0  0  0  0  0  0  0  0  0  0  0  0  # atno 8008 bound_to 7997
  155.5519  140.0611  157.2865 H   0  0  0  0  0  0  0  0  0  0  0  0  # atno 8009 bound_to 7997
  154.4461  140.1892  156.0683 H   0  0  0  0  0  0  0  0  0  0  0  0  # atno 8010 bound_to 7997
  140.3672  143.2812  151.9544 H   0  0  0  0  0  0  0  0  0  0  0  0  # atno 10167 bound_to 10162
  156.4929  130.4570  149.6745 H   0  0  0  0  0  0  0  0  0  0  0  0  # atno 10718 bound_to 10713
  153.6858  135.6964  153.5104 H   0  0  0  0  0  0  0  0  0  0  0  0  # atno 10763 bound_to 10752
  153.2451  135.4293  155.0738 H   0  0  0  0  0  0  0  0  0  0  0  0  # atno 10764 bound_to 10752
  154.8387  135.3517  154.6400 H   0  0  0  0  0  0  0  0  0  0  0  0  # atno 10765 bound_to 10752
  140.1299  134.4719  155.8530 H   0  0  0  0  0  0  0  0  0  0  0  0  # atno 11005 bound_to 11000
  146.2781  140.4634  142.8787 LP  0  0  0  0  0  0  0  0  0  0  0  0  # atno 17320 bound_to 7965
  144.8416  140.6866  143.6226 LP  0  0  0  0  0  0  0  0  0  0  0  0  # atno 17321 bound_to 7965
  139.4807  144.5939  151.7723 LP  0  0  0  0  0  0  0  0  0  0  0  0  # atno 17342 bound_to 10162
  140.5069  144.1084  150.5985 LP  0  0  0  0  0  0  0  0  0  0  0  0  # atno 17343 bound_to 10162
  156.3409  130.7381  151.2326 LP  0  0  0  0  0  0  0  0  0  0  0  0  # atno 17370 bound_to 10713
  157.7472  131.0404  150.4596 LP  0  0  0  0  0  0  0  0  0  0  0  0  # atno 17371 bound_to 10713
  141.2168  133.6792  156.7049 LP  0  0  0  0  0  0  0  0  0  0  0  0  # atno 17394 bound_to 11000
  140.2855  134.8282  157.3971 LP  0  0  0  0  0  0  0  0  0  0  0  0  # atno 17395 bound_to 11000

$$$$
