#       Name:                AV-unprocessed.smi:1830
#       Creating user name   scv26
#       Creation time:       Fri Mar 27 09:12:12 2020


#       File generated by GOLD software.
#

@<TRIPOS>MOLECULE
AV-unprocessed.smi:1830
    59    62     1
SMALL
NO_CHARGES


@<TRIPOS>ATOM
      1 ****         0.1478   1.6548   1.4677 O.2            1 S1                 0.0000
      2 ****        -0.3863   0.6190   1.0708 C.2            1 S1                 0.0000
      3 ****         0.2989  -0.4888   0.7559 N.am           1 S1                 0.0000
      4 ****         1.7484  -0.6268   0.8499 C.3            1 S1                 0.0000
      5 ****         2.4730   0.0915  -0.3027 C.3            1 S1                 0.0000
      6 ****         4.0002   0.0335  -0.1431 C.3            1 S1                 0.0000
      7 ****         4.6887   0.6971  -1.2790 N.4            1 S1                 1.0000
      8 ****         6.1403   0.4102  -1.2995 C.3            1 S1                 0.0000
      9 ****         6.3496  -0.7364  -2.3058 C.3            1 S1                 0.0000
     10 ****         4.9709  -1.0083  -2.9181 C.3            1 S1                 0.0000
     11 ****         4.1810   0.2608  -2.5982 C.3            1 S1                 0.0000
     12 ****         2.6444   0.1347  -2.6504 C.3            1 S1                 0.0000
     13 ****         2.1450  -0.5661  -1.5202 O.3            1 S1                 0.0000
     14 ****        -1.7078   0.4375   0.9114 N.am           1 S1                 0.0000
     15 ****        -2.7625   1.3616   1.1601 C.ar           1 S1                 0.0000
     16 ****        -2.5783   2.7586   1.0143 C.ar           1 S1                 0.0000
     17 ****        -3.6462   3.6290   1.2905 C.ar           1 S1                 0.0000
     18 ****        -4.8677   3.0715   1.7021 C.ar           1 S1                 0.0000
     19 ****        -5.0662   1.7443   1.8263 N.ar           1 S1                 0.0000
     20 ****        -4.0503   0.8904   1.5478 C.ar           1 S1                 0.0000
     21 ****        -4.3262  -0.4906   1.6733 N.3            1 S1                 0.0000
     22 ****        -4.1031  -1.3442   0.5101 C.3            1 S1                 0.0000
     23 ****        -5.2191  -2.3944   0.5214 C.3            1 S1                 0.0000
     24 ****        -5.6893  -2.4054   1.9725 C.3            1 S1                 0.0000
     25 ****        -5.5182  -0.9455   2.3819 C.3            1 S1                 0.0000
     26 ****        -0.2174  -1.2972   0.4406 H              1 S1                 0.0000
     27 ****         2.0854  -0.2359   1.8115 H              1 S1                 0.0000
     28 ****         1.9953  -1.6889   0.8454 H              1 S1                 0.0000
     29 ****         2.1523   1.1343  -0.3408 H              1 S1                 0.0000
     30 ****         4.3023   0.5190   0.7858 H              1 S1                 0.0000
     31 ****         4.3184  -1.0082  -0.0736 H              1 S1                 0.0000
     32 ****         6.6604   1.3028  -1.6493 H              1 S1                 0.0000
     33 ****         6.5344   0.1748  -0.3096 H              1 S1                 0.0000
     34 ****         7.0620  -0.4355  -3.0748 H              1 S1                 0.0000
     35 ****         6.7457  -1.6303  -1.8233 H              1 S1                 0.0000
     36 ****         5.0188  -1.2156  -3.9876 H              1 S1                 0.0000
     37 ****         4.5139  -1.8712  -2.4317 H              1 S1                 0.0000
     38 ****         4.4813   1.0202  -3.3224 H              1 S1                 0.0000
     39 ****         2.1858   1.1241  -2.6898 H              1 S1                 0.0000
     40 ****         2.3381  -0.3845  -3.5587 H              1 S1                 0.0000
     41 ****        -2.0027  -0.4991   0.6776 H              1 S1                 0.0000
     42 ****        -1.6388   3.1776   0.6882 H              1 S1                 0.0000
     43 ****        -3.5304   4.6981   1.1916 H              1 S1                 0.0000
     44 ****        -5.7109   3.7064   1.9299 H              1 S1                 0.0000
     45 ****        -4.0992  -0.7777  -0.4224 H              1 S1                 0.0000
     46 ****        -3.1344  -1.8328   0.6152 H              1 S1                 0.0000
     47 ****        -6.0353  -2.0691  -0.1248 H              1 S1                 0.0000
     48 ****        -4.8846  -3.3721   0.1739 H              1 S1                 0.0000
     49 ****        -6.7131  -2.7619   2.0887 H              1 S1                 0.0000
     50 ****        -5.0362  -3.0414   2.5714 H              1 S1                 0.0000
     51 ****        -5.4047  -0.8379   3.4608 H              1 S1                 0.0000
     52 ****        -6.3965  -0.3779   2.0716 H              1 S1                 0.0000
     53 ****         4.5406   1.6919  -1.1836 H              1 S1                 0.0000
     54 ****         1.1418   1.6978   1.5690 LP             1 S1                 0.0000
     55 ****        -0.4123   2.4532   1.6889 LP             1 S1                 0.0000
     56 ****         1.1500  -0.6323  -1.5943 LP             1 S1                 0.0000
     57 ****         2.5403  -1.4846  -1.5084 LP             1 S1                 0.0000
     58 ****        -5.9545   1.3924   2.1212 LP             1 S1                 0.0000
     59 ****        -3.5718  -0.6199   2.3169 LP             1 S1                 0.0000
@<TRIPOS>BOND
    1    1    2 2     
    2    2    3 am    
    3    2   14 am    
    4    3    4 1     
    5    3   26 1     
    6    4    5 1     
    7    4   27 1     
    8    4   28 1     
    9    5   13 1     
   10    5    6 1     
   11    5   29 1     
   12    6    7 1     
   13    6   30 1     
   14    6   31 1     
   15    7   11 1     
   16    7    8 1     
   17    7   53 1     
   18    8    9 1     
   19    8   32 1     
   20    8   33 1     
   21    9   10 1     
   22    9   34 1     
   23    9   35 1     
   24   10   11 1     
   25   10   36 1     
   26   10   37 1     
   27   11   12 1     
   28   11   38 1     
   29   12   13 1     
   30   12   39 1     
   31   12   40 1     
   32   14   15 1     
   33   14   41 1     
   34   15   20 ar    
   35   15   16 ar    
   36   16   17 ar    
   37   16   42 1     
   38   17   18 ar    
   39   17   43 1     
   40   18   19 ar    
   41   18   44 1     
   42   19   20 ar    
   43   20   21 1     
   44   21   25 1     
   45   21   22 1     
   46   22   23 1     
   47   22   45 1     
   48   22   46 1     
   49   23   24 1     
   50   23   47 1     
   51   23   48 1     
   52   24   25 1     
   53   24   49 1     
   54   24   50 1     
   55   25   51 1     
   56   25   52 1     
   57    1   54 1     
   58    1   55 1     
   59   13   56 1     
   60   13   57 1     
   61   19   58 1     
   62   21   59 1     
@<TRIPOS>SUBSTRUCTURE
      1 S1             1
@<TRIPOS>SET
LONE_PAIRS      STATIC     ATOMS    <user>   **** ""
6 54 55 56 57 58 59
DONOR_HYDROGENS      STATIC     ATOMS    <user>   **** ""
3 26 53 41
ATOM$BLUE        STATIC     ATOMS    COLORGROUP SYSTEM
6 54 55 56 57 58 59
ATOM$RED        STATIC     ATOMS    COLORGROUP SYSTEM
3 26 53 41
