AV-unprocessed.smi:265|AV-procd|sdf|2019|dock7
  -GOLD-   2262021223D 1   1.00000     0.00000
 Structure written by MMmdl.
 52 56  0  0  0  0  0  0  0  0  1 V2000
  145.6203  134.7418  152.0663 C   0  0  0  0  0  0  0  0  0  0  0  0
  146.3389  133.5682  151.3819 C   0  0  2  0  0  0  0  0  0  0  0  0
  145.6593  133.2958  150.1591 O   0  0  0  0  0  0  0  0  0  0  0  0
  145.7996  131.9197  149.8555 C   0  0  0  0  0  0  0  0  0  0  0  0
  145.6286  131.2683  151.2190 C   0  0  0  0  0  0  0  0  0  0  0  0
  146.3742  132.2181  152.1537 C   0  0  1  0  0  0  0  0  0  0  0  0
  147.7249  131.7923  152.2166 O   0  0  0  0  0  0  0  0  0  0  0  0
  145.8086  132.2364  153.5983 C   0  0  0  0  0  0  0  0  0  0  0  0
  146.3853  133.2785  154.4349 N   0  0  0  0  0  0  0  0  0  0  0  0
  145.7064  134.2692  155.1097 C   0  0  0  0  0  0  0  0  0  0  0  0
  146.4534  135.0901  155.7971 N   0  0  0  0  0  0  0  0  0  0  0  0
  147.7458  134.6367  155.5682 C   0  0  0  0  0  0  0  0  0  0  0  0
  149.0301  135.0647  155.9934 C   0  0  0  0  0  0  0  0  0  0  0  0
  149.1945  136.1255  156.8124 N   0  0  0  0  0  0  0  0  0  0  0  0
  148.7507  135.8636  158.1774 C   0  0  0  0  0  0  0  0  0  0  0  0
  148.7053  137.1667  158.9904 C   0  0  0  0  0  0  0  0  0  0  0  0
  150.0433  137.9243  158.9347 C   0  0  1  0  0  0  0  0  0  0  0  0
  151.0456  137.2089  159.6457 O   0  0  0  0  0  0  0  0  0  0  0  0
  152.2694  137.9308  159.7993 C   0  0  0  0  0  0  0  0  0  0  0  0
  152.7657  138.5325  158.4713 C   0  0  0  0  0  0  0  0  0  0  0  0
  153.9245  138.9296  158.3736 O   0  0  0  0  0  0  0  0  0  0  0  0
  151.8893  138.6439  157.4603 N   0  0  0  0  0  0  0  0  0  0  0  0
  150.5368  138.0963  157.4810 C   0  0  1  0  0  0  0  0  0  0  0  0
  150.5067  136.7580  156.7150 C   0  0  0  0  0  0  0  0  0  0  0  0
  150.1121  134.3664  155.5587 N   0  0  0  0  0  0  0  0  0  0  0  0
  149.9443  133.3126  154.7532 C   0  0  0  0  0  0  0  0  0  0  0  0
  148.8083  132.8002  154.2736 N   0  0  0  0  0  0  0  0  0  0  0  0
  147.7229  133.5006  154.7125 C   0  0  0  0  0  0  0  0  0  0  0  0
  149.9089  138.9000  159.4061 H   0  0  0  0  0  0  0  0  0  0  0  0
  149.8823  138.8042  156.9709 H   0  0  0  0  0  0  0  0  0  0  0  0
  146.1052  135.0142  153.0038 H   0  0  0  0  0  0  0  0  0  0  0  0
  144.5768  134.5066  152.2758 H   0  0  0  0  0  0  0  0  0  0  0  0
  145.6325  135.6243  151.4265 H   0  0  0  0  0  0  0  0  0  0  0  0
  147.3516  133.8876  151.1283 H   0  0  0  0  0  0  0  0  0  0  0  0
  145.0549  131.5887  149.1315 H   0  0  0  0  0  0  0  0  0  0  0  0
  146.7930  131.7282  149.4470 H   0  0  0  0  0  0  0  0  0  0  0  0
  144.5664  131.2563  151.4667 H   0  0  0  0  0  0  0  0  0  0  0  0
  145.9892  130.2391  151.2527 H   0  0  0  0  0  0  0  0  0  0  0  0
  147.9359  131.3443  151.4117 H   0  0  0  0  0  0  0  0  0  0  0  0
  144.7268  132.3747  153.5802 H   0  0  0  0  0  0  0  0  0  0  0  0
  145.9891  131.2813  154.0920 H   0  0  0  0  0  0  0  0  0  0  0  0
  144.6308  134.3638  155.0786 H   0  0  0  0  0  0  0  0  0  0  0  0
  147.7629  135.4007  158.1663 H   0  0  0  0  0  0  0  0  0  0  0  0
  149.4311  135.1536  158.6504 H   0  0  0  0  0  0  0  0  0  0  0  0
  147.9175  137.8064  158.5908 H   0  0  0  0  0  0  0  0  0  0  0  0
  148.4348  136.9550  160.0252 H   0  0  0  0  0  0  0  0  0  0  0  0
  152.1272  138.7370  160.5198 H   0  0  0  0  0  0  0  0  0  0  0  0
  153.0278  137.2625  160.2079 H   0  0  0  0  0  0  0  0  0  0  0  0
  152.2028  139.0710  156.6009 H   0  0  0  0  0  0  0  0  0  0  0  0
  151.2621  136.0815  157.1181 H   0  0  0  0  0  0  0  0  0  0  0  0
  150.7560  136.9246  155.6660 H   0  0  0  0  0  0  0  0  0  0  0  0
  150.8493  132.8070  154.4501 H   0  0  0  0  0  0  0  0  0  0  0  0
  1  2  1  0  0  0  0
  1 31  1  0  0  0  0
  1 32  1  0  0  0  0
  1 33  1  0  0  0  0
  2  6  1  0  0  0  0
  2  3  1  0  0  0  0
  2 34  1  0  0  0  0
  3  4  1  0  0  0  0
  4  5  1  0  0  0  0
  4 35  1  0  0  0  0
  4 36  1  0  0  0  0
  5  6  1  0  0  0  0
  5 37  1  0  0  0  0
  5 38  1  0  0  0  0
  6  7  1  0  0  0  0
  6  8  1  0  0  0  0
  7 39  1  0  0  0  0
  8  9  1  0  0  0  0
  8 40  1  0  0  0  0
  8 41  1  0  0  0  0
  9 28  1  0  0  0  0
  9 10  1  0  0  0  0
 10 11  2  0  0  0  0
 10 42  1  0  0  0  0
 11 12  1  0  0  0  0
 12 28  2  0  0  0  0
 12 13  1  0  0  0  0
 13 14  1  0  0  0  0
 13 25  2  0  0  0  0
 14 24  1  0  0  0  0
 14 15  1  0  0  0  0
 15 16  1  0  0  0  0
 15 43  1  0  0  0  0
 15 44  1  0  0  0  0
 16 17  1  0  0  0  0
 16 45  1  0  0  0  0
 16 46  1  0  0  0  0
 17 29  1  0  0  0  0
 17 23  1  0  0  0  0
 17 18  1  0  0  0  0
 18 19  1  0  0  0  0
 19 20  1  0  0  0  0
 19 47  1  0  0  0  0
 19 48  1  0  0  0  0
 20 21  2  0  0  0  0
 20 22  1  0  0  0  0
 22 23  1  0  0  0  0
 22 49  1  0  0  0  0
 23 30  1  0  0  0  0
 23 24  1  0  0  0  0
 24 50  1  0  0  0  0
 24 51  1  0  0  0  0
 25 26  1  0  0  0  0
 26 27  2  0  0  0  0
 26 52  1  0  0  0  0
 27 28  1  0  0  0  0
M  END
> <s_m_source_file>
AV-unprocessed.smi

> <i_m_source_file_index>
265

> <i_lp_mmshare_version>
43012

> <i_f3d_flags>
0

> <s_epik_input>
W0NIMl0xW0NIMl1PW0NAQEhdKFtDSDNdKVtDQEBdMShbT0hdKVtDSDJdbihbY0hdbjIpYyhjMjMpbltjSF1uYzNOKFtDSDJdW0NIMl00KVtDSDJdW0NAQEhdKFtDQEhdNDUpW05IXUMoPU8pW0NIMl1PNQ==

> <s_epik_cmdline>
J2VwaWtfcHl0aG9uJywgJy1waCcsICc3LjAnLCAnLXRuJywgJzgnLCAnLW1hJywgJzIwMCcsICctbWV0YWxfYmluZGluZycsICctaW1hZScsICc8aW5maWxlLm1hZT4nLCAnLW9tYWUnLCAnPG91dGZpbGUubWFlPic=

> <r_lp_tautomer_probability>
1

> <r_epik_Ionization_Penalty>
0.00221504

> <r_epik_Ionization_Penalty_Charging>
0

> <r_epik_Ionization_Penalty_Neutral>
0.00221504

> <r_epik_State_Penalty>
-0

> <r_epik_Charging_Adjusted_Penalty>
0

> <i_epik_Tot_Q>
0

> <i_epik_Tot_abs_Q>
0

> <r_epik_Metal_State_Penalty>
-0

> <b_epik_Metal_Only>
0

> <s_lp_Force_Field>
OPLS_2005

> <r_lp_Energy>
45.6992

> <b_lp_Chiralities_Consistent>
1

> <s_lp_Variant>
AV-unprocessed.smi:265-5

> <Gold.Version>
5.8.1

> <Gold.Id.Protein>
6NUR|6NUR_protein|mol2

> <Gold.PLP.Fitness>
38.4557

> <Gold.PLP.PLP>
-30.3317

> <Gold.PLP.part.hbond>
-2.7547

> <Gold.PLP.part.metal>
0.0000

> <Gold.PLP.part.buried>
-7.9310

> <Gold.PLP.part.nonpolar>
-20.5838

> <Gold.PLP.part.repulsive>
1.2855

> <Gold.PLP.ligand.clash>
0.0000

> <Gold.PLP.ligand.torsion>
0.5247

> <Gold.PLP.Chemscore.Hbond>
3.0000

> <Gold.PLP.Chemscore.CHOScore>
0.0000

> <Gold.PLP.Chemscore.Metal>
0.0000

> <Gold.Chemscore.Hbonds>
donor molecule, donor type, donor heavy atom, donor atom, acceptor molecule, acceptor atom, score
      L1  H     7    39       P1 10747  1.00
      P1  H  6896  6907       L1    18  0.80
      P1  H  7997  8010       L1    21  1.00

> <Gold.PLP.Chemscore.Internal.Correction>
0.1734

> <Gold.Rescore>
     Score         DG    S(hbond)    S(metal)    S(lipo)     H(rot)  DE(clash)    DE(int)     intcor
     13.56     -17.27       2.95        0.00      65.80       2.25       0.04       3.67       ----

> <Gold.Chemscore.Fitness>
13.5620

> <Gold.Chemscore.DG>
-17.2741

> <Gold.Chemscore.ZeroCoef>
-5.4800

> <Gold.Chemscore.Hbond>
2.9471

> <Gold.Chemscore.Metal>
0.0000

> <Gold.Chemscore.Lipo>
65.7996

> <Gold.Chemscore.Internal_Hbond>
0.0000

> <Gold.Chemscore.DEClash>
0.0400

> <Gold.Chemscore.DEInternal>
3.6721

> <Gold.Chemscore.Rot>
2.2453

> <Gold.Chemscore.Internal.Correction>
   9.000000E+99

> <Gold.Chemscore.Hbonds>
donor molecule, donor type, donor heavy atom, donor atom, acceptor molecule, acceptor atom, score
      L1  H     7    39       P1 10747  0.95
      P1  H  6896  6907       L1    18  0.47
      P1  H  7997  8010       L1    21  1.00

> <Gold.Chemscore.Hbond.Weighted>
-9.8435

> <Gold.Chemscore.Metal.Weighted>
-0.0000

> <Gold.Chemscore.Lipo.Weighted>
-7.6985

> <Gold.Chemscore.Internal_Hbond.Weighted>
0.0000

> <Gold.Chemscore.DEClash.Weighted>
0.0400

> <Gold.Chemscore.DEInternal.Weighted>
3.6721

> <Gold.Chemscore.Rot.Weighted>
5.7479

> <Gold.Chemscore.Internal.Correction.Weighted>
   9.000000E+99

> <Gold.Protein.RotatedTorsions>
[ 6907 6896 6895 6894 ] final   -3.85 input  -60.11 | X-H torsion
[ 7974 7965 7964 7962 ] final  148.71 input  175.53 | X-H torsion
[ 8008 7997 7996 7995 ] final   19.04 input   59.86 | X-H torsion
[ 10167 10162 10161 10158 ] final  144.85 input  -65.29 | X-H torsion
[ 10718 10713 10712 10709 ] final   31.00 input   66.30 | X-H torsion
[ 10763 10752 10751 10750 ] final -116.87 input  -60.55 | X-H torsion
[ 11005 11000 10999 10996 ] final  117.10 input  -57.11 | X-H torsion

> <Gold.Protein.ActiveResidues>
 VAL166  LYS551  ARG553  GLY616  TRP617  ASP618  TYR619  PRO620  LYS621  CYS622 
 ASP623  PHE694  ASN695  SER759  ASP760  ASP761  ALA762  ILE779  LEU786  VAL792 
 PHE793  MET794  SER795  GLU796  ALA797  LYS798  CYS799  TRP800  GLU811  SER814 

> <Gold.Protein.RotatedAtoms>
  151.5071  135.1064  159.9843 H   0  0  0  0  0  0  0  0  0  0  0  0  # atno 6907 bound_to 6896
  152.4677  133.7956  159.6936 H   0  0  0  0  0  0  0  0  0  0  0  0  # atno 6908 bound_to 6896
  150.8670  133.7497  159.2999 H   0  0  0  0  0  0  0  0  0  0  0  0  # atno 6909 bound_to 6896
  144.8493  139.6188  143.5981 H   0  0  0  0  0  0  0  0  0  0  0  0  # atno 7974 bound_to 7965
  154.9149  140.3019  155.5247 H   0  0  0  0  0  0  0  0  0  0  0  0  # atno 8008 bound_to 7997
  156.3013  140.2382  156.4128 H   0  0  0  0  0  0  0  0  0  0  0  0  # atno 8009 bound_to 7997
  154.8388  140.0415  157.1516 H   0  0  0  0  0  0  0  0  0  0  0  0  # atno 8010 bound_to 7997
  139.4938  144.5943  151.6616 H   0  0  0  0  0  0  0  0  0  0  0  0  # atno 10167 bound_to 10162
  157.2668  130.7188  149.6483 H   0  0  0  0  0  0  0  0  0  0  0  0  # atno 10718 bound_to 10713
  154.8535  135.4330  154.1889 H   0  0  0  0  0  0  0  0  0  0  0  0  # atno 10763 bound_to 10752
  153.2962  135.6965  153.7252 H   0  0  0  0  0  0  0  0  0  0  0  0  # atno 10764 bound_to 10752
  153.6399  135.3470  155.3043 H   0  0  0  0  0  0  0  0  0  0  0  0  # atno 10765 bound_to 10752
  139.9063  134.9606  156.7300 H   0  0  0  0  0  0  0  0  0  0  0  0  # atno 11005 bound_to 11000
  146.2771  139.6781  142.9255 LP  0  0  0  0  0  0  0  0  0  0  0  0  # atno 17320 bound_to 7965
  145.4533  141.0429  143.2792 LP  0  0  0  0  0  0  0  0  0  0  0  0  # atno 17321 bound_to 7965
  140.5577  144.0320  150.6155 LP  0  0  0  0  0  0  0  0  0  0  0  0  # atno 17342 bound_to 10162
  140.3396  143.3028  152.0602 LP  0  0  0  0  0  0  0  0  0  0  0  0  # atno 17343 bound_to 10162
  155.9663  130.4380  150.5199 LP  0  0  0  0  0  0  0  0  0  0  0  0  # atno 17370 bound_to 10713
  157.3115  131.0664  151.1997 LP  0  0  0  0  0  0  0  0  0  0  0  0  # atno 17371 bound_to 10713
  140.6933  133.9371  155.7979 LP  0  0  0  0  0  0  0  0  0  0  0  0  # atno 17394 bound_to 11000
  141.0426  134.0600  157.3884 LP  0  0  0  0  0  0  0  0  0  0  0  0  # atno 17395 bound_to 11000

$$$$
