AV-unprocessed.smi:3066|AV-procd|sdf|11693|dock4
  -GOLD-   2272017 93D 1   1.00000     0.00000
 Structure written by MMmdl.
 35 36  0  0  0  0  0  0  0  0  1 V2000
  155.4644  135.6334  156.8639 N   0  0  0  0  0  0  0  0  0  0  0  0
  155.0685  136.1000  157.8463 C   0  0  0  0  0  0  0  0  0  0  0  0
  154.5711  136.6862  159.0791 C   0  0  0  0  0  0  0  0  0  0  0  0
  153.7638  135.9851  159.9273 N   0  0  0  0  0  0  0  0  0  0  0  0
  153.5867  136.9145  160.8585 C   0  0  0  0  0  0  0  0  0  0  0  0
  154.2208  138.0646  160.6057 N   0  0  0  0  0  0  0  0  0  0  0  0
  154.2626  139.3037  161.3610 C   0  0  0  0  0  0  0  0  0  0  0  0
  154.0098  140.5081  160.4535 C   0  0  0  0  0  0  0  0  0  0  0  0
  154.2977  140.4486  159.2584 O   0  0  0  0  0  0  0  0  0  0  0  0
  153.4722  141.5917  161.0362 N   0  0  0  0  0  0  0  0  0  0  0  0
  153.1775  142.8592  160.3731 C   0  0  0  0  0  0  0  0  0  0  0  0
  152.2994  143.6996  161.3194 C   0  0  0  0  0  0  0  0  0  0  0  0
  151.8694  145.0711  160.7707 C   0  0  0  0  0  0  0  0  0  0  0  0
  150.7696  144.9658  159.7019 C   0  0  0  0  0  0  0  0  0  0  0  0
  151.2653  144.7403  158.2629 C   0  0  0  0  0  0  0  0  0  0  0  0
  152.5002  143.8380  158.0923 C   0  0  0  0  0  0  0  0  0  0  0  0
  152.5421  142.5905  158.9907 C   0  0  0  0  0  0  0  0  0  0  0  0
  154.8807  137.9331  159.4287 N   0  0  0  0  0  0  0  0  0  0  0  0
  152.9799  136.7572  161.7384 H   0  0  0  0  0  0  0  0  0  0  0  0
  153.5063  139.2603  162.1459 H   0  0  0  0  0  0  0  0  0  0  0  0
  155.2324  139.4013  161.8518 H   0  0  0  0  0  0  0  0  0  0  0  0
  153.2683  141.5405  162.0242 H   0  0  0  0  0  0  0  0  0  0  0  0
  154.1164  143.3971  160.2281 H   0  0  0  0  0  0  0  0  0  0  0  0
  151.4140  143.1316  161.6092 H   0  0  0  0  0  0  0  0  0  0  0  0
  152.8554  143.8643  162.2436 H   0  0  0  0  0  0  0  0  0  0  0  0
  151.4694  145.6479  161.6054 H   0  0  0  0  0  0  0  0  0  0  0  0
  152.7259  145.6372  160.4023 H   0  0  0  0  0  0  0  0  0  0  0  0
  150.0740  144.1718  159.9761 H   0  0  0  0  0  0  0  0  0  0  0  0
  150.1761  145.8806  159.7117 H   0  0  0  0  0  0  0  0  0  0  0  0
  150.4395  144.3305  157.6803 H   0  0  0  0  0  0  0  0  0  0  0  0
  151.4899  145.7061  157.8091 H   0  0  0  0  0  0  0  0  0  0  0  0
  152.5379  143.5222  157.0490 H   0  0  0  0  0  0  0  0  0  0  0  0
  153.4069  144.4248  158.2438 H   0  0  0  0  0  0  0  0  0  0  0  0
  153.1459  141.8421  158.4755 H   0  0  0  0  0  0  0  0  0  0  0  0
  151.5492  142.1503  159.0922 H   0  0  0  0  0  0  0  0  0  0  0  0
  1  2  3  0  0  0  0
  2  3  1  0  0  0  0
  3 18  2  0  0  0  0
  3  4  1  0  0  0  0
  4  5  2  0  0  0  0
  5  6  1  0  0  0  0
  5 19  1  0  0  0  0
  6  7  1  0  0  0  0
  6 18  1  0  0  0  0
  7  8  1  0  0  0  0
  7 20  1  0  0  0  0
  7 21  1  0  0  0  0
  8  9  2  0  0  0  0
  8 10  1  0  0  0  0
 10 11  1  0  0  0  0
 10 22  1  0  0  0  0
 11 17  1  0  0  0  0
 11 12  1  0  0  0  0
 11 23  1  0  0  0  0
 12 13  1  0  0  0  0
 12 24  1  0  0  0  0
 12 25  1  0  0  0  0
 13 14  1  0  0  0  0
 13 26  1  0  0  0  0
 13 27  1  0  0  0  0
 14 15  1  0  0  0  0
 14 28  1  0  0  0  0
 14 29  1  0  0  0  0
 15 16  1  0  0  0  0
 15 30  1  0  0  0  0
 15 31  1  0  0  0  0
 16 17  1  0  0  0  0
 16 32  1  0  0  0  0
 16 33  1  0  0  0  0
 17 34  1  0  0  0  0
 17 35  1  0  0  0  0
M  END
> <s_m_source_file>
AV-unprocessed.smi

> <i_m_source_file_index>
3066

> <i_lp_mmshare_version>
43012

> <i_f3d_flags>
0

> <s_epik_input>
TiNDYzFuW2NIXW4objEpW0NIMl1DKD1PKVtOSF1bQ0hdMltDSDJdW0NIMl1bQ0gyXVtDSDJdW0NIMl1bQ0gyXTI=

> <s_epik_cmdline>
J2VwaWtfcHl0aG9uJywgJy1waCcsICc3LjAnLCAnLXRuJywgJzgnLCAnLW1hJywgJzIwMCcsICctbWV0YWxfYmluZGluZycsICctaW1hZScsICc8aW5maWxlLm1hZT4nLCAnLW9tYWUnLCAnPG91dGZpbGUubWFlPic=

> <r_lp_tautomer_probability>
1

> <r_epik_Ionization_Penalty>
4.79211e-08

> <r_epik_Ionization_Penalty_Charging>
0

> <r_epik_Ionization_Penalty_Neutral>
4.79211e-08

> <r_epik_State_Penalty>
-0

> <r_epik_Charging_Adjusted_Penalty>
0

> <i_epik_Tot_Q>
0

> <i_epik_Tot_abs_Q>
0

> <r_epik_Metal_State_Penalty>
-0

> <b_epik_Metal_Only>
0

> <s_lp_Force_Field>
OPLS_2005

> <r_lp_Energy>
17.6035

> <b_lp_Chiralities_Consistent>
1

> <s_lp_Variant>
AV-unprocessed.smi:3066-1

> <Gold.Version>
5.8.1

> <Gold.Id.Protein>
6NUR|6NUR_protein|mol2

> <Gold.PLP.Fitness>
44.1612

> <Gold.PLP.PLP>
-37.1854

> <Gold.PLP.part.hbond>
-3.0000

> <Gold.PLP.part.metal>
0.0000

> <Gold.PLP.part.buried>
-3.7081

> <Gold.PLP.part.nonpolar>
-29.4655

> <Gold.PLP.part.repulsive>
0.0397

> <Gold.PLP.ligand.clash>
0.0000

> <Gold.PLP.ligand.torsion>
0.6927

> <Gold.PLP.Chemscore.Hbond>
2.7823

> <Gold.PLP.Chemscore.CHOScore>
0.0000

> <Gold.PLP.Chemscore.Metal>
0.0000

> <Gold.Chemscore.Hbonds>
donor molecule, donor type, donor heavy atom, donor atom, acceptor molecule, acceptor atom, score
      P1  H  6896  6907       L1     4  1.00
      P1  H  7997  8008       L1     9  0.64
      P1  H 10752 10764       L1     1  1.00

> <Gold.PLP.Chemscore.Internal.Correction>
0.0142

> <Gold.Rescore>
     Score         DG    S(hbond)    S(metal)    S(lipo)     H(rot)  DE(clash)    DE(int)     intcor
     15.99     -19.93       2.62        0.00      91.47       1.95       0.32       3.63       ----

> <Gold.Chemscore.Fitness>
15.9854

> <Gold.Chemscore.DG>
-19.9321

> <Gold.Chemscore.ZeroCoef>
-5.4800

> <Gold.Chemscore.Hbond>
2.6152

> <Gold.Chemscore.Metal>
0.0000

> <Gold.Chemscore.Lipo>
91.4747

> <Gold.Chemscore.Internal_Hbond>
0.0000

> <Gold.Chemscore.DEClash>
0.3155

> <Gold.Chemscore.DEInternal>
3.6312

> <Gold.Chemscore.Rot>
1.9474

> <Gold.Chemscore.Internal.Correction>
   9.000000E+99

> <Gold.Chemscore.Hbonds>
donor molecule, donor type, donor heavy atom, donor atom, acceptor molecule, acceptor atom, score
      P1  H  6896  6907       L1     4  0.88
      P1  H  7997  8008       L1     9  0.63
      P1  H 10752 10764       L1     1  0.99

> <Gold.Chemscore.Hbond.Weighted>
-8.7348

> <Gold.Chemscore.Metal.Weighted>
-0.0000

> <Gold.Chemscore.Lipo.Weighted>
-10.7025

> <Gold.Chemscore.Internal_Hbond.Weighted>
0.0000

> <Gold.Chemscore.DEClash.Weighted>
0.3155

> <Gold.Chemscore.DEInternal.Weighted>
3.6312

> <Gold.Chemscore.Rot.Weighted>
4.9852

> <Gold.Chemscore.Internal.Correction.Weighted>
   9.000000E+99

> <Gold.Protein.RotatedTorsions>
[ 6907 6896 6895 6894 ] final   65.85 input  -60.11 | X-H torsion
[ 7974 7965 7964 7962 ] final -119.54 input  175.53 | X-H torsion
[ 8008 7997 7996 7995 ] final -111.97 input   59.86 | X-H torsion
[ 10167 10162 10161 10158 ] final -158.23 input  -65.29 | X-H torsion
[ 10718 10713 10712 10709 ] final   15.09 input   66.30 | X-H torsion
[ 10763 10752 10751 10750 ] final   57.03 input  -60.55 | X-H torsion
[ 11005 11000 10999 10996 ] final  -24.12 input  -57.11 | X-H torsion

> <Gold.Protein.ActiveResidues>
 VAL166  LYS551  ARG553  GLY616  TRP617  ASP618  TYR619  PRO620  LYS621  CYS622 
 ASP623  PHE694  ASN695  SER759  ASP760  ASP761  ALA762  ILE779  LEU786  VAL792 
 PHE793  MET794  SER795  GLU796  ALA797  LYS798  CYS799  TRP800  GLU811  SER814 

> <Gold.Protein.RotatedAtoms>
  152.4438  134.5537  159.9873 H   0  0  0  0  0  0  0  0  0  0  0  0  # atno 6907 bound_to 6896
  151.5627  133.3395  159.2982 H   0  0  0  0  0  0  0  0  0  0  0  0  # atno 6908 bound_to 6896
  150.8349  134.7652  159.6948 H   0  0  0  0  0  0  0  0  0  0  0  0  # atno 6909 bound_to 6896
  145.0614  140.8292  143.4150 H   0  0  0  0  0  0  0  0  0  0  0  0  # atno 7974 bound_to 7965
  154.9980  140.0394  157.2348 H   0  0  0  0  0  0  0  0  0  0  0  0  # atno 8008 bound_to 7997
  154.7569  140.2777  155.6223 H   0  0  0  0  0  0  0  0  0  0  0  0  # atno 8009 bound_to 7997
  156.2896  140.2636  156.2338 H   0  0  0  0  0  0  0  0  0  0  0  0  # atno 8010 bound_to 7997
  139.6708  143.9748  152.2282 H   0  0  0  0  0  0  0  0  0  0  0  0  # atno 10167 bound_to 10162
  157.0486  130.6260  149.5763 H   0  0  0  0  0  0  0  0  0  0  0  0  # atno 10718 bound_to 10713
  152.9842  135.5656  154.5324 H   0  0  0  0  0  0  0  0  0  0  0  0  # atno 10763 bound_to 10752
  154.4793  135.2788  155.1585 H   0  0  0  0  0  0  0  0  0  0  0  0  # atno 10764 bound_to 10752
  154.3100  135.6290  153.5514 H   0  0  0  0  0  0  0  0  0  0  0  0  # atno 10765 bound_to 10752
  140.8815  133.7650  156.0308 H   0  0  0  0  0  0  0  0  0  0  0  0  # atno 11005 bound_to 11000
  145.1404  139.2575  143.5493 LP  0  0  0  0  0  0  0  0  0  0  0  0  # atno 17320 bound_to 7965
  146.3524  140.1080  142.8605 LP  0  0  0  0  0  0  0  0  0  0  0  0  # atno 17321 bound_to 7965
  139.9512  144.6619  150.8170 LP  0  0  0  0  0  0  0  0  0  0  0  0  # atno 17342 bound_to 10162
  140.7617  143.3181  151.2685 LP  0  0  0  0  0  0  0  0  0  0  0  0  # atno 17343 bound_to 10162
  156.0015  130.5095  150.7679 LP  0  0  0  0  0  0  0  0  0  0  0  0  # atno 17370 bound_to 10713
  157.5048  131.0921  151.0270 LP  0  0  0  0  0  0  0  0  0  0  0  0  # atno 17371 bound_to 10713
  140.8455  134.3016  157.5296 LP  0  0  0  0  0  0  0  0  0  0  0  0  # atno 17394 bound_to 11000
  139.8720  134.9439  156.3867 LP  0  0  0  0  0  0  0  0  0  0  0  0  # atno 17395 bound_to 11000

$$$$
