#       Name:                AV-unprocessed.smi:703
#       Creating user name   scv26
#       Creation time:       Fri Mar 27 00:41:12 2020


#       File generated by GOLD software.
#

@<TRIPOS>MOLECULE
AV-unprocessed.smi:703
    42    43     1
SMALL
NO_CHARGES


@<TRIPOS>ATOM
      1 ****        -4.4596  -2.1344  -1.3295 C.3            1 S1                 0.0000
      2 ****        -3.6336  -0.8571  -1.1265 C.3            1 S1                 0.0000
      3 ****        -2.3483  -1.1245  -0.4397 N.4            1 S1                 1.0000
      4 ****        -2.4626  -1.5488   0.9696 C.3            1 S1                 0.0000
      5 ****        -1.0698  -1.3296   1.5648 C.3            1 S1                 0.0000
      6 ****        -0.1787  -2.5680   1.3324 C.3            1 S1                 0.0000
      7 ****        -0.6061  -0.0413   0.8527 C.3            1 S1                 0.0000
      8 ****         0.8461  -0.0048   0.6398 N.3            1 S1                 0.0000
      9 ****         1.5657   1.4580   0.0722 S.o2           1 S1                 0.0000
     10 ****         1.4617   1.4607  -1.3949 O.2            1 S1                 0.0000
     11 ****         0.9971   2.5689   0.8508 O.2            1 S1                 0.0000
     12 ****         3.3319   1.2474   0.5522 C.3            1 S1                 0.0000
     13 ****         4.1211   2.4442   0.1041 C.2            1 S1                 0.0000
     14 ****         4.5824   2.7592  -1.2040 C.2            1 S1                 0.0000
     15 ****         5.2361   3.9455  -1.0343 C.2            1 S1                 0.0000
     16 ****         5.1885   4.3321   0.2655 O.3            1 S1                 0.0000
     17 ****         4.4757   3.3663   0.9850 N.2            1 S1                 0.0000
     18 ****        -1.3966   0.0068  -0.4692 C.3            1 S1                 0.0000
     19 ****        -5.3683  -1.9196  -1.8920 H              1 S1                 0.0000
     20 ****        -4.7612  -2.5749  -0.3791 H              1 S1                 0.0000
     21 ****        -3.8965  -2.8845  -1.8854 H              1 S1                 0.0000
     22 ****        -3.4209  -0.4212  -2.1036 H              1 S1                 0.0000
     23 ****        -4.2088  -0.1157  -0.5702 H              1 S1                 0.0000
     24 ****        -3.1839  -0.9109   1.4836 H              1 S1                 0.0000
     25 ****        -2.8060  -2.5798   1.0607 H              1 S1                 0.0000
     26 ****        -1.1429  -1.1625   2.6405 H              1 S1                 0.0000
     27 ****        -0.0369  -2.7700   0.2700 H              1 S1                 0.0000
     28 ****        -0.6229  -3.4566   1.7813 H              1 S1                 0.0000
     29 ****         0.8054  -2.4418   1.7846 H              1 S1                 0.0000
     30 ****        -0.8953   0.8130   1.4667 H              1 S1                 0.0000
     31 ****         1.1588  -0.8033   0.0879 H              1 S1                 0.0000
     32 ****         3.3820   1.1157   1.6337 H              1 S1                 0.0000
     33 ****         3.7100   0.3370   0.0877 H              1 S1                 0.0000
     34 ****         4.4513   2.2049  -2.1216 H              1 S1                 0.0000
     35 ****         5.7619   4.6063  -1.7078 H              1 S1                 0.0000
     36 ****        -0.7604  -0.0937  -1.3491 H              1 S1                 0.0000
     37 ****        -1.9208   0.9605  -0.5500 H              1 S1                 0.0000
     38 ****        -1.8941  -1.8821  -0.9294 H              1 S1                 0.0000
     39 ****         1.1896  -0.0560   1.5775 LP             1 S1                 0.0000
     40 ****         4.7278   5.2166   0.3386 LP             1 S1                 0.0000
     41 ****         6.1166   4.4085   0.6298 LP             1 S1                 0.0000
     42 ****         4.2752   3.3717   1.9647 LP             1 S1                 0.0000
@<TRIPOS>BOND
    1    1    2 1     
    2    1   19 1     
    3    1   20 1     
    4    1   21 1     
    5    2    3 1     
    6    2   22 1     
    7    2   23 1     
    8    3   18 1     
    9    3    4 1     
   10    3   38 1     
   11    4    5 1     
   12    4   24 1     
   13    4   25 1     
   14    5    6 1     
   15    5    7 1     
   16    5   26 1     
   17    6   27 1     
   18    6   28 1     
   19    6   29 1     
   20    7    8 1     
   21    7   18 1     
   22    7   30 1     
   23    8    9 1     
   24    8   31 1     
   25    9   10 2     
   26    9   11 2     
   27    9   12 1     
   28   12   13 1     
   29   12   32 1     
   30   12   33 1     
   31   13   17 2     
   32   13   14 1     
   33   14   15 2     
   34   14   34 1     
   35   15   16 1     
   36   15   35 1     
   37   16   17 1     
   38   18   36 1     
   39   18   37 1     
   40    8   39 1     
   41   16   40 1     
   42   16   41 1     
   43   17   42 1     
@<TRIPOS>SUBSTRUCTURE
      1 S1             1
@<TRIPOS>SET
LONE_PAIRS      STATIC     ATOMS    <user>   **** ""
6 39 10 11 40 41 42
DONOR_HYDROGENS      STATIC     ATOMS    <user>   **** ""
2 38 31
ATOM$BLUE        STATIC     ATOMS    COLORGROUP SYSTEM
6 39 10 11 40 41 42
ATOM$RED        STATIC     ATOMS    COLORGROUP SYSTEM
2 38 31
