AV-unprocessed.smi:1694|AV-procd|sdf|6788|dock3
  -GOLD-   22720 7553D 1   1.00000     0.00000
 Structure written by MMmdl.
 34 35  0  0  0  0  0  0  0  0  1 V2000
  152.2748  144.4431  157.6228 C   0  0  0  0  0  0  0  0  0  0  0  0
  152.4934  143.1801  158.4409 C   0  0  0  0  0  0  0  0  0  0  0  0
  153.5344  143.1501  159.3931 C   0  0  0  0  0  0  0  0  0  0  0  0
  153.7391  141.9846  160.1502 C   0  0  0  0  0  0  0  0  0  0  0  0
  152.8878  140.8911  159.9211 C   0  0  0  0  0  0  0  0  0  0  0  0
  151.8906  140.9119  159.0134 N   0  0  0  0  0  0  0  0  0  0  0  0
  151.6766  142.0291  158.2716 C   0  0  0  0  0  0  0  0  0  0  0  0
  150.6432  142.1407  157.2894 N   0  0  0  0  0  0  0  0  0  0  0  0
  149.8193  141.2242  156.7367 C   0  0  0  0  0  0  0  0  0  0  0  0
  149.8803  140.0400  157.0635 O   0  0  0  0  0  0  0  0  0  0  0  0
  148.9460  141.6795  155.8240 N   0  0  0  0  0  0  0  0  0  0  0  0
  147.9695  140.8711  155.1026 C   0  0  1  0  0  0  0  0  0  0  0  0
  147.5106  141.6190  153.8448 C   0  0  0  0  0  0  0  0  0  0  0  0
  146.4650  140.8037  153.0681 C   0  0  0  0  0  0  0  0  0  0  0  0
  146.8511  139.3277  152.8917 C   0  0  0  0  0  0  0  0  0  0  0  0
  146.2909  138.6559  152.0287 O   0  0  0  0  0  0  0  0  0  0  0  0
  147.7719  138.7911  153.7117 N   0  0  0  0  0  0  0  0  0  0  0  0
  148.5675  139.5050  154.7099 C   0  0  0  0  0  0  0  0  0  0  0  0
  153.0060  145.2116  157.8753 H   0  0  0  0  0  0  0  0  0  0  0  0
  151.2814  144.8518  157.8098 H   0  0  0  0  0  0  0  0  0  0  0  0
  152.3676  144.2305  156.5574 H   0  0  0  0  0  0  0  0  0  0  0  0
  154.1714  144.0094  159.5440 H   0  0  0  0  0  0  0  0  0  0  0  0
  154.5270  141.9311  160.8867 H   0  0  0  0  0  0  0  0  0  0  0  0
  153.0091  139.9751  160.4802 H   0  0  0  0  0  0  0  0  0  0  0  0
  150.4979  143.0808  156.9513 H   0  0  0  0  0  0  0  0  0  0  0  0
  148.9632  142.6679  155.6141 H   0  0  0  0  0  0  0  0  0  0  0  0
  147.0983  140.7114  155.7411 H   0  0  0  0  0  0  0  0  0  0  0  0
  147.0888  142.5877  154.1160 H   0  0  0  0  0  0  0  0  0  0  0  0
  148.3666  141.8250  153.2002 H   0  0  0  0  0  0  0  0  0  0  0  0
  145.5126  140.8340  153.5986 H   0  0  0  0  0  0  0  0  0  0  0  0
  146.2915  141.2543  152.0903 H   0  0  0  0  0  0  0  0  0  0  0  0
  147.9791  137.8096  153.5938 H   0  0  0  0  0  0  0  0  0  0  0  0
  149.5660  139.6405  154.2922 H   0  0  0  0  0  0  0  0  0  0  0  0
  148.6803  138.8719  155.5905 H   0  0  0  0  0  0  0  0  0  0  0  0
  1  2  1  0  0  0  0
  1 19  1  0  0  0  0
  1 20  1  0  0  0  0
  1 21  1  0  0  0  0
  2  7  1  0  0  0  0
  2  3  2  0  0  0  0
  3  4  1  0  0  0  0
  3 22  1  0  0  0  0
  4  5  2  0  0  0  0
  4 23  1  0  0  0  0
  5  6  1  0  0  0  0
  5 24  1  0  0  0  0
  6  7  2  0  0  0  0
  7  8  1  0  0  0  0
  8  9  1  0  0  0  0
  8 25  1  0  0  0  0
  9 10  2  0  0  0  0
  9 11  1  0  0  0  0
 11 12  1  0  0  0  0
 11 26  1  0  0  0  0
 12 18  1  0  0  0  0
 12 13  1  0  0  0  0
 12 27  1  0  0  0  0
 13 14  1  0  0  0  0
 13 28  1  0  0  0  0
 13 29  1  0  0  0  0
 14 15  1  0  0  0  0
 14 30  1  0  0  0  0
 14 31  1  0  0  0  0
 15 16  2  0  0  0  0
 15 17  1  0  0  0  0
 17 18  1  0  0  0  0
 17 32  1  0  0  0  0
 18 33  1  0  0  0  0
 18 34  1  0  0  0  0
M  END
> <s_m_source_file>
AV-unprocessed.smi

> <i_m_source_file_index>
1694

> <i_lp_mmshare_version>
43012

> <i_f3d_flags>
0

> <s_epik_input>
W0NIM11jMVtjSF1bY0hdW2NIXW5jMVtOSF1DKD1PKVtOSF1bQ0BASF0yW0NIMl1bQ0gyXUMoPU8pW05IXVtDSDJdMg==

> <s_epik_cmdline>
J2VwaWtfcHl0aG9uJywgJy1waCcsICc3LjAnLCAnLXRuJywgJzgnLCAnLW1hJywgJzIwMCcsICctbWV0YWxfYmluZGluZycsICctaW1hZScsICc8aW5maWxlLm1hZT4nLCAnLW9tYWUnLCAnPG91dGZpbGUubWFlPic=

> <r_lp_tautomer_probability>
1

> <r_epik_Ionization_Penalty>
5.3746e-05

> <r_epik_Ionization_Penalty_Charging>
0

> <r_epik_Ionization_Penalty_Neutral>
5.3746e-05

> <r_epik_State_Penalty>
-0

> <r_epik_Charging_Adjusted_Penalty>
0

> <i_epik_Tot_Q>
0

> <i_epik_Tot_abs_Q>
0

> <r_epik_Metal_State_Penalty>
-0

> <b_epik_Metal_Only>
0

> <s_lp_Force_Field>
OPLS_2005

> <r_lp_Energy>
12.9855

> <b_lp_Chiralities_Consistent>
1

> <s_lp_Variant>
AV-unprocessed.smi:1694-2

> <Gold.Version>
5.8.1

> <Gold.Id.Protein>
6NUR|6NUR_protein|mol2

> <Gold.PLP.Fitness>
41.6951

> <Gold.PLP.PLP>
-34.5682

> <Gold.PLP.part.hbond>
-3.7445

> <Gold.PLP.part.metal>
0.0000

> <Gold.PLP.part.buried>
-0.7692

> <Gold.PLP.part.nonpolar>
-31.5180

> <Gold.PLP.part.repulsive>
2.2848

> <Gold.PLP.ligand.clash>
0.0896

> <Gold.PLP.ligand.torsion>
0.3072

> <Gold.PLP.Chemscore.Hbond>
2.6099

> <Gold.PLP.Chemscore.CHOScore>
0.0000

> <Gold.PLP.Chemscore.Metal>
0.0000

> <Gold.Chemscore.Hbonds>
donor molecule, donor type, donor heavy atom, donor atom, acceptor molecule, acceptor atom, score
      L1  H    11    26       P1  8028  0.96

> <Gold.PLP.Chemscore.Internal.Correction>
0.0013

> <Gold.Rescore>
     Score         DG    S(hbond)    S(metal)    S(lipo)     H(rot)  DE(clash)    DE(int)     intcor
     12.49     -18.67       1.82        0.00      82.76       1.00       3.59       2.58       ----

> <Gold.Chemscore.Fitness>
12.4878

> <Gold.Chemscore.DG>
-18.6651

> <Gold.Chemscore.ZeroCoef>
-5.4800

> <Gold.Chemscore.Hbond>
1.8151

> <Gold.Chemscore.Metal>
0.0000

> <Gold.Chemscore.Lipo>
82.7565

> <Gold.Chemscore.Internal_Hbond>
0.0000

> <Gold.Chemscore.DEClash>
3.5942

> <Gold.Chemscore.DEInternal>
2.5831

> <Gold.Chemscore.Rot>
1.0000

> <Gold.Chemscore.Internal.Correction>
   9.000000E+99

> <Gold.Chemscore.Hbonds>
donor molecule, donor type, donor heavy atom, donor atom, acceptor molecule, acceptor atom, score
      L1  H    11    26       P1  8028  0.90

> <Gold.Chemscore.Hbond.Weighted>
-6.0626

> <Gold.Chemscore.Metal.Weighted>
-0.0000

> <Gold.Chemscore.Lipo.Weighted>
-9.6825

> <Gold.Chemscore.Internal_Hbond.Weighted>
0.0000

> <Gold.Chemscore.DEClash.Weighted>
3.5942

> <Gold.Chemscore.DEInternal.Weighted>
2.5831

> <Gold.Chemscore.Rot.Weighted>
2.5600

> <Gold.Chemscore.Internal.Correction.Weighted>
   9.000000E+99

> <Gold.Protein.RotatedTorsions>
[ 6907 6896 6895 6894 ] final -153.50 input  -60.11 | X-H torsion
[ 7974 7965 7964 7962 ] final -163.78 input  175.53 | X-H torsion
[ 8008 7997 7996 7995 ] final   30.88 input   59.86 | X-H torsion
[ 10167 10162 10161 10158 ] final  127.42 input  -65.29 | X-H torsion
[ 10718 10713 10712 10709 ] final  101.02 input   66.30 | X-H torsion
[ 10763 10752 10751 10750 ] final  -62.95 input  -60.55 | X-H torsion
[ 11005 11000 10999 10996 ] final  138.98 input  -57.11 | X-H torsion

> <Gold.Protein.ActiveResidues>
 VAL166  LYS551  ARG553  GLY616  TRP617  ASP618  TYR619  PRO620  LYS621  CYS622 
 ASP623  PHE694  ASN695  SER759  ASP760  ASP761  ALA762  ILE779  LEU786  VAL792 
 PHE793  MET794  SER795  GLU796  ALA797  LYS798  CYS799  TRP800  GLU811  SER814 

> <Gold.Protein.RotatedAtoms>
  151.2436  133.4387  159.2608 H   0  0  0  0  0  0  0  0  0  0  0  0  # atno 6907 bound_to 6896
  151.0682  134.9782  159.8305 H   0  0  0  0  0  0  0  0  0  0  0  0  # atno 6908 bound_to 6896
  152.5408  134.2382  159.8904 H   0  0  0  0  0  0  0  0  0  0  0  0  # atno 6909 bound_to 6896
  144.7316  140.3057  143.6197 H   0  0  0  0  0  0  0  0  0  0  0  0  # atno 7974 bound_to 7965
  155.0975  140.3226  155.4556 H   0  0  0  0  0  0  0  0  0  0  0  0  # atno 8008 bound_to 7997
  156.2726  140.2067  156.6048 H   0  0  0  0  0  0  0  0  0  0  0  0  # atno 8009 bound_to 7997
  154.6855  140.0522  157.0297 H   0  0  0  0  0  0  0  0  0  0  0  0  # atno 8010 bound_to 7997
  139.5579  144.6862  151.4128 H   0  0  0  0  0  0  0  0  0  0  0  0  # atno 10167 bound_to 10162
  157.6840  131.0714  150.5189 H   0  0  0  0  0  0  0  0  0  0  0  0  # atno 10718 bound_to 10713
  154.3076  135.6222  153.5451 H   0  0  0  0  0  0  0  0  0  0  0  0  # atno 10763 bound_to 10752
  152.9833  135.5693  154.5213 H   0  0  0  0  0  0  0  0  0  0  0  0  # atno 10764 bound_to 10752
  154.4856  135.2865  155.1513 H   0  0  0  0  0  0  0  0  0  0  0  0  # atno 10765 bound_to 10752
  140.0222  134.9391  157.0497 H   0  0  0  0  0  0  0  0  0  0  0  0  # atno 11005 bound_to 11000
  145.7715  139.1859  143.2209 LP  0  0  0  0  0  0  0  0  0  0  0  0  # atno 17320 bound_to 7965
  146.0907  140.7659  142.9597 LP  0  0  0  0  0  0  0  0  0  0  0  0  # atno 17321 bound_to 7965
  140.6855  143.7984  150.7180 LP  0  0  0  0  0  0  0  0  0  0  0  0  # atno 17342 bound_to 10162
  140.1450  143.4407  152.2169 LP  0  0  0  0  0  0  0  0  0  0  0  0  # atno 17343 bound_to 10162
  156.5503  130.4230  149.6111 LP  0  0  0  0  0  0  0  0  0  0  0  0  # atno 17370 bound_to 10713
  156.2908  130.7123  151.1971 LP  0  0  0  0  0  0  0  0  0  0  0  0  # atno 17371 bound_to 10713
  140.4367  134.1724  155.7171 LP  0  0  0  0  0  0  0  0  0  0  0  0  # atno 17394 bound_to 11000
  141.1781  133.8472  157.1353 LP  0  0  0  0  0  0  0  0  0  0  0  0  # atno 17395 bound_to 11000

$$$$
