#       Name:                AV-unprocessed.smi:317
#       Creating user name   scv26
#       Creation time:       Thu Mar 26 22:23:16 2020


#       File generated by GOLD software.
#

@<TRIPOS>MOLECULE
AV-unprocessed.smi:317
    45    46     1
SMALL
NO_CHARGES


@<TRIPOS>ATOM
      1 ****        -4.0413  -1.9351   1.6211 C.3            1 S1                 0.0000
      2 ****        -3.7549  -0.6648   0.8057 C.3            1 S1                 0.0000
      3 ****        -4.3695  -0.7272  -0.6068 C.3            1 S1                 0.0000
      4 ****        -5.7769  -0.6428  -0.5358 O.3            1 S1                 0.0000
      5 ****        -2.3101  -0.4667   0.7243 N.am           1 S1                 0.0000
      6 ****        -1.6956   0.7111   0.5433 C.2            1 S1                 0.0000
      7 ****        -2.2932   1.7777   0.4028 O.2            1 S1                 0.0000
      8 ****        -0.3605   0.5625   0.5157 N.am           1 S1                 0.0000
      9 ****         0.6373   1.5622   0.3309 C.ar           1 S1                 0.0000
     10 ****         0.4346   2.8978   0.7658 C.ar           1 S1                 0.0000
     11 ****         1.4316   3.8676   0.5499 C.ar           1 S1                 0.0000
     12 ****         2.6211   3.4881  -0.0944 C.ar           1 S1                 0.0000
     13 ****         2.7933   2.2063  -0.4772 N.pl3          1 S1                 1.0000
     14 ****         1.8783   1.2235  -0.2845 C.ar           1 S1                 0.0000
     15 ****         2.2087  -0.0777  -0.7278 N.3            1 S1                 0.0000
     16 ****         3.4039  -0.3020  -1.5330 C.3            1 S1                 0.0000
     17 ****         3.6123  -1.8138  -1.5196 C.3            1 S1                 0.0000
     18 ****         3.1487  -2.1959  -0.1171 C.3            1 S1                 0.0000
     19 ****         2.0121  -1.2094   0.1726 C.3            1 S1                 0.0000
     20 ****        -5.1132  -2.0935   1.7423 H              1 S1                 0.0000
     21 ****        -3.6069  -1.8679   2.6191 H              1 S1                 0.0000
     22 ****        -3.6281  -2.8205   1.1366 H              1 S1                 0.0000
     23 ****        -4.1862   0.1836   1.3414 H              1 S1                 0.0000
     24 ****        -4.0204   0.1055  -1.2184 H              1 S1                 0.0000
     25 ****        -4.0827  -1.6456  -1.1201 H              1 S1                 0.0000
     26 ****        -6.1254  -0.6757  -1.4137 H              1 S1                 0.0000
     27 ****        -1.7375  -1.2921   0.8239 H              1 S1                 0.0000
     28 ****        -0.0226  -0.3880   0.5434 H              1 S1                 0.0000
     29 ****        -0.4714   3.1964   1.2706 H              1 S1                 0.0000
     30 ****         1.2837   4.8878   0.8734 H              1 S1                 0.0000
     31 ****         3.4386   4.1622  -0.3056 H              1 S1                 0.0000
     32 ****         3.2805   0.0805  -2.5466 H              1 S1                 0.0000
     33 ****         4.2662   0.1896  -1.0807 H              1 S1                 0.0000
     34 ****         2.9717  -2.2866  -2.2653 H              1 S1                 0.0000
     35 ****         4.6433  -2.1034  -1.7238 H              1 S1                 0.0000
     36 ****         2.8357  -3.2374  -0.0410 H              1 S1                 0.0000
     37 ****         3.9621  -2.0375   0.5921 H              1 S1                 0.0000
     38 ****         2.0084  -0.9060   1.2204 H              1 S1                 0.0000
     39 ****         1.0514  -1.6733  -0.0523 H              1 S1                 0.0000
     40 ****         3.6723   1.9598  -0.9326 H              1 S1                 0.0000
     41 ****        -6.0413   0.2177  -0.1003 LP             1 S1                 0.0000
     42 ****        -6.1340  -1.4097  -0.0025 LP             1 S1                 0.0000
     43 ****        -3.2928   1.7968   0.4204 LP             1 S1                 0.0000
     44 ****        -1.7791   2.6253   0.2711 LP             1 S1                 0.0000
     45 ****         1.4427  -0.0627  -1.3704 LP             1 S1                 0.0000
@<TRIPOS>BOND
    1    1    2 1     
    2    1   20 1     
    3    1   21 1     
    4    1   22 1     
    5    2    3 1     
    6    2    5 1     
    7    2   23 1     
    8    3    4 1     
    9    3   24 1     
   10    3   25 1     
   11    4   26 1     
   12    5    6 am    
   13    5   27 1     
   14    6    7 2     
   15    6    8 am    
   16    8    9 1     
   17    8   28 1     
   18    9   14 ar    
   19    9   10 ar    
   20   10   11 ar    
   21   10   29 1     
   22   11   12 ar    
   23   11   30 1     
   24   12   13 ar    
   25   12   31 1     
   26   13   14 ar    
   27   13   40 1     
   28   14   15 1     
   29   15   19 1     
   30   15   16 1     
   31   16   17 1     
   32   16   32 1     
   33   16   33 1     
   34   17   18 1     
   35   17   34 1     
   36   17   35 1     
   37   18   19 1     
   38   18   36 1     
   39   18   37 1     
   40   19   38 1     
   41   19   39 1     
   42    4   41 1     
   43    4   42 1     
   44    7   43 1     
   45    7   44 1     
   46   15   45 1     
@<TRIPOS>SUBSTRUCTURE
      1 S1             1
@<TRIPOS>SET
LONE_PAIRS      STATIC     ATOMS    <user>   **** ""
5 41 42 43 44 45
DONOR_HYDROGENS      STATIC     ATOMS    <user>   **** ""
4 26 27 28 40
ATOM$BLUE        STATIC     ATOMS    COLORGROUP SYSTEM
5 41 42 43 44 45
ATOM$RED        STATIC     ATOMS    COLORGROUP SYSTEM
4 26 27 28 40
