AV-unprocessed.smi:2663|AV-procd|sdf|10322|dock3
  -GOLD-   2272014333D 1   1.00000     0.00000
 Structure written by MMmdl.
 39 40  0  0  0  0  0  0  0  0  1 V2000
  144.5903  136.2161  153.1475 C   0  0  0  0  0  0  0  0  0  0  0  0
  145.6539  135.4821  152.2975 C   0  0  1  0  0  0  0  0  0  0  0  0
  145.8988  136.2955  150.9920 C   0  0  0  0  0  0  0  0  0  0  0  0
  146.4308  137.5818  151.2488 O   0  0  0  0  0  0  0  0  0  0  0  0
  146.8856  135.4616  153.1055 N   0  0  0  0  0  0  0  0  0  0  0  0
  147.0344  135.1310  154.4006 C   0  0  0  0  0  0  0  0  0  0  0  0
  146.1064  134.7985  155.1377 O   0  0  0  0  0  0  0  0  0  0  0  0
  148.3235  135.2170  154.7722 N   0  0  0  0  0  0  0  0  0  0  0  0
  148.8931  134.9507  156.0456 C   0  0  0  0  0  0  0  0  0  0  0  0
  150.1193  134.4329  156.2201 N   0  0  0  0  0  0  0  0  0  0  0  0
  150.4300  134.2737  157.5643 N   0  0  0  0  0  0  0  0  0  0  0  0
  149.4273  134.6768  158.3498 C   0  0  0  0  0  0  0  0  0  0  0  0
  148.0053  135.2908  157.5245 S   0  0  0  0  0  0  0  0  0  0  0  0
  145.1964  134.0150  151.9639 C   0  0  0  0  0  0  0  0  0  0  0  0
  146.2755  133.1512  151.2610 C   0  0  0  0  0  0  0  0  0  0  0  0
  145.8132  131.6965  151.0741 C   0  0  0  0  0  0  0  0  0  0  0  0
  144.4934  131.6251  150.2943 C   0  0  0  0  0  0  0  0  0  0  0  0
  143.4095  132.4723  150.9744 C   0  0  0  0  0  0  0  0  0  0  0  0
  143.8718  133.9267  151.1586 C   0  0  0  0  0  0  0  0  0  0  0  0
  143.6567  136.3528  152.6024 H   0  0  0  0  0  0  0  0  0  0  0  0
  144.9312  137.2103  153.4385 H   0  0  0  0  0  0  0  0  0  0  0  0
  144.3611  135.6828  154.0694 H   0  0  0  0  0  0  0  0  0  0  0  0
  146.5758  135.7710  150.3176 H   0  0  0  0  0  0  0  0  0  0  0  0
  144.9699  136.4404  150.4420 H   0  0  0  0  0  0  0  0  0  0  0  0
  145.7510  138.2215  151.1025 H   0  0  0  0  0  0  0  0  0  0  0  0
  147.7255  135.7161  152.6075 H   0  0  0  0  0  0  0  0  0  0  0  0
  148.9762  135.5042  154.0580 H   0  0  0  0  0  0  0  0  0  0  0  0
  149.5262  134.6123  159.4232 H   0  0  0  0  0  0  0  0  0  0  0  0
  145.0042  133.5225  152.9176 H   0  0  0  0  0  0  0  0  0  0  0  0
  146.5182  133.5692  150.2841 H   0  0  0  0  0  0  0  0  0  0  0  0
  147.2017  133.1410  151.8331 H   0  0  0  0  0  0  0  0  0  0  0  0
  146.5828  131.1273  150.5520 H   0  0  0  0  0  0  0  0  0  0  0  0
  145.6888  131.2240  152.0492 H   0  0  0  0  0  0  0  0  0  0  0  0
  144.6500  131.9794  149.2748 H   0  0  0  0  0  0  0  0  0  0  0  0
  144.1621  130.5893  150.2158 H   0  0  0  0  0  0  0  0  0  0  0  0
  142.4935  132.4459  150.3835 H   0  0  0  0  0  0  0  0  0  0  0  0
  143.1624  132.0417  151.9456 H   0  0  0  0  0  0  0  0  0  0  0  0
  143.0721  134.4765  151.6537 H   0  0  0  0  0  0  0  0  0  0  0  0
  143.9954  134.3837  150.1769 H   0  0  0  0  0  0  0  0  0  0  0  0
  1  2  1  0  0  0  0
  1 20  1  0  0  0  0
  1 21  1  0  0  0  0
  1 22  1  0  0  0  0
  2  3  1  0  0  0  0
  2  5  1  0  0  0  0
  2 14  1  0  0  0  0
  3  4  1  0  0  0  0
  3 23  1  0  0  0  0
  3 24  1  0  0  0  0
  4 25  1  0  0  0  0
  5  6  1  0  0  0  0
  5 26  1  0  0  0  0
  6  7  2  0  0  0  0
  6  8  1  0  0  0  0
  8  9  1  0  0  0  0
  8 27  1  0  0  0  0
  9 13  1  0  0  0  0
  9 10  2  0  0  0  0
 10 11  1  0  0  0  0
 11 12  2  0  0  0  0
 12 13  1  0  0  0  0
 12 28  1  0  0  0  0
 14 19  1  0  0  0  0
 14 15  1  0  0  0  0
 14 29  1  0  0  0  0
 15 16  1  0  0  0  0
 15 30  1  0  0  0  0
 15 31  1  0  0  0  0
 16 17  1  0  0  0  0
 16 32  1  0  0  0  0
 16 33  1  0  0  0  0
 17 18  1  0  0  0  0
 17 34  1  0  0  0  0
 17 35  1  0  0  0  0
 18 19  1  0  0  0  0
 18 36  1  0  0  0  0
 18 37  1  0  0  0  0
 19 38  1  0  0  0  0
 19 39  1  0  0  0  0
M  END
> <s_m_source_file>
AV-unprocessed.smi

> <i_m_source_file_index>
2663

> <i_lp_mmshare_version>
43012

> <i_f3d_flags>
0

> <s_epik_input>
W0NIMl0xW0NIMl1bQ0gyXVtDSDJdW0NIMl1bQ0hdMVtDQF0oW0NIM10pKFtDSDJdW09IXSlbTkhdQyg9TylbTkhdYzJubltjSF1zMg==

> <s_epik_cmdline>
J2VwaWtfcHl0aG9uJywgJy1waCcsICc3LjAnLCAnLXRuJywgJzgnLCAnLW1hJywgJzIwMCcsICctbWV0YWxfYmluZGluZycsICctaW1hZScsICc8aW5maWxlLm1hZT4nLCAnLW9tYWUnLCAnPG91dGZpbGUubWFlPic=

> <r_lp_tautomer_probability>
1

> <r_epik_Ionization_Penalty>
0.000410407

> <r_epik_Ionization_Penalty_Charging>
0

> <r_epik_Ionization_Penalty_Neutral>
0.000410407

> <r_epik_State_Penalty>
-0

> <r_epik_Charging_Adjusted_Penalty>
0

> <i_epik_Tot_Q>
0

> <i_epik_Tot_abs_Q>
0

> <r_epik_Metal_State_Penalty>
0.197604

> <b_epik_Metal_Only>
0

> <s_lp_Force_Field>
OPLS_2005

> <r_lp_Energy>
19.5674

> <b_lp_Chiralities_Consistent>
1

> <s_lp_Variant>
AV-unprocessed.smi:2663-1

> <Gold.Version>
5.8.1

> <Gold.Id.Protein>
6NUR|6NUR_protein|mol2

> <Gold.PLP.Fitness>
39.0105

> <Gold.PLP.PLP>
-26.9205

> <Gold.PLP.part.hbond>
-5.6990

> <Gold.PLP.part.metal>
0.0000

> <Gold.PLP.part.buried>
-3.4974

> <Gold.PLP.part.nonpolar>
-19.1964

> <Gold.PLP.part.repulsive>
0.0489

> <Gold.PLP.ligand.clash>
0.0000

> <Gold.PLP.ligand.torsion>
0.5370

> <Gold.PLP.Chemscore.Hbond>
4.3681

> <Gold.PLP.Chemscore.CHOScore>
0.0000

> <Gold.PLP.Chemscore.Metal>
0.0000

> <Gold.Chemscore.Hbonds>
donor molecule, donor type, donor heavy atom, donor atom, acceptor molecule, acceptor atom, score
      L1  H     4    25       P1 10171  0.27
      L1  H     5    26       P1  7948  0.96
      L1  H     8    27       P1  7948  0.29
      P1  H  7954  7966       L1     4  0.54

> <Gold.PLP.Chemscore.Internal.Correction>
0.0597

> <Gold.Rescore>
     Score         DG    S(hbond)    S(metal)    S(lipo)     H(rot)  DE(clash)    DE(int)     intcor
     17.71     -20.19       3.75        0.00      67.08       2.21       0.32       2.15       ----

> <Gold.Chemscore.Fitness>
17.7145

> <Gold.Chemscore.DG>
-20.1881

> <Gold.Chemscore.ZeroCoef>
-5.4800

> <Gold.Chemscore.Hbond>
3.7492

> <Gold.Chemscore.Metal>
0.0000

> <Gold.Chemscore.Lipo>
67.0821

> <Gold.Chemscore.Internal_Hbond>
0.0000

> <Gold.Chemscore.DEClash>
0.3241

> <Gold.Chemscore.DEInternal>
2.1496

> <Gold.Chemscore.Rot>
2.2120

> <Gold.Chemscore.Internal.Correction>
   9.000000E+99

> <Gold.Chemscore.Hbonds>
donor molecule, donor type, donor heavy atom, donor atom, acceptor molecule, acceptor atom, score
      L1  H     4    25       P1 10171  0.27
      L1  H     5    26       P1  7948  0.90
      L1  H     8    27       P1  7948  0.24
      P1  H  7954  7966       L1     4  0.27

> <Gold.Chemscore.Hbond.Weighted>
-12.5223

> <Gold.Chemscore.Metal.Weighted>
-0.0000

> <Gold.Chemscore.Lipo.Weighted>
-7.8486

> <Gold.Chemscore.Internal_Hbond.Weighted>
0.0000

> <Gold.Chemscore.DEClash.Weighted>
0.3241

> <Gold.Chemscore.DEInternal.Weighted>
2.1496

> <Gold.Chemscore.Rot.Weighted>
5.6627

> <Gold.Chemscore.Internal.Correction.Weighted>
   9.000000E+99

> <Gold.Protein.RotatedTorsions>
[ 6907 6896 6895 6894 ] final   33.05 input  -60.11 | X-H torsion
[ 7974 7965 7964 7962 ] final    7.20 input  175.53 | X-H torsion
[ 8008 7997 7996 7995 ] final   42.97 input   59.86 | X-H torsion
[ 10167 10162 10161 10158 ] final -158.51 input  -65.29 | X-H torsion
[ 10718 10713 10712 10709 ] final -124.65 input   66.30 | X-H torsion
[ 10763 10752 10751 10750 ] final   75.30 input  -60.55 | X-H torsion
[ 11005 11000 10999 10996 ] final -136.71 input  -57.11 | X-H torsion

> <Gold.Protein.ActiveResidues>
 VAL166  LYS551  ARG553  GLY616  TRP617  ASP618  TYR619  PRO620  LYS621  CYS622 
 ASP623  PHE694  ASN695  SER759  ASP760  ASP761  ALA762  ILE779  LEU786  VAL792 
 PHE793  MET794  SER795  GLU796  ALA797  LYS798  CYS799  TRP800  GLU811  SER814 

> <Gold.Protein.RotatedAtoms>
  152.0830  134.9458  160.0572 H   0  0  0  0  0  0  0  0  0  0  0  0  # atno 6907 bound_to 6896
  152.0739  133.4115  159.4479 H   0  0  0  0  0  0  0  0  0  0  0  0  # atno 6908 bound_to 6896
  150.6836  134.2980  159.4738 H   0  0  0  0  0  0  0  0  0  0  0  0  # atno 6909 bound_to 6896
  146.2428  140.0119  142.8406 H   0  0  0  0  0  0  0  0  0  0  0  0  # atno 7974 bound_to 7965
  155.2949  140.3381  155.4250 H   0  0  0  0  0  0  0  0  0  0  0  0  # atno 8008 bound_to 7997
  156.2028  140.1739  156.7902 H   0  0  0  0  0  0  0  0  0  0  0  0  # atno 8009 bound_to 7997
  154.5582  140.0692  156.8761 H   0  0  0  0  0  0  0  0  0  0  0  0  # atno 8010 bound_to 7997
  139.6687  143.9784  152.2270 H   0  0  0  0  0  0  0  0  0  0  0  0  # atno 10167 bound_to 10162
  156.1606  130.6599  151.0044 H   0  0  0  0  0  0  0  0  0  0  0  0  # atno 10718 bound_to 10713
  153.0645  135.4993  154.8170 H   0  0  0  0  0  0  0  0  0  0  0  0  # atno 10763 bound_to 10752
  154.6933  135.2988  154.9450 H   0  0  0  0  0  0  0  0  0  0  0  0  # atno 10764 bound_to 10752
  154.0197  135.6743  153.4824 H   0  0  0  0  0  0  0  0  0  0  0  0  # atno 10765 bound_to 10752
  140.8780  134.1968  157.4609 H   0  0  0  0  0  0  0  0  0  0  0  0  # atno 11005 bound_to 11000
  145.1320  140.9523  143.4539 LP  0  0  0  0  0  0  0  0  0  0  0  0  # atno 17320 bound_to 7965
  145.0378  139.3285  143.5992 LP  0  0  0  0  0  0  0  0  0  0  0  0  # atno 17321 bound_to 7965
  139.9542  144.6600  150.8142 LP  0  0  0  0  0  0  0  0  0  0  0  0  # atno 17342 bound_to 10162
  140.7609  143.3163  151.2726 LP  0  0  0  0  0  0  0  0  0  0  0  0  # atno 17343 bound_to 10162
  157.6729  131.0857  150.7567 LP  0  0  0  0  0  0  0  0  0  0  0  0  # atno 17370 bound_to 10713
  156.7630  130.4804  149.5433 LP  0  0  0  0  0  0  0  0  0  0  0  0  # atno 17371 bound_to 10713
  139.8717  134.9804  156.5076 LP  0  0  0  0  0  0  0  0  0  0  0  0  # atno 17394 bound_to 11000
  140.8495  133.8143  155.9154 LP  0  0  0  0  0  0  0  0  0  0  0  0  # atno 17395 bound_to 11000

$$$$
