AV-unprocessed.smi:1645|AV-procd|sdf|6619|dock7
  -GOLD-   22720 7313D 1   1.00000     0.00000
 Structure written by MMmdl.
 55 58  0  0  0  0  0  0  0  0  4 V2000
  146.7899  136.2034  155.8560 O   0  0  0  0  0  0  0  0  0  0  0  0
  147.3112  135.9326  154.7679 C   0  0  0  0  0  0  0  0  0  0  0  0
  148.4132  136.5870  154.3618 N   0  0  0  0  0  0  0  0  0  0  0  0
  149.1052  137.6439  155.0097 C   0  0  0  0  0  0  0  0  0  0  0  0
  150.2835  138.1315  154.4064 C   0  0  0  0  0  0  0  0  0  0  0  0
  150.9896  139.1913  155.0111 C   0  0  0  0  0  0  0  0  0  0  0  0
  150.4959  139.7574  156.2089 C   0  0  0  0  0  0  0  0  0  0  0  0
  151.1294  140.8101  156.8817 N   0  0  0  0  0  0  0  0  0  0  0  0
  151.5699  140.4360  158.2232 C   0  0  0  0  0  0  0  0  0  0  0  0
  152.4160  141.5553  158.8548 C   0  0  0  0  0  0  0  0  0  0  0  0
  151.6598  142.8936  158.8352 C   0  0  0  0  0  0  0  0  0  0  0  0
  151.2026  143.2228  157.4051 C   0  0  0  0  0  0  0  0  0  0  0  0
  150.3825  142.0639  156.8127 C   0  0  0  0  0  0  0  0  0  0  0  0
  149.3520  139.2781  156.7437 N   0  3  0  0  0  0  0  0  0  0  0  0
  148.6476  138.2631  156.1977 C   0  0  0  0  0  0  0  0  0  0  0  0
  146.9188  134.9851  153.8744 N   0  5  0  0  0  0  0  0  0  0  0  0
  145.5556  134.4598  153.7638 C   0  0  1  0  0  0  0  0  0  0  0  0
  144.5561  135.5217  153.2872 C   0  0  0  0  0  0  0  0  0  0  0  0
  143.4549  134.7211  152.5684 C   0  0  0  0  0  0  0  0  0  0  0  0
  143.9365  133.3214  152.5127 N   0  3  1  0  0  0  0  0  0  0  0  0
  143.4328  132.4839  151.3940 C   0  0  0  0  0  0  0  0  0  0  0  0
  144.1791  132.7445  150.0760 C   0  0  0  0  0  0  0  0  0  0  0  0
  145.6913  132.6056  150.2766 C   0  0  0  0  0  0  0  0  0  0  0  0
  146.1535  133.5818  151.3638 C   0  0  0  0  0  0  0  0  0  0  0  0
  145.4045  133.3424  152.7102 C   0  0  1  0  0  0  0  0  0  0  0  0
  148.8393  136.2365  153.5165 H   0  0  0  0  0  0  0  0  0  0  0  0
  150.6508  137.6920  153.4903 H   0  0  0  0  0  0  0  0  0  0  0  0
  151.8962  139.5622  154.5560 H   0  0  0  0  0  0  0  0  0  0  0  0
  150.7000  140.2322  158.8490 H   0  0  0  0  0  0  0  0  0  0  0  0
  152.1523  139.5148  158.1755 H   0  0  0  0  0  0  0  0  0  0  0  0
  152.6831  141.2900  159.8782 H   0  0  0  0  0  0  0  0  0  0  0  0
  153.3532  141.6580  158.3062 H   0  0  0  0  0  0  0  0  0  0  0  0
  150.7921  142.8351  159.4935 H   0  0  0  0  0  0  0  0  0  0  0  0
  152.2931  143.6919  159.2232 H   0  0  0  0  0  0  0  0  0  0  0  0
  150.6123  144.1394  157.4009 H   0  0  0  0  0  0  0  0  0  0  0  0
  152.0744  143.4122  156.7772 H   0  0  0  0  0  0  0  0  0  0  0  0
  150.1277  142.2828  155.7749 H   0  0  0  0  0  0  0  0  0  0  0  0
  149.4435  141.9622  157.3586 H   0  0  0  0  0  0  0  0  0  0  0  0
  147.7442  137.9956  156.7256 H   0  0  0  0  0  0  0  0  0  0  0  0
  145.1938  134.0737  154.7188 H   0  0  0  0  0  0  0  0  0  0  0  0
  144.1651  136.1131  154.1157 H   0  0  0  0  0  0  0  0  0  0  0  0
  145.0231  136.2125  152.5830 H   0  0  0  0  0  0  0  0  0  0  0  0
  142.5051  134.7614  153.1031 H   0  0  0  0  0  0  0  0  0  0  0  0
  143.2894  135.1233  151.5679 H   0  0  0  0  0  0  0  0  0  0  0  0
  143.5630  131.4388  151.6771 H   0  0  0  0  0  0  0  0  0  0  0  0
  142.3608  132.6395  151.2696 H   0  0  0  0  0  0  0  0  0  0  0  0
  143.8387  132.0436  149.3133 H   0  0  0  0  0  0  0  0  0  0  0  0
  143.9459  133.7423  149.7030 H   0  0  0  0  0  0  0  0  0  0  0  0
  145.9414  131.5828  150.5610 H   0  0  0  0  0  0  0  0  0  0  0  0
  146.2145  132.8095  149.3418 H   0  0  0  0  0  0  0  0  0  0  0  0
  147.2300  133.4708  151.5042 H   0  0  0  0  0  0  0  0  0  0  0  0
  146.0001  134.5969  150.9908 H   0  0  0  0  0  0  0  0  0  0  0  0
  145.7204  132.3839  153.1246 H   0  0  0  0  0  0  0  0  0  0  0  0
  143.5743  132.9025  153.3573 H   0  0  0  0  0  0  0  0  0  0  0  0
  149.0007  139.7035  157.6019 H   0  0  0  0  0  0  0  0  0  0  0  0
  1  2  2  0  0  0  0
  2  3  1  0  0  0  0
  2 16  1  0  0  0  0
  3  4  1  0  0  0  0
  3 26  1  0  0  0  0
  4 15  1  0  0  0  0
  4  5  2  0  0  0  0
  5  6  1  0  0  0  0
  5 27  1  0  0  0  0
  6  7  2  0  0  0  0
  6 28  1  0  0  0  0
  7  8  1  0  0  0  0
  7 14  1  0  0  0  0
  8 13  1  0  0  0  0
  8  9  1  0  0  0  0
  9 10  1  0  0  0  0
  9 29  1  0  0  0  0
  9 30  1  0  0  0  0
 10 11  1  0  0  0  0
 10 31  1  0  0  0  0
 10 32  1  0  0  0  0
 11 12  1  0  0  0  0
 11 33  1  0  0  0  0
 11 34  1  0  0  0  0
 12 13  1  0  0  0  0
 12 35  1  0  0  0  0
 12 36  1  0  0  0  0
 13 37  1  0  0  0  0
 13 38  1  0  0  0  0
 14 15  2  0  0  0  0
 14 55  1  0  0  0  0
 15 39  1  0  0  0  0
 16 17  1  0  0  0  0
 17 25  1  0  0  0  0
 17 18  1  0  0  0  0
 17 40  1  0  0  0  0
 18 19  1  0  0  0  0
 18 41  1  0  0  0  0
 18 42  1  0  0  0  0
 19 20  1  0  0  0  0
 19 43  1  0  0  0  0
 19 44  1  0  0  0  0
 20 25  1  0  0  0  0
 20 21  1  0  0  0  0
 20 54  1  0  0  0  0
 21 22  1  0  0  0  0
 21 45  1  0  0  0  0
 21 46  1  0  0  0  0
 22 23  1  0  0  0  0
 22 47  1  0  0  0  0
 22 48  1  0  0  0  0
 23 24  1  0  0  0  0
 23 49  1  0  0  0  0
 23 50  1  0  0  0  0
 24 25  1  0  0  0  0
 24 51  1  0  0  0  0
 24 52  1  0  0  0  0
 25 53  1  0  0  0  0
M  CHG  1  14   1
M  CHG  1  16  -1
M  CHG  1  20   1
M  END
> <s_m_source_file>
AV-unprocessed.smi

> <i_m_source_file_index>
1645

> <i_lp_mmshare_version>
43012

> <i_f3d_flags>
0

> <s_epik_input>
W0NIMl0xW0NIMl1bQ0gyXVtDSDJdW0NASF0oTjEyKVtDQEBIXShbQ0gyXVtDSDJdMilbTkhdQyg9TylbTkhdYzNbY0hdW2NIXWMobltjSF0zKU40W0NIMl1bQ0gyXVtDSDJdW0NIMl1bQ0gyXTQ=

> <s_epik_cmdline>
J2VwaWtfcHl0aG9uJywgJy1waCcsICc3LjAnLCAnLXRuJywgJzgnLCAnLW1hJywgJzIwMCcsICctbWV0YWxfYmluZGluZycsICctaW1hZScsICc8aW5maWxlLm1hZT4nLCAnLW9tYWUnLCAnPG91dGZpbGUubWFlPic=

> <r_lp_tautomer_probability>
0.999994

> <r_epik_Ionization_Penalty>
8.55589

> <r_epik_Ionization_Penalty_Charging>
8.55589

> <r_epik_Ionization_Penalty_Neutral>
3.8092e-06

> <r_epik_State_Penalty>
8.15703

> <r_epik_Charging_Adjusted_Penalty>
16.7129

> <i_epik_Tot_Q>
1

> <i_epik_Tot_abs_Q>
3

> <r_epik_Metal_State_Penalty>
4.13781

> <b_epik_Metal_Only>
1

> <s_lp_Force_Field>
OPLS_2005

> <r_lp_Energy>
57.4093

> <b_lp_Chiralities_Consistent>
1

> <s_lp_Variant>
AV-unprocessed.smi:1645-20

> <Gold.Version>
5.8.1

> <Gold.Id.Protein>
6NUR|6NUR_protein|mol2

> <Gold.PLP.Fitness>
44.5501

> <Gold.PLP.PLP>
-35.9330

> <Gold.PLP.part.hbond>
-2.0000

> <Gold.PLP.part.metal>
0.0000

> <Gold.PLP.part.buried>
-7.4387

> <Gold.PLP.part.nonpolar>
-29.6786

> <Gold.PLP.part.repulsive>
0.4386

> <Gold.PLP.ligand.clash>
0.0000

> <Gold.PLP.ligand.torsion>
0.2421

> <Gold.PLP.Chemscore.Hbond>
2.9825

> <Gold.PLP.Chemscore.CHOScore>
0.0000

> <Gold.PLP.Chemscore.Metal>
0.0000

> <Gold.Chemscore.Hbonds>
donor molecule, donor type, donor heavy atom, donor atom, acceptor molecule, acceptor atom, score
      L1  H     3    26       P1  7948  1.00
      L1  H    20    54       P1 10957  2.00

> <Gold.PLP.Chemscore.Internal.Correction>
0.1538

> <Gold.Rescore>
     Score         DG    S(hbond)    S(metal)    S(lipo)     H(rot)  DE(clash)    DE(int)     intcor
     19.65     -21.42       1.93        0.00     106.79       1.17       0.05       1.72       ----

> <Gold.Chemscore.Fitness>
19.6541

> <Gold.Chemscore.DG>
-21.4215

> <Gold.Chemscore.ZeroCoef>
-5.4800

> <Gold.Chemscore.Hbond>
1.9313

> <Gold.Chemscore.Metal>
0.0000

> <Gold.Chemscore.Lipo>
106.7887

> <Gold.Chemscore.Internal_Hbond>
0.0000

> <Gold.Chemscore.DEClash>
0.0488

> <Gold.Chemscore.DEInternal>
1.7187

> <Gold.Chemscore.Rot>
1.1731

> <Gold.Chemscore.Internal.Correction>
   9.000000E+99

> <Gold.Chemscore.Hbonds>
donor molecule, donor type, donor heavy atom, donor atom, acceptor molecule, acceptor atom, score
      L1  H     3    26       P1  7948  0.95
      L1  H    20    54       P1 10957  0.65

> <Gold.Chemscore.Hbond.Weighted>
-6.4505

> <Gold.Chemscore.Metal.Weighted>
-0.0000

> <Gold.Chemscore.Lipo.Weighted>
-12.4943

> <Gold.Chemscore.Internal_Hbond.Weighted>
0.0000

> <Gold.Chemscore.DEClash.Weighted>
0.0488

> <Gold.Chemscore.DEInternal.Weighted>
1.7187

> <Gold.Chemscore.Rot.Weighted>
3.0032

> <Gold.Chemscore.Internal.Correction.Weighted>
   9.000000E+99

> <Gold.Protein.RotatedTorsions>
[ 6907 6896 6895 6894 ] final -118.82 input  -60.11 | X-H torsion
[ 7974 7965 7964 7962 ] final   81.84 input  175.53 | X-H torsion
[ 8008 7997 7996 7995 ] final  -24.43 input   59.86 | X-H torsion
[ 10167 10162 10161 10158 ] final  -47.87 input  -65.29 | X-H torsion
[ 10718 10713 10712 10709 ] final  177.77 input   66.30 | X-H torsion
[ 10763 10752 10751 10750 ] final   -4.02 input  -60.55 | X-H torsion
[ 11005 11000 10999 10996 ] final  134.59 input  -57.11 | X-H torsion

> <Gold.Protein.ActiveResidues>
 VAL166  LYS551  ARG553  GLY616  TRP617  ASP618  TYR619  PRO620  LYS621  CYS622 
 ASP623  PHE694  ASN695  SER759  ASP760  ASP761  ALA762  ILE779  LEU786  VAL792 
 PHE793  MET794  SER795  GLU796  ALA797  LYS798  CYS799  TRP800  GLU811  SER814 

> <Gold.Protein.RotatedAtoms>
  150.8252  133.8183  159.3121 H   0  0  0  0  0  0  0  0  0  0  0  0  # atno 6907 bound_to 6896
  151.5929  135.1050  160.0052 H   0  0  0  0  0  0  0  0  0  0  0  0  # atno 6908 bound_to 6896
  152.4338  133.7283  159.6629 H   0  0  0  0  0  0  0  0  0  0  0  0  # atno 6909 bound_to 6896
  145.6329  139.2409  143.2074 H   0  0  0  0  0  0  0  0  0  0  0  0  # atno 7974 bound_to 7965
  154.4530  140.1954  156.0463 H   0  0  0  0  0  0  0  0  0  0  0  0  # atno 8008 bound_to 7997
  156.0687  140.3287  155.7522 H   0  0  0  0  0  0  0  0  0  0  0  0  # atno 8009 bound_to 7997
  155.5297  140.0577  157.2882 H   0  0  0  0  0  0  0  0  0  0  0  0  # atno 8010 bound_to 7997
  140.6756  143.2765  151.3988 H   0  0  0  0  0  0  0  0  0  0  0  0  # atno 10167 bound_to 10162
  156.9004  130.9877  151.3036 H   0  0  0  0  0  0  0  0  0  0  0  0  # atno 10718 bound_to 10713
  153.3792  135.6997  153.6578 H   0  0  0  0  0  0  0  0  0  0  0  0  # atno 10763 bound_to 10752
  153.5196  135.3614  155.2626 H   0  0  0  0  0  0  0  0  0  0  0  0  # atno 10764 bound_to 10752
  154.8690  135.4154  154.3086 H   0  0  0  0  0  0  0  0  0  0  0  0  # atno 10765 bound_to 10752
  139.9925  134.9510  156.9888 H   0  0  0  0  0  0  0  0  0  0  0  0  # atno 11005 bound_to 11000
  146.1342  140.7145  142.9397 LP  0  0  0  0  0  0  0  0  0  0  0  0  # atno 17320 bound_to 7965
  144.7186  140.4298  143.7025 LP  0  0  0  0  0  0  0  0  0  0  0  0  # atno 17321 bound_to 7965
  139.6047  144.1222  152.2236 LP  0  0  0  0  0  0  0  0  0  0  0  0  # atno 17342 bound_to 10162
  140.0617  144.5851  150.7258 LP  0  0  0  0  0  0  0  0  0  0  0  0  # atno 17343 bound_to 10162
  157.6029  130.8526  149.8831 LP  0  0  0  0  0  0  0  0  0  0  0  0  # atno 17370 bound_to 10713
  156.0585  130.3704  150.1037 LP  0  0  0  0  0  0  0  0  0  0  0  0  # atno 17371 bound_to 10713
  140.4882  134.1220  155.7228 LP  0  0  0  0  0  0  0  0  0  0  0  0  # atno 17394 bound_to 11000
  141.1577  133.8851  157.1932 LP  0  0  0  0  0  0  0  0  0  0  0  0  # atno 17395 bound_to 11000

$$$$
