AV-unprocessed.smi:3188|AV-procd|sdf|12184|dock1
  -GOLD-   2272018 23D 1   1.00000     0.00000
 Structure written by MMmdl.
 40 41  0  0  0  0  0  0  0  0  2 V2000
  151.2777  145.4767  159.7839 C   0  0  0  0  0  0  0  0  0  0  0  0
  151.8637  144.1773  160.3116 C   0  0  0  0  0  0  0  0  0  0  0  0
  152.2555  144.0956  161.5975 C   0  0  0  0  0  0  0  0  0  0  0  0
  152.9163  142.8836  162.2127 C   0  0  0  0  0  0  0  0  0  0  0  0
  153.5267  141.9841  161.1358 C   0  0  0  0  0  0  0  0  0  0  0  0
  152.5215  141.6946  160.0088 C   0  0  2  0  0  0  0  0  0  0  0  0
  153.1513  140.7099  159.0042 C   0  0  0  0  0  0  0  0  0  0  0  0
  152.0063  142.9993  159.3256 C   0  0  1  0  0  0  0  0  0  0  0  0
  150.6982  142.7116  158.5417 C   0  0  0  0  0  0  0  0  0  0  0  0
  150.7862  143.0915  157.1163 N   0  3  0  0  0  0  0  0  0  0  0  0
  151.0020  141.9544  156.2014 C   0  0  0  0  0  0  0  0  0  0  0  0
  149.9576  140.8533  156.4363 C   0  0  0  0  0  0  0  0  0  0  0  0
  150.3116  139.6220  155.7570 N   0  0  0  0  0  0  0  0  0  0  0  0
  150.3683  139.3722  154.4013 C   0  0  0  0  0  0  0  0  0  0  0  0
  150.7541  138.0636  154.3363 C   0  0  0  0  0  0  0  0  0  0  0  0
  150.9151  137.5803  155.6338 N   0  0  0  0  0  0  0  0  0  0  0  0
  150.6504  138.5266  156.4783 N   0  0  0  0  0  0  0  0  0  0  0  0
  151.7924  145.7872  158.8744 H   0  0  0  0  0  0  0  0  0  0  0  0
  151.3816  146.2820  160.5120 H   0  0  0  0  0  0  0  0  0  0  0  0
  150.2141  145.3678  159.5722 H   0  0  0  0  0  0  0  0  0  0  0  0
  152.1157  144.9386  162.2587 H   0  0  0  0  0  0  0  0  0  0  0  0
  153.6940  143.2117  162.9032 H   0  0  0  0  0  0  0  0  0  0  0  0
  152.1746  142.3408  162.7992 H   0  0  0  0  0  0  0  0  0  0  0  0
  154.4133  142.4652  160.7197 H   0  0  0  0  0  0  0  0  0  0  0  0
  153.8674  141.0543  161.5932 H   0  0  0  0  0  0  0  0  0  0  0  0
  151.6675  141.1954  160.4701 H   0  0  0  0  0  0  0  0  0  0  0  0
  154.0063  141.1572  158.4962 H   0  0  0  0  0  0  0  0  0  0  0  0
  152.4470  140.3830  158.2409 H   0  0  0  0  0  0  0  0  0  0  0  0
  153.5054  139.8112  159.5101 H   0  0  0  0  0  0  0  0  0  0  0  0
  152.7707  143.3104  158.6115 H   0  0  0  0  0  0  0  0  0  0  0  0
  150.4461  141.6528  158.5709 H   0  0  0  0  0  0  0  0  0  0  0  0
  149.8651  143.2367  159.0117 H   0  0  0  0  0  0  0  0  0  0  0  0
  149.9248  143.5509  156.8571 H   0  0  0  0  0  0  0  0  0  0  0  0
  150.9518  142.3104  155.1713 H   0  0  0  0  0  0  0  0  0  0  0  0
  152.0051  141.5552  156.3575 H   0  0  0  0  0  0  0  0  0  0  0  0
  149.8607  140.6440  157.5024 H   0  0  0  0  0  0  0  0  0  0  0  0
  148.9756  141.1735  156.0851 H   0  0  0  0  0  0  0  0  0  0  0  0
  150.1421  140.1060  153.6415 H   0  0  0  0  0  0  0  0  0  0  0  0
  150.9277  137.4362  153.4741 H   0  0  0  0  0  0  0  0  0  0  0  0
  151.5474  143.7461  157.0050 H   0  0  0  0  0  0  0  0  0  0  0  0
  1  2  1  0  0  0  0
  1 18  1  0  0  0  0
  1 19  1  0  0  0  0
  1 20  1  0  0  0  0
  2  8  1  0  0  0  0
  2  3  2  0  0  0  0
  3  4  1  0  0  0  0
  3 21  1  0  0  0  0
  4  5  1  0  0  0  0
  4 22  1  0  0  0  0
  4 23  1  0  0  0  0
  5  6  1  0  0  0  0
  5 24  1  0  0  0  0
  5 25  1  0  0  0  0
  6  7  1  0  0  0  0
  6  8  1  0  0  0  0
  6 26  1  0  0  0  0
  7 27  1  0  0  0  0
  7 28  1  0  0  0  0
  7 29  1  0  0  0  0
  8  9  1  0  0  0  0
  8 30  1  0  0  0  0
  9 10  1  0  0  0  0
  9 31  1  0  0  0  0
  9 32  1  0  0  0  0
 10 11  1  0  0  0  0
 10 33  1  0  0  0  0
 10 40  1  0  0  0  0
 11 12  1  0  0  0  0
 11 34  1  0  0  0  0
 11 35  1  0  0  0  0
 12 13  1  0  0  0  0
 12 36  1  0  0  0  0
 12 37  1  0  0  0  0
 13 17  1  0  0  0  0
 13 14  1  0  0  0  0
 14 15  2  0  0  0  0
 14 38  1  0  0  0  0
 15 16  1  0  0  0  0
 15 39  1  0  0  0  0
 16 17  2  0  0  0  0
M  CHG  1  10   1
M  END
> <s_m_source_file>
AV-unprocessed.smi

> <i_m_source_file_index>
3188

> <i_lp_mmshare_version>
43012

> <i_f3d_flags>
0

> <s_epik_input>
W0NIM11DMT1bQ0hdW0NIMl1bQ0gyXVtDQEBIXShbQ0gzXSlbQ0BIXTFbQ0gyXVtOSF1bQ0gyXVtDSDJdbjJbY0hdW2NIXW5uMg==

> <s_epik_cmdline>
J2VwaWtfcHl0aG9uJywgJy1waCcsICc3LjAnLCAnLXRuJywgJzgnLCAnLW1hJywgJzIwMCcsICctbWV0YWxfYmluZGluZycsICctaW1hZScsICc8aW5maWxlLm1hZT4nLCAnLW9tYWUnLCAnPG91dGZpbGUubWFlPic=

> <r_lp_tautomer_probability>
1

> <r_epik_Ionization_Penalty>
0.007268

> <r_epik_Ionization_Penalty_Charging>
0.00726786

> <r_epik_Ionization_Penalty_Neutral>
1.34882e-07

> <r_epik_State_Penalty>
0.00542069

> <r_epik_Charging_Adjusted_Penalty>
0.0126886

> <i_epik_Tot_Q>
1

> <i_epik_Tot_abs_Q>
1

> <r_epik_Metal_State_Penalty>
-0

> <b_epik_Metal_Only>
0

> <s_lp_Force_Field>
OPLS_2005

> <r_lp_Energy>
15.008

> <b_lp_Chiralities_Consistent>
1

> <s_lp_Variant>
AV-unprocessed.smi:3188-2

> <Gold.Version>
5.8.1

> <Gold.Id.Protein>
6NUR|6NUR_protein|mol2

> <Gold.PLP.Fitness>
53.0232

> <Gold.PLP.PLP>
-42.8185

> <Gold.PLP.part.hbond>
-1.0000

> <Gold.PLP.part.metal>
0.0000

> <Gold.PLP.part.buried>
-5.0536

> <Gold.PLP.part.nonpolar>
-35.7752

> <Gold.PLP.part.repulsive>
0.0692

> <Gold.PLP.ligand.clash>
0.0000

> <Gold.PLP.ligand.torsion>
1.1159

> <Gold.PLP.Chemscore.Hbond>
2.0000

> <Gold.PLP.Chemscore.CHOScore>
2.1171

> <Gold.PLP.Chemscore.Metal>
0.0000

> <Gold.Chemscore.Hbonds>
donor molecule, donor type, donor heavy atom, donor atom, acceptor molecule, acceptor atom, score
      L1  H    10    33       P1  8028  2.00
      L1  C    14    38       P1  7957  0.99
      L1  C    15    39       P1  7948  0.13
      L1  C    15    39       P1  7949  1.00

> <Gold.PLP.Chemscore.Internal.Correction>
0.0854

> <Gold.Rescore>
     Score         DG    S(hbond)    S(metal)    S(lipo)     H(rot)  DE(clash)    DE(int)     intcor
     17.92     -19.08       1.00        0.00     126.75       1.78       0.07       1.10       ----

> <Gold.Chemscore.Fitness>
17.9203

> <Gold.Chemscore.DG>
-19.0819

> <Gold.Chemscore.ZeroCoef>
-5.4800

> <Gold.Chemscore.Hbond>
0.9973

> <Gold.Chemscore.Metal>
0.0000

> <Gold.Chemscore.Lipo>
126.7521

> <Gold.Chemscore.Internal_Hbond>
0.0000

> <Gold.Chemscore.DEClash>
0.0666

> <Gold.Chemscore.DEInternal>
1.0951

> <Gold.Chemscore.Rot>
1.7809

> <Gold.Chemscore.Internal.Correction>
   9.000000E+99

> <Gold.Chemscore.Hbonds>
donor molecule, donor type, donor heavy atom, donor atom, acceptor molecule, acceptor atom, score
      L1  H    10    33       P1  8028  0.94

> <Gold.Chemscore.Hbond.Weighted>
-3.3309

> <Gold.Chemscore.Metal.Weighted>
-0.0000

> <Gold.Chemscore.Lipo.Weighted>
-14.8300

> <Gold.Chemscore.Internal_Hbond.Weighted>
0.0000

> <Gold.Chemscore.DEClash.Weighted>
0.0666

> <Gold.Chemscore.DEInternal.Weighted>
1.0951

> <Gold.Chemscore.Rot.Weighted>
4.5590

> <Gold.Chemscore.Internal.Correction.Weighted>
   9.000000E+99

> <Gold.Protein.RotatedTorsions>
[ 6907 6896 6895 6894 ] final -111.75 input  -60.11 | X-H torsion
[ 7974 7965 7964 7962 ] final  116.56 input  175.53 | X-H torsion
[ 8008 7997 7996 7995 ] final  131.77 input   59.86 | X-H torsion
[ 10167 10162 10161 10158 ] final  170.31 input  -65.29 | X-H torsion
[ 10718 10713 10712 10709 ] final   40.48 input   66.30 | X-H torsion
[ 10763 10752 10751 10750 ] final -156.56 input  -60.55 | X-H torsion
[ 11005 11000 10999 10996 ] final  -14.73 input  -57.11 | X-H torsion

> <Gold.Protein.ActiveResidues>
 VAL166  LYS551  ARG553  GLY616  TRP617  ASP618  TYR619  PRO620  LYS621  CYS622 
 ASP623  PHE694  ASN695  SER759  ASP760  ASP761  ALA762  ILE779  LEU786  VAL792 
 PHE793  MET794  SER795  GLU796  ALA797  LYS798  CYS799  TRP800  GLU811  SER814 

> <Gold.Protein.RotatedAtoms>
  150.7711  133.9190  159.3392 H   0  0  0  0  0  0  0  0  0  0  0  0  # atno 6907 bound_to 6896
  151.7076  135.0917  160.0271 H   0  0  0  0  0  0  0  0  0  0  0  0  # atno 6908 bound_to 6896
  152.3729  133.6405  159.6137 H   0  0  0  0  0  0  0  0  0  0  0  0  # atno 6909 bound_to 6896
  145.1782  139.3064  143.4432 H   0  0  0  0  0  0  0  0  0  0  0  0  # atno 7974 bound_to 7965
  156.2974  140.2563  156.2980 H   0  0  0  0  0  0  0  0  0  0  0  0  # atno 8008 bound_to 7997
  154.9445  140.0395  157.2132 H   0  0  0  0  0  0  0  0  0  0  0  0  # atno 8009 bound_to 7997
  154.8094  140.2842  155.5868 H   0  0  0  0  0  0  0  0  0  0  0  0  # atno 8010 bound_to 7997
  139.5015  144.3610  151.9825 H   0  0  0  0  0  0  0  0  0  0  0  0  # atno 10167 bound_to 10162
  157.3827  130.7762  149.7205 H   0  0  0  0  0  0  0  0  0  0  0  0  # atno 10718 bound_to 10713
  154.7703  135.3143  154.8202 H   0  0  0  0  0  0  0  0  0  0  0  0  # atno 10763 bound_to 10752
  153.8939  135.6822  153.4763 H   0  0  0  0  0  0  0  0  0  0  0  0  # atno 10764 bound_to 10752
  153.1316  135.4777  154.9292 H   0  0  0  0  0  0  0  0  0  0  0  0  # atno 10765 bound_to 10752
  140.7894  133.8299  155.9366 H   0  0  0  0  0  0  0  0  0  0  0  0  # atno 11005 bound_to 11000
  146.3457  140.1952  142.8589 LP  0  0  0  0  0  0  0  0  0  0  0  0  # atno 17320 bound_to 7965
  145.0163  140.8757  143.5193 LP  0  0  0  0  0  0  0  0  0  0  0  0  # atno 17321 bound_to 7965
  140.3046  144.3607  150.6050 LP  0  0  0  0  0  0  0  0  0  0  0  0  # atno 17342 bound_to 10162
  140.5846  143.2170  151.7365 LP  0  0  0  0  0  0  0  0  0  0  0  0  # atno 17343 bound_to 10162
  155.9779  130.4057  150.3681 LP  0  0  0  0  0  0  0  0  0  0  0  0  # atno 17370 bound_to 10713
  157.1786  131.0386  151.2759 LP  0  0  0  0  0  0  0  0  0  0  0  0  # atno 17371 bound_to 10713
  140.9404  134.1908  157.4801 LP  0  0  0  0  0  0  0  0  0  0  0  0  # atno 17394 bound_to 11000
  139.8733  134.9869  156.5346 LP  0  0  0  0  0  0  0  0  0  0  0  0  # atno 17395 bound_to 11000

$$$$
