AV-unprocessed.smi:1436|AV-procd|sdf|5859|dock1
  -GOLD-   22720 5533D 1   1.00000     0.00000
 Structure written by MMmdl.
 43 44  0  0  0  0  0  0  0  0  1 V2000
  152.9245  142.5747  162.5047 C   0  0  0  0  0  0  0  0  0  0  0  0
  152.5350  143.2885  161.2425 C   0  0  0  0  0  0  0  0  0  0  0  0
  151.9786  144.4853  161.3207 N   0  0  0  0  0  0  0  0  0  0  0  0
  151.7139  144.8707  160.0036 O   0  0  0  0  0  0  0  0  0  0  0  0
  152.1233  143.8782  159.1738 C   0  0  0  0  0  0  0  0  0  0  0  0
  151.8988  144.1018  157.7168 C   0  0  0  0  0  0  0  0  0  0  0  0
  152.6568  142.8438  159.8939 C   0  0  0  0  0  0  0  0  0  0  0  0
  153.2160  141.5326  159.3972 C   0  0  0  0  0  0  0  0  0  0  0  0
  152.1305  140.7672  158.6399 C   0  0  0  0  0  0  0  0  0  0  0  0
  151.1264  140.3725  159.2318 O   0  0  0  0  0  0  0  0  0  0  0  0
  152.3367  140.5878  157.3256 N   0  0  0  0  0  0  0  0  0  0  0  0
  151.3857  140.0077  156.3822 C   0  0  2  0  0  0  0  0  0  0  0  0
  152.1305  139.3317  155.2212 C   0  0  0  0  0  0  0  0  0  0  0  0
  150.3199  141.0303  155.9115 C   0  0  0  0  0  0  0  0  0  0  0  0
  149.1988  140.5142  155.1172 N   0  0  0  0  0  0  0  0  0  0  0  0
  148.2512  139.8047  155.9719 C   0  0  0  0  0  0  0  0  0  0  0  0
  147.0560  139.2494  155.1791 C   0  0  0  0  0  0  0  0  0  0  0  0
  146.4039  140.3148  154.4973 O   0  0  0  0  0  0  0  0  0  0  0  0
  147.2747  141.0074  153.6100 C   0  0  0  0  0  0  0  0  0  0  0  0
  148.4808  141.5591  154.3888 C   0  0  0  0  0  0  0  0  0  0  0  0
  152.0724  142.0417  162.9267 H   0  0  0  0  0  0  0  0  0  0  0  0
  153.2915  143.2704  163.2599 H   0  0  0  0  0  0  0  0  0  0  0  0
  153.7126  141.8448  162.3202 H   0  0  0  0  0  0  0  0  0  0  0  0
  150.8394  144.2578  157.5126 H   0  0  0  0  0  0  0  0  0  0  0  0
  152.2306  143.2466  157.1287 H   0  0  0  0  0  0  0  0  0  0  0  0
  152.4433  144.9809  157.3723 H   0  0  0  0  0  0  0  0  0  0  0  0
  154.0691  141.6803  158.7348 H   0  0  0  0  0  0  0  0  0  0  0  0
  153.5791  140.9195  160.2228 H   0  0  0  0  0  0  0  0  0  0  0  0
  153.1970  140.9434  156.9349 H   0  0  0  0  0  0  0  0  0  0  0  0
  150.8557  139.2174  156.9171 H   0  0  0  0  0  0  0  0  0  0  0  0
  151.4304  138.8682  154.5256 H   0  0  0  0  0  0  0  0  0  0  0  0
  152.7984  138.5508  155.5861 H   0  0  0  0  0  0  0  0  0  0  0  0
  152.7334  140.0466  154.6603 H   0  0  0  0  0  0  0  0  0  0  0  0
  149.9091  141.4792  156.8169 H   0  0  0  0  0  0  0  0  0  0  0  0
  150.7996  141.8538  155.3803 H   0  0  0  0  0  0  0  0  0  0  0  0
  148.7554  138.9822  156.4804 H   0  0  0  0  0  0  0  0  0  0  0  0
  147.8838  140.4739  156.7517 H   0  0  0  0  0  0  0  0  0  0  0  0
  147.3831  138.4938  154.4632 H   0  0  0  0  0  0  0  0  0  0  0  0
  146.3454  138.7684  155.8515 H   0  0  0  0  0  0  0  0  0  0  0  0
  147.6041  140.3361  152.8156 H   0  0  0  0  0  0  0  0  0  0  0  0
  146.7279  141.8220  153.1347 H   0  0  0  0  0  0  0  0  0  0  0  0
  148.1414  142.3287  155.0835 H   0  0  0  0  0  0  0  0  0  0  0  0
  149.1420  142.0446  153.6741 H   0  0  0  0  0  0  0  0  0  0  0  0
  1  2  1  0  0  0  0
  1 21  1  0  0  0  0
  1 22  1  0  0  0  0
  1 23  1  0  0  0  0
  2  7  1  0  0  0  0
  2  3  2  0  0  0  0
  3  4  1  0  0  0  0
  4  5  1  0  0  0  0
  5  6  1  0  0  0  0
  5  7  2  0  0  0  0
  6 24  1  0  0  0  0
  6 25  1  0  0  0  0
  6 26  1  0  0  0  0
  7  8  1  0  0  0  0
  8  9  1  0  0  0  0
  8 27  1  0  0  0  0
  8 28  1  0  0  0  0
  9 10  2  0  0  0  0
  9 11  1  0  0  0  0
 11 12  1  0  0  0  0
 11 29  1  0  0  0  0
 12 13  1  0  0  0  0
 12 14  1  0  0  0  0
 12 30  1  0  0  0  0
 13 31  1  0  0  0  0
 13 32  1  0  0  0  0
 13 33  1  0  0  0  0
 14 15  1  0  0  0  0
 14 34  1  0  0  0  0
 14 35  1  0  0  0  0
 15 20  1  0  0  0  0
 15 16  1  0  0  0  0
 16 17  1  0  0  0  0
 16 36  1  0  0  0  0
 16 37  1  0  0  0  0
 17 18  1  0  0  0  0
 17 38  1  0  0  0  0
 17 39  1  0  0  0  0
 18 19  1  0  0  0  0
 19 20  1  0  0  0  0
 19 40  1  0  0  0  0
 19 41  1  0  0  0  0
 20 42  1  0  0  0  0
 20 43  1  0  0  0  0
M  END
> <s_m_source_file>
AV-unprocessed.smi

> <i_m_source_file_index>
1436

> <i_lp_mmshare_version>
43012

> <i_f3d_flags>
0

> <s_epik_input>
W0NIM11jMW5vYyhbQ0gzXSljMVtDSDJdQyg9TylbTkhdW0NASF0oW0NIM10pW0NIMl1OMltDSDJdW0NIMl1PW0NIMl1bQ0gyXTI=

> <s_epik_cmdline>
J2VwaWtfcHl0aG9uJywgJy1waCcsICc3LjAnLCAnLXRuJywgJzgnLCAnLW1hJywgJzIwMCcsICctbWV0YWxfYmluZGluZycsICctaW1hZScsICc8aW5maWxlLm1hZT4nLCAnLW9tYWUnLCAnPG91dGZpbGUubWFlPic=

> <r_epik_Ionization_Penalty>
0.234179

> <r_epik_Ionization_Penalty_Charging>
0

> <r_epik_Ionization_Penalty_Neutral>
0.234179

> <r_epik_State_Penalty>
0.224936

> <r_epik_Charging_Adjusted_Penalty>
0.224936

> <i_epik_Tot_Q>
0

> <i_epik_Tot_abs_Q>
0

> <r_epik_Metal_State_Penalty>
0.224936

> <b_epik_Metal_Only>
0

> <s_lp_Force_Field>
OPLS_2005

> <r_lp_Energy>
20.5604

> <b_lp_Chiralities_Consistent>
1

> <s_lp_Variant>
AV-unprocessed.smi:1436-1

> <Gold.Version>
5.8.1

> <Gold.Id.Protein>
6NUR|6NUR_protein|mol2

> <Gold.PLP.Fitness>
40.0861

> <Gold.PLP.PLP>
-40.9278

> <Gold.PLP.part.hbond>
0.0000

> <Gold.PLP.part.metal>
0.0000

> <Gold.PLP.part.buried>
-4.2747

> <Gold.PLP.part.nonpolar>
-38.0528

> <Gold.PLP.part.repulsive>
1.1343

> <Gold.PLP.ligand.clash>
0.0000

> <Gold.PLP.ligand.torsion>
0.5094

> <Gold.PLP.Chemscore.Hbond>
0.0000

> <Gold.PLP.Chemscore.CHOScore>
0.0000

> <Gold.PLP.Chemscore.Metal>
0.0000

> <Gold.PLP.Chemscore.Internal.Correction>
0.1771

> <Gold.Rescore>
     Score         DG    S(hbond)    S(metal)    S(lipo)     H(rot)  DE(clash)    DE(int)     intcor
     13.22     -13.87       0.00        0.00     109.23       1.71       0.06       0.60       ----

> <Gold.Chemscore.Fitness>
13.2166

> <Gold.Chemscore.DG>
-13.8704

> <Gold.Chemscore.ZeroCoef>
-5.4800

> <Gold.Chemscore.Hbond>
0.0000

> <Gold.Chemscore.Metal>
0.0000

> <Gold.Chemscore.Lipo>
109.2262

> <Gold.Chemscore.Internal_Hbond>
0.0000

> <Gold.Chemscore.DEClash>
0.0580

> <Gold.Chemscore.DEInternal>
0.5959

> <Gold.Chemscore.Rot>
1.7145

> <Gold.Chemscore.Internal.Correction>
   9.000000E+99

> <Gold.Chemscore.Hbond.Weighted>
-0.0000

> <Gold.Chemscore.Metal.Weighted>
-0.0000

> <Gold.Chemscore.Lipo.Weighted>
-12.7795

> <Gold.Chemscore.Internal_Hbond.Weighted>
0.0000

> <Gold.Chemscore.DEClash.Weighted>
0.0580

> <Gold.Chemscore.DEInternal.Weighted>
0.5959

> <Gold.Chemscore.Rot.Weighted>
4.3891

> <Gold.Chemscore.Internal.Correction.Weighted>
   9.000000E+99

> <Gold.Protein.RotatedTorsions>
[ 6907 6896 6895 6894 ] final  131.27 input  -60.11 | X-H torsion
[ 7974 7965 7964 7962 ] final  -11.80 input  175.53 | X-H torsion
[ 8008 7997 7996 7995 ] final  -60.49 input   59.86 | X-H torsion
[ 10167 10162 10161 10158 ] final  -34.71 input  -65.29 | X-H torsion
[ 10718 10713 10712 10709 ] final   63.97 input   66.30 | X-H torsion
[ 10763 10752 10751 10750 ] final  132.33 input  -60.55 | X-H torsion
[ 11005 11000 10999 10996 ] final   54.86 input  -57.11 | X-H torsion

> <Gold.Protein.ActiveResidues>
 VAL166  LYS551  ARG553  GLY616  TRP617  ASP618  TYR619  PRO620  LYS621  CYS622 
 ASP623  PHE694  ASN695  SER759  ASP760  ASP761  ALA762  ILE779  LEU786  VAL792 
 PHE793  MET794  SER795  GLU796  ALA797  LYS798  CYS799  TRP800  GLU811  SER814 

> <Gold.Protein.RotatedAtoms>
  152.3443  133.6104  159.5898 H   0  0  0  0  0  0  0  0  0  0  0  0  # atno 6907 bound_to 6896
  150.7498  133.9673  159.3543 H   0  0  0  0  0  0  0  0  0  0  0  0  # atno 6908 bound_to 6896
  151.7533  135.0828  160.0385 H   0  0  0  0  0  0  0  0  0  0  0  0  # atno 6909 bound_to 6896
  146.2174  140.2965  142.8372 H   0  0  0  0  0  0  0  0  0  0  0  0  # atno 7974 bound_to 7965
  154.4401  140.1038  156.6282 H   0  0  0  0  0  0  0  0  0  0  0  0  # atno 8008 bound_to 7997
  155.5634  140.3488  155.4478 H   0  0  0  0  0  0  0  0  0  0  0  0  # atno 8009 bound_to 7997
  156.0443  140.1289  157.0110 H   0  0  0  0  0  0  0  0  0  0  0  0  # atno 8010 bound_to 7997
  140.7180  143.3528  151.2120 H   0  0  0  0  0  0  0  0  0  0  0  0  # atno 10167 bound_to 10162
  157.6008  130.9135  149.9785 H   0  0  0  0  0  0  0  0  0  0  0  0  # atno 10718 bound_to 10713
  153.7889  135.3158  155.3376 H   0  0  0  0  0  0  0  0  0  0  0  0  # atno 10763 bound_to 10752
  154.8133  135.4653  154.0578 H   0  0  0  0  0  0  0  0  0  0  0  0  # atno 10764 bound_to 10752
  153.1890  135.6905  153.8463 H   0  0  0  0  0  0  0  0  0  0  0  0  # atno 10765 bound_to 10752
  140.0653  134.5546  155.9106 H   0  0  0  0  0  0  0  0  0  0  0  0  # atno 11005 bound_to 11000
  144.9089  140.7733  143.5820 LP  0  0  0  0  0  0  0  0  0  0  0  0  # atno 17320 bound_to 7965
  145.2894  139.1889  143.4748 LP  0  0  0  0  0  0  0  0  0  0  0  0  # atno 17321 bound_to 7965
  139.7063  143.9450  152.2928 LP  0  0  0  0  0  0  0  0  0  0  0  0  # atno 17342 bound_to 10162
  139.9160  144.6828  150.8512 LP  0  0  0  0  0  0  0  0  0  0  0  0  # atno 17343 bound_to 10162
  156.1081  130.3651  150.0098 LP  0  0  0  0  0  0  0  0  0  0  0  0  # atno 17370 bound_to 10713
  156.8201  130.9355  151.3641 LP  0  0  0  0  0  0  0  0  0  0  0  0  # atno 17371 bound_to 10713
  141.1990  133.6604  156.5821 LP  0  0  0  0  0  0  0  0  0  0  0  0  # atno 17394 bound_to 11000
  140.3709  134.7607  157.4598 LP  0  0  0  0  0  0  0  0  0  0  0  0  # atno 17395 bound_to 11000

$$$$
