AV-unprocessed.smi:3126|AV-procd|sdf|11910|dock4
  -GOLD-   2272017293D 1   1.00000     0.00000
 Structure written by MMmdl.
 42 43  0  0  0  0  0  0  0  0  2 V2000
  152.0305  138.1119  154.4881 C   0  0  0  0  0  0  0  0  0  0  0  0
  151.2584  139.2911  155.0959 C   0  0  0  0  0  0  0  0  0  0  0  0
  149.9480  139.6335  154.3580 C   0  0  2  0  0  0  0  0  0  0  0  0
  149.4674  141.0716  154.6477 C   0  0  0  0  0  0  0  0  0  0  0  0
  148.1460  141.3863  153.9302 C   0  0  0  0  0  0  0  0  0  0  0  0
  147.0539  140.3706  154.2996 C   0  0  0  0  0  0  0  0  0  0  0  0
  147.4966  138.9184  154.0210 C   0  0  1  0  0  0  0  0  0  0  0  0
  147.5915  138.6242  152.5718 N   0  3  0  0  0  0  0  0  0  0  0  0
  146.3020  138.4209  151.8796 C   0  0  0  0  0  0  0  0  0  0  0  0
  146.3585  137.1920  150.9632 C   0  0  0  0  0  0  0  0  0  0  0  0
  145.4374  136.0867  151.4403 C   0  0  0  0  0  0  0  0  0  0  0  0
  145.3409  134.8685  150.7361 C   0  0  0  0  0  0  0  0  0  0  0  0
  144.4633  133.8766  151.2142 C   0  0  0  0  0  0  0  0  0  0  0  0
  143.7179  134.1451  152.3797 C   0  0  0  0  0  0  0  0  0  0  0  0
  143.8025  135.3076  153.0618 N   0  0  0  0  0  0  0  0  0  0  0  0
  144.6469  136.2531  152.5974 C   0  0  0  0  0  0  0  0  0  0  0  0
  148.8386  138.6206  154.7192 C   0  0  0  0  0  0  0  0  0  0  0  0
  152.9033  137.8708  155.0954 H   0  0  0  0  0  0  0  0  0  0  0  0
  152.3875  138.3364  153.4833 H   0  0  0  0  0  0  0  0  0  0  0  0
  151.4086  137.2181  154.4346 H   0  0  0  0  0  0  0  0  0  0  0  0
  151.0284  139.0417  156.1324 H   0  0  0  0  0  0  0  0  0  0  0  0
  151.9043  140.1690  155.1350 H   0  0  0  0  0  0  0  0  0  0  0  0
  150.1411  139.5500  153.2875 H   0  0  0  0  0  0  0  0  0  0  0  0
  149.3384  141.2077  155.7224 H   0  0  0  0  0  0  0  0  0  0  0  0
  150.2185  141.7963  154.3344 H   0  0  0  0  0  0  0  0  0  0  0  0
  147.8167  142.3928  154.1902 H   0  0  0  0  0  0  0  0  0  0  0  0
  148.3045  141.3853  152.8511 H   0  0  0  0  0  0  0  0  0  0  0  0
  146.8290  140.4716  155.3623 H   0  0  0  0  0  0  0  0  0  0  0  0
  146.1262  140.6102  153.7808 H   0  0  0  0  0  0  0  0  0  0  0  0
  146.7523  138.2400  154.4405 H   0  0  0  0  0  0  0  0  0  0  0  0
  148.0987  139.3721  152.1205 H   0  0  0  0  0  0  0  0  0  0  0  0
  145.5117  138.2932  152.6208 H   0  0  0  0  0  0  0  0  0  0  0  0
  146.0536  139.3036  151.2907 H   0  0  0  0  0  0  0  0  0  0  0  0
  146.0832  137.4696  149.9446 H   0  0  0  0  0  0  0  0  0  0  0  0
  147.3779  136.8063  150.9133 H   0  0  0  0  0  0  0  0  0  0  0  0
  145.9251  134.6967  149.8440 H   0  0  0  0  0  0  0  0  0  0  0  0
  144.3623  132.9321  150.7002 H   0  0  0  0  0  0  0  0  0  0  0  0
  143.0347  133.4071  152.7731 H   0  0  0  0  0  0  0  0  0  0  0  0
  144.6887  137.1720  153.1635 H   0  0  0  0  0  0  0  0  0  0  0  0
  149.1618  137.6071  154.4775 H   0  0  0  0  0  0  0  0  0  0  0  0
  148.6836  138.6348  155.7992 H   0  0  0  0  0  0  0  0  0  0  0  0
  148.1230  137.7715  152.4695 H   0  0  0  0  0  0  0  0  0  0  0  0
  1  2  1  0  0  0  0
  1 18  1  0  0  0  0
  1 19  1  0  0  0  0
  1 20  1  0  0  0  0
  2  3  1  0  0  0  0
  2 21  1  0  0  0  0
  2 22  1  0  0  0  0
  3 17  1  0  0  0  0
  3  4  1  0  0  0  0
  3 23  1  0  0  0  0
  4  5  1  0  0  0  0
  4 24  1  0  0  0  0
  4 25  1  0  0  0  0
  5  6  1  0  0  0  0
  5 26  1  0  0  0  0
  5 27  1  0  0  0  0
  6  7  1  0  0  0  0
  6 28  1  0  0  0  0
  6 29  1  0  0  0  0
  7  8  1  0  0  0  0
  7 17  1  0  0  0  0
  7 30  1  0  0  0  0
  8  9  1  0  0  0  0
  8 31  1  0  0  0  0
  8 42  1  0  0  0  0
  9 10  1  0  0  0  0
  9 32  1  0  0  0  0
  9 33  1  0  0  0  0
 10 11  1  0  0  0  0
 10 34  1  0  0  0  0
 10 35  1  0  0  0  0
 11 16  1  0  0  0  0
 11 12  2  0  0  0  0
 12 13  1  0  0  0  0
 12 36  1  0  0  0  0
 13 14  2  0  0  0  0
 13 37  1  0  0  0  0
 14 15  1  0  0  0  0
 14 38  1  0  0  0  0
 15 16  2  0  0  0  0
 16 39  1  0  0  0  0
 17 40  1  0  0  0  0
 17 41  1  0  0  0  0
M  CHG  1   8   1
M  END
> <s_m_source_file>
AV-unprocessed.smi

> <i_m_source_file_index>
3126

> <i_lp_mmshare_version>
43012

> <i_f3d_flags>
0

> <s_epik_input>
W0NIM11bQ0gyXVtDQEBIXTFbQ0gyXVtDSDJdW0NIMl1bQ0BIXShbQ0gyXTEpW05IXVtDSDJdW0NIMl1jMltjSF1bY0hdW2NIXW5bY0hdMg==

> <s_epik_cmdline>
J2VwaWtfcHl0aG9uJywgJy1waCcsICc3LjAnLCAnLXRuJywgJzgnLCAnLW1hJywgJzIwMCcsICctbWV0YWxfYmluZGluZycsICctaW1hZScsICc8aW5maWxlLm1hZT4nLCAnLW9tYWUnLCAnPG91dGZpbGUubWFlPic=

> <r_lp_tautomer_probability>
1

> <r_epik_Ionization_Penalty>
0.000947364

> <r_epik_Ionization_Penalty_Charging>
0.000286103

> <r_epik_Ionization_Penalty_Neutral>
0.000661261

> <r_epik_State_Penalty>
-0

> <r_epik_Charging_Adjusted_Penalty>
0.000286103

> <i_epik_Tot_Q>
1

> <i_epik_Tot_abs_Q>
1

> <r_epik_Metal_State_Penalty>
-0

> <b_epik_Metal_Only>
0

> <s_lp_Force_Field>
OPLS_2005

> <r_lp_Energy>
17.7549

> <b_lp_Chiralities_Consistent>
1

> <s_lp_Variant>
AV-unprocessed.smi:3126-1

> <Gold.Version>
5.8.1

> <Gold.Id.Protein>
6NUR|6NUR_protein|mol2

> <Gold.PLP.Fitness>
44.3764

> <Gold.PLP.PLP>
-34.4094

> <Gold.PLP.part.hbond>
-2.0000

> <Gold.PLP.part.metal>
0.0000

> <Gold.PLP.part.buried>
2.7369

> <Gold.PLP.part.nonpolar>
-35.4915

> <Gold.PLP.part.repulsive>
0.1455

> <Gold.PLP.ligand.clash>
0.0000

> <Gold.PLP.ligand.torsion>
1.0117

> <Gold.PLP.Chemscore.Hbond>
3.0000

> <Gold.PLP.Chemscore.CHOScore>
0.9907

> <Gold.PLP.Chemscore.Metal>
0.0000

> <Gold.Chemscore.Hbonds>
donor molecule, donor type, donor heavy atom, donor atom, acceptor molecule, acceptor atom, score
      L1  H     8    31       P1  7957  1.00
      L1  H     8    42       P1  7948  2.00
      L1  C    14    38       P1 10957  0.80

> <Gold.PLP.Chemscore.Internal.Correction>
0.0183

> <Gold.Rescore>
     Score         DG    S(hbond)    S(metal)    S(lipo)     H(rot)  DE(clash)    DE(int)     intcor
     17.84     -20.36       1.97        0.00     100.57       1.35       1.63       0.88       ----

> <Gold.Chemscore.Fitness>
17.8420

> <Gold.Chemscore.DG>
-20.3551

> <Gold.Chemscore.ZeroCoef>
-5.4800

> <Gold.Chemscore.Hbond>
1.9661

> <Gold.Chemscore.Metal>
0.0000

> <Gold.Chemscore.Lipo>
100.5659

> <Gold.Chemscore.Internal_Hbond>
0.0000

> <Gold.Chemscore.DEClash>
1.6324

> <Gold.Chemscore.DEInternal>
0.8806

> <Gold.Chemscore.Rot>
1.3507

> <Gold.Chemscore.Internal.Correction>
   9.000000E+99

> <Gold.Chemscore.Hbonds>
donor molecule, donor type, donor heavy atom, donor atom, acceptor molecule, acceptor atom, score
      L1  H     8    31       P1  7957  0.96
      L1  H     8    42       P1  7948  1.00

> <Gold.Chemscore.Hbond.Weighted>
-6.5667

> <Gold.Chemscore.Metal.Weighted>
-0.0000

> <Gold.Chemscore.Lipo.Weighted>
-11.7662

> <Gold.Chemscore.Internal_Hbond.Weighted>
0.0000

> <Gold.Chemscore.DEClash.Weighted>
1.6324

> <Gold.Chemscore.DEInternal.Weighted>
0.8806

> <Gold.Chemscore.Rot.Weighted>
3.4579

> <Gold.Chemscore.Internal.Correction.Weighted>
   9.000000E+99

> <Gold.Protein.RotatedTorsions>
[ 6907 6896 6895 6894 ] final   12.55 input  -60.11 | X-H torsion
[ 7974 7965 7964 7962 ] final  -68.87 input  175.53 | X-H torsion
[ 8008 7997 7996 7995 ] final  111.96 input   59.86 | X-H torsion
[ 10167 10162 10161 10158 ] final  -89.57 input  -65.29 | X-H torsion
[ 10718 10713 10712 10709 ] final  167.93 input   66.30 | X-H torsion
[ 10763 10752 10751 10750 ] final -168.63 input  -60.55 | X-H torsion
[ 11005 11000 10999 10996 ] final   68.99 input  -57.11 | X-H torsion

> <Gold.Protein.ActiveResidues>
 VAL166  LYS551  ARG553  GLY616  TRP617  ASP618  TYR619  PRO620  LYS621  CYS622 
 ASP623  PHE694  ASN695  SER759  ASP760  ASP761  ALA762  ILE779  LEU786  VAL792 
 PHE793  MET794  SER795  GLU796  ALA797  LYS798  CYS799  TRP800  GLU811  SER814 

> <Gold.Protein.RotatedAtoms>
  151.7722  135.0783  160.0361 H   0  0  0  0  0  0  0  0  0  0  0  0  # atno 6907 bound_to 6896
  152.3281  133.5923  159.5799 H   0  0  0  0  0  0  0  0  0  0  0  0  # atno 6908 bound_to 6896
  150.7407  133.9826  159.3623 H   0  0  0  0  0  0  0  0  0  0  0  0  # atno 6909 bound_to 6896
  145.7110  140.9078  143.0681 H   0  0  0  0  0  0  0  0  0  0  0  0  # atno 7974 bound_to 7965
  156.2160  140.3009  155.9840 H   0  0  0  0  0  0  0  0  0  0  0  0  # atno 8008 bound_to 7997
  155.2605  140.0429  157.3014 H   0  0  0  0  0  0  0  0  0  0  0  0  # atno 8009 bound_to 7997
  154.5768  140.2364  155.8119 H   0  0  0  0  0  0  0  0  0  0  0  0  # atno 8010 bound_to 7997
  140.3635  143.2830  151.9586 H   0  0  0  0  0  0  0  0  0  0  0  0  # atno 10167 bound_to 10162
  157.0445  131.0296  151.2702 H   0  0  0  0  0  0  0  0  0  0  0  0  # atno 10718 bound_to 10713
  154.6608  135.2924  154.9869 H   0  0  0  0  0  0  0  0  0  0  0  0  # atno 10763 bound_to 10752
  154.0930  135.6588  153.4859 H   0  0  0  0  0  0  0  0  0  0  0  0  # atno 10764 bound_to 10752
  153.0428  135.5224  154.7558 H   0  0  0  0  0  0  0  0  0  0  0  0  # atno 10765 bound_to 10752
  139.9679  134.6949  156.0507 H   0  0  0  0  0  0  0  0  0  0  0  0  # atno 11005 bound_to 11000
  144.6942  139.9074  143.7461 LP  0  0  0  0  0  0  0  0  0  0  0  0  # atno 17320 bound_to 7965
  146.0713  139.3702  143.0521 LP  0  0  0  0  0  0  0  0  0  0  0  0  # atno 17321 bound_to 7965
  139.4811  144.5971  151.7670 LP  0  0  0  0  0  0  0  0  0  0  0  0  # atno 17342 bound_to 10162
  140.5104  144.1034  150.5993 LP  0  0  0  0  0  0  0  0  0  0  0  0  # atno 17343 bound_to 10162
  157.5079  130.7920  149.7673 LP  0  0  0  0  0  0  0  0  0  0  0  0  # atno 17370 bound_to 10713
  156.0027  130.3871  150.2544 LP  0  0  0  0  0  0  0  0  0  0  0  0  # atno 17371 bound_to 10713
  141.1359  133.6575  156.3593 LP  0  0  0  0  0  0  0  0  0  0  0  0  # atno 17394 bound_to 11000
  140.5356  134.6170  157.5364 LP  0  0  0  0  0  0  0  0  0  0  0  0  # atno 17395 bound_to 11000

$$$$
