AV-unprocessed.smi:2937|AV-procd|sdf|11259|dock3
  -GOLD-   2272016153D 1   1.00000     0.00000
 Structure written by MMmdl.
 33 34  0  0  0  0  0  0  0  0  1 V2000
  150.4544  130.0977  154.9421 C   0  0  0  0  0  0  0  0  0  0  0  0
  149.2355  129.9920  154.2153 O   0  0  0  0  0  0  0  0  0  0  0  0
  148.6505  131.1504  153.7430 C   0  0  0  0  0  0  0  0  0  0  0  0
  149.1961  132.3442  154.0837 N   0  0  0  0  0  0  0  0  0  0  0  0
  148.5997  133.4375  153.6126 C   0  0  0  0  0  0  0  0  0  0  0  0
  149.1557  134.6423  153.9665 N   0  0  0  0  0  0  0  0  0  0  0  0
  147.5206  133.4847  152.8332 N   0  0  0  0  0  0  0  0  0  0  0  0
  146.9568  132.3060  152.4722 C   0  0  0  0  0  0  0  0  0  0  0  0
  145.8343  132.3471  151.6241 N   0  0  0  0  0  0  0  0  0  0  0  0
  146.1539  132.7655  150.2648 C   0  0  0  0  0  0  0  0  0  0  0  0
  144.9359  132.5525  149.3493 C   0  0  0  0  0  0  0  0  0  0  0  0
  143.8071  133.2401  149.8824 O   0  0  0  0  0  0  0  0  0  0  0  0
  143.4578  132.7709  151.1817 C   0  0  0  0  0  0  0  0  0  0  0  0
  144.6357  132.9979  152.1442 C   0  0  0  0  0  0  0  0  0  0  0  0
  147.5008  131.0720  152.9215 C   0  0  0  0  0  0  0  0  0  0  0  0
  146.8912  129.7188  152.5775 C   0  0  0  0  0  0  0  0  0  0  0  0
  146.8726  129.4688  151.1884 O   0  0  0  0  0  0  0  0  0  0  0  0
  150.7836  129.1024  155.2402 H   0  0  0  0  0  0  0  0  0  0  0  0
  150.3292  130.6904  155.8492 H   0  0  0  0  0  0  0  0  0  0  0  0
  151.2444  130.5384  154.3323 H   0  0  0  0  0  0  0  0  0  0  0  0
  149.9753  134.6735  154.5552 H   0  0  0  0  0  0  0  0  0  0  0  0
  148.7422  135.5080  153.6517 H   0  0  0  0  0  0  0  0  0  0  0  0
  146.4362  133.8192  150.2725 H   0  0  0  0  0  0  0  0  0  0  0  0
  147.0088  132.2114  149.8785 H   0  0  0  0  0  0  0  0  0  0  0  0
  145.1455  132.9342  148.3501 H   0  0  0  0  0  0  0  0  0  0  0  0
  144.7111  131.4899  149.2445 H   0  0  0  0  0  0  0  0  0  0  0  0
  142.5778  133.3115  151.5300 H   0  0  0  0  0  0  0  0  0  0  0  0
  143.1877  131.7146  151.1383 H   0  0  0  0  0  0  0  0  0  0  0  0
  144.3957  132.6010  153.1315 H   0  0  0  0  0  0  0  0  0  0  0  0
  144.8152  134.0681  152.2572 H   0  0  0  0  0  0  0  0  0  0  0  0
  147.4684  128.9319  153.0640 H   0  0  0  0  0  0  0  0  0  0  0  0
  145.8774  129.6310  152.9672 H   0  0  0  0  0  0  0  0  0  0  0  0
  147.6336  129.8731  150.8002 H   0  0  0  0  0  0  0  0  0  0  0  0
  1  2  1  0  0  0  0
  1 18  1  0  0  0  0
  1 19  1  0  0  0  0
  1 20  1  0  0  0  0
  2  3  1  0  0  0  0
  3 15  1  0  0  0  0
  3  4  2  0  0  0  0
  4  5  1  0  0  0  0
  5  6  1  0  0  0  0
  5  7  2  0  0  0  0
  6 21  1  0  0  0  0
  6 22  1  0  0  0  0
  7  8  1  0  0  0  0
  8  9  1  0  0  0  0
  8 15  2  0  0  0  0
  9 14  1  0  0  0  0
  9 10  1  0  0  0  0
 10 11  1  0  0  0  0
 10 23  1  0  0  0  0
 10 24  1  0  0  0  0
 11 12  1  0  0  0  0
 11 25  1  0  0  0  0
 11 26  1  0  0  0  0
 12 13  1  0  0  0  0
 13 14  1  0  0  0  0
 13 27  1  0  0  0  0
 13 28  1  0  0  0  0
 14 29  1  0  0  0  0
 14 30  1  0  0  0  0
 15 16  1  0  0  0  0
 16 17  1  0  0  0  0
 16 31  1  0  0  0  0
 16 32  1  0  0  0  0
 17 33  1  0  0  0  0
M  END
> <s_m_source_file>
AV-unprocessed.smi

> <i_m_source_file_index>
2937

> <i_lp_mmshare_version>
43012

> <i_f3d_flags>
0

> <s_epik_input>
W0NIM11PYzFuYyhbTkgyXSluYyhjMVtDSDJdW09IXSlOMltDSDJdW0NIMl1PW0NIMl1bQ0gyXTI=

> <s_epik_cmdline>
J2VwaWtfcHl0aG9uJywgJy1waCcsICc3LjAnLCAnLXRuJywgJzgnLCAnLW1hJywgJzIwMCcsICctbWV0YWxfYmluZGluZycsICctaW1hZScsICc8aW5maWxlLm1hZT4nLCAnLW9tYWUnLCAnPG91dGZpbGUubWFlPic=

> <r_lp_tautomer_probability>
1

> <r_epik_Ionization_Penalty>
0.000679252

> <r_epik_Ionization_Penalty_Charging>
0

> <r_epik_Ionization_Penalty_Neutral>
0.000679252

> <r_epik_State_Penalty>
0.00040271

> <r_epik_Charging_Adjusted_Penalty>
0.00040271

> <i_epik_Tot_Q>
0

> <i_epik_Tot_abs_Q>
0

> <r_epik_Metal_State_Penalty>
-0

> <b_epik_Metal_Only>
0

> <s_lp_Force_Field>
OPLS_2005

> <r_lp_Energy>
14.7013

> <b_lp_Chiralities_Consistent>
1

> <s_lp_Variant>
AV-unprocessed.smi:2937-1

> <Gold.Version>
5.8.1

> <Gold.Id.Protein>
6NUR|6NUR_protein|mol2

> <Gold.PLP.Fitness>
30.9103

> <Gold.PLP.PLP>
-26.3327

> <Gold.PLP.part.hbond>
-2.0000

> <Gold.PLP.part.metal>
0.0000

> <Gold.PLP.part.buried>
-3.4869

> <Gold.PLP.part.nonpolar>
-20.8919

> <Gold.PLP.part.repulsive>
0.6075

> <Gold.PLP.ligand.clash>
0.0000

> <Gold.PLP.ligand.torsion>
0.1417

> <Gold.PLP.Chemscore.Hbond>
1.5600

> <Gold.PLP.Chemscore.CHOScore>
0.0000

> <Gold.PLP.Chemscore.Metal>
0.0000

> <Gold.Chemscore.Hbonds>
donor molecule, donor type, donor heavy atom, donor atom, acceptor molecule, acceptor atom, score
      L1  H     6    22       P1  7948  0.45
      L1  H    17    33       P1 10747  1.00

> <Gold.PLP.Chemscore.Internal.Correction>
0.1809

> <Gold.Rescore>
     Score         DG    S(hbond)    S(metal)    S(lipo)     H(rot)  DE(clash)    DE(int)     intcor
     10.70     -10.86       1.48        0.00      54.46       2.31       0.03       0.14       ----

> <Gold.Chemscore.Fitness>
10.6977

> <Gold.Chemscore.DG>
-10.8615

> <Gold.Chemscore.ZeroCoef>
-5.4800

> <Gold.Chemscore.Hbond>
1.4755

> <Gold.Chemscore.Metal>
0.0000

> <Gold.Chemscore.Lipo>
54.4569

> <Gold.Chemscore.Internal_Hbond>
0.0000

> <Gold.Chemscore.DEClash>
0.0263

> <Gold.Chemscore.DEInternal>
0.1375

> <Gold.Chemscore.Rot>
2.3118

> <Gold.Chemscore.Internal.Correction>
   9.000000E+99

> <Gold.Chemscore.Hbonds>
donor molecule, donor type, donor heavy atom, donor atom, acceptor molecule, acceptor atom, score
      L1  H     6    22       P1  7948  0.43
      L1  H    17    33       P1 10747  1.00

> <Gold.Chemscore.Hbond.Weighted>
-4.9282

> <Gold.Chemscore.Metal.Weighted>
-0.0000

> <Gold.Chemscore.Lipo.Weighted>
-6.3715

> <Gold.Chemscore.Internal_Hbond.Weighted>
0.0000

> <Gold.Chemscore.DEClash.Weighted>
0.0263

> <Gold.Chemscore.DEInternal.Weighted>
0.1375

> <Gold.Chemscore.Rot.Weighted>
5.9181

> <Gold.Chemscore.Internal.Correction.Weighted>
   9.000000E+99

> <Gold.Protein.RotatedTorsions>
[ 6907 6896 6895 6894 ] final   16.98 input  -60.11 | X-H torsion
[ 7974 7965 7964 7962 ] final -176.19 input  175.53 | X-H torsion
[ 8008 7997 7996 7995 ] final   29.69 input   59.86 | X-H torsion
[ 10167 10162 10161 10158 ] final   60.75 input  -65.29 | X-H torsion
[ 10718 10713 10712 10709 ] final   82.41 input   66.30 | X-H torsion
[ 10763 10752 10751 10750 ] final   72.27 input  -60.55 | X-H torsion
[ 11005 11000 10999 10996 ] final   52.01 input  -57.11 | X-H torsion

> <Gold.Protein.ActiveResidues>
 VAL166  LYS551  ARG553  GLY616  TRP617  ASP618  TYR619  PRO620  LYS621  CYS622 
 ASP623  PHE694  ASN695  SER759  ASP760  ASP761  ALA762  ILE779  LEU786  VAL792 
 PHE793  MET794  SER795  GLU796  ALA797  LYS798  CYS799  TRP800  GLU811  SER814 

> <Gold.Protein.RotatedAtoms>
  151.8424  135.0585  160.0449 H   0  0  0  0  0  0  0  0  0  0  0  0  # atno 6907 bound_to 6896
  152.2798  133.5456  159.5499 H   0  0  0  0  0  0  0  0  0  0  0  0  # atno 6908 bound_to 6896
  150.7185  134.0495  159.3836 H   0  0  0  0  0  0  0  0  0  0  0  0  # atno 6909 bound_to 6896
  144.7127  140.1208  143.6405 H   0  0  0  0  0  0  0  0  0  0  0  0  # atno 7974 bound_to 7965
  155.0784  140.3207  155.4609 H   0  0  0  0  0  0  0  0  0  0  0  0  # atno 8008 bound_to 7997
  156.2773  140.2099  156.5858 H   0  0  0  0  0  0  0  0  0  0  0  0  # atno 8009 bound_to 7997
  154.6998  140.0508  157.0434 H   0  0  0  0  0  0  0  0  0  0  0  0  # atno 8010 bound_to 7997
  140.1622  144.4359  150.6703 H   0  0  0  0  0  0  0  0  0  0  0  0  # atno 10167 bound_to 10162
  157.6856  131.0046  150.2370 H   0  0  0  0  0  0  0  0  0  0  0  0  # atno 10718 bound_to 10713
  153.0449  135.5106  154.7719 H   0  0  0  0  0  0  0  0  0  0  0  0  # atno 10763 bound_to 10752
  154.6627  135.2941  154.9847 H   0  0  0  0  0  0  0  0  0  0  0  0  # atno 10764 bound_to 10752
  154.0693  135.6680  153.4874 H   0  0  0  0  0  0  0  0  0  0  0  0  # atno 10765 bound_to 10752
  140.0885  134.5241  155.8875 H   0  0  0  0  0  0  0  0  0  0  0  0  # atno 11005 bound_to 11000
  145.9373  139.2645  143.1290 LP  0  0  0  0  0  0  0  0  0  0  0  0  # atno 17320 bound_to 7965
  145.9461  140.8944  143.0283 LP  0  0  0  0  0  0  0  0  0  0  0  0  # atno 17321 bound_to 7965
  140.6635  143.2260  151.5798 LP  0  0  0  0  0  0  0  0  0  0  0  0  # atno 17342 bound_to 10162
  139.5376  144.2738  152.1283 LP  0  0  0  0  0  0  0  0  0  0  0  0  # atno 17343 bound_to 10162
  156.2992  130.3756  149.7767 LP  0  0  0  0  0  0  0  0  0  0  0  0  # atno 17370 bound_to 10713
  156.5402  130.8296  151.3266 LP  0  0  0  0  0  0  0  0  0  0  0  0  # atno 17371 bound_to 10713
  141.2070  133.6660  156.6280 LP  0  0  0  0  0  0  0  0  0  0  0  0  # atno 17394 bound_to 11000
  140.3386  134.7868  157.4380 LP  0  0  0  0  0  0  0  0  0  0  0  0  # atno 17395 bound_to 11000

$$$$
