AV-unprocessed.smi:519|AV-procd|sdf|2795|dock5
  -GOLD-   2262023273D 1   1.00000     0.00000
 Structure written by MMmdl.
 36 38  0  0  0  0  0  0  0  0  1 V2000
  151.6715  136.6351  154.1649 O   0  0  0  0  0  0  0  0  0  0  0  0
  151.8001  137.8725  154.8359 C   0  0  0  0  0  0  0  0  0  0  0  0
  150.6099  138.7768  154.6837 C   0  0  0  0  0  0  0  0  0  0  0  0
  149.5756  138.4936  153.8884 N   0  0  0  0  0  0  0  0  0  0  0  0
  148.7417  139.5789  154.0719 C   0  0  0  0  0  0  0  0  0  0  0  0
  147.4831  139.8766  153.5022 C   0  0  0  0  0  0  0  0  0  0  0  0
  146.8076  141.0657  153.8462 C   0  0  0  0  0  0  0  0  0  0  0  0
  147.3784  141.9708  154.7643 C   0  0  0  0  0  0  0  0  0  0  0  0
  148.6305  141.6922  155.3445 C   0  0  0  0  0  0  0  0  0  0  0  0
  149.3022  140.5054  154.9953 C   0  0  0  0  0  0  0  0  0  0  0  0
  150.5211  139.9459  155.3663 N   0  0  0  0  0  0  0  0  0  0  0  0
  151.4858  140.5199  156.2935 C   0  0  0  0  0  0  0  0  0  0  0  0
  151.1021  140.2659  157.7588 C   0  0  0  0  0  0  0  0  0  0  0  0
  152.0455  140.9019  158.6114 O   0  0  0  0  0  0  0  0  0  0  0  0
  151.8506  142.2273  158.9393 C   0  0  0  0  0  0  0  0  0  0  0  0
  151.2047  143.1639  158.0922 C   0  0  0  0  0  0  0  0  0  0  0  0
  151.0452  144.5034  158.4970 C   0  0  0  0  0  0  0  0  0  0  0  0
  151.5285  144.9257  159.7486 C   0  0  0  0  0  0  0  0  0  0  0  0
  152.1700  144.0051  160.5970 C   0  0  0  0  0  0  0  0  0  0  0  0
  152.3287  142.6639  160.1957 C   0  0  0  0  0  0  0  0  0  0  0  0
  153.1163  141.5543  161.2601 Cl  0  0  0  0  0  0  0  0  0  0  0  0
  151.5052  136.8044  153.2506 H   0  0  0  0  0  0  0  0  0  0  0  0
  151.9622  137.6763  155.8961 H   0  0  0  0  0  0  0  0  0  0  0  0
  152.6883  138.3773  154.4561 H   0  0  0  0  0  0  0  0  0  0  0  0
  147.0378  139.1894  152.7982 H   0  0  0  0  0  0  0  0  0  0  0  0
  145.8473  141.2847  153.4030 H   0  0  0  0  0  0  0  0  0  0  0  0
  146.8559  142.8807  155.0209 H   0  0  0  0  0  0  0  0  0  0  0  0
  149.0727  142.3863  156.0436 H   0  0  0  0  0  0  0  0  0  0  0  0
  152.4652  140.0875  156.0854 H   0  0  0  0  0  0  0  0  0  0  0  0
  151.5795  141.5890  156.1038 H   0  0  0  0  0  0  0  0  0  0  0  0
  150.1024  140.6607  157.9442 H   0  0  0  0  0  0  0  0  0  0  0  0
  151.0828  139.1927  157.9538 H   0  0  0  0  0  0  0  0  0  0  0  0
  150.8218  142.8806  157.1238 H   0  0  0  0  0  0  0  0  0  0  0  0
  150.5513  145.2082  157.8441 H   0  0  0  0  0  0  0  0  0  0  0  0
  151.4070  145.9536  160.0576 H   0  0  0  0  0  0  0  0  0  0  0  0
  152.5408  144.3291  161.5582 H   0  0  0  0  0  0  0  0  0  0  0  0
  1  2  1  0  0  0  0
  1 22  1  0  0  0  0
  2  3  1  0  0  0  0
  2 23  1  0  0  0  0
  2 24  1  0  0  0  0
  3 11  1  0  0  0  0
  3  4  2  0  0  0  0
  4  5  1  0  0  0  0
  5 10  2  0  0  0  0
  5  6  1  0  0  0  0
  6  7  2  0  0  0  0
  6 25  1  0  0  0  0
  7  8  1  0  0  0  0
  7 26  1  0  0  0  0
  8  9  2  0  0  0  0
  8 27  1  0  0  0  0
  9 10  1  0  0  0  0
  9 28  1  0  0  0  0
 10 11  1  0  0  0  0
 11 12  1  0  0  0  0
 12 13  1  0  0  0  0
 12 29  1  0  0  0  0
 12 30  1  0  0  0  0
 13 14  1  0  0  0  0
 13 31  1  0  0  0  0
 13 32  1  0  0  0  0
 14 15  1  0  0  0  0
 15 20  1  0  0  0  0
 15 16  2  0  0  0  0
 16 17  1  0  0  0  0
 16 33  1  0  0  0  0
 17 18  2  0  0  0  0
 17 34  1  0  0  0  0
 18 19  1  0  0  0  0
 18 35  1  0  0  0  0
 19 20  2  0  0  0  0
 19 36  1  0  0  0  0
 20 21  1  0  0  0  0
M  END
> <s_m_source_file>
AV-unprocessed.smi

> <i_m_source_file_index>
519

> <i_lp_mmshare_version>
43012

> <i_f3d_flags>
0

> <s_epik_input>
W2NIXTFbY0hdW2NIXVtjSF1jKGMxMiluKGMobjIpW0NIMl1bT0hdKVtDSDJdW0NIMl1PYzNbY0hdW2NIXVtjSF1bY0hdYzNDbA==

> <s_epik_cmdline>
J2VwaWtfcHl0aG9uJywgJy1waCcsICc3LjAnLCAnLXRuJywgJzgnLCAnLW1hJywgJzIwMCcsICctbWV0YWxfYmluZGluZycsICctaW1hZScsICc8aW5maWxlLm1hZT4nLCAnLW9tYWUnLCAnPG91dGZpbGUubWFlPic=

> <r_lp_tautomer_probability>
1

> <r_epik_Ionization_Penalty>
0.045213

> <r_epik_Ionization_Penalty_Charging>
0

> <r_epik_Ionization_Penalty_Neutral>
0.045213

> <r_epik_State_Penalty>
0.0382996

> <r_epik_Charging_Adjusted_Penalty>
0.0382996

> <i_epik_Tot_Q>
0

> <i_epik_Tot_abs_Q>
0

> <r_epik_Metal_State_Penalty>
3.95633e-05

> <b_epik_Metal_Only>
0

> <s_lp_Force_Field>
OPLS_2005

> <r_lp_Energy>
15.9183

> <b_lp_Chiralities_Consistent>
1

> <s_lp_Variant>
AV-unprocessed.smi:519-1

> <Gold.Version>
5.8.1

> <Gold.Id.Protein>
6NUR|6NUR_protein|mol2

> <Gold.PLP.Fitness>
55.5285

> <Gold.PLP.PLP>
-51.1807

> <Gold.PLP.part.hbond>
-2.0000

> <Gold.PLP.part.metal>
0.0000

> <Gold.PLP.part.buried>
-3.0964

> <Gold.PLP.part.nonpolar>
-47.2675

> <Gold.PLP.part.repulsive>
1.0191

> <Gold.PLP.ligand.clash>
0.0000

> <Gold.PLP.ligand.torsion>
0.8507

> <Gold.PLP.Chemscore.Hbond>
2.0000

> <Gold.PLP.Chemscore.CHOScore>
0.0000

> <Gold.PLP.Chemscore.Metal>
0.0000

> <Gold.Chemscore.Hbonds>
donor molecule, donor type, donor heavy atom, donor atom, acceptor molecule, acceptor atom, score
      L1  H     1    22       P1  7949  0.90
      P1  H 10752 10764       L1     1  1.00

> <Gold.PLP.Chemscore.Internal.Correction>
0.0492

> <Gold.Rescore>
     Score         DG    S(hbond)    S(metal)    S(lipo)     H(rot)  DE(clash)    DE(int)     intcor
     19.73     -20.96       1.52        0.00     136.56       2.17       0.30       0.93       ----

> <Gold.Chemscore.Fitness>
19.7322

> <Gold.Chemscore.DG>
-20.9642

> <Gold.Chemscore.ZeroCoef>
-5.4800

> <Gold.Chemscore.Hbond>
1.5181

> <Gold.Chemscore.Metal>
0.0000

> <Gold.Chemscore.Lipo>
136.5641

> <Gold.Chemscore.Internal_Hbond>
0.0000

> <Gold.Chemscore.DEClash>
0.2998

> <Gold.Chemscore.DEInternal>
0.9321

> <Gold.Chemscore.Rot>
2.1735

> <Gold.Chemscore.Internal.Correction>
   9.000000E+99

> <Gold.Chemscore.Hbonds>
donor molecule, donor type, donor heavy atom, donor atom, acceptor molecule, acceptor atom, score
      L1  H     1    22       P1  7949  0.78
      P1  H 10752 10764       L1     1  0.42

> <Gold.Chemscore.Hbond.Weighted>
-5.0704

> <Gold.Chemscore.Metal.Weighted>
-0.0000

> <Gold.Chemscore.Lipo.Weighted>
-15.9780

> <Gold.Chemscore.Internal_Hbond.Weighted>
0.0000

> <Gold.Chemscore.DEClash.Weighted>
0.2998

> <Gold.Chemscore.DEInternal.Weighted>
0.9321

> <Gold.Chemscore.Rot.Weighted>
5.5642

> <Gold.Chemscore.Internal.Correction.Weighted>
   9.000000E+99

> <Gold.Protein.RotatedTorsions>
[ 6907 6896 6895 6894 ] final  -89.53 input  -60.11 | X-H torsion
[ 7974 7965 7964 7962 ] final  -70.96 input  175.53 | X-H torsion
[ 8008 7997 7996 7995 ] final  -45.33 input   59.86 | X-H torsion
[ 10167 10162 10161 10158 ] final -136.22 input  -65.29 | X-H torsion
[ 10718 10713 10712 10709 ] final   87.05 input   66.30 | X-H torsion
[ 10763 10752 10751 10750 ] final  -85.12 input  -60.55 | X-H torsion
[ 11005 11000 10999 10996 ] final  117.85 input  -57.11 | X-H torsion

> <Gold.Protein.ActiveResidues>
 VAL166  LYS551  ARG553  GLY616  TRP617  ASP618  TYR619  PRO620  LYS621  CYS622 
 ASP623  PHE694  ASN695  SER759  ASP760  ASP761  ALA762  ILE779  LEU786  VAL792 
 PHE793  MET794  SER795  GLU796  ALA797  LYS798  CYS799  TRP800  GLU811  SER814 

> <Gold.Protein.RotatedAtoms>
  150.6874  134.2572  159.4534 H   0  0  0  0  0  0  0  0  0  0  0  0  # atno 6907 bound_to 6896
  152.0505  134.9654  160.0584 H   0  0  0  0  0  0  0  0  0  0  0  0  # atno 6908 bound_to 6896
  152.1120  133.4271  159.4672 H   0  0  0  0  0  0  0  0  0  0  0  0  # atno 6909 bound_to 6896
  145.6842  140.9177  143.0816 H   0  0  0  0  0  0  0  0  0  0  0  0  # atno 7974 bound_to 7965
  154.4000  140.1399  156.3829 H   0  0  0  0  0  0  0  0  0  0  0  0  # atno 8008 bound_to 7997
  155.7987  140.3476  155.5369 H   0  0  0  0  0  0  0  0  0  0  0  0  # atno 8009 bound_to 7997
  155.8506  140.0941  157.1667 H   0  0  0  0  0  0  0  0  0  0  0  0  # atno 8010 bound_to 7997
  139.8700  143.6969  152.2641 H   0  0  0  0  0  0  0  0  0  0  0  0  # atno 10167 bound_to 10162
  157.6936  131.0240  150.3065 H   0  0  0  0  0  0  0  0  0  0  0  0  # atno 10718 bound_to 10713
  154.6074  135.5496  153.7437 H   0  0  0  0  0  0  0  0  0  0  0  0  # atno 10763 bound_to 10752
  153.0180  135.6381  154.1628 H   0  0  0  0  0  0  0  0  0  0  0  0  # atno 10764 bound_to 10752
  154.1566  135.2899  155.3100 H   0  0  0  0  0  0  0  0  0  0  0  0  # atno 10765 bound_to 10752
  139.9089  134.9614  156.7414 H   0  0  0  0  0  0  0  0  0  0  0  0  # atno 11005 bound_to 11000
  144.7016  139.8737  143.7442 LP  0  0  0  0  0  0  0  0  0  0  0  0  # atno 17320 bound_to 7965
  146.0938  139.3929  143.0389 LP  0  0  0  0  0  0  0  0  0  0  0  0  # atno 17321 bound_to 7965
  139.7293  144.7586  151.0828 LP  0  0  0  0  0  0  0  0  0  0  0  0  # atno 17342 bound_to 10162
  140.7762  143.5108  150.9654 LP  0  0  0  0  0  0  0  0  0  0  0  0  # atno 17343 bound_to 10162
  156.3572  130.3841  149.7280 LP  0  0  0  0  0  0  0  0  0  0  0  0  # atno 17370 bound_to 10713
  156.4738  130.8009  151.3026 LP  0  0  0  0  0  0  0  0  0  0  0  0  # atno 17371 bound_to 10713
  140.6847  133.9443  155.7930 LP  0  0  0  0  0  0  0  0  0  0  0  0  # atno 17394 bound_to 11000
  141.0485  134.0519  157.3813 LP  0  0  0  0  0  0  0  0  0  0  0  0  # atno 17395 bound_to 11000

$$$$
