AV-unprocessed.smi:283|AV-procd|sdf|2132|dock3
  -GOLD-   2262021443D 1   1.00000     0.00000
 Structure written by MMmdl.
 48 51  0  0  0  0  0  0  0  0  1 V2000
  147.1336  137.0013  162.9781 C   0  0  0  0  0  0  0  0  0  0  0  0
  146.3772  136.3670  161.8035 C   0  0  1  0  0  0  0  0  0  0  0  0
  147.2039  135.3334  161.1825 N   0  0  0  0  0  0  0  0  0  0  0  0
  147.5476  135.4264  159.8789 C   0  0  0  0  0  0  0  0  0  0  0  0
  148.0855  134.3114  159.3300 N   0  0  0  0  0  0  0  0  0  0  0  0
  148.4188  134.2956  158.0367 C   0  0  0  0  0  0  0  0  0  0  0  0
  148.3026  135.2708  157.1343 N   0  0  0  0  0  0  0  0  0  0  0  0
  147.7812  136.4063  157.6826 C   0  0  0  0  0  0  0  0  0  0  0  0
  147.3841  136.5686  159.0411 C   0  0  0  0  0  0  0  0  0  0  0  0
  146.9124  137.8623  159.2298 N   0  0  0  0  0  0  0  0  0  0  0  0
  147.0069  138.4176  158.0534 C   0  0  0  0  0  0  0  0  0  0  0  0
  147.5141  137.6110  157.0612 N   0  0  0  0  0  0  0  0  0  0  0  0
  147.7209  137.9708  155.6225 C   0  0  1  0  0  0  0  0  0  0  0  0
  147.3466  139.2987  155.4070 O   0  0  0  0  0  0  0  0  0  0  0  0
  148.2516  139.9446  154.5077 C   0  0  1  0  0  0  0  0  0  0  0  0
  148.9059  141.1216  155.2599 C   0  0  0  0  0  0  0  0  0  0  0  0
  149.1636  142.1958  154.3798 O   0  0  0  0  0  0  0  0  0  0  0  0
  149.2037  138.8307  154.0323 C   0  0  1  0  0  0  0  0  0  0  0  0
  150.5113  139.2419  153.6793 O   0  0  0  0  0  0  0  0  0  0  0  0
  149.1776  137.8216  155.1680 C   0  0  1  0  0  0  0  0  0  0  0  0
  150.1207  138.1080  156.1883 O   0  0  0  0  0  0  0  0  0  0  0  0
  144.9927  135.8915  162.2556 C   0  0  0  0  0  0  0  0  0  0  0  0
  143.9655  136.8365  162.4862 C   0  0  0  0  0  0  0  0  0  0  0  0
  142.6912  136.4230  162.9164 C   0  0  0  0  0  0  0  0  0  0  0  0
  142.4254  135.0560  163.1120 C   0  0  0  0  0  0  0  0  0  0  0  0
  143.4334  134.1051  162.8685 C   0  0  0  0  0  0  0  0  0  0  0  0
  144.7114  134.5136  162.4370 C   0  0  0  0  0  0  0  0  0  0  0  0
  145.9048  133.2981  162.1392 Cl  0  0  0  0  0  0  0  0  0  0  0  0
  147.0429  137.3197  155.0688 H   0  0  0  0  0  0  0  0  0  0  0  0
  147.6752  140.3323  153.6665 H   0  0  0  0  0  0  0  0  0  0  0  0
  148.7582  138.3626  153.1532 H   0  0  0  0  0  0  0  0  0  0  0  0
  149.3497  136.8038  154.8170 H   0  0  0  0  0  0  0  0  0  0  0  0
  146.5718  137.8349  163.4007 H   0  0  0  0  0  0  0  0  0  0  0  0
  148.1027  137.3867  162.6598 H   0  0  0  0  0  0  0  0  0  0  0  0
  147.3071  136.2787  163.7761 H   0  0  0  0  0  0  0  0  0  0  0  0
  146.2591  137.1464  161.0530 H   0  0  0  0  0  0  0  0  0  0  0  0
  147.1894  134.4448  161.6615 H   0  0  0  0  0  0  0  0  0  0  0  0
  148.8332  133.3678  157.6710 H   0  0  0  0  0  0  0  0  0  0  0  0
  146.7012  139.4384  157.8755 H   0  0  0  0  0  0  0  0  0  0  0  0
  148.2290  141.4893  156.0316 H   0  0  0  0  0  0  0  0  0  0  0  0
  149.8253  140.8209  155.7617 H   0  0  0  0  0  0  0  0  0  0  0  0
  149.0419  143.0057  154.8520 H   0  0  0  0  0  0  0  0  0  0  0  0
  151.0063  138.4740  153.4360 H   0  0  0  0  0  0  0  0  0  0  0  0
  150.8520  138.5636  155.7996 H   0  0  0  0  0  0  0  0  0  0  0  0
  144.1520  137.8903  162.3394 H   0  0  0  0  0  0  0  0  0  0  0  0
  141.9181  137.1556  163.0960 H   0  0  0  0  0  0  0  0  0  0  0  0
  141.4484  134.7367  163.4432 H   0  0  0  0  0  0  0  0  0  0  0  0
  143.2232  133.0556  163.0122 H   0  0  0  0  0  0  0  0  0  0  0  0
  1  2  1  0  0  0  0
  1 33  1  0  0  0  0
  1 34  1  0  0  0  0
  1 35  1  0  0  0  0
  2  3  1  0  0  0  0
  2 22  1  0  0  0  0
  2 36  1  0  0  0  0
  3  4  1  0  0  0  0
  3 37  1  0  0  0  0
  4  9  1  0  0  0  0
  4  5  2  0  0  0  0
  5  6  1  0  0  0  0
  6  7  2  0  0  0  0
  6 38  1  0  0  0  0
  7  8  1  0  0  0  0
  8 12  1  0  0  0  0
  8  9  2  0  0  0  0
  9 10  1  0  0  0  0
 10 11  2  0  0  0  0
 11 12  1  0  0  0  0
 11 39  1  0  0  0  0
 12 13  1  0  0  0  0
 13 29  1  0  0  0  0
 13 20  1  0  0  0  0
 13 14  1  0  0  0  0
 14 15  1  0  0  0  0
 15 30  1  0  0  0  0
 15 16  1  0  0  0  0
 15 18  1  0  0  0  0
 16 17  1  0  0  0  0
 16 40  1  0  0  0  0
 16 41  1  0  0  0  0
 17 42  1  0  0  0  0
 18 31  1  0  0  0  0
 18 19  1  0  0  0  0
 18 20  1  0  0  0  0
 19 43  1  0  0  0  0
 20 32  1  0  0  0  0
 20 21  1  0  0  0  0
 21 44  1  0  0  0  0
 22 27  1  0  0  0  0
 22 23  2  0  0  0  0
 23 24  1  0  0  0  0
 23 45  1  0  0  0  0
 24 25  2  0  0  0  0
 24 46  1  0  0  0  0
 25 26  1  0  0  0  0
 25 47  1  0  0  0  0
 26 27  2  0  0  0  0
 26 48  1  0  0  0  0
 27 28  1  0  0  0  0
M  END
> <s_m_source_file>
AV-unprocessed.smi

> <i_m_source_file_index>
283

> <i_lp_mmshare_version>
43012

> <i_f3d_flags>
0

> <s_epik_input>
Q2xjMVtjSF1bY0hdW2NIXVtjSF1jMVtDQEhdKFtDSDNdKVtOSF1jKG5bY0hdbjIpYyhjMjMpbltjSF1uM1tDQEBIXTRPW0NASF0oW0NIMl1bT0hdKVtDQEBIXShbT0hdKVtDQEhdNFtPSF0=

> <s_epik_cmdline>
J2VwaWtfcHl0aG9uJywgJy1waCcsICc3LjAnLCAnLXRuJywgJzgnLCAnLW1hJywgJzIwMCcsICctbWV0YWxfYmluZGluZycsICctaW1hZScsICc8aW5maWxlLm1hZT4nLCAnLW9tYWUnLCAnPG91dGZpbGUubWFlPic=

> <r_lp_tautomer_probability>
1

> <r_epik_Ionization_Penalty>
0.000266407

> <r_epik_Ionization_Penalty_Charging>
0

> <r_epik_Ionization_Penalty_Neutral>
0.000266407

> <r_epik_State_Penalty>
-0

> <r_epik_Charging_Adjusted_Penalty>
0

> <i_epik_Tot_Q>
0

> <i_epik_Tot_abs_Q>
0

> <r_epik_Metal_State_Penalty>
-0

> <b_epik_Metal_Only>
0

> <s_epik_Chemistry_Notes>
This compound contains an acetal/aminal-like group ( X-CH(R)-Y where X, Y are N, S, or O) that may be acid/base labile, releasing an aldehyde.

> <s_lp_Force_Field>
OPLS_2005

> <r_lp_Energy>
55.3457

> <b_lp_Chiralities_Consistent>
1

> <s_lp_Variant>
AV-unprocessed.smi:283-8

> <Gold.Version>
5.8.1

> <Gold.Id.Protein>
6NUR|6NUR_protein|mol2

> <Gold.PLP.Fitness>
43.2167

> <Gold.PLP.PLP>
-36.3720

> <Gold.PLP.part.hbond>
-5.3800

> <Gold.PLP.part.metal>
0.0000

> <Gold.PLP.part.buried>
-2.3818

> <Gold.PLP.part.nonpolar>
-28.3099

> <Gold.PLP.part.repulsive>
0.1056

> <Gold.PLP.ligand.clash>
0.0000

> <Gold.PLP.ligand.torsion>
0.9508

> <Gold.PLP.Chemscore.Hbond>
2.8759

> <Gold.PLP.Chemscore.CHOScore>
0.0000

> <Gold.PLP.Chemscore.Metal>
0.0000

> <Gold.Chemscore.Hbonds>
donor molecule, donor type, donor heavy atom, donor atom, acceptor molecule, acceptor atom, score
      L1  H    17    42       P1  8028  1.00
      P1  H  6934  6947       L1    10  0.64
      P1  H  7989  7998       L1    19  0.94
      P1  H  8011  8017       L1    17  0.20

> <Gold.PLP.Chemscore.Internal.Correction>
0.1184

> <Gold.Rescore>
     Score         DG    S(hbond)    S(metal)    S(lipo)     H(rot)  DE(clash)    DE(int)     intcor
      8.90     -13.62       2.62        0.00      84.30       4.10       0.98       3.75       ----

> <Gold.Chemscore.Fitness>
8.8978

> <Gold.Chemscore.DG>
-13.6192

> <Gold.Chemscore.ZeroCoef>
-5.4800

> <Gold.Chemscore.Hbond>
2.6240

> <Gold.Chemscore.Metal>
0.0000

> <Gold.Chemscore.Lipo>
84.2998

> <Gold.Chemscore.Internal_Hbond>
0.0000

> <Gold.Chemscore.DEClash>
0.9760

> <Gold.Chemscore.DEInternal>
3.7454

> <Gold.Chemscore.Rot>
4.0968

> <Gold.Chemscore.Internal.Correction>
   9.000000E+99

> <Gold.Chemscore.Hbonds>
donor molecule, donor type, donor heavy atom, donor atom, acceptor molecule, acceptor atom, score
      L1  H    17    42       P1  8028  1.00
      P1  H  6934  6947       L1    10  0.59
      P1  H  7989  7998       L1    19  0.66
      P1  H  8011  8017       L1    17  0.17

> <Gold.Chemscore.Hbond.Weighted>
-8.7640

> <Gold.Chemscore.Metal.Weighted>
-0.0000

> <Gold.Chemscore.Lipo.Weighted>
-9.8631

> <Gold.Chemscore.Internal_Hbond.Weighted>
0.0000

> <Gold.Chemscore.DEClash.Weighted>
0.9760

> <Gold.Chemscore.DEInternal.Weighted>
3.7454

> <Gold.Chemscore.Rot.Weighted>
10.4879

> <Gold.Chemscore.Internal.Correction.Weighted>
   9.000000E+99

> <Gold.Protein.RotatedTorsions>
[ 6907 6896 6895 6894 ] final  -91.41 input  -60.11 | X-H torsion
[ 7974 7965 7964 7962 ] final -164.76 input  175.53 | X-H torsion
[ 8008 7997 7996 7995 ] final -166.42 input   59.86 | X-H torsion
[ 10167 10162 10161 10158 ] final   90.21 input  -65.29 | X-H torsion
[ 10718 10713 10712 10709 ] final   17.79 input   66.30 | X-H torsion
[ 10763 10752 10751 10750 ] final  127.38 input  -60.55 | X-H torsion
[ 11005 11000 10999 10996 ] final   73.68 input  -57.11 | X-H torsion

> <Gold.Protein.ActiveResidues>
 VAL166  LYS551  ARG553  GLY616  TRP617  ASP618  TYR619  PRO620  LYS621  CYS622 
 ASP623  PHE694  ASN695  SER759  ASP760  ASP761  ALA762  ILE779  LEU786  VAL792 
 PHE793  MET794  SER795  GLU796  ALA797  LYS798  CYS799  TRP800  GLU811  SER814 

> <Gold.Protein.RotatedAtoms>
  150.6892  134.2282  159.4423 H   0  0  0  0  0  0  0  0  0  0  0  0  # atno 6907 bound_to 6896
  152.0234  134.9807  160.0580 H   0  0  0  0  0  0  0  0  0  0  0  0  # atno 6908 bound_to 6896
  152.1375  133.4409  159.4787 H   0  0  0  0  0  0  0  0  0  0  0  0  # atno 6909 bound_to 6896
  144.7288  140.2914  143.6220 H   0  0  0  0  0  0  0  0  0  0  0  0  # atno 7974 bound_to 7965
  155.8635  140.0982  157.1597 H   0  0  0  0  0  0  0  0  0  0  0  0  # atno 8008 bound_to 7997
  154.3992  140.1360  156.4053 H   0  0  0  0  0  0  0  0  0  0  0  0  # atno 8009 bound_to 7997
  155.7830  140.3458  155.5310 H   0  0  0  0  0  0  0  0  0  0  0  0  # atno 8010 bound_to 7997
  139.8495  144.6600  150.9186 H   0  0  0  0  0  0  0  0  0  0  0  0  # atno 10167 bound_to 10162
  157.0871  130.6412  149.5840 H   0  0  0  0  0  0  0  0  0  0  0  0  # atno 10718 bound_to 10713
  153.7084  135.3272  155.3241 H   0  0  0  0  0  0  0  0  0  0  0  0  # atno 10763 bound_to 10752
  154.8392  135.4471  154.1339 H   0  0  0  0  0  0  0  0  0  0  0  0  # atno 10764 bound_to 10752
  153.2426  135.6972  153.7845 H   0  0  0  0  0  0  0  0  0  0  0  0  # atno 10765 bound_to 10752
  139.9428  134.7368  156.1056 H   0  0  0  0  0  0  0  0  0  0  0  0  # atno 11005 bound_to 11000
  145.7851  139.1906  143.2135 LP  0  0  0  0  0  0  0  0  0  0  0  0  # atno 17320 bound_to 7965
  146.0802  140.7773  142.9645 LP  0  0  0  0  0  0  0  0  0  0  0  0  # atno 17321 bound_to 7965
  140.7789  143.3840  151.1427 LP  0  0  0  0  0  0  0  0  0  0  0  0  # atno 17342 bound_to 10162
  139.7479  143.8824  152.3068 LP  0  0  0  0  0  0  0  0  0  0  0  0  # atno 17343 bound_to 10162
  155.9908  130.4960  150.7271 LP  0  0  0  0  0  0  0  0  0  0  0  0  # atno 17370 bound_to 10713
  157.4752  131.0897  151.0598 LP  0  0  0  0  0  0  0  0  0  0  0  0  # atno 17371 bound_to 10713
  141.1068  133.6657  156.2883 LP  0  0  0  0  0  0  0  0  0  0  0  0  # atno 17394 bound_to 11000
  140.5909  134.5651  157.5499 LP  0  0  0  0  0  0  0  0  0  0  0  0  # atno 17395 bound_to 11000

$$$$
