#       Name:                AV-unprocessed.smi:107
#       Creating user name   scv26
#       Creation time:       Thu Mar 26 18:02:46 2020


#       File generated by GOLD software.
#

@<TRIPOS>MOLECULE
AV-unprocessed.smi:107
    41    42     1
SMALL
NO_CHARGES


@<TRIPOS>ATOM
      1 ****        -3.5437   1.1376   0.9774 C.3            1 S1                 0.0000
      2 ****        -2.7784   0.2112   0.0483 C.2            1 S1                 0.0000
      3 ****        -1.5236  -0.2100   0.3223 C.2            1 S1                 0.0000
      4 ****        -0.8244  -1.0579  -0.5236 N.am           1 S1                 0.0000
      5 ****         0.6177  -1.4663  -0.2627 C.3            1 S1                 0.0000
      6 ****         1.0736  -1.3315   1.1950 C.3            1 S1                 0.0000
      7 ****         1.7349   0.0346   1.1983 C.3            1 S1                 0.0000
      8 ****         2.7229   0.1119   2.2056 O.3            1 S1                 0.0000
      9 ****         2.3322   0.1151  -0.2102 C.3            1 S1                 0.0000
     10 ****         2.4358   1.5512  -0.7464 C.3            1 S1                 0.0000
     11 ****         3.3722   1.6119  -1.8012 O.3            1 S1                 0.0000
     12 ****         1.4399  -0.6383  -1.0307 O.3            1 S1                 0.0000
     13 ****        -1.4207  -1.4474  -1.7543 C.2            1 S1                 0.0000
     14 ****        -0.7610  -2.1448  -2.5255 O.2            1 S1                 0.0000
     15 ****        -2.6915  -1.0393  -2.0326 N.pl3          1 S1                -1.0000
     16 ****        -3.4103  -0.2390  -1.1959 C.2            1 S1                 0.0000
     17 ****        -4.5604   0.1140  -1.4549 O.2            1 S1                 0.0000
     18 ****        -2.9558   1.3894   1.8604 H              1 S1                 0.0000
     19 ****        -4.4679   0.6649   1.3112 H              1 S1                 0.0000
     20 ****        -3.7969   2.0661   0.4649 H              1 S1                 0.0000
     21 ****        -1.0741   0.1393   1.2363 H              1 S1                 0.0000
     22 ****         0.6852  -2.5046  -0.5912 H              1 S1                 0.0000
     23 ****         0.2684  -1.4672   1.9168 H              1 S1                 0.0000
     24 ****         1.8172  -2.1091   1.3773 H              1 S1                 0.0000
     25 ****         0.9995   0.8245   1.3478 H              1 S1                 0.0000
     26 ****         3.3566  -0.5731   2.0560 H              1 S1                 0.0000
     27 ****         3.3046  -0.3814  -0.2191 H              1 S1                 0.0000
     28 ****         1.4641   1.9199  -1.0765 H              1 S1                 0.0000
     29 ****         2.7870   2.2213   0.0386 H              1 S1                 0.0000
     30 ****         3.3970   2.4972  -2.1301 H              1 S1                 0.0000
     31 ****         2.2998  -0.0098   3.1034 LP             1 S1                 0.0000
     32 ****         3.1743   1.0034   2.1679 LP             1 S1                 0.0000
     33 ****         3.0971   0.9880  -2.5327 LP             1 S1                 0.0000
     34 ****         4.2771   1.3519  -1.4642 LP             1 S1                 0.0000
     35 ****         0.8678  -0.0070  -1.5543 LP             1 S1                 0.0000
     36 ****         1.9744  -1.2032  -1.6594 LP             1 S1                 0.0000
     37 ****         0.1677  -2.4218  -2.2788 LP             1 S1                 0.0000
     38 ****        -1.1539  -2.4342  -3.3983 LP             1 S1                 0.0000
     39 ****        -3.1143  -1.3402  -2.8875 LP             1 S1                 0.0000
     40 ****        -5.0576   0.7040  -0.8188 LP             1 S1                 0.0000
     41 ****        -4.9978  -0.1891  -2.3016 LP             1 S1                 0.0000
@<TRIPOS>BOND
    1    1    2 1     
    2    1   18 1     
    3    1   19 1     
    4    1   20 1     
    5    2   16 1     
    6    2    3 2     
    7    3    4 1     
    8    3   21 1     
    9    4    5 1     
   10    4   13 am    
   11    5   12 1     
   12    5    6 1     
   13    5   22 1     
   14    6    7 1     
   15    6   23 1     
   16    6   24 1     
   17    7    8 1     
   18    7    9 1     
   19    7   25 1     
   20    8   26 1     
   21    9   10 1     
   22    9   12 1     
   23    9   27 1     
   24   10   11 1     
   25   10   28 1     
   26   10   29 1     
   27   11   30 1     
   28   13   14 2     
   29   13   15 1     
   30   15   16 1     
   31   16   17 2     
   32    8   31 1     
   33    8   32 1     
   34   11   33 1     
   35   11   34 1     
   36   12   35 1     
   37   12   36 1     
   38   14   37 1     
   39   14   38 1     
   40   15   39 1     
   41   17   40 1     
   42   17   41 1     
@<TRIPOS>SUBSTRUCTURE
      1 S1             1
@<TRIPOS>SET
LONE_PAIRS      STATIC     ATOMS    <user>   **** ""
11 31 32 33 34 35 36 37 38 39 40 41
DONOR_HYDROGENS      STATIC     ATOMS    <user>   **** ""
2 26 30
ATOM$BLUE        STATIC     ATOMS    COLORGROUP SYSTEM
11 31 32 33 34 35 36 37 38 39 40 41
ATOM$RED        STATIC     ATOMS    COLORGROUP SYSTEM
2 26 30
