AV-unprocessed.smi:57|AV-procd|sdf|582|dock3
  -GOLD-   2262016483D 1   1.00000     0.00000
 Structure written by MMmdl.
 26 27  0  0  0  0  0  0  0  0  2 V2000
  151.1258  136.9108  153.9298 N   0  0  0  0  0  0  0  0  0  0  0  0
  151.1740  138.0485  154.7053 C   0  0  0  0  0  0  0  0  0  0  0  0
  152.1768  137.9978  155.6843 N   0  5  0  0  0  0  0  0  0  0  0  0
  152.3651  139.0496  156.5386 C   0  0  0  0  0  0  0  0  0  0  0  0
  153.2156  139.1042  157.4249 O   0  0  0  0  0  0  0  0  0  0  0  0
  151.4474  140.1986  156.3474 C   0  0  0  0  0  0  0  0  0  0  0  0
  151.3384  141.4176  157.0079 N   0  0  0  0  0  0  0  0  0  0  0  0
  150.3302  141.9978  156.3575 C   0  0  0  0  0  0  0  0  0  0  0  0
  149.7940  141.2697  155.3589 N   0  0  0  0  0  0  0  0  0  0  0  0
  148.7009  141.6439  154.4853 C   0  0  0  0  0  0  0  0  0  0  0  0
  147.9239  140.5121  154.2803 O   0  0  0  0  0  0  0  0  0  0  0  0
  147.1160  140.5926  153.1190 C   0  0  0  0  0  0  0  0  0  0  0  0
  146.7110  139.1727  152.7111 C   0  0  0  0  0  0  0  0  0  0  0  0
  146.0851  139.1928  151.4466 O   0  0  0  0  0  0  0  0  0  0  0  0
  150.5216  140.0869  155.3459 C   0  0  0  0  0  0  0  0  0  0  0  0
  150.3315  139.0266  154.4795 N   0  0  0  0  0  0  0  0  0  0  0  0
  151.7445  136.1237  154.0566 H   0  0  0  0  0  0  0  0  0  0  0  0
  150.4631  136.7835  153.1793 H   0  0  0  0  0  0  0  0  0  0  0  0
  149.9721  142.9837  156.6144 H   0  0  0  0  0  0  0  0  0  0  0  0
  149.0978  142.0125  153.5384 H   0  0  0  0  0  0  0  0  0  0  0  0
  148.1315  142.4357  154.9756 H   0  0  0  0  0  0  0  0  0  0  0  0
  146.2262  141.1916  153.3204 H   0  0  0  0  0  0  0  0  0  0  0  0
  147.6687  141.0777  152.3125 H   0  0  0  0  0  0  0  0  0  0  0  0
  147.5849  138.5223  152.6678 H   0  0  0  0  0  0  0  0  0  0  0  0
  146.0230  138.7479  153.4427 H   0  0  0  0  0  0  0  0  0  0  0  0
  145.2217  139.5636  151.5468 H   0  0  0  0  0  0  0  0  0  0  0  0
  1  2  1  0  0  0  0
  1 18  1  0  0  0  0
  1 17  1  0  0  0  0
  2 16  2  0  0  0  0
  2  3  1  0  0  0  0
  3  4  1  0  0  0  0
  4  5  2  0  0  0  0
  4  6  1  0  0  0  0
  6 15  2  0  0  0  0
  6  7  1  0  0  0  0
  7  8  2  0  0  0  0
  8 19  1  0  0  0  0
  8  9  1  0  0  0  0
  9 10  1  0  0  0  0
  9 15  1  0  0  0  0
 10 11  1  0  0  0  0
 10 20  1  0  0  0  0
 10 21  1  0  0  0  0
 11 12  1  0  0  0  0
 12 13  1  0  0  0  0
 12 22  1  0  0  0  0
 12 23  1  0  0  0  0
 13 14  1  0  0  0  0
 13 24  1  0  0  0  0
 13 25  1  0  0  0  0
 14 26  1  0  0  0  0
 15 16  1  0  0  0  0
M  CHG  1   3  -1
M  END
> <s_m_source_file>
AV-unprocessed.smi

> <i_m_source_file_index>
57

> <i_lp_mmshare_version>
43012

> <i_f3d_flags>
0

> <s_epik_input>
Tz1jMW5jKFtOSDJdKVtuSF1jKGMxMiluKFtjSF1uMilbQ0gyXU9bQ0gyXVtDSDJdW09IXQ==

> <s_epik_cmdline>
J2VwaWtfcHl0aG9uJywgJy1waCcsICc3LjAnLCAnLXRuJywgJzgnLCAnLW1hJywgJzIwMCcsICctbWV0YWxfYmluZGluZycsICctaW1hZScsICc8aW5maWxlLm1hZT4nLCAnLW9tYWUnLCAnPG91dGZpbGUubWFlPic=

> <r_lp_tautomer_probability>
1

> <r_epik_Ionization_Penalty>
3.57731

> <r_epik_Ionization_Penalty_Charging>
1.28925e-10

> <r_epik_Ionization_Penalty_Neutral>
3.57731

> <r_epik_State_Penalty>
3.56652

> <r_epik_Charging_Adjusted_Penalty>
3.56652

> <i_epik_Tot_Q>
-1

> <i_epik_Tot_abs_Q>
1

> <r_epik_Metal_State_Penalty>
0.520711

> <b_epik_Metal_Only>
1

> <s_epik_Chemistry_Notes>
This compound contains an acetal/aminal-like group ( X-CH(R)-Y where X, Y are N, S, or O) that may be acid/base labile, releasing an aldehyde.

> <s_lp_Force_Field>
OPLS_2005

> <r_lp_Energy>
17.0797

> <b_lp_Chiralities_Consistent>
1

> <s_lp_Variant>
AV-unprocessed.smi:57-2

> <Gold.Version>
5.8.1

> <Gold.Id.Protein>
6NUR|6NUR_protein|mol2

> <Gold.PLP.Fitness>
37.0962

> <Gold.PLP.PLP>
-28.5490

> <Gold.PLP.part.hbond>
-5.0000

> <Gold.PLP.part.metal>
0.0000

> <Gold.PLP.part.buried>
-1.0891

> <Gold.PLP.part.nonpolar>
-23.1821

> <Gold.PLP.part.repulsive>
0.4276

> <Gold.PLP.ligand.clash>
0.0000

> <Gold.PLP.ligand.torsion>
0.5137

> <Gold.PLP.Chemscore.Hbond>
2.1913

> <Gold.PLP.Chemscore.CHOScore>
1.0000

> <Gold.PLP.Chemscore.Metal>
0.0000

> <Gold.Chemscore.Hbonds>
donor molecule, donor type, donor heavy atom, donor atom, acceptor molecule, acceptor atom, score
      L1  H     1    18       P1  7948  0.20
      L1  H    14    26       P1 10175  1.00
      P1  H  7997  8008       L1     5  1.00
      L1  C     8    19       P1  8028  1.00

> <Gold.PLP.Chemscore.Internal.Correction>
0.0009

> <Gold.Rescore>
     Score         DG    S(hbond)    S(metal)    S(lipo)     H(rot)  DE(clash)    DE(int)     intcor
      2.85      -4.59       1.92        0.00      18.97       3.73       0.10       1.64       ----

> <Gold.Chemscore.Fitness>
2.8502

> <Gold.Chemscore.DG>
-4.5867

> <Gold.Chemscore.ZeroCoef>
-5.4800

> <Gold.Chemscore.Hbond>
1.9239

> <Gold.Chemscore.Metal>
0.0000

> <Gold.Chemscore.Lipo>
18.9716

> <Gold.Chemscore.Internal_Hbond>
0.0000

> <Gold.Chemscore.DEClash>
0.0985

> <Gold.Chemscore.DEInternal>
1.6380

> <Gold.Chemscore.Rot>
3.7262

> <Gold.Chemscore.Internal.Correction>
   9.000000E+99

> <Gold.Chemscore.Hbonds>
donor molecule, donor type, donor heavy atom, donor atom, acceptor molecule, acceptor atom, score
      L1  H    14    26       P1 10175  0.58
      P1  H  7997  8008       L1     5  0.40

> <Gold.Chemscore.Hbond.Weighted>
-6.4260

> <Gold.Chemscore.Metal.Weighted>
-0.0000

> <Gold.Chemscore.Lipo.Weighted>
-2.2197

> <Gold.Chemscore.Internal_Hbond.Weighted>
0.0000

> <Gold.Chemscore.DEClash.Weighted>
0.0985

> <Gold.Chemscore.DEInternal.Weighted>
1.6380

> <Gold.Chemscore.Rot.Weighted>
9.5390

> <Gold.Chemscore.Internal.Correction.Weighted>
   9.000000E+99

> <Gold.Protein.RotatedTorsions>
[ 6907 6896 6895 6894 ] final  160.27 input  -60.11 | X-H torsion
[ 7974 7965 7964 7962 ] final  -11.01 input  175.53 | X-H torsion
[ 8008 7997 7996 7995 ] final  -65.28 input   59.86 | X-H torsion
[ 10167 10162 10161 10158 ] final  162.90 input  -65.29 | X-H torsion
[ 10718 10713 10712 10709 ] final -164.51 input   66.30 | X-H torsion
[ 10763 10752 10751 10750 ] final  -66.50 input  -60.55 | X-H torsion
[ 11005 11000 10999 10996 ] final -102.73 input  -57.11 | X-H torsion

> <Gold.Protein.ActiveResidues>
 VAL166  LYS551  ARG553  GLY616  TRP617  ASP618  TYR619  PRO620  LYS621  CYS622 
 ASP623  PHE694  ASN695  SER759  ASP760  ASP761  ALA762  ILE779  LEU786  VAL792 
 PHE793  MET794  SER795  GLU796  ALA797  LYS798  CYS799  TRP800  GLU811  SER814 

> <Gold.Protein.RotatedAtoms>
  151.9731  133.3732  159.4078 H   0  0  0  0  0  0  0  0  0  0  0  0  # atno 6907 bound_to 6896
  150.6946  134.4119  159.5175 H   0  0  0  0  0  0  0  0  0  0  0  0  # atno 6908 bound_to 6896
  152.1826  134.8741  160.0576 H   0  0  0  0  0  0  0  0  0  0  0  0  # atno 6909 bound_to 6896
  146.2202  140.2848  142.8364 H   0  0  0  0  0  0  0  0  0  0  0  0  # atno 7974 bound_to 7965
  154.4662  140.0936  156.7026 H   0  0  0  0  0  0  0  0  0  0  0  0  # atno 8008 bound_to 7997
  155.4852  140.3469  155.4328 H   0  0  0  0  0  0  0  0  0  0  0  0  # atno 8009 bound_to 7997
  156.0960  140.1409  156.9519 H   0  0  0  0  0  0  0  0  0  0  0  0  # atno 8010 bound_to 7997
  139.4866  144.4391  151.8974 H   0  0  0  0  0  0  0  0  0  0  0  0  # atno 10167 bound_to 10162
  156.6400  130.8965  151.2994 H   0  0  0  0  0  0  0  0  0  0  0  0  # atno 10718 bound_to 10713
  154.3608  135.6116  153.5689 H   0  0  0  0  0  0  0  0  0  0  0  0  # atno 10763 bound_to 10752
  152.9793  135.5814  154.4635 H   0  0  0  0  0  0  0  0  0  0  0  0  # atno 10764 bound_to 10752
  154.4373  135.2849  155.1849 H   0  0  0  0  0  0  0  0  0  0  0  0  # atno 10765 bound_to 10752
  141.1176  133.8582  157.1397 H   0  0  0  0  0  0  0  0  0  0  0  0  # atno 11005 bound_to 11000
  144.9170  140.7824  143.5772 LP  0  0  0  0  0  0  0  0  0  0  0  0  # atno 17320 bound_to 7965
  145.2782  139.1928  143.4805 LP  0  0  0  0  0  0  0  0  0  0  0  0  # atno 17321 bound_to 7965
  140.3843  144.2697  150.5905 LP  0  0  0  0  0  0  0  0  0  0  0  0  # atno 17342 bound_to 10162
  140.5205  143.2267  151.8396 LP  0  0  0  0  0  0  0  0  0  0  0  0  # atno 17343 bound_to 10162
  157.7174  130.9514  150.1306 LP  0  0  0  0  0  0  0  0  0  0  0  0  # atno 17370 bound_to 10713
  156.2166  130.3670  149.8605 LP  0  0  0  0  0  0  0  0  0  0  0  0  # atno 17371 bound_to 10713
  140.0110  134.9988  157.0395 LP  0  0  0  0  0  0  0  0  0  0  0  0  # atno 17394 bound_to 11000
  140.4600  134.1494  155.7190 LP  0  0  0  0  0  0  0  0  0  0  0  0  # atno 17395 bound_to 11000

$$$$
