AV-unprocessed.smi:1324|AV-procd|sdf|5469|dock2
  -GOLD-   22720 5 43D 1   1.00000     0.00000
 Structure written by MMmdl.
 43 44  0  0  0  0  0  0  0  0  1 V2000
  146.3276  137.6346  153.1146 C   0  0  0  0  0  0  0  0  0  0  0  0
  147.0918  138.8295  153.6437 C   0  0  0  0  0  0  0  0  0  0  0  0
  146.5320  139.9240  154.0425 N   0  0  0  0  0  0  0  0  0  0  0  0
  147.3455  140.9637  154.5143 C   0  0  0  0  0  0  0  0  0  0  0  0
  146.6141  142.2164  154.9646 C   0  0  0  0  0  0  0  0  0  0  0  0
  148.7049  140.8442  154.5606 C   0  0  0  0  0  0  0  0  0  0  0  0
  149.6200  141.9582  155.0683 C   0  0  0  0  0  0  0  0  0  0  0  0
  150.1807  141.7875  156.4831 C   0  0  0  0  0  0  0  0  0  0  0  0
  150.3962  140.6661  156.9437 O   0  0  0  0  0  0  0  0  0  0  0  0
  150.4139  142.9220  157.1610 N   0  0  0  0  0  0  0  0  0  0  0  0
  150.9634  143.0094  158.5127 C   0  0  0  0  0  0  0  0  0  0  0  0
  150.9705  144.4892  158.9629 C   0  0  0  0  0  0  0  0  0  0  0  0
  151.8335  144.8515  160.1855 C   0  0  0  0  0  0  0  0  0  0  0  0
  151.9195  143.7842  161.2871 C   0  0  0  0  0  0  0  0  0  0  0  0
  153.0212  142.7455  161.0189 C   0  0  0  0  0  0  0  0  0  0  0  0
  152.6860  141.7229  159.9242 C   0  0  0  0  0  0  0  0  0  0  0  0
  152.3436  142.3216  158.5478 C   0  0  0  0  0  0  0  0  0  0  0  0
  149.3334  139.5917  154.0986 C   0  0  0  0  0  0  0  0  0  0  0  0
  150.5453  139.3821  154.0872 O   0  0  0  0  0  0  0  0  0  0  0  0
  148.4730  138.6432  153.6651 N   0  0  0  0  0  0  0  0  0  0  0  0
  148.8543  137.7668  153.3398 H   0  0  0  0  0  0  0  0  0  0  0  0
  145.7820  137.9086  152.2114 H   0  0  0  0  0  0  0  0  0  0  0  0
  145.6087  137.2902  153.8581 H   0  0  0  0  0  0  0  0  0  0  0  0
  146.9931  136.8045  152.8740 H   0  0  0  0  0  0  0  0  0  0  0  0
  146.7679  142.3870  156.0302 H   0  0  0  0  0  0  0  0  0  0  0  0
  145.5405  142.1320  154.7915 H   0  0  0  0  0  0  0  0  0  0  0  0
  146.9712  143.0887  154.4170 H   0  0  0  0  0  0  0  0  0  0  0  0
  150.4642  142.0544  154.3854 H   0  0  0  0  0  0  0  0  0  0  0  0
  149.1085  142.9201  155.0128 H   0  0  0  0  0  0  0  0  0  0  0  0
  150.2005  143.7956  156.7020 H   0  0  0  0  0  0  0  0  0  0  0  0
  150.2992  142.4487  159.1736 H   0  0  0  0  0  0  0  0  0  0  0  0
  151.2885  145.1243  158.1345 H   0  0  0  0  0  0  0  0  0  0  0  0
  149.9404  144.7816  159.1716 H   0  0  0  0  0  0  0  0  0  0  0  0
  152.8405  145.1086  159.8546 H   0  0  0  0  0  0  0  0  0  0  0  0
  151.4338  145.7705  160.6157 H   0  0  0  0  0  0  0  0  0  0  0  0
  152.1634  144.2884  162.2228 H   0  0  0  0  0  0  0  0  0  0  0  0
  150.9533  143.3056  161.4506 H   0  0  0  0  0  0  0  0  0  0  0  0
  153.9561  143.2516  160.7752 H   0  0  0  0  0  0  0  0  0  0  0  0
  153.2155  142.1997  161.9429 H   0  0  0  0  0  0  0  0  0  0  0  0
  153.5434  141.0589  159.8089 H   0  0  0  0  0  0  0  0  0  0  0  0
  151.8671  141.0855  160.2597 H   0  0  0  0  0  0  0  0  0  0  0  0
  152.3451  141.4943  157.8361 H   0  0  0  0  0  0  0  0  0  0  0  0
  153.1270  143.0020  158.2117 H   0  0  0  0  0  0  0  0  0  0  0  0
  1  2  1  0  0  0  0
  1 22  1  0  0  0  0
  1 23  1  0  0  0  0
  1 24  1  0  0  0  0
  2 20  1  0  0  0  0
  2  3  2  0  0  0  0
  3  4  1  0  0  0  0
  4  5  1  0  0  0  0
  4  6  2  0  0  0  0
  5 25  1  0  0  0  0
  5 26  1  0  0  0  0
  5 27  1  0  0  0  0
  6  7  1  0  0  0  0
  6 18  1  0  0  0  0
  7  8  1  0  0  0  0
  7 28  1  0  0  0  0
  7 29  1  0  0  0  0
  8  9  2  0  0  0  0
  8 10  1  0  0  0  0
 10 11  1  0  0  0  0
 10 30  1  0  0  0  0
 11 17  1  0  0  0  0
 11 12  1  0  0  0  0
 11 31  1  0  0  0  0
 12 13  1  0  0  0  0
 12 32  1  0  0  0  0
 12 33  1  0  0  0  0
 13 14  1  0  0  0  0
 13 34  1  0  0  0  0
 13 35  1  0  0  0  0
 14 15  1  0  0  0  0
 14 36  1  0  0  0  0
 14 37  1  0  0  0  0
 15 16  1  0  0  0  0
 15 38  1  0  0  0  0
 15 39  1  0  0  0  0
 16 17  1  0  0  0  0
 16 40  1  0  0  0  0
 16 41  1  0  0  0  0
 17 42  1  0  0  0  0
 17 43  1  0  0  0  0
 18 19  2  0  0  0  0
 18 20  1  0  0  0  0
 20 21  1  0  0  0  0
M  END
> <s_m_source_file>
AV-unprocessed.smi

> <i_m_source_file_index>
1324

> <i_lp_mmshare_version>
43012

> <i_f3d_flags>
0

> <s_epik_input>
W0NIM11jMW5jKFtDSDNdKWMoYyg9TylbbkhdMSlbQ0gyXUMoPU8pW05IXVtDSF0yW0NIMl1bQ0gyXVtDSDJdW0NIMl1bQ0gyXVtDSDJdMg==

> <s_epik_cmdline>
J2VwaWtfcHl0aG9uJywgJy1waCcsICc3LjAnLCAnLXRuJywgJzgnLCAnLW1hJywgJzIwMCcsICctbWV0YWxfYmluZGluZycsICctaW1hZScsICc8aW5maWxlLm1hZT4nLCAnLW9tYWUnLCAnPG91dGZpbGUubWFlPic=

> <r_lp_tautomer_probability>
0.839158

> <r_epik_Ionization_Penalty>
0.000386947

> <r_epik_Ionization_Penalty_Charging>
0.000354181

> <r_epik_Ionization_Penalty_Neutral>
3.27662e-05

> <r_epik_State_Penalty>
0.0469431

> <r_epik_Charging_Adjusted_Penalty>
0.0472973

> <i_epik_Tot_Q>
0

> <i_epik_Tot_abs_Q>
0

> <r_epik_Metal_State_Penalty>
0.222645

> <b_epik_Metal_Only>
0

> <s_lp_Force_Field>
OPLS_2005

> <r_lp_Energy>
17.0371

> <b_lp_Chiralities_Consistent>
1

> <s_lp_Variant>
AV-unprocessed.smi:1324-1

> <Gold.Version>
5.8.1

> <Gold.Id.Protein>
6NUR|6NUR_protein|mol2

> <Gold.PLP.Fitness>
47.7149

> <Gold.PLP.PLP>
-41.1036

> <Gold.PLP.part.hbond>
-4.0000

> <Gold.PLP.part.metal>
0.0000

> <Gold.PLP.part.buried>
-0.1420

> <Gold.PLP.part.nonpolar>
-36.6131

> <Gold.PLP.part.repulsive>
0.4102

> <Gold.PLP.ligand.clash>
0.0000

> <Gold.PLP.ligand.torsion>
0.6207

> <Gold.PLP.Chemscore.Hbond>
2.6108

> <Gold.PLP.Chemscore.CHOScore>
0.0000

> <Gold.PLP.Chemscore.Metal>
0.0000

> <Gold.Chemscore.Hbonds>
donor molecule, donor type, donor heavy atom, donor atom, acceptor molecule, acceptor atom, score
      L1  H    10    30       P1  8028  0.91
      L1  H    20    21       P1  7948  0.80
      P1  H  7989  7998       L1    19  1.00

> <Gold.PLP.Chemscore.Internal.Correction>
0.0203

> <Gold.Rescore>
     Score         DG    S(hbond)    S(metal)    S(lipo)     H(rot)  DE(clash)    DE(int)     intcor
     21.18     -22.28       2.47        0.00     105.56       1.48       0.41       0.70       ----

> <Gold.Chemscore.Fitness>
21.1767

> <Gold.Chemscore.DG>
-22.2840

> <Gold.Chemscore.ZeroCoef>
-5.4800

> <Gold.Chemscore.Hbond>
2.4680

> <Gold.Chemscore.Metal>
0.0000

> <Gold.Chemscore.Lipo>
105.5558

> <Gold.Chemscore.Internal_Hbond>
0.0000

> <Gold.Chemscore.DEClash>
0.4095

> <Gold.Chemscore.DEInternal>
0.6979

> <Gold.Chemscore.Rot>
1.4801

> <Gold.Chemscore.Internal.Correction>
   9.000000E+99

> <Gold.Chemscore.Hbonds>
donor molecule, donor type, donor heavy atom, donor atom, acceptor molecule, acceptor atom, score
      L1  H    10    30       P1  8028  0.88
      L1  H    20    21       P1  7948  0.74
      P1  H  7989  7998       L1    19  0.90

> <Gold.Chemscore.Hbond.Weighted>
-8.2431

> <Gold.Chemscore.Metal.Weighted>
-0.0000

> <Gold.Chemscore.Lipo.Weighted>
-12.3500

> <Gold.Chemscore.Internal_Hbond.Weighted>
0.0000

> <Gold.Chemscore.DEClash.Weighted>
0.4095

> <Gold.Chemscore.DEInternal.Weighted>
0.6979

> <Gold.Chemscore.Rot.Weighted>
3.7891

> <Gold.Chemscore.Internal.Correction.Weighted>
   9.000000E+99

> <Gold.Protein.RotatedTorsions>
[ 6907 6896 6895 6894 ] final  135.28 input  -60.11 | X-H torsion
[ 7974 7965 7964 7962 ] final  -83.02 input  175.53 | X-H torsion
[ 8008 7997 7996 7995 ] final  137.25 input   59.86 | X-H torsion
[ 10167 10162 10161 10158 ] final  -77.23 input  -65.29 | X-H torsion
[ 10718 10713 10712 10709 ] final   30.58 input   66.30 | X-H torsion
[ 10763 10752 10751 10750 ] final  101.04 input  -60.55 | X-H torsion
[ 11005 11000 10999 10996 ] final  105.74 input  -57.11 | X-H torsion

> <Gold.Protein.ActiveResidues>
 VAL166  LYS551  ARG553  GLY616  TRP617  ASP618  TYR619  PRO620  LYS621  CYS622 
 ASP623  PHE694  ASN695  SER759  ASP760  ASP761  ALA762  ILE779  LEU786  VAL792 
 PHE793  MET794  SER795  GLU796  ALA797  LYS798  CYS799  TRP800  GLU811  SER814 

> <Gold.Protein.RotatedAtoms>
  152.3021  133.5666  159.5625 H   0  0  0  0  0  0  0  0  0  0  0  0  # atno 6907 bound_to 6896
  150.7282  134.0276  159.3731 H   0  0  0  0  0  0  0  0  0  0  0  0  # atno 6908 bound_to 6896
  151.8175  135.0662  160.0471 H   0  0  0  0  0  0  0  0  0  0  0  0  # atno 6909 bound_to 6896
  145.5256  140.9527  143.1631 H   0  0  0  0  0  0  0  0  0  0  0  0  # atno 7974 bound_to 7965
  156.3002  140.2424  156.3879 H   0  0  0  0  0  0  0  0  0  0  0  0  # atno 8008 bound_to 7997
  154.8641  140.0419  157.1703 H   0  0  0  0  0  0  0  0  0  0  0  0  # atno 8009 bound_to 7997
  154.8865  140.2957  155.5399 H   0  0  0  0  0  0  0  0  0  0  0  0  # atno 8010 bound_to 7997
  140.4788  143.2407  151.8090 H   0  0  0  0  0  0  0  0  0  0  0  0  # atno 10167 bound_to 10162
  157.2615  130.7163  149.6456 H   0  0  0  0  0  0  0  0  0  0  0  0  # atno 10718 bound_to 10713
  153.3216  135.4058  155.1422 H   0  0  0  0  0  0  0  0  0  0  0  0  # atno 10763 bound_to 10752
  154.8602  135.3589  154.5588 H   0  0  0  0  0  0  0  0  0  0  0  0  # atno 10764 bound_to 10752
  153.6022  135.7070  153.5439 H   0  0  0  0  0  0  0  0  0  0  0  0  # atno 10765 bound_to 10752
  139.8805  134.9346  156.5560 H   0  0  0  0  0  0  0  0  0  0  0  0  # atno 11005 bound_to 11000
  144.7653  139.6860  143.7217 LP  0  0  0  0  0  0  0  0  0  0  0  0  # atno 17320 bound_to 7965
  146.2078  139.5413  142.9701 LP  0  0  0  0  0  0  0  0  0  0  0  0  # atno 17321 bound_to 7965
  139.4830  144.4799  151.9320 LP  0  0  0  0  0  0  0  0  0  0  0  0  # atno 17342 bound_to 10162
  140.3884  144.2647  150.5902 LP  0  0  0  0  0  0  0  0  0  0  0  0  # atno 17343 bound_to 10162
  155.9664  130.4396  150.5265 LP  0  0  0  0  0  0  0  0  0  0  0  0  # atno 17370 bound_to 10713
  157.3171  131.0675  151.1959 LP  0  0  0  0  0  0  0  0  0  0  0  0  # atno 17371 bound_to 10713
  140.8205  133.8357  155.8891 LP  0  0  0  0  0  0  0  0  0  0  0  0  # atno 17394 bound_to 11000
  140.9423  134.1885  157.4789 LP  0  0  0  0  0  0  0  0  0  0  0  0  # atno 17395 bound_to 11000

$$$$
