AV-unprocessed.smi:1022|AV-procd|sdf|4458|dock9
  -GOLD-   22720 2433D 1   1.00000     0.00000
 Structure written by MMmdl.
 33 34  0  0  0  0  0  0  0  0  1 V2000
  145.5401  143.7138  153.6736 C   0  0  0  0  0  0  0  0  0  0  0  0
  145.7519  142.4560  154.2897 O   0  0  0  0  0  0  0  0  0  0  0  0
  146.9878  141.8672  153.9171 C   0  0  0  0  0  0  0  0  0  0  0  0
  147.0195  140.4079  154.3964 C   0  0  2  0  0  0  0  0  0  0  0  0
  148.4239  139.7983  154.2631 C   0  0  0  0  0  0  0  0  0  0  0  0
  146.0591  139.6205  153.6273 N   0  0  0  0  0  0  0  0  0  0  0  0
  146.0247  138.2814  153.5674 C   0  0  0  0  0  0  0  0  0  0  0  0
  146.8213  137.5538  154.1610 O   0  0  0  0  0  0  0  0  0  0  0  0
  145.0217  137.8569  152.7791 N   0  0  0  0  0  0  0  0  0  0  0  0
  144.6540  136.5219  152.4651 C   0  0  0  0  0  0  0  0  0  0  0  0
  143.4129  136.0373  152.6089 N   0  0  0  0  0  0  0  0  0  0  0  0
  143.3293  134.7056  152.2274 N   0  0  0  0  0  0  0  0  0  0  0  0
  144.5045  134.2226  151.8068 C   0  0  0  0  0  0  0  0  0  0  0  0
  144.6655  132.8124  151.3450 C   0  0  0  0  0  0  0  0  0  0  0  0
  145.2331  132.4815  149.9819 C   0  0  0  0  0  0  0  0  0  0  0  0
  143.7714  132.2468  150.2659 C   0  0  0  0  0  0  0  0  0  0  0  0
  145.8320  135.3791  151.8432 S   0  0  0  0  0  0  0  0  0  0  0  0
  144.5817  144.1219  153.9950 H   0  0  0  0  0  0  0  0  0  0  0  0
  145.5192  143.6216  152.5870 H   0  0  0  0  0  0  0  0  0  0  0  0
  146.3188  144.4256  153.9504 H   0  0  0  0  0  0  0  0  0  0  0  0
  147.1230  141.9174  152.8351 H   0  0  0  0  0  0  0  0  0  0  0  0
  147.8062  142.4255  154.3745 H   0  0  0  0  0  0  0  0  0  0  0  0
  146.7394  140.3965  155.4513 H   0  0  0  0  0  0  0  0  0  0  0  0
  149.1544  140.3682  154.8376 H   0  0  0  0  0  0  0  0  0  0  0  0
  148.7544  139.7856  153.2240 H   0  0  0  0  0  0  0  0  0  0  0  0
  148.4462  138.7725  154.6326 H   0  0  0  0  0  0  0  0  0  0  0  0
  145.3628  140.1374  153.1105 H   0  0  0  0  0  0  0  0  0  0  0  0
  144.4564  138.5739  152.3493 H   0  0  0  0  0  0  0  0  0  0  0  0
  144.9318  132.1639  152.1775 H   0  0  0  0  0  0  0  0  0  0  0  0
  145.4833  133.3026  149.3131 H   0  0  0  0  0  0  0  0  0  0  0  0
  145.8764  131.6073  149.9060 H   0  0  0  0  0  0  0  0  0  0  0  0
  143.4389  131.2169  150.3785 H   0  0  0  0  0  0  0  0  0  0  0  0
  143.0553  132.9200  149.7985 H   0  0  0  0  0  0  0  0  0  0  0  0
  1  2  1  0  0  0  0
  1 18  1  0  0  0  0
  1 19  1  0  0  0  0
  1 20  1  0  0  0  0
  2  3  1  0  0  0  0
  3  4  1  0  0  0  0
  3 21  1  0  0  0  0
  3 22  1  0  0  0  0
  4  5  1  0  0  0  0
  4  6  1  0  0  0  0
  4 23  1  0  0  0  0
  5 24  1  0  0  0  0
  5 25  1  0  0  0  0
  5 26  1  0  0  0  0
  6  7  1  0  0  0  0
  6 27  1  0  0  0  0
  7  8  2  0  0  0  0
  7  9  1  0  0  0  0
  9 10  1  0  0  0  0
  9 28  1  0  0  0  0
 10 17  1  0  0  0  0
 10 11  2  0  0  0  0
 11 12  1  0  0  0  0
 12 13  2  0  0  0  0
 13 14  1  0  0  0  0
 13 17  1  0  0  0  0
 14 16  1  0  0  0  0
 14 15  1  0  0  0  0
 14 29  1  0  0  0  0
 15 16  1  0  0  0  0
 15 30  1  0  0  0  0
 15 31  1  0  0  0  0
 16 32  1  0  0  0  0
 16 33  1  0  0  0  0
M  END
> <s_m_source_file>
AV-unprocessed.smi

> <i_m_source_file_index>
1022

> <i_lp_mmshare_version>
43012

> <i_f3d_flags>
0

> <s_epik_input>
W0NIM11PW0NIMl1bQ0BIXShbQ0gzXSlbTkhdQyg9TylbTkhdYzFubmMoczEpW0NIXTJbQ0gyXVtDSDJdMg==

> <s_epik_cmdline>
J2VwaWtfcHl0aG9uJywgJy1waCcsICc3LjAnLCAnLXRuJywgJzgnLCAnLW1hJywgJzIwMCcsICctbWV0YWxfYmluZGluZycsICctaW1hZScsICc8aW5maWxlLm1hZT4nLCAnLW9tYWUnLCAnPG91dGZpbGUubWFlPic=

> <r_lp_tautomer_probability>
1

> <r_epik_Ionization_Penalty>
0.00129266

> <r_epik_Ionization_Penalty_Charging>
0

> <r_epik_Ionization_Penalty_Neutral>
0.00129266

> <r_epik_State_Penalty>
-0

> <r_epik_Charging_Adjusted_Penalty>
0

> <i_epik_Tot_Q>
0

> <i_epik_Tot_abs_Q>
0

> <r_epik_Metal_State_Penalty>
0.30857

> <b_epik_Metal_Only>
0

> <s_lp_Force_Field>
OPLS_2005

> <r_lp_Energy>
1.45425

> <b_lp_Chiralities_Consistent>
1

> <s_lp_Variant>
AV-unprocessed.smi:1022-1

> <Gold.Version>
5.8.1

> <Gold.Id.Protein>
6NUR|6NUR_protein|mol2

> <Gold.PLP.Fitness>
33.4105

> <Gold.PLP.PLP>
-28.9535

> <Gold.PLP.part.hbond>
-2.6055

> <Gold.PLP.part.metal>
0.0000

> <Gold.PLP.part.buried>
-5.2033

> <Gold.PLP.part.nonpolar>
-22.6326

> <Gold.PLP.part.repulsive>
0.6966

> <Gold.PLP.ligand.clash>
0.0000

> <Gold.PLP.ligand.torsion>
0.8440

> <Gold.PLP.Chemscore.Hbond>
2.0000

> <Gold.PLP.Chemscore.CHOScore>
0.0000

> <Gold.PLP.Chemscore.Metal>
0.0000

> <Gold.Chemscore.Hbonds>
donor molecule, donor type, donor heavy atom, donor atom, acceptor molecule, acceptor atom, score
      L1  H     6    27       P1 10175  1.00
      L1  H     9    28       P1 10175  0.97

> <Gold.PLP.Chemscore.Internal.Correction>
0.1450

> <Gold.Rescore>
     Score         DG    S(hbond)    S(metal)    S(lipo)     H(rot)  DE(clash)    DE(int)     intcor
     12.56     -14.41       1.94        0.00      58.84       1.73       0.00       1.85       ----

> <Gold.Chemscore.Fitness>
12.5574

> <Gold.Chemscore.DG>
-14.4078

> <Gold.Chemscore.ZeroCoef>
-5.4800

> <Gold.Chemscore.Hbond>
1.9391

> <Gold.Chemscore.Metal>
0.0000

> <Gold.Chemscore.Lipo>
58.8427

> <Gold.Chemscore.Internal_Hbond>
0.0000

> <Gold.Chemscore.DEClash>
0.0000

> <Gold.Chemscore.DEInternal>
1.8505

> <Gold.Chemscore.Rot>
1.7318

> <Gold.Chemscore.Internal.Correction>
   9.000000E+99

> <Gold.Chemscore.Hbonds>
donor molecule, donor type, donor heavy atom, donor atom, acceptor molecule, acceptor atom, score
      L1  H     6    27       P1 10175  0.98
      L1  H     9    28       P1 10175  0.86

> <Gold.Chemscore.Hbond.Weighted>
-6.4767

> <Gold.Chemscore.Metal.Weighted>
-0.0000

> <Gold.Chemscore.Lipo.Weighted>
-6.8846

> <Gold.Chemscore.Internal_Hbond.Weighted>
0.0000

> <Gold.Chemscore.DEClash.Weighted>
0.0000

> <Gold.Chemscore.DEInternal.Weighted>
1.8505

> <Gold.Chemscore.Rot.Weighted>
4.4335

> <Gold.Chemscore.Internal.Correction.Weighted>
   9.000000E+99

> <Gold.Protein.RotatedTorsions>
[ 6907 6896 6895 6894 ] final    2.74 input  -60.11 | X-H torsion
[ 7974 7965 7964 7962 ] final  -16.16 input  175.53 | X-H torsion
[ 8008 7997 7996 7995 ] final   60.19 input   59.86 | X-H torsion
[ 10167 10162 10161 10158 ] final  127.59 input  -65.29 | X-H torsion
[ 10718 10713 10712 10709 ] final  -75.55 input   66.30 | X-H torsion
[ 10763 10752 10751 10750 ] final -152.39 input  -60.55 | X-H torsion
[ 11005 11000 10999 10996 ] final  162.80 input  -57.11 | X-H torsion

> <Gold.Protein.ActiveResidues>
 VAL166  LYS551  ARG553  GLY616  TRP617  ASP618  TYR619  PRO620  LYS621  CYS622 
 ASP623  PHE694  ASN695  SER759  ASP760  ASP761  ALA762  ILE779  LEU786  VAL792 
 PHE793  MET794  SER795  GLU796  ALA797  LYS798  CYS799  TRP800  GLU811  SER814 

> <Gold.Protein.RotatedAtoms>
  151.6138  135.1038  160.0086 H   0  0  0  0  0  0  0  0  0  0  0  0  # atno 6907 bound_to 6896
  152.4194  133.7087  159.6477 H   0  0  0  0  0  0  0  0  0  0  0  0  # atno 6908 bound_to 6896
  150.8082  133.8398  159.3217 H   0  0  0  0  0  0  0  0  0  0  0  0  # atno 6909 bound_to 6896
  146.2000  140.3597  142.8427 H   0  0  0  0  0  0  0  0  0  0  0  0  # atno 7974 bound_to 7965
  155.5783  140.3491  155.4533 H   0  0  0  0  0  0  0  0  0  0  0  0  # atno 8008 bound_to 7997
  156.0392  140.1292  157.0199 H   0  0  0  0  0  0  0  0  0  0  0  0  # atno 8009 bound_to 7997
  154.4385  140.1027  156.6198 H   0  0  0  0  0  0  0  0  0  0  0  0  # atno 8010 bound_to 7997
  139.5570  144.6856  151.4153 H   0  0  0  0  0  0  0  0  0  0  0  0  # atno 10167 bound_to 10162
  156.0204  130.4443  150.3060 H   0  0  0  0  0  0  0  0  0  0  0  0  # atno 10718 bound_to 10713
  154.7997  135.3237  154.7581 H   0  0  0  0  0  0  0  0  0  0  0  0  # atno 10763 bound_to 10752
  153.8252  135.6884  153.4826 H   0  0  0  0  0  0  0  0  0  0  0  0  # atno 10764 bound_to 10752
  153.1707  135.4624  154.9841 H   0  0  0  0  0  0  0  0  0  0  0  0  # atno 10765 bound_to 10752
  140.2294  134.8135  157.3301 H   0  0  0  0  0  0  0  0  0  0  0  0  # atno 11005 bound_to 11000
  144.8662  140.7209  143.6076 LP  0  0  0  0  0  0  0  0  0  0  0  0  # atno 17320 bound_to 7965
  145.3516  139.1705  143.4431 LP  0  0  0  0  0  0  0  0  0  0  0  0  # atno 17321 bound_to 7965
  140.6845  143.8006  150.7166 LP  0  0  0  0  0  0  0  0  0  0  0  0  # atno 17342 bound_to 10162
  140.1470  143.4391  152.2156 LP  0  0  0  0  0  0  0  0  0  0  0  0  # atno 17343 bound_to 10162
  157.1162  131.0234  151.3028 LP  0  0  0  0  0  0  0  0  0  0  0  0  # atno 17370 bound_to 10713
  157.4665  130.7683  149.7283 LP  0  0  0  0  0  0  0  0  0  0  0  0  # atno 17371 bound_to 10713
  140.1766  134.4542  155.7798 LP  0  0  0  0  0  0  0  0  0  0  0  0  # atno 17394 bound_to 11000
  141.2218  133.6965  156.7798 LP  0  0  0  0  0  0  0  0  0  0  0  0  # atno 17395 bound_to 11000

$$$$
