#       Name:                AV-unprocessed.smi:3164
#       Creating user name   scv26
#       Creation time:       Fri Mar 27 17:50:47 2020


#       File generated by GOLD software.
#

@<TRIPOS>MOLECULE
AV-unprocessed.smi:3164
    43    44     1
SMALL
NO_CHARGES


@<TRIPOS>ATOM
      1 ****        -4.7041   3.2316  -0.4551 C.3            1 S1                 0.0000
      2 ****        -3.2651   3.0542  -0.1638 N.4            1 S1                 1.0000
      3 ****        -2.8863   3.5660   1.1725 C.3            1 S1                 0.0000
      4 ****        -1.3768   3.3873   1.4028 C.3            1 S1                 0.0000
      5 ****        -1.0297   2.0163   1.2429 O.3            1 S1                 0.0000
      6 ****        -1.2984   1.5354  -0.0710 C.3            1 S1                 0.0000
      7 ****        -0.8134   0.0797  -0.1553 C.3            1 S1                 0.0000
      8 ****         0.6583  -0.0032  -0.0595 N.4            1 S1                 1.0000
      9 ****         1.1901  -1.3774  -0.1435 C.3            1 S1                 0.0000
     10 ****         2.7208  -1.3839  -0.0318 C.3            1 S1                 0.0000
     11 ****         3.2954  -2.7849  -0.1161 C.ar           1 S1                 0.0000
     12 ****         3.8742  -3.2562  -1.3137 C.ar           1 S1                 0.0000
     13 ****         4.3886  -4.5671  -1.3391 C.ar           1 S1                 0.0000
     14 ****         4.3031  -5.3515  -0.1727 C.ar           1 S1                 0.0000
     15 ****         3.7049  -4.7884   0.9721 C.ar           1 S1                 0.0000
     16 ****         3.2079  -3.5327   1.0065 N.ar           1 S1                 0.0000
     17 ****        -2.8130   1.6543  -0.3389 C.3            1 S1                 0.0000
     18 ****        -5.3196   2.6594   0.2404 H              1 S1                 0.0000
     19 ****        -4.9352   2.9017  -1.4685 H              1 S1                 0.0000
     20 ****        -4.9850   4.2823  -0.3755 H              1 S1                 0.0000
     21 ****        -3.1528   4.6207   1.2533 H              1 S1                 0.0000
     22 ****        -3.4467   3.0329   1.9424 H              1 S1                 0.0000
     23 ****        -0.8002   4.0049   0.7123 H              1 S1                 0.0000
     24 ****        -1.1103   3.7041   2.4112 H              1 S1                 0.0000
     25 ****        -0.7526   2.1371  -0.8006 H              1 S1                 0.0000
     26 ****        -1.2679  -0.5171   0.6370 H              1 S1                 0.0000
     27 ****        -1.1237  -0.3581  -1.1051 H              1 S1                 0.0000
     28 ****         1.0640   0.5421  -0.8067 H              1 S1                 0.0000
     29 ****         0.7536  -1.9795   0.6549 H              1 S1                 0.0000
     30 ****         0.8845  -1.8251  -1.0902 H              1 S1                 0.0000
     31 ****         3.1561  -0.7702  -0.8217 H              1 S1                 0.0000
     32 ****         3.0303  -0.9330   0.9124 H              1 S1                 0.0000
     33 ****         3.9249  -2.6315  -2.1935 H              1 S1                 0.0000
     34 ****         4.8398  -4.9636  -2.2367 H              1 S1                 0.0000
     35 ****         4.6873  -6.3607  -0.1561 H              1 S1                 0.0000
     36 ****         3.6227  -5.3615   1.8837 H              1 S1                 0.0000
     37 ****        -3.3680   1.0053   0.3410 H              1 S1                 0.0000
     38 ****        -3.0395   1.3239  -1.3536 H              1 S1                 0.0000
     39 ****         0.9445   0.3950   0.8240 H              1 S1                 0.0000
     40 ****        -2.7635   3.6113  -0.8412 H              1 S1                 0.0000
     41 ****        -1.5566   1.4736   1.8971 LP             1 S1                 0.0000
     42 ****        -0.0533   1.9086   1.4304 LP             1 S1                 0.0000
     43 ****         2.7880  -3.1675   1.8373 LP             1 S1                 0.0000
@<TRIPOS>BOND
    1    1    2 1     
    2    1   18 1     
    3    1   19 1     
    4    1   20 1     
    5    2   17 1     
    6    2    3 1     
    7    2   40 1     
    8    3    4 1     
    9    3   21 1     
   10    3   22 1     
   11    4    5 1     
   12    4   23 1     
   13    4   24 1     
   14    5    6 1     
   15    6    7 1     
   16    6   17 1     
   17    6   25 1     
   18    7    8 1     
   19    7   26 1     
   20    7   27 1     
   21    8    9 1     
   22    8   28 1     
   23    8   39 1     
   24    9   10 1     
   25    9   29 1     
   26    9   30 1     
   27   10   11 1     
   28   10   31 1     
   29   10   32 1     
   30   11   16 ar    
   31   11   12 ar    
   32   12   13 ar    
   33   12   33 1     
   34   13   14 ar    
   35   13   34 1     
   36   14   15 ar    
   37   14   35 1     
   38   15   16 ar    
   39   15   36 1     
   40   17   37 1     
   41   17   38 1     
   42    5   41 1     
   43    5   42 1     
   44   16   43 1     
@<TRIPOS>SUBSTRUCTURE
      1 S1             1
@<TRIPOS>SET
LONE_PAIRS      STATIC     ATOMS    <user>   **** ""
3 41 42 43
DONOR_HYDROGENS      STATIC     ATOMS    <user>   **** ""
3 40 28 39
ATOM$BLUE        STATIC     ATOMS    COLORGROUP SYSTEM
3 41 42 43
ATOM$RED        STATIC     ATOMS    COLORGROUP SYSTEM
3 40 28 39
