AV-unprocessed.smi:1762|AV-procd|sdf|7104|dock3
  -GOLD-   22720 8323D 1   1.00000     0.00000
 Structure written by MMmdl.
 52 53  0  0  0  0  0  0  0  0  1 V2000
  150.4180  136.5594  157.1067 C   0  0  0  0  0  0  0  0  0  0  0  0
  150.5889  136.4240  155.5833 C   0  0  1  0  0  0  0  0  0  0  0  0
  149.4500  137.0837  154.7811 C   0  0  0  0  0  0  0  0  0  0  0  0
  149.5171  138.5561  154.7714 N   0  0  0  0  0  0  0  0  0  0  0  0
  148.4133  139.2136  154.0167 C   0  0  1  0  0  0  0  0  0  0  0  0
  147.1580  138.3204  153.8726 C   0  0  0  0  0  0  0  0  0  0  0  0
  146.5436  137.9419  154.8709 O   0  0  0  0  0  0  0  0  0  0  0  0
  146.8015  137.9808  152.6236 N   0  0  0  0  0  0  0  0  0  0  0  0
  145.6518  137.1547  152.2762 C   0  0  0  0  0  0  0  0  0  0  0  0
  145.8507  136.4503  150.9236 C   0  0  0  0  0  0  0  0  0  0  0  0
  145.4995  134.9760  150.9871 C   0  0  0  0  0  0  0  0  0  0  0  0
  146.3830  134.0503  151.5822 C   0  0  0  0  0  0  0  0  0  0  0  0
  146.0138  132.6916  151.6079 C   0  0  0  0  0  0  0  0  0  0  0  0
  144.7823  132.3126  151.0396 C   0  0  0  0  0  0  0  0  0  0  0  0
  143.9715  133.3135  150.4681 C   0  0  0  0  0  0  0  0  0  0  0  0
  144.3164  134.6191  150.4375 N   0  0  0  0  0  0  0  0  0  0  0  0
  148.0159  140.6390  154.5300 C   0  0  0  0  0  0  0  0  0  0  0  0
  146.8971  141.3079  153.7072 C   0  0  0  0  0  0  0  0  0  0  0  0
  149.2153  141.5970  154.6805 C   0  0  0  0  0  0  0  0  0  0  0  0
  150.8506  138.9544  154.3075 C   0  0  0  0  0  0  0  0  0  0  0  0
  151.9817  138.3290  155.1445 C   0  0  2  0  0  0  0  0  0  0  0  0
  153.3698  138.6780  154.5963 C   0  0  0  0  0  0  0  0  0  0  0  0
  151.8537  136.9113  155.1420 O   0  0  0  0  0  0  0  0  0  0  0  0
  149.5027  136.0684  157.4381 H   0  0  0  0  0  0  0  0  0  0  0  0
  150.3582  137.6006  157.4229 H   0  0  0  0  0  0  0  0  0  0  0  0
  151.2509  136.0953  157.6349 H   0  0  0  0  0  0  0  0  0  0  0  0
  150.5809  135.3569  155.3590 H   0  0  0  0  0  0  0  0  0  0  0  0
  149.4836  136.7157  153.7541 H   0  0  0  0  0  0  0  0  0  0  0  0
  148.5133  136.7217  155.2032 H   0  0  0  0  0  0  0  0  0  0  0  0
  148.7821  139.3622  152.9995 H   0  0  0  0  0  0  0  0  0  0  0  0
  147.3635  138.3270  151.8595 H   0  0  0  0  0  0  0  0  0  0  0  0
  145.5183  136.4153  153.0660 H   0  0  0  0  0  0  0  0  0  0  0  0
  144.7449  137.7616  152.2617 H   0  0  0  0  0  0  0  0  0  0  0  0
  145.2399  136.9275  150.1561 H   0  0  0  0  0  0  0  0  0  0  0  0
  146.8865  136.5544  150.5971 H   0  0  0  0  0  0  0  0  0  0  0  0
  147.3226  134.3715  152.0074 H   0  0  0  0  0  0  0  0  0  0  0  0
  146.6637  131.9538  152.0550 H   0  0  0  0  0  0  0  0  0  0  0  0
  144.4666  131.2799  151.0415 H   0  0  0  0  0  0  0  0  0  0  0  0
  143.0208  133.0588  150.0236 H   0  0  0  0  0  0  0  0  0  0  0  0
  147.6415  140.5329  155.5466 H   0  0  0  0  0  0  0  0  0  0  0  0
  147.2207  141.5408  152.6932 H   0  0  0  0  0  0  0  0  0  0  0  0
  146.5829  142.2436  154.1703 H   0  0  0  0  0  0  0  0  0  0  0  0
  146.0150  140.6715  153.6374 H   0  0  0  0  0  0  0  0  0  0  0  0
  149.6300  141.8934  153.7166 H   0  0  0  0  0  0  0  0  0  0  0  0
  150.0147  141.1389  155.2636 H   0  0  0  0  0  0  0  0  0  0  0  0
  148.9184  142.5104  155.1967 H   0  0  0  0  0  0  0  0  0  0  0  0
  150.9745  138.6847  153.2572 H   0  0  0  0  0  0  0  0  0  0  0  0
  150.9776  140.0328  154.3717 H   0  0  0  0  0  0  0  0  0  0  0  0
  151.9193  138.6971  156.1691 H   0  0  0  0  0  0  0  0  0  0  0  0
  153.5295  139.7565  154.5887 H   0  0  0  0  0  0  0  0  0  0  0  0
  153.4951  138.3131  153.5765 H   0  0  0  0  0  0  0  0  0  0  0  0
  154.1530  138.2306  155.2088 H   0  0  0  0  0  0  0  0  0  0  0  0
  1  2  1  0  0  0  0
  1 24  1  0  0  0  0
  1 25  1  0  0  0  0
  1 26  1  0  0  0  0
  2 23  1  0  0  0  0
  2  3  1  0  0  0  0
  2 27  1  0  0  0  0
  3  4  1  0  0  0  0
  3 28  1  0  0  0  0
  3 29  1  0  0  0  0
  4  5  1  0  0  0  0
  4 20  1  0  0  0  0
  5  6  1  0  0  0  0
  5 17  1  0  0  0  0
  5 30  1  0  0  0  0
  6  7  2  0  0  0  0
  6  8  1  0  0  0  0
  8  9  1  0  0  0  0
  8 31  1  0  0  0  0
  9 10  1  0  0  0  0
  9 32  1  0  0  0  0
  9 33  1  0  0  0  0
 10 11  1  0  0  0  0
 10 34  1  0  0  0  0
 10 35  1  0  0  0  0
 11 16  1  0  0  0  0
 11 12  2  0  0  0  0
 12 13  1  0  0  0  0
 12 36  1  0  0  0  0
 13 14  2  0  0  0  0
 13 37  1  0  0  0  0
 14 15  1  0  0  0  0
 14 38  1  0  0  0  0
 15 16  2  0  0  0  0
 15 39  1  0  0  0  0
 17 18  1  0  0  0  0
 17 19  1  0  0  0  0
 17 40  1  0  0  0  0
 18 41  1  0  0  0  0
 18 42  1  0  0  0  0
 18 43  1  0  0  0  0
 19 44  1  0  0  0  0
 19 45  1  0  0  0  0
 19 46  1  0  0  0  0
 20 21  1  0  0  0  0
 20 47  1  0  0  0  0
 20 48  1  0  0  0  0
 21 22  1  0  0  0  0
 21 23  1  0  0  0  0
 21 49  1  0  0  0  0
 22 50  1  0  0  0  0
 22 51  1  0  0  0  0
 22 52  1  0  0  0  0
M  END
> <s_m_source_file>
AV-unprocessed.smi

> <i_m_source_file_index>
1762

> <i_lp_mmshare_version>
43012

> <i_f3d_flags>
0

> <s_epik_input>
W0NIM11bQ0BASF0xW0NIMl1OKFtDSDJdW0NASF0oTzEpW0NIM10pW0NAQEhdKFtDSF0oW0NIM10pW0NIM10pQyg9TylbTkhdW0NIMl1bQ0gyXWMyW2NIXVtjSF1bY0hdW2NIXW4y

> <s_epik_cmdline>
J2VwaWtfcHl0aG9uJywgJy1waCcsICc3LjAnLCAnLXRuJywgJzgnLCAnLW1hJywgJzIwMCcsICctbWV0YWxfYmluZGluZycsICctaW1hZScsICc8aW5maWxlLm1hZT4nLCAnLW9tYWUnLCAnPG91dGZpbGUubWFlPic=

> <r_epik_Ionization_Penalty>
0.0399736

> <r_epik_Ionization_Penalty_Charging>
0

> <r_epik_Ionization_Penalty_Neutral>
0.0399736

> <r_epik_State_Penalty>
0.0317634

> <r_epik_Charging_Adjusted_Penalty>
0.0317634

> <i_epik_Tot_Q>
0

> <i_epik_Tot_abs_Q>
0

> <r_epik_Metal_State_Penalty>
0.0307795

> <b_epik_Metal_Only>
0

> <s_lp_Force_Field>
OPLS_2005

> <r_lp_Energy>
30.2117

> <b_lp_Chiralities_Consistent>
1

> <s_lp_Variant>
AV-unprocessed.smi:1762-6

> <Gold.Version>
5.8.1

> <Gold.Id.Protein>
6NUR|6NUR_protein|mol2

> <Gold.PLP.Fitness>
41.6196

> <Gold.PLP.PLP>
-38.5244

> <Gold.PLP.part.hbond>
-2.0000

> <Gold.PLP.part.metal>
0.0000

> <Gold.PLP.part.buried>
-1.9319

> <Gold.PLP.part.nonpolar>
-35.0201

> <Gold.PLP.part.repulsive>
0.5850

> <Gold.PLP.ligand.clash>
0.0000

> <Gold.PLP.ligand.torsion>
1.6277

> <Gold.PLP.Chemscore.Hbond>
1.0000

> <Gold.PLP.Chemscore.CHOScore>
1.0000

> <Gold.PLP.Chemscore.Metal>
0.0000

> <Gold.Chemscore.Hbonds>
donor molecule, donor type, donor heavy atom, donor atom, acceptor molecule, acceptor atom, score
      P1  H 10752 10765       L1    23  1.00
      L1  C    15    39       P1 10186  1.00

> <Gold.PLP.Chemscore.Internal.Correction>
0.3507

> <Gold.Rescore>
     Score         DG    S(hbond)    S(metal)    S(lipo)     H(rot)  DE(clash)    DE(int)     intcor
     15.44     -17.62       0.96        0.00     111.49       1.60       0.55       1.62       ----

> <Gold.Chemscore.Fitness>
15.4441

> <Gold.Chemscore.DG>
-17.6203

> <Gold.Chemscore.ZeroCoef>
-5.4800

> <Gold.Chemscore.Hbond>
0.9552

> <Gold.Chemscore.Metal>
0.0000

> <Gold.Chemscore.Lipo>
111.4875

> <Gold.Chemscore.Internal_Hbond>
0.0000

> <Gold.Chemscore.DEClash>
0.5512

> <Gold.Chemscore.DEInternal>
1.6250

> <Gold.Chemscore.Rot>
1.5993

> <Gold.Chemscore.Internal.Correction>
   9.000000E+99

> <Gold.Chemscore.Hbonds>
donor molecule, donor type, donor heavy atom, donor atom, acceptor molecule, acceptor atom, score
      P1  H 10752 10765       L1    23  0.84

> <Gold.Chemscore.Hbond.Weighted>
-3.1903

> <Gold.Chemscore.Metal.Weighted>
-0.0000

> <Gold.Chemscore.Lipo.Weighted>
-13.0440

> <Gold.Chemscore.Internal_Hbond.Weighted>
0.0000

> <Gold.Chemscore.DEClash.Weighted>
0.5512

> <Gold.Chemscore.DEInternal.Weighted>
1.6250

> <Gold.Chemscore.Rot.Weighted>
4.0941

> <Gold.Chemscore.Internal.Correction.Weighted>
   9.000000E+99

> <Gold.Protein.RotatedTorsions>
[ 6907 6896 6895 6894 ] final   43.89 input  -60.11 | X-H torsion
[ 7974 7965 7964 7962 ] final  -62.12 input  175.53 | X-H torsion
[ 8008 7997 7996 7995 ] final  -39.27 input   59.86 | X-H torsion
[ 10167 10162 10161 10158 ] final  -81.96 input  -65.29 | X-H torsion
[ 10718 10713 10712 10709 ] final   55.02 input   66.30 | X-H torsion
[ 10763 10752 10751 10750 ] final  171.10 input  -60.55 | X-H torsion
[ 11005 11000 10999 10996 ] final  -96.93 input  -57.11 | X-H torsion

> <Gold.Protein.ActiveResidues>
 VAL166  LYS551  ARG553  GLY616  TRP617  ASP618  TYR619  PRO620  LYS621  CYS622 
 ASP623  PHE694  ASN695  SER759  ASP760  ASP761  ALA762  ILE779  LEU786  VAL792 
 PHE793  MET794  SER795  GLU796  ALA797  LYS798  CYS799  TRP800  GLU811  SER814 

> <Gold.Protein.RotatedAtoms>
  152.2258  134.8370  160.0479 H   0  0  0  0  0  0  0  0  0  0  0  0  # atno 6907 bound_to 6896
  151.9137  133.3562  159.3880 H   0  0  0  0  0  0  0  0  0  0  0  0  # atno 6908 bound_to 6896
  150.7012  134.4631  159.5434 H   0  0  0  0  0  0  0  0  0  0  0  0  # atno 6909 bound_to 6896
  145.7952  140.8687  143.0260 H   0  0  0  0  0  0  0  0  0  0  0  0  # atno 7974 bound_to 7965
  154.4025  140.1556  156.2837 H   0  0  0  0  0  0  0  0  0  0  0  0  # atno 8008 bound_to 7997
  155.8847  140.3442  155.5891 H   0  0  0  0  0  0  0  0  0  0  0  0  # atno 8009 bound_to 7997
  155.7627  140.0819  157.2138 H   0  0  0  0  0  0  0  0  0  0  0  0  # atno 8010 bound_to 7997
  140.4364  143.2530  151.8687 H   0  0  0  0  0  0  0  0  0  0  0  0  # atno 10167 bound_to 10162
  157.5308  130.8629  149.8685 H   0  0  0  0  0  0  0  0  0  0  0  0  # atno 10718 bound_to 10713
  154.4071  135.2755  155.2060 H   0  0  0  0  0  0  0  0  0  0  0  0  # atno 10763 bound_to 10752
  154.4061  135.6033  153.5929 H   0  0  0  0  0  0  0  0  0  0  0  0  # atno 10764 bound_to 10752
  152.9831  135.5938  154.4347 H   0  0  0  0  0  0  0  0  0  0  0  0  # atno 10765 bound_to 10752
  141.1395  133.8133  157.0637 H   0  0  0  0  0  0  0  0  0  0  0  0  # atno 11005 bound_to 11000
  144.6776  140.0180  143.7484 LP  0  0  0  0  0  0  0  0  0  0  0  0  # atno 17320 bound_to 7965
  145.9935  139.3034  143.0970 LP  0  0  0  0  0  0  0  0  0  0  0  0  # atno 17321 bound_to 7965
  139.4787  144.5278  151.8710 LP  0  0  0  0  0  0  0  0  0  0  0  0  # atno 17342 bound_to 10162
  140.4369  144.2040  150.5889 LP  0  0  0  0  0  0  0  0  0  0  0  0  # atno 17343 bound_to 10162
  156.0421  130.3736  150.1408 LP  0  0  0  0  0  0  0  0  0  0  0  0  # atno 17370 bound_to 10713
  156.9593  130.9800  151.3482 LP  0  0  0  0  0  0  0  0  0  0  0  0  # atno 17371 bound_to 10713
  140.0555  134.9783  157.1212 LP  0  0  0  0  0  0  0  0  0  0  0  0  # atno 17394 bound_to 11000
  140.3926  134.2168  155.7165 LP  0  0  0  0  0  0  0  0  0  0  0  0  # atno 17395 bound_to 11000

$$$$
