AV-unprocessed.smi:1824|AV-procd|sdf|7394|dock8
  -GOLD-   22720 9 63D 1   1.00000     0.00000
 Structure written by MMmdl.
 44 46  0  0  0  0  0  0  0  0  1 V2000
  148.7257  136.2693  159.0087 C   0  0  0  0  0  0  0  0  0  0  0  0
  149.9069  136.8981  158.2621 C   0  0  1  0  0  0  0  0  0  0  0  0
  149.5289  138.2332  157.5930 C   0  0  0  0  0  0  0  0  0  0  0  0
  150.6733  138.8665  156.9470 N   0  0  0  0  0  0  0  0  0  0  0  0
  150.2848  140.1259  156.3116 C   0  0  0  0  0  0  0  0  0  0  0  0
  150.0796  141.3140  157.2751 C   0  0  2  0  0  0  0  0  0  0  0  0
  148.9816  142.0869  156.8283 O   0  0  0  0  0  0  0  0  0  0  0  0
  151.3231  142.2227  157.3403 C   0  0  0  0  0  0  0  0  0  0  0  0
  151.3557  143.0356  158.5434 N   0  0  0  0  0  0  0  0  0  0  0  0
  150.7039  144.1943  158.7606 C   0  0  0  0  0  0  0  0  0  0  0  0
  150.8762  144.7774  159.9437 N   0  0  0  0  0  0  0  0  0  0  0  0
  151.7415  143.8949  160.5671 C   0  0  0  0  0  0  0  0  0  0  0  0
  152.3184  143.9322  161.8567 C   0  0  0  0  0  0  0  0  0  0  0  0
  153.1856  142.9044  162.2821 C   0  0  0  0  0  0  0  0  0  0  0  0
  153.7300  142.9562  163.5210 F   0  0  0  0  0  0  0  0  0  0  0  0
  153.4885  141.8250  161.4256 C   0  0  0  0  0  0  0  0  0  0  0  0
  154.3211  140.8418  161.8422 F   0  0  0  0  0  0  0  0  0  0  0  0
  152.9263  141.7665  160.1359 C   0  0  0  0  0  0  0  0  0  0  0  0
  152.0617  142.7941  159.7163 C   0  0  0  0  0  0  0  0  0  0  0  0
  151.7379  139.0361  157.9323 C   0  0  0  0  0  0  0  0  0  0  0  0
  152.1189  137.7042  158.6070 C   0  0  1  0  0  0  0  0  0  0  0  0
  153.1740  137.8915  159.7018 C   0  0  0  0  0  0  0  0  0  0  0  0
  150.9564  137.1297  159.1974 O   0  0  0  0  0  0  0  0  0  0  0  0
  147.8971  136.0648  158.3302 H   0  0  0  0  0  0  0  0  0  0  0  0
  148.3598  136.9294  159.7954 H   0  0  0  0  0  0  0  0  0  0  0  0
  149.0155  135.3262  159.4728 H   0  0  0  0  0  0  0  0  0  0  0  0
  150.2570  136.1950  157.5044 H   0  0  0  0  0  0  0  0  0  0  0  0
  148.7428  138.0561  156.8580 H   0  0  0  0  0  0  0  0  0  0  0  0
  149.1090  138.9077  158.3412 H   0  0  0  0  0  0  0  0  0  0  0  0
  151.0842  140.4017  155.6226 H   0  0  0  0  0  0  0  0  0  0  0  0
  149.4026  139.9839  155.6847 H   0  0  0  0  0  0  0  0  0  0  0  0
  149.8633  140.9439  158.2784 H   0  0  0  0  0  0  0  0  0  0  0  0
  149.3071  142.9209  156.5263 H   0  0  0  0  0  0  0  0  0  0  0  0
  152.2320  141.6202  157.3170 H   0  0  0  0  0  0  0  0  0  0  0  0
  151.3623  142.8807  156.4708 H   0  0  0  0  0  0  0  0  0  0  0  0
  150.0645  144.6330  158.0084 H   0  0  0  0  0  0  0  0  0  0  0  0
  152.0934  144.7533  162.5207 H   0  0  0  0  0  0  0  0  0  0  0  0
  153.1558  140.9416  159.4780 H   0  0  0  0  0  0  0  0  0  0  0  0
  152.6264  139.4497  157.4558 H   0  0  0  0  0  0  0  0  0  0  0  0
  151.4258  139.7540  158.6924 H   0  0  0  0  0  0  0  0  0  0  0  0
  152.5108  137.0146  157.8574 H   0  0  0  0  0  0  0  0  0  0  0  0
  154.0902  138.3196  159.2943 H   0  0  0  0  0  0  0  0  0  0  0  0
  153.4300  136.9375  160.1633 H   0  0  0  0  0  0  0  0  0  0  0  0
  152.8138  138.5558  160.4877 H   0  0  0  0  0  0  0  0  0  0  0  0
  1  2  1  0  0  0  0
  1 24  1  0  0  0  0
  1 25  1  0  0  0  0
  1 26  1  0  0  0  0
  2 23  1  0  0  0  0
  2  3  1  0  0  0  0
  2 27  1  0  0  0  0
  3  4  1  0  0  0  0
  3 28  1  0  0  0  0
  3 29  1  0  0  0  0
  4  5  1  0  0  0  0
  4 20  1  0  0  0  0
  5  6  1  0  0  0  0
  5 30  1  0  0  0  0
  5 31  1  0  0  0  0
  6  7  1  0  0  0  0
  6  8  1  0  0  0  0
  6 32  1  0  0  0  0
  7 33  1  0  0  0  0
  8  9  1  0  0  0  0
  8 34  1  0  0  0  0
  8 35  1  0  0  0  0
  9 19  1  0  0  0  0
  9 10  1  0  0  0  0
 10 11  2  0  0  0  0
 10 36  1  0  0  0  0
 11 12  1  0  0  0  0
 12 19  2  0  0  0  0
 12 13  1  0  0  0  0
 13 14  2  0  0  0  0
 13 37  1  0  0  0  0
 14 15  1  0  0  0  0
 14 16  1  0  0  0  0
 16 17  1  0  0  0  0
 16 18  2  0  0  0  0
 18 19  1  0  0  0  0
 18 38  1  0  0  0  0
 20 21  1  0  0  0  0
 20 39  1  0  0  0  0
 20 40  1  0  0  0  0
 21 22  1  0  0  0  0
 21 23  1  0  0  0  0
 21 41  1  0  0  0  0
 22 42  1  0  0  0  0
 22 43  1  0  0  0  0
 22 44  1  0  0  0  0
M  END
> <s_m_source_file>
AV-unprocessed.smi

> <i_m_source_file_index>
1824

> <i_lp_mmshare_version>
43012

> <i_f3d_flags>
0

> <s_epik_input>
W0NIM11bQ0BASF0xW0NIMl1OKFtDSDJdW0NASF0oTzEpW0NIM10pW0NIMl1bQ0BIXShbT0hdKVtDSDJdbihbY0hdbjIpYyhjMjMpW2NIXWMoRiljKEYpW2NIXTM=

> <s_epik_cmdline>
J2VwaWtfcHl0aG9uJywgJy1waCcsICc3LjAnLCAnLXRuJywgJzgnLCAnLW1hJywgJzIwMCcsICctbWV0YWxfYmluZGluZycsICctaW1hZScsICc8aW5maWxlLm1hZT4nLCAnLW9tYWUnLCAnPG91dGZpbGUubWFlPic=

> <r_epik_Ionization_Penalty>
0.273778

> <r_epik_Ionization_Penalty_Charging>
0

> <r_epik_Ionization_Penalty_Neutral>
0.273778

> <r_epik_State_Penalty>
0.246794

> <r_epik_Charging_Adjusted_Penalty>
0.246794

> <i_epik_Tot_Q>
0

> <i_epik_Tot_abs_Q>
0

> <r_epik_Metal_State_Penalty>
0.238234

> <b_epik_Metal_Only>
0

> <s_lp_Force_Field>
OPLS_2005

> <r_lp_Energy>
27.3836

> <b_lp_Chiralities_Consistent>
1

> <s_lp_Variant>
AV-unprocessed.smi:1824-2

> <Gold.Version>
5.8.1

> <Gold.Id.Protein>
6NUR|6NUR_protein|mol2

> <Gold.PLP.Fitness>
54.3464

> <Gold.PLP.PLP>
-48.3526

> <Gold.PLP.part.hbond>
-1.6560

> <Gold.PLP.part.metal>
0.0000

> <Gold.PLP.part.buried>
-7.5516

> <Gold.PLP.part.nonpolar>
-39.3855

> <Gold.PLP.part.repulsive>
0.1428

> <Gold.PLP.ligand.clash>
0.0000

> <Gold.PLP.ligand.torsion>
1.1382

> <Gold.PLP.Chemscore.Hbond>
1.6345

> <Gold.PLP.Chemscore.CHOScore>
1.1018

> <Gold.PLP.Chemscore.Metal>
0.0000

> <Gold.Chemscore.Hbonds>
donor molecule, donor type, donor heavy atom, donor atom, acceptor molecule, acceptor atom, score
      L1  H     7    33       P1  8028  0.92
      P1  H  6896  6907       L1    23  0.71
      L1  C    10    36       P1  8028  0.56
      L1  C    10    36       P1  8029  0.44

> <Gold.PLP.Chemscore.Internal.Correction>
0.0612

> <Gold.Rescore>
     Score         DG    S(hbond)    S(metal)    S(lipo)     H(rot)  DE(clash)    DE(int)     intcor
     15.28     -16.41       1.28        0.00     106.34       2.26       0.01       1.12       ----

> <Gold.Chemscore.Fitness>
15.2766

> <Gold.Chemscore.DG>
-16.4097

> <Gold.Chemscore.ZeroCoef>
-5.4800

> <Gold.Chemscore.Hbond>
1.2810

> <Gold.Chemscore.Metal>
0.0000

> <Gold.Chemscore.Lipo>
106.3389

> <Gold.Chemscore.Internal_Hbond>
0.0000

> <Gold.Chemscore.DEClash>
0.0111

> <Gold.Chemscore.DEInternal>
1.1220

> <Gold.Chemscore.Rot>
2.2619

> <Gold.Chemscore.Internal.Correction>
   9.000000E+99

> <Gold.Chemscore.Hbonds>
donor molecule, donor type, donor heavy atom, donor atom, acceptor molecule, acceptor atom, score
      L1  H     7    33       P1  8028  0.84
      P1  H  6896  6907       L1    23  0.22

> <Gold.Chemscore.Hbond.Weighted>
-4.2784

> <Gold.Chemscore.Metal.Weighted>
-0.0000

> <Gold.Chemscore.Lipo.Weighted>
-12.4417

> <Gold.Chemscore.Internal_Hbond.Weighted>
0.0000

> <Gold.Chemscore.DEClash.Weighted>
0.0111

> <Gold.Chemscore.DEInternal.Weighted>
1.1220

> <Gold.Chemscore.Rot.Weighted>
5.7904

> <Gold.Chemscore.Internal.Correction.Weighted>
   9.000000E+99

> <Gold.Protein.RotatedTorsions>
[ 6907 6896 6895 6894 ] final  -11.51 input  -60.11 | X-H torsion
[ 7974 7965 7964 7962 ] final  157.77 input  175.53 | X-H torsion
[ 8008 7997 7996 7995 ] final  -21.20 input   59.86 | X-H torsion
[ 10167 10162 10161 10158 ] final   -3.78 input  -65.29 | X-H torsion
[ 10718 10713 10712 10709 ] final  -93.90 input   66.30 | X-H torsion
[ 10763 10752 10751 10750 ] final  -89.67 input  -60.55 | X-H torsion
[ 11005 11000 10999 10996 ] final    1.21 input  -57.11 | X-H torsion

> <Gold.Protein.ActiveResidues>
 VAL166  LYS551  ARG553  GLY616  TRP617  ASP618  TYR619  PRO620  LYS621  CYS622 
 ASP623  PHE694  ASN695  SER759  ASP760  ASP761  ALA762  ILE779  LEU786  VAL792 
 PHE793  MET794  SER795  GLU796  ALA797  LYS798  CYS799  TRP800  GLU811  SER814 

> <Gold.Protein.RotatedAtoms>
  151.3850  135.0946  159.9507 H   0  0  0  0  0  0  0  0  0  0  0  0  # atno 6907 bound_to 6896
  152.5097  133.9035  159.7463 H   0  0  0  0  0  0  0  0  0  0  0  0  # atno 6908 bound_to 6896
  150.9476  133.6530  159.2807 H   0  0  0  0  0  0  0  0  0  0  0  0  # atno 6909 bound_to 6896
  144.7884  139.7386  143.6231 H   0  0  0  0  0  0  0  0  0  0  0  0  # atno 7974 bound_to 7965
  154.4721  140.2041  155.9969 H   0  0  0  0  0  0  0  0  0  0  0  0  # atno 8008 bound_to 7997
  156.1028  140.3241  155.7936 H   0  0  0  0  0  0  0  0  0  0  0  0  # atno 8009 bound_to 7997
  155.4768  140.0535  157.2963 H   0  0  0  0  0  0  0  0  0  0  0  0  # atno 8010 bound_to 7997
  140.6903  143.6499  150.8359 H   0  0  0  0  0  0  0  0  0  0  0  0  # atno 10167 bound_to 10162
  156.0019  130.5045  150.5845 H   0  0  0  0  0  0  0  0  0  0  0  0  # atno 10718 bound_to 10713
  154.6578  135.5332  153.7980 H   0  0  0  0  0  0  0  0  0  0  0  0  # atno 10763 bound_to 10752
  153.0423  135.6498  154.0919 H   0  0  0  0  0  0  0  0  0  0  0  0  # atno 10764 bound_to 10752
  154.0830  135.2945  155.3266 H   0  0  0  0  0  0  0  0  0  0  0  0  # atno 10765 bound_to 10752
  140.6180  133.9688  155.8210 H   0  0  0  0  0  0  0  0  0  0  0  0  # atno 11005 bound_to 11000
  146.2126  139.5493  142.9671 LP  0  0  0  0  0  0  0  0  0  0  0  0  # atno 17320 bound_to 7965
  145.5859  141.0376  143.2096 LP  0  0  0  0  0  0  0  0  0  0  0  0  # atno 17321 bound_to 7965
  140.0211  143.5541  152.2800 LP  0  0  0  0  0  0  0  0  0  0  0  0  # atno 17342 bound_to 10162
  139.6300  144.7643  151.2557 LP  0  0  0  0  0  0  0  0  0  0  0  0  # atno 17343 bound_to 10162
  157.3720  131.0767  151.1550 LP  0  0  0  0  0  0  0  0  0  0  0  0  # atno 17370 bound_to 10713
  157.2300  130.6521  149.5846 LP  0  0  0  0  0  0  0  0  0  0  0  0  # atno 17371 bound_to 10713
  141.0762  134.0131  157.3454 LP  0  0  0  0  0  0  0  0  0  0  0  0  # atno 17394 bound_to 11000
  139.9165  135.0197  156.7901 LP  0  0  0  0  0  0  0  0  0  0  0  0  # atno 17395 bound_to 11000

$$$$
