AV-unprocessed.smi:1833|AV-procd|sdf|7466|dock7
  -GOLD-   22720 9163D 1   1.00000     0.00000
 Structure written by MMmdl.
 42 43  0  0  0  0  0  0  0  0  2 V2000
  143.8105  135.2316  151.3844 C   0  0  0  0  0  0  0  0  0  0  0  0
  145.2483  135.6701  151.0756 C   0  0  0  0  0  0  0  0  0  0  0  0
  146.2409  135.0570  151.9933 N   0  3  2  0  0  0  0  0  0  0  0  0
  146.4065  133.6013  151.7407 C   0  0  0  0  0  0  0  0  0  0  0  0
  147.5323  133.0055  152.6027 C   0  0  0  0  0  0  0  0  0  0  0  0
  147.3022  133.2925  154.0949 C   0  0  0  0  0  0  0  0  0  0  0  0
  147.0921  134.7971  154.3371 C   0  0  1  0  0  0  0  0  0  0  0  0
  148.3452  135.5168  154.1118 N   0  0  0  0  0  0  0  0  0  0  0  0
  149.1522  135.9855  155.0733 C   0  0  0  0  0  0  0  0  0  0  0  0
  148.9156  135.8909  156.2774 O   0  0  0  0  0  0  0  0  0  0  0  0
  150.2468  136.5645  154.5608 N   0  0  0  0  0  0  0  0  0  0  0  0
  151.3531  137.1209  155.3344 C   0  0  0  0  0  0  0  0  0  0  0  0
  151.8269  138.4856  154.8030 C   0  0  0  0  0  0  0  0  0  0  0  0
  151.0853  139.6536  155.3682 C   0  0  0  0  0  0  0  0  0  0  0  0
  150.4204  140.5441  154.6253 N   0  0  0  0  0  0  0  0  0  0  0  0
  149.8106  141.5335  155.4009 C   0  0  0  0  0  0  0  0  0  0  0  0
  149.9941  141.3650  156.7493 C   0  0  0  0  0  0  0  0  0  0  0  0
  150.9586  139.9575  157.0974 S   0  0  0  0  0  0  0  0  0  0  0  0
  145.9612  135.3280  153.4297 C   0  0  0  0  0  0  0  0  0  0  0  0
  143.1012  135.7797  150.7643 H   0  0  0  0  0  0  0  0  0  0  0  0
  143.5550  135.4241  152.4268 H   0  0  0  0  0  0  0  0  0  0  0  0
  143.6558  134.1713  151.1879 H   0  0  0  0  0  0  0  0  0  0  0  0
  145.5057  135.4450  150.0398 H   0  0  0  0  0  0  0  0  0  0  0  0
  145.2912  136.7555  151.1758 H   0  0  0  0  0  0  0  0  0  0  0  0
  145.4657  133.0874  151.9447 H   0  0  0  0  0  0  0  0  0  0  0  0
  146.6380  133.4324  150.6885 H   0  0  0  0  0  0  0  0  0  0  0  0
  147.5959  131.9296  152.4380 H   0  0  0  0  0  0  0  0  0  0  0  0
  148.4913  133.4191  152.2882 H   0  0  0  0  0  0  0  0  0  0  0  0
  146.4215  132.7458  154.4343 H   0  0  0  0  0  0  0  0  0  0  0  0
  148.1399  132.9211  154.6866 H   0  0  0  0  0  0  0  0  0  0  0  0
  146.8015  134.9345  155.3803 H   0  0  0  0  0  0  0  0  0  0  0  0
  148.6347  135.6368  153.1520 H   0  0  0  0  0  0  0  0  0  0  0  0
  150.3408  136.5950  153.5563 H   0  0  0  0  0  0  0  0  0  0  0  0
  151.0890  137.1970  156.3906 H   0  0  0  0  0  0  0  0  0  0  0  0
  152.1783  136.4108  155.2806 H   0  0  0  0  0  0  0  0  0  0  0  0
  152.8851  138.6153  155.0314 H   0  0  0  0  0  0  0  0  0  0  0  0
  151.7457  138.5093  153.7155 H   0  0  0  0  0  0  0  0  0  0  0  0
  149.2636  142.3246  154.9110 H   0  0  0  0  0  0  0  0  0  0  0  0
  149.6261  141.9823  157.5554 H   0  0  0  0  0  0  0  0  0  0  0  0
  145.8352  136.3968  153.6000 H   0  0  0  0  0  0  0  0  0  0  0  0
  145.0148  134.8604  153.7060 H   0  0  0  0  0  0  0  0  0  0  0  0
  147.1304  135.4861  151.7814 H   0  0  0  0  0  0  0  0  0  0  0  0
  1  2  1  0  0  0  0
  1 20  1  0  0  0  0
  1 21  1  0  0  0  0
  1 22  1  0  0  0  0
  2  3  1  0  0  0  0
  2 23  1  0  0  0  0
  2 24  1  0  0  0  0
  3 19  1  0  0  0  0
  3  4  1  0  0  0  0
  3 42  1  0  0  0  0
  4  5  1  0  0  0  0
  4 25  1  0  0  0  0
  4 26  1  0  0  0  0
  5  6  1  0  0  0  0
  5 27  1  0  0  0  0
  5 28  1  0  0  0  0
  6  7  1  0  0  0  0
  6 29  1  0  0  0  0
  6 30  1  0  0  0  0
  7  8  1  0  0  0  0
  7 19  1  0  0  0  0
  7 31  1  0  0  0  0
  8  9  1  0  0  0  0
  8 32  1  0  0  0  0
  9 10  2  0  0  0  0
  9 11  1  0  0  0  0
 11 12  1  0  0  0  0
 11 33  1  0  0  0  0
 12 13  1  0  0  0  0
 12 34  1  0  0  0  0
 12 35  1  0  0  0  0
 13 14  1  0  0  0  0
 13 36  1  0  0  0  0
 13 37  1  0  0  0  0
 14 18  1  0  0  0  0
 14 15  2  0  0  0  0
 15 16  1  0  0  0  0
 16 17  2  0  0  0  0
 16 38  1  0  0  0  0
 17 18  1  0  0  0  0
 17 39  1  0  0  0  0
 19 40  1  0  0  0  0
 19 41  1  0  0  0  0
M  CHG  1   3   1
M  END
> <s_m_source_file>
AV-unprocessed.smi

> <i_m_source_file_index>
1833

> <i_lp_mmshare_version>
43012

> <i_f3d_flags>
0

> <s_epik_input>
W0NIM11bQ0gyXU4xW0NIMl1bQ0gyXVtDSDJdW0NASF0oW0NIMl0xKVtOSF1DKD1PKVtOSF1bQ0gyXVtDSDJdYzJuW2NIXVtjSF1zMg==

> <s_epik_cmdline>
J2VwaWtfcHl0aG9uJywgJy1waCcsICc3LjAnLCAnLXRuJywgJzgnLCAnLW1hJywgJzIwMCcsICctbWV0YWxfYmluZGluZycsICctaW1hZScsICc8aW5maWxlLm1hZT4nLCAnLW9tYWUnLCAnPG91dGZpbGUubWFlPic=

> <r_lp_tautomer_probability>
1

> <r_epik_Ionization_Penalty>
0.00269629

> <r_epik_Ionization_Penalty_Charging>
0.00233899

> <r_epik_Ionization_Penalty_Neutral>
0.000357304

> <r_epik_State_Penalty>
-0

> <r_epik_Charging_Adjusted_Penalty>
0.00233899

> <i_epik_Tot_Q>
1

> <i_epik_Tot_abs_Q>
1

> <r_epik_Metal_State_Penalty>
-0

> <b_epik_Metal_Only>
0

> <s_lp_Force_Field>
OPLS_2005

> <r_lp_Energy>
14.5557

> <b_lp_Chiralities_Consistent>
1

> <s_lp_Variant>
AV-unprocessed.smi:1833-2

> <Gold.Version>
5.8.1

> <Gold.Id.Protein>
6NUR|6NUR_protein|mol2

> <Gold.PLP.Fitness>
44.4314

> <Gold.PLP.PLP>
-30.4290

> <Gold.PLP.part.hbond>
-3.9352

> <Gold.PLP.part.metal>
0.0000

> <Gold.PLP.part.buried>
-4.0304

> <Gold.PLP.part.nonpolar>
-24.2748

> <Gold.PLP.part.repulsive>
0.2171

> <Gold.PLP.ligand.clash>
0.0000

> <Gold.PLP.ligand.torsion>
0.5081

> <Gold.PLP.Chemscore.Hbond>
4.0002

> <Gold.PLP.Chemscore.CHOScore>
0.9881

> <Gold.PLP.Chemscore.Metal>
0.0000

> <Gold.Chemscore.Hbonds>
donor molecule, donor type, donor heavy atom, donor atom, acceptor molecule, acceptor atom, score
      L1  H     3    42       P1  7948  2.00
      L1  H     8    32       P1  7948  0.76
      L1  H    11    33       P1  7948  0.23
      P1  H  7989  7998       L1    15  0.91
      L1  C    16    38       P1  8028  1.00

> <Gold.PLP.Chemscore.Internal.Correction>
0.0537

> <Gold.Rescore>
     Score         DG    S(hbond)    S(metal)    S(lipo)     H(rot)  DE(clash)    DE(int)     intcor
     17.77     -18.40       2.85        0.00      66.46       1.71       0.08       0.55       ----

> <Gold.Chemscore.Fitness>
17.7694

> <Gold.Chemscore.DG>
-18.3955

> <Gold.Chemscore.ZeroCoef>
-5.4800

> <Gold.Chemscore.Hbond>
2.8531

> <Gold.Chemscore.Metal>
0.0000

> <Gold.Chemscore.Lipo>
66.4604

> <Gold.Chemscore.Internal_Hbond>
0.0000

> <Gold.Chemscore.DEClash>
0.0811

> <Gold.Chemscore.DEInternal>
0.5451

> <Gold.Chemscore.Rot>
1.7147

> <Gold.Chemscore.Internal.Correction>
   9.000000E+99

> <Gold.Chemscore.Hbonds>
donor molecule, donor type, donor heavy atom, donor atom, acceptor molecule, acceptor atom, score
      L1  H     3    42       P1  7948  0.99
      L1  H     8    32       P1  7948  0.75
      L1  H    11    33       P1  7948  0.01
      P1  H  7989  7998       L1    15  0.20

> <Gold.Chemscore.Hbond.Weighted>
-9.5293

> <Gold.Chemscore.Metal.Weighted>
-0.0000

> <Gold.Chemscore.Lipo.Weighted>
-7.7759

> <Gold.Chemscore.Internal_Hbond.Weighted>
0.0000

> <Gold.Chemscore.DEClash.Weighted>
0.0811

> <Gold.Chemscore.DEInternal.Weighted>
0.5451

> <Gold.Chemscore.Rot.Weighted>
4.3896

> <Gold.Chemscore.Internal.Correction.Weighted>
   9.000000E+99

> <Gold.Protein.RotatedTorsions>
[ 6907 6896 6895 6894 ] final   64.39 input  -60.11 | X-H torsion
[ 7974 7965 7964 7962 ] final  -80.09 input  175.53 | X-H torsion
[ 8008 7997 7996 7995 ] final    1.77 input   59.86 | X-H torsion
[ 10167 10162 10161 10158 ] final  -82.69 input  -65.29 | X-H torsion
[ 10718 10713 10712 10709 ] final  -82.82 input   66.30 | X-H torsion
[ 10763 10752 10751 10750 ] final -129.62 input  -60.55 | X-H torsion
[ 11005 11000 10999 10996 ] final -175.34 input  -57.11 | X-H torsion

> <Gold.Protein.ActiveResidues>
 VAL166  LYS551  ARG553  GLY616  TRP617  ASP618  TYR619  PRO620  LYS621  CYS622 
 ASP623  PHE694  ASN695  SER759  ASP760  ASP761  ALA762  ILE779  LEU786  VAL792 
 PHE793  MET794  SER795  GLU796  ALA797  LYS798  CYS799  TRP800  GLU811  SER814 

> <Gold.Protein.RotatedAtoms>
  152.4328  134.5745  159.9930 H   0  0  0  0  0  0  0  0  0  0  0  0  # atno 6907 bound_to 6896
  151.5863  133.3366  159.3026 H   0  0  0  0  0  0  0  0  0  0  0  0  # atno 6908 bound_to 6896
  150.8223  134.7472  159.6847 H   0  0  0  0  0  0  0  0  0  0  0  0  # atno 6909 bound_to 6896
  145.5646  140.9476  143.1429 H   0  0  0  0  0  0  0  0  0  0  0  0  # atno 7974 bound_to 7965
  154.6837  140.2638  155.6882 H   0  0  0  0  0  0  0  0  0  0  0  0  # atno 8008 bound_to 7997
  156.2706  140.2805  156.1313 H   0  0  0  0  0  0  0  0  0  0  0  0  # atno 8009 bound_to 7997
  155.0995  140.0374  157.2683 H   0  0  0  0  0  0  0  0  0  0  0  0  # atno 8010 bound_to 7997
  140.4296  143.2553  151.8778 H   0  0  0  0  0  0  0  0  0  0  0  0  # atno 10167 bound_to 10162
  156.0027  130.4646  150.4163 H   0  0  0  0  0  0  0  0  0  0  0  0  # atno 10718 bound_to 10713
  154.8757  135.3889  154.3949 H   0  0  0  0  0  0  0  0  0  0  0  0  # atno 10763 bound_to 10752
  153.4681  135.7029  153.6015 H   0  0  0  0  0  0  0  0  0  0  0  0  # atno 10764 bound_to 10752
  153.4484  135.3839  155.2238 H   0  0  0  0  0  0  0  0  0  0  0  0  # atno 10765 bound_to 10752
  140.4644  134.6224  157.4856 H   0  0  0  0  0  0  0  0  0  0  0  0  # atno 11005 bound_to 11000
  144.7466  139.7303  143.7289 LP  0  0  0  0  0  0  0  0  0  0  0  0  # atno 17320 bound_to 7965
  146.1827  139.5027  142.9856 LP  0  0  0  0  0  0  0  0  0  0  0  0  # atno 17321 bound_to 7965
  139.4784  144.5349  151.8613 LP  0  0  0  0  0  0  0  0  0  0  0  0  # atno 17342 bound_to 10162
  140.4442  144.1944  150.5893 LP  0  0  0  0  0  0  0  0  0  0  0  0  # atno 17343 bound_to 10162
  157.2223  131.0485  151.2540 LP  0  0  0  0  0  0  0  0  0  0  0  0  # atno 17370 bound_to 10713
  157.3789  130.7221  149.6616 LP  0  0  0  0  0  0  0  0  0  0  0  0  # atno 17371 bound_to 10713
  139.9925  134.6963  155.9666 LP  0  0  0  0  0  0  0  0  0  0  0  0  # atno 17394 bound_to 11000
  141.1606  133.6539  156.4307 LP  0  0  0  0  0  0  0  0  0  0  0  0  # atno 17395 bound_to 11000

$$$$
