AV-unprocessed.smi:3346|AV-procd|sdf|12909|dock2
  -GOLD-   2272019323D 1   1.00000     0.00000
 Structure written by MMmdl.
 47 48  0  0  0  0  0  0  0  0  1 V2000
  153.4262  141.9371  160.0439 C   0  0  0  0  0  0  0  0  0  0  0  0
  152.4112  143.0866  160.1305 C   0  0  0  0  0  0  0  0  0  0  0  0
  152.0430  143.3631  161.5982 C   0  0  0  0  0  0  0  0  0  0  0  0
  151.1742  142.7872  159.2539 C   0  0  0  0  0  0  0  0  0  0  0  0
  151.3811  142.9736  157.7351 C   0  0  2  0  0  0  0  0  0  0  0  0
  151.6734  144.4477  157.4021 C   0  0  0  0  0  0  0  0  0  0  0  0
  150.1730  142.5450  157.0385 N   0  0  0  0  0  0  0  0  0  0  0  0
  150.4724  141.8352  155.8035 C   0  0  0  0  0  0  0  0  0  0  0  0
  149.2170  141.3464  155.0995 C   0  0  0  0  0  0  0  0  0  0  0  0
  148.2566  142.2883  154.6743 C   0  0  0  0  0  0  0  0  0  0  0  0
  147.1031  141.8396  154.0061 C   0  0  0  0  0  0  0  0  0  0  0  0
  146.9553  140.4577  153.7881 C   0  0  0  0  0  0  0  0  0  0  0  0
  147.8628  139.5445  154.1914 N   0  0  0  0  0  0  0  0  0  0  0  0
  148.9757  139.9721  154.8368 C   0  0  0  0  0  0  0  0  0  0  0  0
  149.8892  138.9951  155.2684 N   0  0  0  0  0  0  0  0  0  0  0  0
  149.3734  137.6390  155.1407 C   0  0  0  0  0  0  0  0  0  0  0  0
  150.3278  136.6501  155.8320 C   0  0  0  0  0  0  0  0  0  0  0  0
  151.6365  136.7863  155.2845 O   0  0  0  0  0  0  0  0  0  0  0  0
  152.1618  138.0980  155.4720 C   0  0  0  0  0  0  0  0  0  0  0  0
  151.2538  139.1222  154.7695 C   0  0  0  0  0  0  0  0  0  0  0  0
  153.0025  141.0046  160.4181 H   0  0  0  0  0  0  0  0  0  0  0  0
  154.3195  142.1558  160.6297 H   0  0  0  0  0  0  0  0  0  0  0  0
  153.7445  141.7693  159.0146 H   0  0  0  0  0  0  0  0  0  0  0  0
  152.9064  143.9738  159.7376 H   0  0  0  0  0  0  0  0  0  0  0  0
  151.5066  142.5221  162.0380 H   0  0  0  0  0  0  0  0  0  0  0  0
  151.4169  144.2491  161.6982 H   0  0  0  0  0  0  0  0  0  0  0  0
  152.9365  143.5365  162.1984 H   0  0  0  0  0  0  0  0  0  0  0  0
  150.8337  141.7674  159.4414 H   0  0  0  0  0  0  0  0  0  0  0  0
  150.3586  143.4317  159.5844 H   0  0  0  0  0  0  0  0  0  0  0  0
  152.2275  142.3675  157.4128 H   0  0  0  0  0  0  0  0  0  0  0  0
  152.5455  144.8034  157.9517 H   0  0  0  0  0  0  0  0  0  0  0  0
  150.8331  145.0904  157.6675 H   0  0  0  0  0  0  0  0  0  0  0  0
  151.8845  144.5946  156.3433 H   0  0  0  0  0  0  0  0  0  0  0  0
  149.5783  143.3403  156.8548 H   0  0  0  0  0  0  0  0  0  0  0  0
  151.0120  142.4889  155.1188 H   0  0  0  0  0  0  0  0  0  0  0  0
  151.1335  140.9933  156.0123 H   0  0  0  0  0  0  0  0  0  0  0  0
  148.4032  143.3430  154.8550 H   0  0  0  0  0  0  0  0  0  0  0  0
  146.3518  142.5375  153.6675 H   0  0  0  0  0  0  0  0  0  0  0  0
  146.0841  140.0748  153.2773 H   0  0  0  0  0  0  0  0  0  0  0  0
  148.3771  137.5693  155.5760 H   0  0  0  0  0  0  0  0  0  0  0  0
  149.2772  137.3874  154.0838 H   0  0  0  0  0  0  0  0  0  0  0  0
  150.3556  136.8262  156.9081 H   0  0  0  0  0  0  0  0  0  0  0  0
  149.9830  135.6267  155.6850 H   0  0  0  0  0  0  0  0  0  0  0  0
  152.2450  138.3181  156.5377 H   0  0  0  0  0  0  0  0  0  0  0  0
  153.1691  138.1412  155.0578 H   0  0  0  0  0  0  0  0  0  0  0  0
  151.2738  138.9519  153.6921 H   0  0  0  0  0  0  0  0  0  0  0  0
  151.6196  140.1340  154.9466 H   0  0  0  0  0  0  0  0  0  0  0  0
  1  2  1  0  0  0  0
  1 21  1  0  0  0  0
  1 22  1  0  0  0  0
  1 23  1  0  0  0  0
  2  3  1  0  0  0  0
  2  4  1  0  0  0  0
  2 24  1  0  0  0  0
  3 25  1  0  0  0  0
  3 26  1  0  0  0  0
  3 27  1  0  0  0  0
  4  5  1  0  0  0  0
  4 28  1  0  0  0  0
  4 29  1  0  0  0  0
  5  6  1  0  0  0  0
  5  7  1  0  0  0  0
  5 30  1  0  0  0  0
  6 31  1  0  0  0  0
  6 32  1  0  0  0  0
  6 33  1  0  0  0  0
  7  8  1  0  0  0  0
  7 34  1  0  0  0  0
  8  9  1  0  0  0  0
  8 35  1  0  0  0  0
  8 36  1  0  0  0  0
  9 14  1  0  0  0  0
  9 10  2  0  0  0  0
 10 11  1  0  0  0  0
 10 37  1  0  0  0  0
 11 12  2  0  0  0  0
 11 38  1  0  0  0  0
 12 13  1  0  0  0  0
 12 39  1  0  0  0  0
 13 14  2  0  0  0  0
 14 15  1  0  0  0  0
 15 20  1  0  0  0  0
 15 16  1  0  0  0  0
 16 17  1  0  0  0  0
 16 40  1  0  0  0  0
 16 41  1  0  0  0  0
 17 18  1  0  0  0  0
 17 42  1  0  0  0  0
 17 43  1  0  0  0  0
 18 19  1  0  0  0  0
 19 20  1  0  0  0  0
 19 44  1  0  0  0  0
 19 45  1  0  0  0  0
 20 46  1  0  0  0  0
 20 47  1  0  0  0  0
M  END
> <s_m_source_file>
AV-unprocessed.smi

> <i_m_source_file_index>
3346

> <i_lp_mmshare_version>
43012

> <i_f3d_flags>
0

> <s_epik_input>
W0NIM11bQ0hdKFtDSDNdKVtDSDJdW0NASF0oW0NIM10pW05IXVtDSDJdYzFbY0hdW2NIXVtjSF1uYzFOMltDSDJdW0NIMl1PW0NIMl1bQ0gyXTI=

> <s_epik_cmdline>
J2VwaWtfcHl0aG9uJywgJy1waCcsICc3LjAnLCAnLXRuJywgJzgnLCAnLW1hJywgJzIwMCcsICctbWV0YWxfYmluZGluZycsICctaW1hZScsICc8aW5maWxlLm1hZT4nLCAnLW9tYWUnLCAnPG91dGZpbGUubWFlPic=

> <r_lp_tautomer_probability>
1

> <r_epik_Ionization_Penalty>
2.09752

> <r_epik_Ionization_Penalty_Charging>
0

> <r_epik_Ionization_Penalty_Neutral>
2.09752

> <r_epik_State_Penalty>
2.22589

> <r_epik_Charging_Adjusted_Penalty>
2.22589

> <i_epik_Tot_Q>
0

> <i_epik_Tot_abs_Q>
0

> <r_epik_Metal_State_Penalty>
2.21996

> <b_epik_Metal_Only>
0

> <s_lp_Force_Field>
OPLS_2005

> <r_lp_Energy>
25.807

> <b_lp_Chiralities_Consistent>
1

> <s_lp_Variant>
AV-unprocessed.smi:3346-3

> <Gold.Version>
5.8.1

> <Gold.Id.Protein>
6NUR|6NUR_protein|mol2

> <Gold.PLP.Fitness>
49.1743

> <Gold.PLP.PLP>
-41.4744

> <Gold.PLP.part.hbond>
-2.0000

> <Gold.PLP.part.metal>
0.0000

> <Gold.PLP.part.buried>
-2.0117

> <Gold.PLP.part.nonpolar>
-38.2745

> <Gold.PLP.part.repulsive>
0.3293

> <Gold.PLP.ligand.clash>
0.0000

> <Gold.PLP.ligand.torsion>
0.8052

> <Gold.PLP.Chemscore.Hbond>
2.0000

> <Gold.PLP.Chemscore.CHOScore>
0.9995

> <Gold.PLP.Chemscore.Metal>
0.0000

> <Gold.Chemscore.Hbonds>
donor molecule, donor type, donor heavy atom, donor atom, acceptor molecule, acceptor atom, score
      L1  H     7    34       P1  8028  1.00
      P1  H 10752 10764       L1    18  1.00
      L1  C    12    39       P1 10175  0.92

> <Gold.PLP.Chemscore.Internal.Correction>
0.3116

> <Gold.Rescore>
     Score         DG    S(hbond)    S(metal)    S(lipo)     H(rot)  DE(clash)    DE(int)     intcor
     20.29     -22.33       1.84        0.00     125.58       1.55       0.53       1.51       ----

> <Gold.Chemscore.Fitness>
20.2859

> <Gold.Chemscore.DG>
-22.3327

> <Gold.Chemscore.ZeroCoef>
-5.4800

> <Gold.Chemscore.Hbond>
1.8359

> <Gold.Chemscore.Metal>
0.0000

> <Gold.Chemscore.Lipo>
125.5762

> <Gold.Chemscore.Internal_Hbond>
0.0000

> <Gold.Chemscore.DEClash>
0.5342

> <Gold.Chemscore.DEInternal>
1.5126

> <Gold.Chemscore.Rot>
1.5514

> <Gold.Chemscore.Internal.Correction>
   9.000000E+99

> <Gold.Chemscore.Hbonds>
donor molecule, donor type, donor heavy atom, donor atom, acceptor molecule, acceptor atom, score
      L1  H     7    34       P1  8028  0.94
      P1  H 10752 10764       L1    18  0.76

> <Gold.Chemscore.Hbond.Weighted>
-6.1319

> <Gold.Chemscore.Metal.Weighted>
-0.0000

> <Gold.Chemscore.Lipo.Weighted>
-14.6924

> <Gold.Chemscore.Internal_Hbond.Weighted>
0.0000

> <Gold.Chemscore.DEClash.Weighted>
0.5342

> <Gold.Chemscore.DEInternal.Weighted>
1.5126

> <Gold.Chemscore.Rot.Weighted>
3.9715

> <Gold.Chemscore.Internal.Correction.Weighted>
   9.000000E+99

> <Gold.Protein.RotatedTorsions>
[ 6907 6896 6895 6894 ] final  105.36 input  -60.11 | X-H torsion
[ 7974 7965 7964 7962 ] final  -16.84 input  175.53 | X-H torsion
[ 8008 7997 7996 7995 ] final -179.36 input   59.86 | X-H torsion
[ 10167 10162 10161 10158 ] final   72.96 input  -65.29 | X-H torsion
[ 10718 10713 10712 10709 ] final   48.07 input   66.30 | X-H torsion
[ 10763 10752 10751 10750 ] final  -68.01 input  -60.55 | X-H torsion
[ 11005 11000 10999 10996 ] final  -52.90 input  -57.11 | X-H torsion

> <Gold.Protein.ActiveResidues>
 VAL166  LYS551  ARG553  GLY616  TRP617  ASP618  TYR619  PRO620  LYS621  CYS622 
 ASP623  PHE694  ASN695  SER759  ASP760  ASP761  ALA762  ILE779  LEU786  VAL792 
 PHE793  MET794  SER795  GLU796  ALA797  LYS798  CYS799  TRP800  GLU811  SER814 

> <Gold.Protein.RotatedAtoms>
  152.5233  133.9540  159.7685 H   0  0  0  0  0  0  0  0  0  0  0  0  # atno 6907 bound_to 6896
  150.9844  133.6204  159.2724 H   0  0  0  0  0  0  0  0  0  0  0  0  # atno 6908 bound_to 6896
  151.3370  135.0861  159.9411 H   0  0  0  0  0  0  0  0  0  0  0  0  # atno 6909 bound_to 6896
  146.1969  140.3693  142.8437 H   0  0  0  0  0  0  0  0  0  0  0  0  # atno 7974 bound_to 7965
  156.0295  140.1279  157.0273 H   0  0  0  0  0  0  0  0  0  0  0  0  # atno 8008 bound_to 7997
  154.4344  140.1052  156.6150 H   0  0  0  0  0  0  0  0  0  0  0  0  # atno 8009 bound_to 7997
  155.5827  140.3468  155.4547 H   0  0  0  0  0  0  0  0  0  0  0  0  # atno 8010 bound_to 7997
  140.0297  144.5475  150.7517 H   0  0  0  0  0  0  0  0  0  0  0  0  # atno 10167 bound_to 10162
  157.4650  130.8219  149.7926 H   0  0  0  0  0  0  0  0  0  0  0  0  # atno 10718 bound_to 10713
  154.3827  135.6070  153.5800 H   0  0  0  0  0  0  0  0  0  0  0  0  # atno 10763 bound_to 10752
  152.9788  135.5865  154.4390 H   0  0  0  0  0  0  0  0  0  0  0  0  # atno 10764 bound_to 10752
  154.4162  135.2845  155.1983 H   0  0  0  0  0  0  0  0  0  0  0  0  # atno 10765 bound_to 10752
  141.0948  133.6626  156.4093 H   0  0  0  0  0  0  0  0  0  0  0  0  # atno 11005 bound_to 11000
  144.8599  140.7125  143.6114 LP  0  0  0  0  0  0  0  0  0  0  0  0  # atno 17320 bound_to 7965
  145.3614  139.1681  143.4381 LP  0  0  0  0  0  0  0  0  0  0  0  0  # atno 17321 bound_to 7965
  140.7307  143.2686  151.3961 LP  0  0  0  0  0  0  0  0  0  0  0  0  # atno 17342 bound_to 10162
  139.6084  144.1148  152.2273 LP  0  0  0  0  0  0  0  0  0  0  0  0  # atno 17343 bound_to 10162
  156.0046  130.3862  150.2479 LP  0  0  0  0  0  0  0  0  0  0  0  0  # atno 17370 bound_to 10713
  157.0658  131.0103  151.3207 LP  0  0  0  0  0  0  0  0  0  0  0  0  # atno 17371 bound_to 10713
  140.5165  134.6345  157.5303 LP  0  0  0  0  0  0  0  0  0  0  0  0  # atno 17394 bound_to 11000
  139.9782  134.7180  155.9908 LP  0  0  0  0  0  0  0  0  0  0  0  0  # atno 17395 bound_to 11000

$$$$
