AV-unprocessed.smi:2695|AV-procd|sdf|10410|dock4
  -GOLD-   2272014443D 1   1.00000     0.00000
 Structure written by MMmdl.
 42 43  0  0  0  0  0  0  0  0  1 V2000
  149.8791  135.8162  155.1564 C   0  0  0  0  0  0  0  0  0  0  0  0
  150.4325  137.1753  155.5678 C   0  0  0  0  0  0  0  0  0  0  0  0
  151.4789  137.7231  154.9232 C   0  0  0  0  0  0  0  0  0  0  0  0
  152.0028  138.9945  155.3577 C   0  0  0  0  0  0  0  0  0  0  0  0
  153.0377  139.5485  154.7139 O   0  0  0  0  0  0  0  0  0  0  0  0
  151.4512  139.6145  156.4170 C   0  0  0  0  0  0  0  0  0  0  0  0
  150.3178  139.0407  157.1464 C   0  0  0  0  0  0  0  0  0  0  0  0
  149.8323  139.6105  158.1248 O   0  0  0  0  0  0  0  0  0  0  0  0
  149.8342  137.8460  156.6749 N   0  0  0  0  0  0  0  0  0  0  0  0
  148.6582  137.2481  157.3493 C   0  0  0  0  0  0  0  0  0  0  0  0
  149.0106  136.4521  158.6156 C   0  0  0  0  0  0  0  0  0  0  0  0
  150.1247  136.5427  159.1328 O   0  0  0  0  0  0  0  0  0  0  0  0
  148.0345  135.6680  159.0974 N   0  0  0  0  0  0  0  0  0  0  0  0
  148.1235  134.8064  160.2782 C   0  0  1  0  0  0  0  0  0  0  0  0
  147.2166  135.3755  161.3993 C   0  0  0  0  0  0  0  0  0  0  0  0
  145.8919  135.9666  160.8991 C   0  0  0  0  0  0  0  0  0  0  0  0
  145.3866  136.8284  162.0567 C   0  0  0  0  0  0  0  0  0  0  0  0
  146.6401  137.3060  162.8009 C   0  0  0  0  0  0  0  0  0  0  0  0
  147.8238  136.5371  162.1984 C   0  0  0  0  0  0  0  0  0  0  0  0
  147.7757  133.3582  159.8641 C   0  0  0  0  0  0  0  0  0  0  0  0
  147.8091  132.5620  160.9336 F   0  0  0  0  0  0  0  0  0  0  0  0
  146.5504  133.2889  159.3454 F   0  0  0  0  0  0  0  0  0  0  0  0
  148.6517  132.9040  158.9669 F   0  0  0  0  0  0  0  0  0  0  0  0
  150.5701  135.3083  154.4827 H   0  0  0  0  0  0  0  0  0  0  0  0
  148.9311  135.9311  154.6304 H   0  0  0  0  0  0  0  0  0  0  0  0
  149.7348  135.1574  156.0122 H   0  0  0  0  0  0  0  0  0  0  0  0
  151.9375  137.2091  154.0906 H   0  0  0  0  0  0  0  0  0  0  0  0
  152.6904  140.0365  153.9832 H   0  0  0  0  0  0  0  0  0  0  0  0
  151.8487  140.5647  156.7434 H   0  0  0  0  0  0  0  0  0  0  0  0
  147.9395  138.0211  157.6277 H   0  0  0  0  0  0  0  0  0  0  0  0
  148.0871  136.6119  156.6745 H   0  0  0  0  0  0  0  0  0  0  0  0
  147.1549  135.6566  158.6018 H   0  0  0  0  0  0  0  0  0  0  0  0
  149.1495  134.7998  160.6505 H   0  0  0  0  0  0  0  0  0  0  0  0
  146.9764  134.5743  162.1003 H   0  0  0  0  0  0  0  0  0  0  0  0
  146.0715  136.5969  160.0268 H   0  0  0  0  0  0  0  0  0  0  0  0
  145.1694  135.2021  160.6112 H   0  0  0  0  0  0  0  0  0  0  0  0
  144.7688  137.6573  161.7098 H   0  0  0  0  0  0  0  0  0  0  0  0
  144.7744  136.2218  162.7255 H   0  0  0  0  0  0  0  0  0  0  0  0
  146.7834  138.3811  162.6874 H   0  0  0  0  0  0  0  0  0  0  0  0
  146.5452  137.1016  163.8679 H   0  0  0  0  0  0  0  0  0  0  0  0
  148.5153  136.1938  162.9684 H   0  0  0  0  0  0  0  0  0  0  0  0
  148.3780  137.1985  161.5308 H   0  0  0  0  0  0  0  0  0  0  0  0
  1  2  1  0  0  0  0
  1 24  1  0  0  0  0
  1 25  1  0  0  0  0
  1 26  1  0  0  0  0
  2  9  1  0  0  0  0
  2  3  2  0  0  0  0
  3  4  1  0  0  0  0
  3 27  1  0  0  0  0
  4  5  1  0  0  0  0
  4  6  2  0  0  0  0
  5 28  1  0  0  0  0
  6  7  1  0  0  0  0
  6 29  1  0  0  0  0
  7  8  2  0  0  0  0
  7  9  1  0  0  0  0
  9 10  1  0  0  0  0
 10 11  1  0  0  0  0
 10 30  1  0  0  0  0
 10 31  1  0  0  0  0
 11 12  2  0  0  0  0
 11 13  1  0  0  0  0
 13 14  1  0  0  0  0
 13 32  1  0  0  0  0
 14 15  1  0  0  0  0
 14 20  1  0  0  0  0
 14 33  1  0  0  0  0
 15 19  1  0  0  0  0
 15 16  1  0  0  0  0
 15 34  1  0  0  0  0
 16 17  1  0  0  0  0
 16 35  1  0  0  0  0
 16 36  1  0  0  0  0
 17 18  1  0  0  0  0
 17 37  1  0  0  0  0
 17 38  1  0  0  0  0
 18 19  1  0  0  0  0
 18 39  1  0  0  0  0
 18 40  1  0  0  0  0
 19 41  1  0  0  0  0
 19 42  1  0  0  0  0
 20 21  1  0  0  0  0
 20 22  1  0  0  0  0
 20 23  1  0  0  0  0
M  END
> <s_m_source_file>
AV-unprocessed.smi

> <i_m_source_file_index>
2695

> <i_lp_mmshare_version>
43012

> <i_f3d_flags>
0

> <s_epik_input>
W0NIM11jMVtjSF1jKFtPSF0pW2NIXWMoPU8pbjFbQ0gyXUMoPU8pW05IXVtDQEBIXShDKEYpKEYpRilbQ0hdMltDSDJdW0NIMl1bQ0gyXVtDSDJdMg==

> <s_epik_cmdline>
J2VwaWtfcHl0aG9uJywgJy1waCcsICc3LjAnLCAnLXRuJywgJzgnLCAnLW1hJywgJzIwMCcsICctbWV0YWxfYmluZGluZycsICctaW1hZScsICc8aW5maWxlLm1hZT4nLCAnLW9tYWUnLCAnPG91dGZpbGUubWFlPic=

> <r_lp_tautomer_probability>
0.999984

> <r_epik_Ionization_Penalty>
0.843628

> <r_epik_Ionization_Penalty_Charging>
1.18449e-07

> <r_epik_Ionization_Penalty_Neutral>
0.843628

> <r_epik_State_Penalty>
0.886913

> <r_epik_Charging_Adjusted_Penalty>
0.886913

> <i_epik_Tot_Q>
0

> <i_epik_Tot_abs_Q>
0

> <r_epik_Metal_State_Penalty>
0.886913

> <b_epik_Metal_Only>
0

> <s_lp_Force_Field>
OPLS_2005

> <r_lp_Energy>
35.4527

> <b_lp_Chiralities_Consistent>
1

> <s_lp_Variant>
AV-unprocessed.smi:2695-4

> <Gold.Version>
5.8.1

> <Gold.Id.Protein>
6NUR|6NUR_protein|mol2

> <Gold.PLP.Fitness>
37.0137

> <Gold.PLP.PLP>
-32.6687

> <Gold.PLP.part.hbond>
-3.0000

> <Gold.PLP.part.metal>
0.0000

> <Gold.PLP.part.buried>
-2.7887

> <Gold.PLP.part.nonpolar>
-26.7290

> <Gold.PLP.part.repulsive>
0.0873

> <Gold.PLP.ligand.clash>
0.0000

> <Gold.PLP.ligand.torsion>
0.9921

> <Gold.PLP.Chemscore.Hbond>
2.0000

> <Gold.PLP.Chemscore.CHOScore>
0.0000

> <Gold.PLP.Chemscore.Metal>
0.0000

> <Gold.Chemscore.Hbonds>
donor molecule, donor type, donor heavy atom, donor atom, acceptor molecule, acceptor atom, score
      P1  H  6896  6909       L1    12  1.00
      P1  H  7997  8008       L1     5  1.00

> <Gold.PLP.Chemscore.Internal.Correction>
0.3291

> <Gold.Rescore>
     Score         DG    S(hbond)    S(metal)    S(lipo)     H(rot)  DE(clash)    DE(int)     intcor
     14.29     -15.21       1.98        0.00      78.33       2.36       0.09       0.83       ----

> <Gold.Chemscore.Fitness>
14.2887

> <Gold.Chemscore.DG>
-15.2078

> <Gold.Chemscore.ZeroCoef>
-5.4800

> <Gold.Chemscore.Hbond>
1.9772

> <Gold.Chemscore.Metal>
0.0000

> <Gold.Chemscore.Lipo>
78.3349

> <Gold.Chemscore.Internal_Hbond>
0.0000

> <Gold.Chemscore.DEClash>
0.0853

> <Gold.Chemscore.DEInternal>
0.8338

> <Gold.Chemscore.Rot>
2.3599

> <Gold.Chemscore.Internal.Correction>
   9.000000E+99

> <Gold.Chemscore.Hbonds>
donor molecule, donor type, donor heavy atom, donor atom, acceptor molecule, acceptor atom, score
      P1  H  6896  6909       L1    12  0.98
      P1  H  7997  8008       L1     5  0.86

> <Gold.Chemscore.Hbond.Weighted>
-6.6039

> <Gold.Chemscore.Metal.Weighted>
-0.0000

> <Gold.Chemscore.Lipo.Weighted>
-9.1652

> <Gold.Chemscore.Internal_Hbond.Weighted>
0.0000

> <Gold.Chemscore.DEClash.Weighted>
0.0853

> <Gold.Chemscore.DEInternal.Weighted>
0.8338

> <Gold.Chemscore.Rot.Weighted>
6.0413

> <Gold.Chemscore.Internal.Correction.Weighted>
   9.000000E+99

> <Gold.Protein.RotatedTorsions>
[ 6907 6896 6895 6894 ] final   82.15 input  -60.11 | X-H torsion
[ 7974 7965 7964 7962 ] final -148.40 input  175.53 | X-H torsion
[ 8008 7997 7996 7995 ] final    8.69 input   59.86 | X-H torsion
[ 10167 10162 10161 10158 ] final   79.88 input  -65.29 | X-H torsion
[ 10718 10713 10712 10709 ] final   26.67 input   66.30 | X-H torsion
[ 10763 10752 10751 10750 ] final   26.01 input  -60.55 | X-H torsion
[ 11005 11000 10999 10996 ] final   -5.64 input  -57.11 | X-H torsion

> <Gold.Protein.ActiveResidues>
 VAL166  LYS551  ARG553  GLY616  TRP617  ASP618  TYR619  PRO620  LYS621  CYS622 
 ASP623  PHE694  ASN695  SER759  ASP760  ASP761  ALA762  ILE779  LEU786  VAL792 
 PHE793  MET794  SER795  GLU796  ALA797  LYS798  CYS799  TRP800  GLU811  SER814 

> <Gold.Protein.RotatedAtoms>
  152.5290  134.3094  159.9107 H   0  0  0  0  0  0  0  0  0  0  0  0  # atno 6907 bound_to 6896
  151.3044  133.4102  159.2650 H   0  0  0  0  0  0  0  0  0  0  0  0  # atno 6908 bound_to 6896
  151.0092  134.9400  159.8054 H   0  0  0  0  0  0  0  0  0  0  0  0  # atno 6909 bound_to 6896
  144.8032  140.5201  143.5693 H   0  0  0  0  0  0  0  0  0  0  0  0  # atno 7974 bound_to 7965
  154.7702  140.2800  155.6144 H   0  0  0  0  0  0  0  0  0  0  0  0  # atno 8008 bound_to 7997
  156.2932  140.2643  156.2430 H   0  0  0  0  0  0  0  0  0  0  0  0  # atno 8009 bound_to 7997
  154.9909  140.0373  157.2309 H   0  0  0  0  0  0  0  0  0  0  0  0  # atno 8010 bound_to 7997
  139.9557  144.5996  150.8119 H   0  0  0  0  0  0  0  0  0  0  0  0  # atno 10167 bound_to 10162
  157.2099  130.6929  149.6224 H   0  0  0  0  0  0  0  0  0  0  0  0  # atno 10718 bound_to 10713
  153.0652  135.6570  154.0371 H   0  0  0  0  0  0  0  0  0  0  0  0  # atno 10763 bound_to 10752
  154.0029  135.2935  155.3402 H   0  0  0  0  0  0  0  0  0  0  0  0  # atno 10764 bound_to 10752
  154.7007  135.5246  153.8591 H   0  0  0  0  0  0  0  0  0  0  0  0  # atno 10765 bound_to 10752
  140.6934  133.9052  155.8633 H   0  0  0  0  0  0  0  0  0  0  0  0  # atno 11005 bound_to 11000
  145.5502  139.1476  143.3398 LP  0  0  0  0  0  0  0  0  0  0  0  0  # atno 17320 bound_to 7965
  146.2318  140.5641  142.8972 LP  0  0  0  0  0  0  0  0  0  0  0  0  # atno 17321 bound_to 7965
  140.7569  143.3075  151.2925 LP  0  0  0  0  0  0  0  0  0  0  0  0  # atno 17342 bound_to 10162
  139.6593  144.0218  152.2681 LP  0  0  0  0  0  0  0  0  0  0  0  0  # atno 17343 bound_to 10162
  155.9691  130.4554  150.5888 LP  0  0  0  0  0  0  0  0  0  0  0  0  # atno 17370 bound_to 10713
  157.3682  131.0761  151.1580 LP  0  0  0  0  0  0  0  0  0  0  0  0  # atno 17371 bound_to 10713
  141.0223  134.0872  157.4107 LP  0  0  0  0  0  0  0  0  0  0  0  0  # atno 17394 bound_to 11000
  139.8917  135.0120  156.6805 LP  0  0  0  0  0  0  0  0  0  0  0  0  # atno 17395 bound_to 11000

$$$$
