AV-unprocessed.smi:709|AV-procd|sdf|3459|dock10
  -GOLD-   22720 0443D 1   1.00000     0.00000
 Structure written by MMmdl.
 48 50  0  0  0  0  0  0  0  0  1 V2000
  152.1710  143.2644  158.6758 C   0  0  0  0  0  0  0  0  0  0  0  0
  151.9434  141.7976  158.3041 C   0  0  0  0  0  0  0  0  0  0  0  0
  150.7221  141.6921  157.5928 O   0  0  0  0  0  0  0  0  0  0  0  0
  150.8734  141.0794  156.3226 C   0  0  1  0  0  0  0  0  0  0  0  0
  151.2474  139.5939  156.3722 C   0  0  0  0  0  0  0  0  0  0  0  0
  150.3341  139.4421  155.1550 C   0  0  1  0  0  0  0  0  0  0  0  0
  149.5998  138.1817  155.1502 N   0  0  0  0  0  0  0  0  0  0  0  0
  150.1696  136.9757  155.0277 C   0  0  0  0  0  0  0  0  0  0  0  0
  151.3864  136.8113  154.9420 O   0  0  0  0  0  0  0  0  0  0  0  0
  149.2400  136.0032  155.0183 N   0  0  0  0  0  0  0  0  0  0  0  0
  149.4065  134.6168  154.8571 C   0  0  0  0  0  0  0  0  0  0  0  0
  148.6201  133.8335  154.0764 C   0  0  0  0  0  0  0  0  0  0  0  0
  148.8541  132.4129  153.9763 C   0  0  0  0  0  0  0  0  0  0  0  0
  149.8608  131.8818  154.6838 C   0  0  0  0  0  0  0  0  0  0  0  0
  150.6794  132.6716  155.5092 N   0  0  0  0  0  0  0  0  0  0  0  0
  151.7524  131.9974  156.2446 C   0  0  0  0  0  0  0  0  0  0  0  0
  150.5073  134.0210  155.6391 C   0  0  0  0  0  0  0  0  0  0  0  0
  151.2399  134.6897  156.3726 O   0  0  0  0  0  0  0  0  0  0  0  0
  149.5313  140.6689  155.6697 C   0  0  0  0  0  0  0  0  0  0  0  0
  148.9351  141.6018  154.6205 C   0  0  0  0  0  0  0  0  0  0  0  0
  147.4575  141.2295  154.4557 C   0  0  0  0  0  0  0  0  0  0  0  0
  147.0713  140.4505  155.7163 C   0  0  0  0  0  0  0  0  0  0  0  0
  148.3261  140.4297  156.5922 C   0  0  0  0  0  0  0  0  0  0  0  0
  153.1075  143.3879  159.2197 H   0  0  0  0  0  0  0  0  0  0  0  0
  151.3646  143.6367  159.3078 H   0  0  0  0  0  0  0  0  0  0  0  0
  152.2157  143.8915  157.7851 H   0  0  0  0  0  0  0  0  0  0  0  0
  152.7690  141.4372  157.6887 H   0  0  0  0  0  0  0  0  0  0  0  0
  151.9119  141.1858  159.2067 H   0  0  0  0  0  0  0  0  0  0  0  0
  151.5029  141.6544  155.6388 H   0  0  0  0  0  0  0  0  0  0  0  0
  152.3002  139.3813  156.1848 H   0  0  0  0  0  0  0  0  0  0  0  0
  150.8817  139.0882  157.2681 H   0  0  0  0  0  0  0  0  0  0  0  0
  150.8732  139.6474  154.2264 H   0  0  0  0  0  0  0  0  0  0  0  0
  148.5944  138.2346  155.2223 H   0  0  0  0  0  0  0  0  0  0  0  0
  148.2858  136.2944  155.1746 H   0  0  0  0  0  0  0  0  0  0  0  0
  147.7885  134.2362  153.5210 H   0  0  0  0  0  0  0  0  0  0  0  0
  148.2339  131.7936  153.3452 H   0  0  0  0  0  0  0  0  0  0  0  0
  150.1004  130.8286  154.6614 H   0  0  0  0  0  0  0  0  0  0  0  0
  151.6328  132.1439  157.3194 H   0  0  0  0  0  0  0  0  0  0  0  0
  152.7251  132.3962  155.9528 H   0  0  0  0  0  0  0  0  0  0  0  0
  151.7753  130.9219  156.0651 H   0  0  0  0  0  0  0  0  0  0  0  0
  149.0114  142.6353  154.9608 H   0  0  0  0  0  0  0  0  0  0  0  0
  149.4629  141.5462  153.6679 H   0  0  0  0  0  0  0  0  0  0  0  0
  146.8391  142.1176  154.3216 H   0  0  0  0  0  0  0  0  0  0  0  0
  147.3198  140.6011  153.5751 H   0  0  0  0  0  0  0  0  0  0  0  0
  146.2277  140.9053  156.2366 H   0  0  0  0  0  0  0  0  0  0  0  0
  146.7794  139.4343  155.4495 H   0  0  0  0  0  0  0  0  0  0  0  0
  148.3990  139.5053  157.1654 H   0  0  0  0  0  0  0  0  0  0  0  0
  148.2484  141.2363  157.3221 H   0  0  0  0  0  0  0  0  0  0  0  0
  1  2  1  0  0  0  0
  1 24  1  0  0  0  0
  1 25  1  0  0  0  0
  1 26  1  0  0  0  0
  2  3  1  0  0  0  0
  2 27  1  0  0  0  0
  2 28  1  0  0  0  0
  3  4  1  0  0  0  0
  4 19  1  0  0  0  0
  4  5  1  0  0  0  0
  4 29  1  0  0  0  0
  5  6  1  0  0  0  0
  5 30  1  0  0  0  0
  5 31  1  0  0  0  0
  6  7  1  0  0  0  0
  6 19  1  0  0  0  0
  6 32  1  0  0  0  0
  7  8  1  0  0  0  0
  7 33  1  0  0  0  0
  8  9  2  0  0  0  0
  8 10  1  0  0  0  0
 10 11  1  0  0  0  0
 10 34  1  0  0  0  0
 11 17  1  0  0  0  0
 11 12  2  0  0  0  0
 12 13  1  0  0  0  0
 12 35  1  0  0  0  0
 13 14  2  0  0  0  0
 13 36  1  0  0  0  0
 14 15  1  0  0  0  0
 14 37  1  0  0  0  0
 15 16  1  0  0  0  0
 15 17  1  0  0  0  0
 16 38  1  0  0  0  0
 16 39  1  0  0  0  0
 16 40  1  0  0  0  0
 17 18  2  0  0  0  0
 19 23  1  0  0  0  0
 19 20  1  0  0  0  0
 20 21  1  0  0  0  0
 20 41  1  0  0  0  0
 20 42  1  0  0  0  0
 21 22  1  0  0  0  0
 21 43  1  0  0  0  0
 21 44  1  0  0  0  0
 22 23  1  0  0  0  0
 22 45  1  0  0  0  0
 22 46  1  0  0  0  0
 23 47  1  0  0  0  0
 23 48  1  0  0  0  0
M  END
> <s_m_source_file>
AV-unprocessed.smi

> <i_m_source_file_index>
709

> <i_lp_mmshare_version>
43012

> <i_f3d_flags>
0

> <s_epik_input>
W0NIMl0xW0NIMl1bQ0gyXVtDSDJdQzEyW0NASF0oT1tDSDJdW0NIM10pW0NIMl1bQ0BIXTJbTkhdQyg9TylbTkhdYzNbY0hdW2NIXVtjSF1uKFtDSDNdKWMzPU8=

> <s_epik_cmdline>
J2VwaWtfcHl0aG9uJywgJy1waCcsICc3LjAnLCAnLXRuJywgJzgnLCAnLW1hJywgJzIwMCcsICctbWV0YWxfYmluZGluZycsICctaW1hZScsICc8aW5maWxlLm1hZT4nLCAnLW9tYWUnLCAnPG91dGZpbGUubWFlPic=

> <r_lp_tautomer_probability>
1

> <r_epik_Ionization_Penalty>
2.50859e-05

> <r_epik_Ionization_Penalty_Charging>
5.10493e-06

> <r_epik_Ionization_Penalty_Neutral>
1.9981e-05

> <r_epik_State_Penalty>
-0

> <r_epik_Charging_Adjusted_Penalty>
5.10493e-06

> <i_epik_Tot_Q>
0

> <i_epik_Tot_abs_Q>
0

> <r_epik_Metal_State_Penalty>
-0

> <b_epik_Metal_Only>
0

> <s_lp_Force_Field>
OPLS_2005

> <r_lp_Energy>
49.4881

> <b_lp_Chiralities_Consistent>
1

> <s_lp_Variant>
AV-unprocessed.smi:709-2

> <Gold.Version>
5.8.1

> <Gold.Id.Protein>
6NUR|6NUR_protein|mol2

> <Gold.PLP.Fitness>
40.4808

> <Gold.PLP.PLP>
-38.9470

> <Gold.PLP.part.hbond>
-2.0000

> <Gold.PLP.part.metal>
0.0000

> <Gold.PLP.part.buried>
-2.4900

> <Gold.PLP.part.nonpolar>
-35.1950

> <Gold.PLP.part.repulsive>
0.2211

> <Gold.PLP.ligand.clash>
0.0000

> <Gold.PLP.ligand.torsion>
0.9030

> <Gold.PLP.Chemscore.Hbond>
1.0000

> <Gold.PLP.Chemscore.CHOScore>
0.0000

> <Gold.PLP.Chemscore.Metal>
0.0000

> <Gold.Chemscore.Hbonds>
donor molecule, donor type, donor heavy atom, donor atom, acceptor molecule, acceptor atom, score
      P1  H 10752 10765       L1     9  1.00

> <Gold.PLP.Chemscore.Internal.Correction>
0.3397

> <Gold.Rescore>
     Score         DG    S(hbond)    S(metal)    S(lipo)     H(rot)  DE(clash)    DE(int)     intcor
     12.45     -16.22       0.98        0.00      93.50       1.36       0.26       3.50       ----

> <Gold.Chemscore.Fitness>
12.4542

> <Gold.Chemscore.DG>
-16.2201

> <Gold.Chemscore.ZeroCoef>
-5.4800

> <Gold.Chemscore.Hbond>
0.9826

> <Gold.Chemscore.Metal>
0.0000

> <Gold.Chemscore.Lipo>
93.5008

> <Gold.Chemscore.Internal_Hbond>
0.0000

> <Gold.Chemscore.DEClash>
0.2626

> <Gold.Chemscore.DEInternal>
3.5033

> <Gold.Chemscore.Rot>
1.3599

> <Gold.Chemscore.Internal.Correction>
   9.000000E+99

> <Gold.Chemscore.Hbonds>
donor molecule, donor type, donor heavy atom, donor atom, acceptor molecule, acceptor atom, score
      P1  H 10752 10765       L1     9  0.97

> <Gold.Chemscore.Hbond.Weighted>
-3.2818

> <Gold.Chemscore.Metal.Weighted>
-0.0000

> <Gold.Chemscore.Lipo.Weighted>
-10.9396

> <Gold.Chemscore.Internal_Hbond.Weighted>
0.0000

> <Gold.Chemscore.DEClash.Weighted>
0.2626

> <Gold.Chemscore.DEInternal.Weighted>
3.5033

> <Gold.Chemscore.Rot.Weighted>
3.4813

> <Gold.Chemscore.Internal.Correction.Weighted>
   9.000000E+99

> <Gold.Protein.RotatedTorsions>
[ 6907 6896 6895 6894 ] final  122.60 input  -60.11 | X-H torsion
[ 7974 7965 7964 7962 ] final -161.82 input  175.53 | X-H torsion
[ 8008 7997 7996 7995 ] final  -51.50 input   59.86 | X-H torsion
[ 10167 10162 10161 10158 ] final   23.09 input  -65.29 | X-H torsion
[ 10718 10713 10712 10709 ] final   13.28 input   66.30 | X-H torsion
[ 10763 10752 10751 10750 ] final  178.18 input  -60.55 | X-H torsion
[ 11005 11000 10999 10996 ] final  141.33 input  -57.11 | X-H torsion

> <Gold.Protein.ActiveResidues>
 VAL166  LYS551  ARG553  GLY616  TRP617  ASP618  TYR619  PRO620  LYS621  CYS622 
 ASP623  PHE694  ASN695  SER759  ASP760  ASP761  ALA762  ILE779  LEU786  VAL792 
 PHE793  MET794  SER795  GLU796  ALA797  LYS798  CYS799  TRP800  GLU811  SER814 

> <Gold.Protein.RotatedAtoms>
  152.4230  133.7148  159.6499 H   0  0  0  0  0  0  0  0  0  0  0  0  # atno 6907 bound_to 6896
  150.8106  133.8418  159.3190 H   0  0  0  0  0  0  0  0  0  0  0  0  # atno 6908 bound_to 6896
  151.6129  135.1041  160.0136 H   0  0  0  0  0  0  0  0  0  0  0  0  # atno 6909 bound_to 6896
  144.7378  140.3342  143.6147 H   0  0  0  0  0  0  0  0  0  0  0  0  # atno 7974 bound_to 7965
  154.4084  140.1246  156.4839 H   0  0  0  0  0  0  0  0  0  0  0  0  # atno 8008 bound_to 7997
  155.7057  140.3494  155.4932 H   0  0  0  0  0  0  0  0  0  0  0  0  # atno 8009 bound_to 7997
  155.9345  140.1076  157.1095 H   0  0  0  0  0  0  0  0  0  0  0  0  # atno 8010 bound_to 7997
  140.5297  143.9863  150.6459 H   0  0  0  0  0  0  0  0  0  0  0  0  # atno 10167 bound_to 10162
  157.0223  130.6160  149.5723 H   0  0  0  0  0  0  0  0  0  0  0  0  # atno 10718 bound_to 10713
  154.5043  135.2785  155.1395 H   0  0  0  0  0  0  0  0  0  0  0  0  # atno 10763 bound_to 10752
  154.3016  135.6247  153.5431 H   0  0  0  0  0  0  0  0  0  0  0  0  # atno 10764 bound_to 10752
  152.9907  135.5698  154.5493 H   0  0  0  0  0  0  0  0  0  0  0  0  # atno 10765 bound_to 10752
  140.0393  134.9313  157.0813 H   0  0  0  0  0  0  0  0  0  0  0  0  # atno 11005 bound_to 11000
  145.7440  139.1773  143.2359 LP  0  0  0  0  0  0  0  0  0  0  0  0  # atno 17320 bound_to 7965
  146.1112  140.7426  142.9502 LP  0  0  0  0  0  0  0  0  0  0  0  0  # atno 17321 bound_to 7965
  140.3234  143.3122  152.0761 LP  0  0  0  0  0  0  0  0  0  0  0  0  # atno 17342 bound_to 10162
  139.4950  144.6558  151.6575 LP  0  0  0  0  0  0  0  0  0  0  0  0  # atno 17343 bound_to 10162
  156.0098  130.5188  150.7950 LP  0  0  0  0  0  0  0  0  0  0  0  0  # atno 17370 bound_to 10713
  157.5240  131.0933  151.0042 LP  0  0  0  0  0  0  0  0  0  0  0  0  # atno 17371 bound_to 10713
  140.4095  134.1996  155.7163 LP  0  0  0  0  0  0  0  0  0  0  0  0  # atno 17394 bound_to 11000
  141.1874  133.8281  157.1031 LP  0  0  0  0  0  0  0  0  0  0  0  0  # atno 17395 bound_to 11000

$$$$
