AV-unprocessed.smi:3348|AV-procd|sdf|12927|dock7
  -GOLD-   2272019353D 1   1.00000     0.00000
 Structure written by MMmdl.
 46 47  0  0  0  0  0  0  0  0  1 V2000
  152.8697  138.5041  155.8881 C   0  0  0  0  0  0  0  0  0  0  0  0
  151.3820  138.8814  155.7827 C   0  0  2  0  0  0  0  0  0  0  0  0
  151.1516  140.1622  154.9434 C   0  0  0  0  0  0  0  0  0  0  0  0
  149.7509  140.4063  154.6479 N   0  0  0  0  0  0  0  0  0  0  0  0
  149.0193  141.5586  154.8467 C   0  0  0  0  0  0  0  0  0  0  0  0
  147.7443  141.3074  154.4272 C   0  0  0  0  0  0  0  0  0  0  0  0
  147.7933  139.9547  153.9879 C   0  0  0  0  0  0  0  0  0  0  0  0
  148.9944  139.4168  154.1252 N   0  0  0  0  0  0  0  0  0  0  0  0
  150.8227  139.0044  157.1324 N   0  0  0  0  0  0  0  0  0  0  0  0
  150.7298  140.3677  157.6548 C   0  0  0  0  0  0  0  0  0  0  0  0
  151.5967  140.5358  158.9068 C   0  0  0  0  0  0  0  0  0  0  0  0
  151.5433  141.8935  159.3183 O   0  0  0  0  0  0  0  0  0  0  0  0
  152.8126  142.5228  159.4592 C   0  0  2  0  0  0  0  0  0  0  0  0
  153.5417  141.9866  160.7099 C   0  0  0  0  0  0  0  0  0  0  0  0
  152.7974  142.3542  162.0042 C   0  0  0  0  0  0  0  0  0  0  0  0
  152.5723  143.8706  162.1055 C   0  0  0  0  0  0  0  0  0  0  0  0
  151.8445  144.4124  160.8647 C   0  0  0  0  0  0  0  0  0  0  0  0
  152.5930  144.0484  159.5665 C   0  0  2  0  0  0  0  0  0  0  0  0
  151.8930  144.6184  158.3230 C   0  0  0  0  0  0  0  0  0  0  0  0
  153.3014  138.2901  154.9103 H   0  0  0  0  0  0  0  0  0  0  0  0
  153.0058  137.6112  156.4993 H   0  0  0  0  0  0  0  0  0  0  0  0
  153.4508  139.3087  156.3404 H   0  0  0  0  0  0  0  0  0  0  0  0
  150.8811  138.0547  155.2772 H   0  0  0  0  0  0  0  0  0  0  0  0
  151.5332  141.0437  155.4590 H   0  0  0  0  0  0  0  0  0  0  0  0
  151.6932  140.0935  153.9990 H   0  0  0  0  0  0  0  0  0  0  0  0
  149.4623  142.4513  155.2633 H   0  0  0  0  0  0  0  0  0  0  0  0
  146.9041  141.9857  154.4342 H   0  0  0  0  0  0  0  0  0  0  0  0
  146.9972  139.3512  153.5776 H   0  0  0  0  0  0  0  0  0  0  0  0
  149.9068  138.5680  157.1614 H   0  0  0  0  0  0  0  0  0  0  0  0
  151.0267  141.1017  156.9060 H   0  0  0  0  0  0  0  0  0  0  0  0
  149.6934  140.5840  157.9160 H   0  0  0  0  0  0  0  0  0  0  0  0
  151.2103  139.8920  159.6968 H   0  0  0  0  0  0  0  0  0  0  0  0
  152.6247  140.2275  158.7088 H   0  0  0  0  0  0  0  0  0  0  0  0
  153.4212  142.3279  158.5740 H   0  0  0  0  0  0  0  0  0  0  0  0
  153.6736  140.9066  160.6513 H   0  0  0  0  0  0  0  0  0  0  0  0
  154.5471  142.4081  160.7452 H   0  0  0  0  0  0  0  0  0  0  0  0
  151.8366  141.8385  162.0334 H   0  0  0  0  0  0  0  0  0  0  0  0
  153.3619  142.0042  162.8691 H   0  0  0  0  0  0  0  0  0  0  0  0
  151.9988  144.1023  163.0036 H   0  0  0  0  0  0  0  0  0  0  0  0
  153.5331  144.3754  162.2142 H   0  0  0  0  0  0  0  0  0  0  0  0
  150.8301  144.0122  160.8326 H   0  0  0  0  0  0  0  0  0  0  0  0
  151.7445  145.4951  160.9463 H   0  0  0  0  0  0  0  0  0  0  0  0
  153.5775  144.5161  159.6168 H   0  0  0  0  0  0  0  0  0  0  0  0
  150.8866  144.2139  158.2103 H   0  0  0  0  0  0  0  0  0  0  0  0
  152.4502  144.3814  157.4161 H   0  0  0  0  0  0  0  0  0  0  0  0
  151.8089  145.7036  158.3836 H   0  0  0  0  0  0  0  0  0  0  0  0
  1  2  1  0  0  0  0
  1 20  1  0  0  0  0
  1 21  1  0  0  0  0
  1 22  1  0  0  0  0
  2  3  1  0  0  0  0
  2  9  1  0  0  0  0
  2 23  1  0  0  0  0
  3  4  1  0  0  0  0
  3 24  1  0  0  0  0
  3 25  1  0  0  0  0
  4  8  1  0  0  0  0
  4  5  1  0  0  0  0
  5  6  2  0  0  0  0
  5 26  1  0  0  0  0
  6  7  1  0  0  0  0
  6 27  1  0  0  0  0
  7  8  2  0  0  0  0
  7 28  1  0  0  0  0
  9 10  1  0  0  0  0
  9 29  1  0  0  0  0
 10 11  1  0  0  0  0
 10 30  1  0  0  0  0
 10 31  1  0  0  0  0
 11 12  1  0  0  0  0
 11 32  1  0  0  0  0
 11 33  1  0  0  0  0
 12 13  1  0  0  0  0
 13 18  1  0  0  0  0
 13 14  1  0  0  0  0
 13 34  1  0  0  0  0
 14 15  1  0  0  0  0
 14 35  1  0  0  0  0
 14 36  1  0  0  0  0
 15 16  1  0  0  0  0
 15 37  1  0  0  0  0
 15 38  1  0  0  0  0
 16 17  1  0  0  0  0
 16 39  1  0  0  0  0
 16 40  1  0  0  0  0
 17 18  1  0  0  0  0
 17 41  1  0  0  0  0
 17 42  1  0  0  0  0
 18 19  1  0  0  0  0
 18 43  1  0  0  0  0
 19 44  1  0  0  0  0
 19 45  1  0  0  0  0
 19 46  1  0  0  0  0
M  END
> <s_m_source_file>
AV-unprocessed.smi

> <i_m_source_file_index>
3348

> <i_lp_mmshare_version>
43012

> <i_f3d_flags>
0

> <s_epik_input>
bjFbY0hdW2NIXVtjSF1uMVtDSDJdW0NAQEhdKFtDSDNdKVtOSF1bQ0gyXVtDSDJdT1tDQEBIXTJbQ0gyXVtDSDJdW0NIMl1bQ0gyXVtDQEhdMltDSDNd

> <s_epik_cmdline>
J2VwaWtfcHl0aG9uJywgJy1waCcsICc3LjAnLCAnLXRuJywgJzgnLCAnLW1hJywgJzIwMCcsICctbWV0YWxfYmluZGluZycsICctaW1hZScsICc8aW5maWxlLm1hZT4nLCAnLW9tYWUnLCAnPG91dGZpbGUubWFlPic=

> <r_lp_tautomer_probability>
1

> <r_epik_Ionization_Penalty>
2.46945

> <r_epik_Ionization_Penalty_Charging>
0

> <r_epik_Ionization_Penalty_Neutral>
2.46945

> <r_epik_State_Penalty>
2.6322

> <r_epik_Charging_Adjusted_Penalty>
2.6322

> <i_epik_Tot_Q>
0

> <i_epik_Tot_abs_Q>
0

> <r_epik_Metal_State_Penalty>
2.63217

> <b_epik_Metal_Only>
0

> <s_lp_Force_Field>
OPLS_2005

> <r_lp_Energy>
16.5117

> <b_lp_Chiralities_Consistent>
1

> <s_lp_Variant>
AV-unprocessed.smi:3348-13

> <Gold.Version>
5.8.1

> <Gold.Id.Protein>
6NUR|6NUR_protein|mol2

> <Gold.PLP.Fitness>
47.4993

> <Gold.PLP.PLP>
-47.2282

> <Gold.PLP.part.hbond>
0.0000

> <Gold.PLP.part.metal>
0.0000

> <Gold.PLP.part.buried>
-2.0596

> <Gold.PLP.part.nonpolar>
-44.9129

> <Gold.PLP.part.repulsive>
0.3386

> <Gold.PLP.ligand.clash>
0.0000

> <Gold.PLP.ligand.torsion>
1.4244

> <Gold.PLP.Chemscore.Hbond>
0.0000

> <Gold.PLP.Chemscore.CHOScore>
1.0000

> <Gold.PLP.Chemscore.Metal>
0.0000

> <Gold.Chemscore.Hbonds>
donor molecule, donor type, donor heavy atom, donor atom, acceptor molecule, acceptor atom, score
      L1  C     5    26       P1  8028  1.00

> <Gold.PLP.Chemscore.Internal.Correction>
0.1199

> <Gold.Rescore>
     Score         DG    S(hbond)    S(metal)    S(lipo)     H(rot)  DE(clash)    DE(int)     intcor
     15.48     -16.85       0.00        0.00     134.87       1.72       0.09       1.27       ----

> <Gold.Chemscore.Fitness>
15.4814

> <Gold.Chemscore.DG>
-16.8469

> <Gold.Chemscore.ZeroCoef>
-5.4800

> <Gold.Chemscore.Hbond>
0.0000

> <Gold.Chemscore.Metal>
0.0000

> <Gold.Chemscore.Lipo>
134.8673

> <Gold.Chemscore.Internal_Hbond>
0.0000

> <Gold.Chemscore.DEClash>
0.0946

> <Gold.Chemscore.DEInternal>
1.2709

> <Gold.Chemscore.Rot>
1.7237

> <Gold.Chemscore.Internal.Correction>
   9.000000E+99

> <Gold.Chemscore.Hbond.Weighted>
-0.0000

> <Gold.Chemscore.Metal.Weighted>
-0.0000

> <Gold.Chemscore.Lipo.Weighted>
-15.7795

> <Gold.Chemscore.Internal_Hbond.Weighted>
0.0000

> <Gold.Chemscore.DEClash.Weighted>
0.0946

> <Gold.Chemscore.DEInternal.Weighted>
1.2709

> <Gold.Chemscore.Rot.Weighted>
4.4126

> <Gold.Chemscore.Internal.Correction.Weighted>
   9.000000E+99

> <Gold.Protein.RotatedTorsions>
[ 6907 6896 6895 6894 ] final -138.95 input  -60.11 | X-H torsion
[ 7974 7965 7964 7962 ] final  123.56 input  175.53 | X-H torsion
[ 8008 7997 7996 7995 ] final -106.47 input   59.86 | X-H torsion
[ 10167 10162 10161 10158 ] final -144.24 input  -65.29 | X-H torsion
[ 10718 10713 10712 10709 ] final   29.65 input   66.30 | X-H torsion
[ 10763 10752 10751 10750 ] final  166.44 input  -60.55 | X-H torsion
[ 11005 11000 10999 10996 ] final   63.67 input  -57.11 | X-H torsion

> <Gold.Protein.ActiveResidues>
 VAL166  LYS551  ARG553  GLY616  TRP617  ASP618  TYR619  PRO620  LYS621  CYS622 
 ASP623  PHE694  ASN695  SER759  ASP760  ASP761  ALA762  ILE779  LEU786  VAL792 
 PHE793  MET794  SER795  GLU796  ALA797  LYS798  CYS799  TRP800  GLU811  SER814 

> <Gold.Protein.RotatedAtoms>
  151.0415  133.5702  159.2650 H   0  0  0  0  0  0  0  0  0  0  0  0  # atno 6907 bound_to 6896
  151.2746  135.0694  159.9157 H   0  0  0  0  0  0  0  0  0  0  0  0  # atno 6908 bound_to 6896
  152.5365  134.0140  159.8005 H   0  0  0  0  0  0  0  0  0  0  0  0  # atno 6909 bound_to 6896
  145.0945  139.3562  143.4843 H   0  0  0  0  0  0  0  0  0  0  0  0  # atno 7974 bound_to 7965
  154.9149  140.0409  157.1967 H   0  0  0  0  0  0  0  0  0  0  0  0  # atno 8008 bound_to 7997
  154.8311  140.2899  155.5700 H   0  0  0  0  0  0  0  0  0  0  0  0  # atno 8009 bound_to 7997
  156.2987  140.2500  156.3236 H   0  0  0  0  0  0  0  0  0  0  0  0  # atno 8010 bound_to 7997
  139.7917  143.7957  152.2650 H   0  0  0  0  0  0  0  0  0  0  0  0  # atno 10167 bound_to 10162
  157.2494  130.7107  149.6397 H   0  0  0  0  0  0  0  0  0  0  0  0  # atno 10718 bound_to 10713
  154.3390  135.2754  155.2432 H   0  0  0  0  0  0  0  0  0  0  0  0  # atno 10763 bound_to 10752
  154.4711  135.5882  153.6326 H   0  0  0  0  0  0  0  0  0  0  0  0  # atno 10764 bound_to 10752
  152.9859  135.6088  154.3589 H   0  0  0  0  0  0  0  0  0  0  0  0  # atno 10765 bound_to 10752
  140.0009  134.6444  155.9932 H   0  0  0  0  0  0  0  0  0  0  0  0  # atno 11005 bound_to 11000
  146.3531  140.0795  142.8618 LP  0  0  0  0  0  0  0  0  0  0  0  0  # atno 17320 bound_to 7965
  145.1027  140.9356  143.4703 LP  0  0  0  0  0  0  0  0  0  0  0  0  # atno 17321 bound_to 7965
  139.8050  144.7359  150.9774 LP  0  0  0  0  0  0  0  0  0  0  0  0  # atno 17342 bound_to 10162
  140.7820  143.4307  151.0699 LP  0  0  0  0  0  0  0  0  0  0  0  0  # atno 17343 bound_to 10162
  155.9667  130.4432  150.5414 LP  0  0  0  0  0  0  0  0  0  0  0  0  # atno 17370 bound_to 10713
  157.3294  131.0697  151.1872 LP  0  0  0  0  0  0  0  0  0  0  0  0  # atno 17371 bound_to 10713
  141.1641  133.6537  156.4418 LP  0  0  0  0  0  0  0  0  0  0  0  0  # atno 17394 bound_to 11000
  140.4730  134.6736  157.5137 LP  0  0  0  0  0  0  0  0  0  0  0  0  # atno 17395 bound_to 11000

$$$$
