AV-unprocessed.smi:21|AV-procd|sdf|163|dock7
  -GOLD-   2262015403D 1   1.00000     0.00000
 Structure written by MMmdl.
 61 64  0  0  0  0  0  0  0  0  1 V2000
  147.0457  130.2490  154.0559 C   0  0  0  0  0  0  0  0  0  0  0  0
  148.0965  130.2832  155.0085 O   0  0  0  0  0  0  0  0  0  0  0  0
  149.2474  130.9832  154.5568 C   0  0  1  0  0  0  0  0  0  0  0  0
  148.8944  132.4443  154.2358 C   0  0  0  0  0  0  0  0  0  0  0  0
  149.7382  133.2736  155.2173 C   0  0  2  0  0  0  0  0  0  0  0  0
  150.0935  134.6813  154.6921 C   0  0  0  0  0  0  0  0  0  0  0  0
  150.2092  135.6685  155.7697 N   0  0  0  0  0  0  0  0  0  0  0  0
  149.5161  135.3866  157.0208 C   0  0  0  0  0  0  0  0  0  0  0  0
  150.7245  136.9110  155.5342 C   0  0  0  0  0  0  0  0  0  0  0  0
  151.2947  137.1539  154.3232 N   0  0  0  0  0  0  0  0  0  0  0  0
  151.8159  138.3474  154.0314 C   0  0  0  0  0  0  0  0  0  0  0  0
  151.8796  139.4363  154.7960 N   0  0  0  0  0  0  0  0  0  0  0  0
  151.3162  139.2122  156.0162 C   0  0  0  0  0  0  0  0  0  0  0  0
  150.7214  137.9961  156.4673 C   0  0  0  0  0  0  0  0  0  0  0  0
  150.2529  138.1734  157.7667 N   0  0  0  0  0  0  0  0  0  0  0  0
  150.5540  139.4072  158.0627 C   0  0  0  0  0  0  0  0  0  0  0  0
  151.1904  140.1059  157.0653 N   0  0  0  0  0  0  0  0  0  0  0  0
  151.6377  141.4872  157.1261 C   0  0  0  0  0  0  0  0  0  0  0  0
  151.3934  142.1545  158.5033 C   0  0  2  0  0  0  0  0  0  0  0  0
  151.0152  143.6498  158.3424 C   0  0  0  0  0  0  0  0  0  0  0  0
  149.6157  143.8383  158.3300 O   0  0  0  0  0  0  0  0  0  0  0  0
  152.6307  141.9536  159.4219 C   0  0  1  0  0  0  0  0  0  0  0  0
  152.4801  142.4420  160.8528 C   0  0  0  0  0  0  0  0  0  0  0  0
  153.6068  141.7077  161.5690 C   0  0  0  0  0  0  0  0  0  0  0  0
  153.7242  140.4554  160.9062 O   0  0  0  0  0  0  0  0  0  0  0  0
  153.0081  140.4882  159.6756 C   0  0  0  0  0  0  0  0  0  0  0  0
  150.8849  132.4302  155.5148 N   0  0  0  0  0  0  0  0  0  0  0  0
  151.6233  132.8363  156.7034 C   0  0  0  0  0  0  0  0  0  0  0  0
  150.3129  131.1058  155.6547 C   0  0  0  0  0  0  0  0  0  0  0  0
  149.6619  130.5119  153.6636 H   0  0  0  0  0  0  0  0  0  0  0  0
  149.1552  133.3849  156.1336 H   0  0  0  0  0  0  0  0  0  0  0  0
  146.1949  129.7092  154.4716 H   0  0  0  0  0  0  0  0  0  0  0  0
  147.3488  129.7392  153.1410 H   0  0  0  0  0  0  0  0  0  0  0  0
  146.7113  131.2555  153.8013 H   0  0  0  0  0  0  0  0  0  0  0  0
  149.1736  132.6624  153.2045 H   0  0  0  0  0  0  0  0  0  0  0  0
  147.8295  132.6561  154.3402 H   0  0  0  0  0  0  0  0  0  0  0  0
  151.0592  134.6496  154.1885 H   0  0  0  0  0  0  0  0  0  0  0  0
  149.3876  134.9845  153.9192 H   0  0  0  0  0  0  0  0  0  0  0  0
  150.1401  135.6438  157.8771 H   0  0  0  0  0  0  0  0  0  0  0  0
  149.2710  134.3273  157.1004 H   0  0  0  0  0  0  0  0  0  0  0  0
  148.5828  135.9474  157.0786 H   0  0  0  0  0  0  0  0  0  0  0  0
  152.2423  138.4422  153.0437 H   0  0  0  0  0  0  0  0  0  0  0  0
  150.3155  139.8456  159.0209 H   0  0  0  0  0  0  0  0  0  0  0  0
  152.6988  141.4880  156.8770 H   0  0  0  0  0  0  0  0  0  0  0  0
  151.1385  142.0543  156.3397 H   0  0  0  0  0  0  0  0  0  0  0  0
  150.5443  141.6431  158.9596 H   0  0  0  0  0  0  0  0  0  0  0  0
  151.4602  144.2502  159.1366 H   0  0  0  0  0  0  0  0  0  0  0  0
  151.3795  144.0584  157.4011 H   0  0  0  0  0  0  0  0  0  0  0  0
  149.3566  144.1121  157.4632 H   0  0  0  0  0  0  0  0  0  0  0  0
  153.4915  142.4576  158.9790 H   0  0  0  0  0  0  0  0  0  0  0  0
  152.5686  143.5239  160.9521 H   0  0  0  0  0  0  0  0  0  0  0  0
  151.5159  142.1366  161.2616 H   0  0  0  0  0  0  0  0  0  0  0  0
  154.5461  142.2504  161.4565 H   0  0  0  0  0  0  0  0  0  0  0  0
  153.4132  141.5809  162.6343 H   0  0  0  0  0  0  0  0  0  0  0  0
  152.1147  139.8722  159.7868 H   0  0  0  0  0  0  0  0  0  0  0  0
  153.6090  140.0674  158.8691 H   0  0  0  0  0  0  0  0  0  0  0  0
  152.4305  132.1332  156.9112 H   0  0  0  0  0  0  0  0  0  0  0  0
  150.9746  132.8752  157.5794 H   0  0  0  0  0  0  0  0  0  0  0  0
  152.0729  133.8198  156.5688 H   0  0  0  0  0  0  0  0  0  0  0  0
  149.8363  131.0125  156.6322 H   0  0  0  0  0  0  0  0  0  0  0  0
  151.0750  130.3289  155.5833 H   0  0  0  0  0  0  0  0  0  0  0  0
  1  2  1  0  0  0  0
  1 32  1  0  0  0  0
  1 33  1  0  0  0  0
  1 34  1  0  0  0  0
  2  3  1  0  0  0  0
  3 30  1  0  0  0  0
  3 29  1  0  0  0  0
  3  4  1  0  0  0  0
  4  5  1  0  0  0  0
  4 35  1  0  0  0  0
  4 36  1  0  0  0  0
  5 31  1  0  0  0  0
  5  6  1  0  0  0  0
  5 27  1  0  0  0  0
  6  7  1  0  0  0  0
  6 37  1  0  0  0  0
  6 38  1  0  0  0  0
  7  8  1  0  0  0  0
  7  9  1  0  0  0  0
  8 39  1  0  0  0  0
  8 40  1  0  0  0  0
  8 41  1  0  0  0  0
  9 14  1  0  0  0  0
  9 10  2  0  0  0  0
 10 11  1  0  0  0  0
 11 12  2  0  0  0  0
 11 42  1  0  0  0  0
 12 13  1  0  0  0  0
 13 17  1  0  0  0  0
 13 14  2  0  0  0  0
 14 15  1  0  0  0  0
 15 16  2  0  0  0  0
 16 17  1  0  0  0  0
 16 43  1  0  0  0  0
 17 18  1  0  0  0  0
 18 19  1  0  0  0  0
 18 44  1  0  0  0  0
 18 45  1  0  0  0  0
 19 20  1  0  0  0  0
 19 22  1  0  0  0  0
 19 46  1  0  0  0  0
 20 21  1  0  0  0  0
 20 47  1  0  0  0  0
 20 48  1  0  0  0  0
 21 49  1  0  0  0  0
 22 26  1  0  0  0  0
 22 23  1  0  0  0  0
 22 50  1  0  0  0  0
 23 24  1  0  0  0  0
 23 51  1  0  0  0  0
 23 52  1  0  0  0  0
 24 25  1  0  0  0  0
 24 53  1  0  0  0  0
 24 54  1  0  0  0  0
 25 26  1  0  0  0  0
 26 55  1  0  0  0  0
 26 56  1  0  0  0  0
 27 28  1  0  0  0  0
 27 29  1  0  0  0  0
 28 57  1  0  0  0  0
 28 58  1  0  0  0  0
 28 59  1  0  0  0  0
 29 60  1  0  0  0  0
 29 61  1  0  0  0  0
M  END
> <s_m_source_file>
AV-unprocessed.smi

> <i_m_source_file_index>
21

> <i_lp_mmshare_version>
43012

> <i_f3d_flags>
0

> <s_epik_input>
W0NIM11PW0NASF0xW0NIMl1bQ0BIXShOKFtDSDNdKVtDSDJdMSlbQ0gyXU4oW0NIM10pYyhuW2NIXW4yKWMoYzIzKW5bY0hdbjNbQ0gyXVtDQEhdKFtDSDJdW09IXSlbQ0BASF00W0NIMl1bQ0gyXU9bQ0gyXTQ=

> <s_epik_cmdline>
J2VwaWtfcHl0aG9uJywgJy1waCcsICc3LjAnLCAnLXRuJywgJzgnLCAnLW1hJywgJzIwMCcsICctbWV0YWxfYmluZGluZycsICctaW1hZScsICc8aW5maWxlLm1hZT4nLCAnLW9tYWUnLCAnPG91dGZpbGUubWFlPic=

> <r_lp_tautomer_probability>
1

> <r_epik_Ionization_Penalty>
2.17574

> <r_epik_Ionization_Penalty_Charging>
0

> <r_epik_Ionization_Penalty_Neutral>
2.17574

> <r_epik_State_Penalty>
2.31336

> <r_epik_Charging_Adjusted_Penalty>
2.31336

> <i_epik_Tot_Q>
0

> <i_epik_Tot_abs_Q>
0

> <r_epik_Metal_State_Penalty>
2.31025

> <b_epik_Metal_Only>
0

> <s_lp_Force_Field>
OPLS_2005

> <r_lp_Energy>
69.6605

> <b_lp_Chiralities_Consistent>
1

> <s_lp_Variant>
AV-unprocessed.smi:21-43

> <Gold.Version>
5.8.1

> <Gold.Id.Protein>
6NUR|6NUR_protein|mol2

> <Gold.PLP.Fitness>
51.5858

> <Gold.PLP.PLP>
-45.3238

> <Gold.PLP.part.hbond>
-4.0000

> <Gold.PLP.part.metal>
0.0000

> <Gold.PLP.part.buried>
-8.1335

> <Gold.PLP.part.nonpolar>
-34.1214

> <Gold.PLP.part.repulsive>
0.7686

> <Gold.PLP.ligand.clash>
0.0000

> <Gold.PLP.ligand.torsion>
1.6007

> <Gold.PLP.Chemscore.Hbond>
2.9333

> <Gold.PLP.Chemscore.CHOScore>
0.0000

> <Gold.PLP.Chemscore.Metal>
0.0000

> <Gold.Chemscore.Hbonds>
donor molecule, donor type, donor heavy atom, donor atom, acceptor molecule, acceptor atom, score
      L1  H    21    49       P1  8028  0.80
      P1  H  7989  7998       L1    12  0.99
      P1  H 10752 10765       L1    10  0.52

> <Gold.PLP.Chemscore.Internal.Correction>
0.6636

> <Gold.Rescore>
     Score         DG    S(hbond)    S(metal)    S(lipo)     H(rot)  DE(clash)    DE(int)     intcor
     10.72     -14.41       1.30        0.00     104.78       3.00       0.90       2.79       ----

> <Gold.Chemscore.Fitness>
10.7229

> <Gold.Chemscore.DG>
-14.4097

> <Gold.Chemscore.ZeroCoef>
-5.4800

> <Gold.Chemscore.Hbond>
1.3049

> <Gold.Chemscore.Metal>
0.0000

> <Gold.Chemscore.Lipo>
104.7793

> <Gold.Chemscore.Internal_Hbond>
0.0000

> <Gold.Chemscore.DEClash>
0.9004

> <Gold.Chemscore.DEInternal>
2.7864

> <Gold.Chemscore.Rot>
3.0031

> <Gold.Chemscore.Internal.Correction>
   9.000000E+99

> <Gold.Chemscore.Hbonds>
donor molecule, donor type, donor heavy atom, donor atom, acceptor molecule, acceptor atom, score
      L1  H    21    49       P1  8028  0.12
      P1  H  7989  7998       L1    12  0.33
      P1  H 10752 10765       L1    10  0.11

> <Gold.Chemscore.Hbond.Weighted>
-4.3585

> <Gold.Chemscore.Metal.Weighted>
-0.0000

> <Gold.Chemscore.Lipo.Weighted>
-12.2592

> <Gold.Chemscore.Internal_Hbond.Weighted>
0.0000

> <Gold.Chemscore.DEClash.Weighted>
0.9004

> <Gold.Chemscore.DEInternal.Weighted>
2.7864

> <Gold.Chemscore.Rot.Weighted>
7.6880

> <Gold.Chemscore.Internal.Correction.Weighted>
   9.000000E+99

> <Gold.Protein.RotatedTorsions>
[ 6907 6896 6895 6894 ] final  113.85 input  -60.11 | X-H torsion
[ 7974 7965 7964 7962 ] final  167.43 input  175.53 | X-H torsion
[ 8008 7997 7996 7995 ] final  -49.22 input   59.86 | X-H torsion
[ 10167 10162 10161 10158 ] final   36.14 input  -65.29 | X-H torsion
[ 10718 10713 10712 10709 ] final  -96.78 input   66.30 | X-H torsion
[ 10763 10752 10751 10750 ] final  160.49 input  -60.55 | X-H torsion
[ 11005 11000 10999 10996 ] final  146.45 input  -57.11 | X-H torsion

> <Gold.Protein.ActiveResidues>
 VAL166  LYS551  ARG553  GLY616  TRP617  ASP618  TYR619  PRO620  LYS621  CYS622 
 ASP623  PHE694  ASN695  SER759  ASP760  ASP761  ALA762  ILE779  LEU786  VAL792 
 PHE793  MET794  SER795  GLU796  ALA797  LYS798  CYS799  TRP800  GLU811  SER814 

> <Gold.Protein.RotatedAtoms>
  152.4837  133.8318  159.7106 H   0  0  0  0  0  0  0  0  0  0  0  0  # atno 6907 bound_to 6896
  150.8906  133.7239  159.2912 H   0  0  0  0  0  0  0  0  0  0  0  0  # atno 6908 bound_to 6896
  151.4713  135.1049  159.9804 H   0  0  0  0  0  0  0  0  0  0  0  0  # atno 6909 bound_to 6896
  144.7425  139.8760  143.6392 H   0  0  0  0  0  0  0  0  0  0  0  0  # atno 7974 bound_to 7965
  154.4040  140.1302  156.4467 H   0  0  0  0  0  0  0  0  0  0  0  0  # atno 8008 bound_to 7997
  155.7406  140.3490  155.5082 H   0  0  0  0  0  0  0  0  0  0  0  0  # atno 8009 bound_to 7997
  155.9042  140.1024  157.1317 H   0  0  0  0  0  0  0  0  0  0  0  0  # atno 8010 bound_to 7997
  140.4156  144.1532  150.6143 H   0  0  0  0  0  0  0  0  0  0  0  0  # atno 10167 bound_to 10162
  156.0069  130.5166  150.6277 H   0  0  0  0  0  0  0  0  0  0  0  0  # atno 10718 bound_to 10713
  154.2482  135.2772  155.2827 H   0  0  0  0  0  0  0  0  0  0  0  0  # atno 10763 bound_to 10752
  154.5487  135.5681  153.6906 H   0  0  0  0  0  0  0  0  0  0  0  0  # atno 10764 bound_to 10752
  152.9986  135.6269  154.2628 H   0  0  0  0  0  0  0  0  0  0  0  0  # atno 10765 bound_to 10752
  140.0794  134.9106  157.1476 H   0  0  0  0  0  0  0  0  0  0  0  0  # atno 11005 bound_to 11000
  146.1246  139.4270  143.0207 LP  0  0  0  0  0  0  0  0  0  0  0  0  # atno 17320 bound_to 7965
  145.7254  141.0061  143.1380 LP  0  0  0  0  0  0  0  0  0  0  0  0  # atno 17321 bound_to 7965
  140.4590  143.2456  151.9245 LP  0  0  0  0  0  0  0  0  0  0  0  0  # atno 17342 bound_to 10162
  139.4782  144.5486  151.8420 LP  0  0  0  0  0  0  0  0  0  0  0  0  # atno 17343 bound_to 10162
  157.4081  131.0819  151.1247 LP  0  0  0  0  0  0  0  0  0  0  0  0  # atno 17370 bound_to 10713
  157.1887  130.6342  149.5697 LP  0  0  0  0  0  0  0  0  0  0  0  0  # atno 17371 bound_to 10713
  140.3510  134.2599  155.7198 LP  0  0  0  0  0  0  0  0  0  0  0  0  # atno 17394 bound_to 11000
  141.2041  133.7895  157.0304 LP  0  0  0  0  0  0  0  0  0  0  0  0  # atno 17395 bound_to 11000

$$$$
