AV-unprocessed.smi:1551|AV-procd|sdf|6232|dock2
  -GOLD-   22720 6413D 1   1.00000     0.00000
 Structure written by MMmdl.
 38 39  0  0  0  0  0  0  0  0  1 V2000
  151.2331  137.4703  155.0870 C   0  0  0  0  0  0  0  0  0  0  0  0
  150.3233  136.4277  154.7524 O   0  0  0  0  0  0  0  0  0  0  0  0
  150.5313  135.1721  155.2910 C   0  0  0  0  0  0  0  0  0  0  0  0
  151.5038  135.0236  156.2256 N   0  0  0  0  0  0  0  0  0  0  0  0
  151.7129  133.7970  156.7463 C   0  0  0  0  0  0  0  0  0  0  0  0
  150.9759  132.6614  156.3637 C   0  0  0  0  0  0  0  0  0  0  0  0
  149.9659  132.8130  155.3962 C   0  0  0  0  0  0  0  0  0  0  0  0
  149.7244  134.0971  154.8505 C   0  0  0  0  0  0  0  0  0  0  0  0
  148.7469  134.3528  153.8501 N   0  0  0  0  0  0  0  0  0  0  0  0
  147.6232  133.6655  153.5847 C   0  0  0  0  0  0  0  0  0  0  0  0
  147.2086  132.7054  154.2339 O   0  0  0  0  0  0  0  0  0  0  0  0
  146.9869  134.1769  152.5212 N   0  0  0  0  0  0  0  0  0  0  0  0
  145.7338  133.6858  151.9537 C   0  0  2  0  0  0  0  0  0  0  0  0
  145.9156  132.2296  151.4836 C   0  0  0  0  0  0  0  0  0  0  0  0
  144.6506  131.6975  150.7909 C   0  0  0  0  0  0  0  0  0  0  0  0
  144.2370  132.6071  149.6214 C   0  0  1  0  0  0  0  0  0  0  0  0
  143.0398  132.1259  149.0487 O   0  0  0  0  0  0  0  0  0  0  0  0
  144.0356  134.0571  150.0940 C   0  0  0  0  0  0  0  0  0  0  0  0
  145.2990  134.5936  150.7867 C   0  0  0  0  0  0  0  0  0  0  0  0
  150.9317  138.3873  154.5809 H   0  0  0  0  0  0  0  0  0  0  0  0
  152.2483  137.2336  154.7651 H   0  0  0  0  0  0  0  0  0  0  0  0
  151.2346  137.6699  156.1595 H   0  0  0  0  0  0  0  0  0  0  0  0
  152.4968  133.7165  157.4847 H   0  0  0  0  0  0  0  0  0  0  0  0
  151.1845  131.6947  156.7978 H   0  0  0  0  0  0  0  0  0  0  0  0
  149.4112  131.9431  155.0806 H   0  0  0  0  0  0  0  0  0  0  0  0
  148.9019  135.1849  153.2996 H   0  0  0  0  0  0  0  0  0  0  0  0
  147.4070  134.9710  152.0609 H   0  0  0  0  0  0  0  0  0  0  0  0
  144.9444  133.6984  152.7077 H   0  0  0  0  0  0  0  0  0  0  0  0
  146.7571  132.1665  150.7921 H   0  0  0  0  0  0  0  0  0  0  0  0
  146.1649  131.5915  152.3322 H   0  0  0  0  0  0  0  0  0  0  0  0
  144.8259  130.6820  150.4334 H   0  0  0  0  0  0  0  0  0  0  0  0
  143.8399  131.6343  151.5182 H   0  0  0  0  0  0  0  0  0  0  0  0
  145.0100  132.5813  148.8523 H   0  0  0  0  0  0  0  0  0  0  0  0
  142.3744  132.7908  149.1398 H   0  0  0  0  0  0  0  0  0  0  0  0
  143.7798  134.6957  149.2478 H   0  0  0  0  0  0  0  0  0  0  0  0
  143.1945  134.1088  150.7868 H   0  0  0  0  0  0  0  0  0  0  0  0
  145.1172  135.6065  151.1484 H   0  0  0  0  0  0  0  0  0  0  0  0
  146.1054  134.6671  150.0556 H   0  0  0  0  0  0  0  0  0  0  0  0
  1  2  1  0  0  0  0
  1 20  1  0  0  0  0
  1 21  1  0  0  0  0
  1 22  1  0  0  0  0
  2  3  1  0  0  0  0
  3  8  1  0  0  0  0
  3  4  2  0  0  0  0
  4  5  1  0  0  0  0
  5  6  2  0  0  0  0
  5 23  1  0  0  0  0
  6  7  1  0  0  0  0
  6 24  1  0  0  0  0
  7  8  2  0  0  0  0
  7 25  1  0  0  0  0
  8  9  1  0  0  0  0
  9 10  1  0  0  0  0
  9 26  1  0  0  0  0
 10 11  2  0  0  0  0
 10 12  1  0  0  0  0
 12 13  1  0  0  0  0
 12 27  1  0  0  0  0
 13 19  1  0  0  0  0
 13 14  1  0  0  0  0
 13 28  1  0  0  0  0
 14 15  1  0  0  0  0
 14 29  1  0  0  0  0
 14 30  1  0  0  0  0
 15 16  1  0  0  0  0
 15 31  1  0  0  0  0
 15 32  1  0  0  0  0
 16 17  1  0  0  0  0
 16 18  1  0  0  0  0
 16 33  1  0  0  0  0
 17 34  1  0  0  0  0
 18 19  1  0  0  0  0
 18 35  1  0  0  0  0
 18 36  1  0  0  0  0
 19 37  1  0  0  0  0
 19 38  1  0  0  0  0
M  END
> <s_m_source_file>
AV-unprocessed.smi

> <i_m_source_file_index>
1551

> <i_lp_mmshare_version>
43012

> <i_f3d_flags>
0

> <s_epik_input>
W0NIM11PYzFuW2NIXVtjSF1bY0hdYzFbTkhdQyg9TylbTkhdW0NAQEhdMltDSDJdW0NIMl1bQ0BASF0oW09IXSlbQ0gyXVtDSDJdMg==

> <s_epik_cmdline>
J2VwaWtfcHl0aG9uJywgJy1waCcsICc3LjAnLCAnLXRuJywgJzgnLCAnLW1hJywgJzIwMCcsICctbWV0YWxfYmluZGluZycsICctaW1hZScsICc8aW5maWxlLm1hZT4nLCAnLW9tYWUnLCAnPG91dGZpbGUubWFlPic=

> <r_lp_tautomer_probability>
1

> <r_epik_Ionization_Penalty>
9.95655e-05

> <r_epik_Ionization_Penalty_Charging>
0

> <r_epik_Ionization_Penalty_Neutral>
9.95655e-05

> <r_epik_State_Penalty>
-0

> <r_epik_Charging_Adjusted_Penalty>
0

> <i_epik_Tot_Q>
0

> <i_epik_Tot_abs_Q>
0

> <r_epik_Metal_State_Penalty>
-0

> <b_epik_Metal_Only>
0

> <s_lp_Force_Field>
OPLS_2005

> <r_lp_Energy>
10.8816

> <b_lp_Chiralities_Consistent>
1

> <s_lp_Variant>
AV-unprocessed.smi:1551-1

> <Gold.Version>
5.8.1

> <Gold.Id.Protein>
6NUR|6NUR_protein|mol2

> <Gold.PLP.Fitness>
47.5108

> <Gold.PLP.PLP>
-33.6272

> <Gold.PLP.part.hbond>
-5.8705

> <Gold.PLP.part.metal>
0.0000

> <Gold.PLP.part.buried>
-3.4105

> <Gold.PLP.part.nonpolar>
-24.8158

> <Gold.PLP.part.repulsive>
0.2563

> <Gold.PLP.ligand.clash>
0.0000

> <Gold.PLP.ligand.torsion>
0.1848

> <Gold.PLP.Chemscore.Hbond>
4.7478

> <Gold.PLP.Chemscore.CHOScore>
0.0000

> <Gold.PLP.Chemscore.Metal>
0.0000

> <Gold.Chemscore.Hbonds>
donor molecule, donor type, donor heavy atom, donor atom, acceptor molecule, acceptor atom, score
      L1  H     9    26       P1  7948  1.00
      L1  H    12    27       P1  7948  0.99
      L1  H    17    34       P1 10186  0.68
      P1  H 10752 10764       L1     4  0.94
      P1  H 10785 10796       L1    17  1.00

> <Gold.PLP.Chemscore.Internal.Correction>
0.0098

> <Gold.Rescore>
     Score         DG    S(hbond)    S(metal)    S(lipo)     H(rot)  DE(clash)    DE(int)     intcor
     18.01     -19.68       3.08        0.00      72.26       1.77       0.40       1.27       ----

> <Gold.Chemscore.Fitness>
18.0133

> <Gold.Chemscore.DG>
-19.6825

> <Gold.Chemscore.ZeroCoef>
-5.4800

> <Gold.Chemscore.Hbond>
3.0789

> <Gold.Chemscore.Metal>
0.0000

> <Gold.Chemscore.Lipo>
72.2551

> <Gold.Chemscore.Internal_Hbond>
0.0000

> <Gold.Chemscore.DEClash>
0.3968

> <Gold.Chemscore.DEInternal>
1.2724

> <Gold.Chemscore.Rot>
1.7714

> <Gold.Chemscore.Internal.Correction>
   9.000000E+99

> <Gold.Chemscore.Hbonds>
donor molecule, donor type, donor heavy atom, donor atom, acceptor molecule, acceptor atom, score
      L1  H     9    26       P1  7948  0.50
      L1  H    12    27       P1  7948  0.86
      L1  H    17    34       P1 10186  0.69
      P1  H 10752 10764       L1     4  0.11
      P1  H 10785 10796       L1    17  0.70

> <Gold.Chemscore.Hbond.Weighted>
-10.2834

> <Gold.Chemscore.Metal.Weighted>
-0.0000

> <Gold.Chemscore.Lipo.Weighted>
-8.4538

> <Gold.Chemscore.Internal_Hbond.Weighted>
0.0000

> <Gold.Chemscore.DEClash.Weighted>
0.3968

> <Gold.Chemscore.DEInternal.Weighted>
1.2724

> <Gold.Chemscore.Rot.Weighted>
4.5347

> <Gold.Chemscore.Internal.Correction.Weighted>
   9.000000E+99

> <Gold.Protein.RotatedTorsions>
[ 6907 6896 6895 6894 ] final  -87.11 input  -60.11 | X-H torsion
[ 7974 7965 7964 7962 ] final   39.79 input  175.53 | X-H torsion
[ 8008 7997 7996 7995 ] final  151.51 input   59.86 | X-H torsion
[ 10167 10162 10161 10158 ] final  -28.91 input  -65.29 | X-H torsion
[ 10718 10713 10712 10709 ] final  -95.50 input   66.30 | X-H torsion
[ 10763 10752 10751 10750 ] final  -26.90 input  -60.55 | X-H torsion
[ 11005 11000 10999 10996 ] final  -26.59 input  -57.11 | X-H torsion

> <Gold.Protein.ActiveResidues>
 VAL166  LYS551  ARG553  GLY616  TRP617  ASP618  TYR619  PRO620  LYS621  CYS622 
 ASP623  PHE694  ASN695  SER759  ASP760  ASP761  ALA762  ILE779  LEU786  VAL792 
 PHE793  MET794  SER795  GLU796  ALA797  LYS798  CYS799  TRP800  GLU811  SER814 

> <Gold.Protein.RotatedAtoms>
  150.6866  134.2947  159.4681 H   0  0  0  0  0  0  0  0  0  0  0  0  # atno 6907 bound_to 6896
  152.0849  134.9444  160.0582 H   0  0  0  0  0  0  0  0  0  0  0  0  # atno 6908 bound_to 6896
  152.0782  133.4105  159.4526 H   0  0  0  0  0  0  0  0  0  0  0  0  # atno 6909 bound_to 6896
  146.0956  139.5610  142.9447 H   0  0  0  0  0  0  0  0  0  0  0  0  # atno 7974 bound_to 7965
  156.2670  140.2046  156.6187 H   0  0  0  0  0  0  0  0  0  0  0  0  # atno 8008 bound_to 7997
  154.6774  140.0543  157.0254 H   0  0  0  0  0  0  0  0  0  0  0  0  # atno 8009 bound_to 7997
  155.1049  140.3209  155.4540 H   0  0  0  0  0  0  0  0  0  0  0  0  # atno 8010 bound_to 7997
  140.7265  143.3971  151.1329 H   0  0  0  0  0  0  0  0  0  0  0  0  # atno 10167 bound_to 10162
  156.0044  130.5112  150.6086 H   0  0  0  0  0  0  0  0  0  0  0  0  # atno 10718 bound_to 10713
  153.7234  135.6943  153.5007 H   0  0  0  0  0  0  0  0  0  0  0  0  # atno 10763 bound_to 10752
  153.2187  135.4377  155.0463 H   0  0  0  0  0  0  0  0  0  0  0  0  # atno 10764 bound_to 10752
  154.8277  135.3455  154.6767 H   0  0  0  0  0  0  0  0  0  0  0  0  # atno 10765 bound_to 10752
  140.9043  133.7503  156.0585 H   0  0  0  0  0  0  0  0  0  0  0  0  # atno 11005 bound_to 11000
  145.5954  141.0363  143.2047 LP  0  0  0  0  0  0  0  0  0  0  0  0  # atno 17320 bound_to 7965
  144.7393  139.7495  143.7317 LP  0  0  0  0  0  0  0  0  0  0  0  0  # atno 17321 bound_to 7965
  139.7585  143.8671  152.3094 LP  0  0  0  0  0  0  0  0  0  0  0  0  # atno 17342 bound_to 10162
  139.8549  144.7146  150.9170 LP  0  0  0  0  0  0  0  0  0  0  0  0  # atno 17343 bound_to 10162
  157.3922  131.0797  151.1383 LP  0  0  0  0  0  0  0  0  0  0  0  0  # atno 17370 bound_to 10713
  157.2071  130.6421  149.5760 LP  0  0  0  0  0  0  0  0  0  0  0  0  # atno 17371 bound_to 10713
  140.8191  134.3310  157.5387 LP  0  0  0  0  0  0  0  0  0  0  0  0  # atno 17394 bound_to 11000
  139.8747  134.9298  156.3487 LP  0  0  0  0  0  0  0  0  0  0  0  0  # atno 17395 bound_to 11000

$$$$
