AV-unprocessed.smi:1754|AV-procd|sdf|7067|dock4
  -GOLD-   22720 8283D 1   1.00000     0.00000
 Structure written by MMmdl.
 44 45  0  0  0  0  0  0  0  0  1 V2000
  145.2909  130.2406  151.6867 C   0  0  0  0  0  0  0  0  0  0  0  0
  144.5823  131.5648  151.3667 C   0  0  0  0  0  0  0  0  0  0  0  0
  145.5181  132.6810  151.2196 N   0  0  0  0  0  0  0  0  0  0  0  0
  146.5713  132.5406  150.2127 C   0  0  0  0  0  0  0  0  0  0  0  0
  146.0983  131.8106  148.9456 C   0  0  0  0  0  0  0  0  0  0  0  0
  145.0223  133.9658  151.5482 C   0  0  0  0  0  0  0  0  0  0  0  0
  145.7915  135.1434  151.3712 C   0  0  0  0  0  0  0  0  0  0  0  0
  145.2372  136.3907  151.7177 C   0  0  0  0  0  0  0  0  0  0  0  0
  143.9195  136.4373  152.2273 C   0  0  0  0  0  0  0  0  0  0  0  0
  143.2532  137.6228  152.6364 N   0  0  0  0  0  0  0  0  0  0  0  0
  142.1069  137.7570  153.3317 C   0  0  0  0  0  0  0  0  0  0  0  0
  141.4705  136.8267  153.8209 O   0  0  0  0  0  0  0  0  0  0  0  0
  141.7080  139.0323  153.4912 N   0  0  0  0  0  0  0  0  0  0  0  0
  140.5188  139.5259  154.1887 C   0  0  1  0  0  0  0  0  0  0  0  0
  140.5070  141.0649  154.3105 C   0  0  0  0  0  0  0  0  0  0  0  0
  139.0955  141.5204  154.7009 C   0  0  0  0  0  0  0  0  0  0  0  0
  137.9450  140.2730  154.0073 S   0  0  0  0  0  0  0  0  0  0  0  0
  137.1887  139.6615  155.1105 O   0  0  0  0  0  0  0  0  0  0  0  0
  137.2561  140.8317  152.8344 O   0  0  0  0  0  0  0  0  0  0  0  0
  139.2436  139.1104  153.4444 C   0  0  0  0  0  0  0  0  0  0  0  0
  143.2356  135.2157  152.3761 C   0  0  0  0  0  0  0  0  0  0  0  0
  143.7630  134.0196  152.0452 N   0  0  0  0  0  0  0  0  0  0  0  0
  144.5656  129.4362  151.8081 H   0  0  0  0  0  0  0  0  0  0  0  0
  145.8662  130.3101  152.6102 H   0  0  0  0  0  0  0  0  0  0  0  0
  145.9731  129.9523  150.8864 H   0  0  0  0  0  0  0  0  0  0  0  0
  143.9638  131.4517  150.4764 H   0  0  0  0  0  0  0  0  0  0  0  0
  143.8849  131.8016  152.1708 H   0  0  0  0  0  0  0  0  0  0  0  0
  146.9191  133.5334  149.9255 H   0  0  0  0  0  0  0  0  0  0  0  0
  147.4385  132.0415  150.6449 H   0  0  0  0  0  0  0  0  0  0  0  0
  146.8981  131.7714  148.2059 H   0  0  0  0  0  0  0  0  0  0  0  0
  145.2535  132.3278  148.4899 H   0  0  0  0  0  0  0  0  0  0  0  0
  145.7904  130.7852  149.1470 H   0  0  0  0  0  0  0  0  0  0  0  0
  146.7946  135.1184  150.9751 H   0  0  0  0  0  0  0  0  0  0  0  0
  145.8391  137.2776  151.5967 H   0  0  0  0  0  0  0  0  0  0  0  0
  143.7165  138.4833  152.3838 H   0  0  0  0  0  0  0  0  0  0  0  0
  142.3202  139.7411  153.1131 H   0  0  0  0  0  0  0  0  0  0  0  0
  140.4682  139.0936  155.1898 H   0  0  0  0  0  0  0  0  0  0  0  0
  141.2493  141.4272  155.0223 H   0  0  0  0  0  0  0  0  0  0  0  0
  140.7586  141.5013  153.3428 H   0  0  0  0  0  0  0  0  0  0  0  0
  138.9748  141.5233  155.7844 H   0  0  0  0  0  0  0  0  0  0  0  0
  138.8508  142.5123  154.3206 H   0  0  0  0  0  0  0  0  0  0  0  0
  139.3549  139.2358  152.3668 H   0  0  0  0  0  0  0  0  0  0  0  0
  138.9427  138.0824  153.6470 H   0  0  0  0  0  0  0  0  0  0  0  0
  142.2306  135.1945  152.7719 H   0  0  0  0  0  0  0  0  0  0  0  0
  1  2  1  0  0  0  0
  1 23  1  0  0  0  0
  1 24  1  0  0  0  0
  1 25  1  0  0  0  0
  2  3  1  0  0  0  0
  2 26  1  0  0  0  0
  2 27  1  0  0  0  0
  3  4  1  0  0  0  0
  3  6  1  0  0  0  0
  4  5  1  0  0  0  0
  4 28  1  0  0  0  0
  4 29  1  0  0  0  0
  5 30  1  0  0  0  0
  5 31  1  0  0  0  0
  5 32  1  0  0  0  0
  6 22  1  0  0  0  0
  6  7  2  0  0  0  0
  7  8  1  0  0  0  0
  7 33  1  0  0  0  0
  8  9  2  0  0  0  0
  8 34  1  0  0  0  0
  9 10  1  0  0  0  0
  9 21  1  0  0  0  0
 10 11  1  0  0  0  0
 10 35  1  0  0  0  0
 11 12  2  0  0  0  0
 11 13  1  0  0  0  0
 13 14  1  0  0  0  0
 13 36  1  0  0  0  0
 14 20  1  0  0  0  0
 14 15  1  0  0  0  0
 14 37  1  0  0  0  0
 15 16  1  0  0  0  0
 15 38  1  0  0  0  0
 15 39  1  0  0  0  0
 16 17  1  0  0  0  0
 16 40  1  0  0  0  0
 16 41  1  0  0  0  0
 17 18  2  0  0  0  0
 17 19  2  0  0  0  0
 17 20  1  0  0  0  0
 20 42  1  0  0  0  0
 20 43  1  0  0  0  0
 21 22  2  0  0  0  0
 21 44  1  0  0  0  0
M  END
> <s_m_source_file>
AV-unprocessed.smi

> <i_m_source_file_index>
1754

> <i_lp_mmshare_version>
43012

> <i_f3d_flags>
0

> <s_epik_input>
W0NIM11bQ0gyXU4oW0NIMl1bQ0gzXSljMVtjSF1bY0hdYyhbY0hdbjEpW05IXUMoPU8pW05IXVtDQEBIXShbQ0gyXTIpW0NIMl1bQ0gyXVMyKD1PKT1P

> <s_epik_cmdline>
J2VwaWtfcHl0aG9uJywgJy1waCcsICc3LjAnLCAnLXRuJywgJzgnLCAnLW1hJywgJzIwMCcsICctbWV0YWxfYmluZGluZycsICctaW1hZScsICc8aW5maWxlLm1hZT4nLCAnLW9tYWUnLCAnPG91dGZpbGUubWFlPic=

> <r_lp_tautomer_probability>
1

> <r_epik_Ionization_Penalty>
0.615754

> <r_epik_Ionization_Penalty_Charging>
0

> <r_epik_Ionization_Penalty_Neutral>
0.615754

> <r_epik_State_Penalty>
2.08676

> <r_epik_Charging_Adjusted_Penalty>
2.08676

> <i_epik_Tot_Q>
0

> <i_epik_Tot_abs_Q>
0

> <r_epik_Metal_State_Penalty>
1.53042

> <b_epik_Metal_Only>
0

> <s_lp_Force_Field>
OPLS_2005

> <r_lp_Energy>
21.6605

> <b_lp_Chiralities_Consistent>
1

> <s_lp_Variant>
AV-unprocessed.smi:1754-4

> <Gold.Version>
5.8.1

> <Gold.Id.Protein>
6NUR|6NUR_protein|mol2

> <Gold.PLP.Fitness>
43.1324

> <Gold.PLP.PLP>
-37.6816

> <Gold.PLP.part.hbond>
-3.1642

> <Gold.PLP.part.metal>
0.0000

> <Gold.PLP.part.buried>
-2.4727

> <Gold.PLP.part.nonpolar>
-31.8919

> <Gold.PLP.part.repulsive>
0.3325

> <Gold.PLP.ligand.clash>
0.0000

> <Gold.PLP.ligand.torsion>
0.5942

> <Gold.PLP.Chemscore.Hbond>
1.9120

> <Gold.PLP.Chemscore.CHOScore>
0.0000

> <Gold.PLP.Chemscore.Metal>
0.0000

> <Gold.Chemscore.Hbonds>
donor molecule, donor type, donor heavy atom, donor atom, acceptor molecule, acceptor atom, score
      L1  H    10    35       P1 10175  0.91
      L1  H    13    36       P1 10175  1.00

> <Gold.PLP.Chemscore.Internal.Correction>
0.9033

> <Gold.Rescore>
     Score         DG    S(hbond)    S(metal)    S(lipo)     H(rot)  DE(clash)    DE(int)     intcor
     15.30     -17.38       1.82        0.00      80.16       1.39       0.14       1.94       ----

> <Gold.Chemscore.Fitness>
15.3035

> <Gold.Chemscore.DG>
-17.3836

> <Gold.Chemscore.ZeroCoef>
-5.4800

> <Gold.Chemscore.Hbond>
1.8196

> <Gold.Chemscore.Metal>
0.0000

> <Gold.Chemscore.Lipo>
80.1593

> <Gold.Chemscore.Internal_Hbond>
0.0000

> <Gold.Chemscore.DEClash>
0.1372

> <Gold.Chemscore.DEInternal>
1.9429

> <Gold.Chemscore.Rot>
1.3876

> <Gold.Chemscore.Internal.Correction>
   9.000000E+99

> <Gold.Chemscore.Hbonds>
donor molecule, donor type, donor heavy atom, donor atom, acceptor molecule, acceptor atom, score
      L1  H    10    35       P1 10175  0.87
      L1  H    13    36       P1 10175  0.86

> <Gold.Chemscore.Hbond.Weighted>
-6.0774

> <Gold.Chemscore.Metal.Weighted>
-0.0000

> <Gold.Chemscore.Lipo.Weighted>
-9.3786

> <Gold.Chemscore.Internal_Hbond.Weighted>
0.0000

> <Gold.Chemscore.DEClash.Weighted>
0.1372

> <Gold.Chemscore.DEInternal.Weighted>
1.9429

> <Gold.Chemscore.Rot.Weighted>
3.5524

> <Gold.Chemscore.Internal.Correction.Weighted>
   9.000000E+99

> <Gold.Protein.RotatedTorsions>
[ 6907 6896 6895 6894 ] final  -32.97 input  -60.11 | X-H torsion
[ 7974 7965 7964 7962 ] final  -93.59 input  175.53 | X-H torsion
[ 8008 7997 7996 7995 ] final   26.58 input   59.86 | X-H torsion
[ 10167 10162 10161 10158 ] final   -2.74 input  -65.29 | X-H torsion
[ 10718 10713 10712 10709 ] final  143.36 input   66.30 | X-H torsion
[ 10763 10752 10751 10750 ] final  -45.29 input  -60.55 | X-H torsion
[ 11005 11000 10999 10996 ] final   15.57 input  -57.11 | X-H torsion

> <Gold.Protein.ActiveResidues>
 VAL166  LYS551  ARG553  GLY616  TRP617  ASP618  TYR619  PRO620  LYS621  CYS622 
 ASP623  PHE694  ASN695  SER759  ASP760  ASP761  ALA762  ILE779  LEU786  VAL792 
 PHE793  MET794  SER795  GLU796  ALA797  LYS798  CYS799  TRP800  GLU811  SER814 

> <Gold.Protein.RotatedAtoms>
  151.0718  134.9803  159.8311 H   0  0  0  0  0  0  0  0  0  0  0  0  # atno 6907 bound_to 6896
  152.5409  134.2290  159.8827 H   0  0  0  0  0  0  0  0  0  0  0  0  # atno 6908 bound_to 6896
  151.2315  133.4404  159.2637 H   0  0  0  0  0  0  0  0  0  0  0  0  # atno 6909 bound_to 6896
  145.3845  140.9521  143.2375 H   0  0  0  0  0  0  0  0  0  0  0  0  # atno 7974 bound_to 7965
  155.0295  140.3157  155.4764 H   0  0  0  0  0  0  0  0  0  0  0  0  # atno 8008 bound_to 7997
  156.2877  140.2183  156.5358 H   0  0  0  0  0  0  0  0  0  0  0  0  # atno 8009 bound_to 7997
  154.7383  140.0475  157.0776 H   0  0  0  0  0  0  0  0  0  0  0  0  # atno 8010 bound_to 7997
  140.6863  143.6621  150.8257 H   0  0  0  0  0  0  0  0  0  0  0  0  # atno 10167 bound_to 10162
  157.3698  131.0977  151.0839 H   0  0  0  0  0  0  0  0  0  0  0  0  # atno 10718 bound_to 10713
  154.0262  135.6663  153.4776 H   0  0  0  0  0  0  0  0  0  0  0  0  # atno 10763 bound_to 10752
  153.0559  135.5056  154.7976 H   0  0  0  0  0  0  0  0  0  0  0  0  # atno 10764 bound_to 10752
  154.6907  135.3061  154.9449 H   0  0  0  0  0  0  0  0  0  0  0  0  # atno 10765 bound_to 10752
  140.4568  134.1168  155.7710 H   0  0  0  0  0  0  0  0  0  0  0  0  # atno 11005 bound_to 11000
  144.8484  139.5360  143.6868 LP  0  0  0  0  0  0  0  0  0  0  0  0  # atno 17320 bound_to 7965
  146.2827  139.6919  142.9218 LP  0  0  0  0  0  0  0  0  0  0  0  0  # atno 17321 bound_to 7965
  140.0328  143.5425  152.2752 LP  0  0  0  0  0  0  0  0  0  0  0  0  # atno 17342 bound_to 10162
  139.6225  144.7631  151.2710 LP  0  0  0  0  0  0  0  0  0  0  0  0  # atno 17343 bound_to 10162
  157.1947  130.6367  149.5717 LP  0  0  0  0  0  0  0  0  0  0  0  0  # atno 17370 bound_to 10713
  155.9753  130.4710  150.6451 LP  0  0  0  0  0  0  0  0  0  0  0  0  # atno 17371 bound_to 10713
  141.1639  133.8739  157.1769 LP  0  0  0  0  0  0  0  0  0  0  0  0  # atno 17394 bound_to 11000
  139.9971  135.0042  157.0107 LP  0  0  0  0  0  0  0  0  0  0  0  0  # atno 17395 bound_to 11000

$$$$
