AV-unprocessed.smi:2572|AV-procd|sdf|10111|dock8
  -GOLD-   2272014133D 1   1.00000     0.00000
 Structure written by MMmdl.
 38 39  0  0  0  0  0  0  0  0  1 V2000
  154.4199  136.8466  164.4560 C   0  0  0  0  0  0  0  0  0  0  0  0
  155.1845  135.9258  163.6804 O   0  0  0  0  0  0  0  0  0  0  0  0
  155.0362  135.9921  162.3060 C   0  0  0  0  0  0  0  0  0  0  0  0
  155.7931  135.0698  161.4863 C   0  0  0  0  0  0  0  0  0  0  0  0
  155.6612  135.1270  160.1435 C   0  0  0  0  0  0  0  0  0  0  0  0
  154.7750  136.0940  159.4961 C   0  0  0  0  0  0  0  0  0  0  0  0
  154.6410  136.1704  158.2751 O   0  0  0  0  0  0  0  0  0  0  0  0
  154.1113  136.9052  160.3724 N   0  0  0  0  0  0  0  0  0  0  0  0
  153.1904  137.9458  159.9005 C   0  0  0  0  0  0  0  0  0  0  0  0
  153.9227  139.0349  159.0857 C   0  0  1  0  0  0  0  0  0  0  0  0
  153.9653  138.6326  157.7305 O   0  0  0  0  0  0  0  0  0  0  0  0
  153.1902  140.3883  159.1529 C   0  0  0  0  0  0  0  0  0  0  0  0
  153.9063  141.4309  160.0277 C   0  0  0  0  0  0  0  0  0  0  0  0
  153.1452  142.7413  160.0938 C   0  0  0  0  0  0  0  0  0  0  0  0
  152.9702  143.5204  158.9307 C   0  0  0  0  0  0  0  0  0  0  0  0
  152.2606  144.7357  158.9938 C   0  0  0  0  0  0  0  0  0  0  0  0
  151.7215  145.1745  160.2187 C   0  0  0  0  0  0  0  0  0  0  0  0
  151.8920  144.3976  161.3810 C   0  0  0  0  0  0  0  0  0  0  0  0
  152.6036  143.1836  161.3192 C   0  0  0  0  0  0  0  0  0  0  0  0
  154.2431  136.8531  161.7502 N   0  0  0  0  0  0  0  0  0  0  0  0
  154.6315  136.6834  165.5125 H   0  0  0  0  0  0  0  0  0  0  0  0
  153.3469  136.7060  164.3131 H   0  0  0  0  0  0  0  0  0  0  0  0
  154.6790  137.8823  164.2281 H   0  0  0  0  0  0  0  0  0  0  0  0
  156.4510  134.3513  161.9526 H   0  0  0  0  0  0  0  0  0  0  0  0
  156.2249  134.4407  159.5289 H   0  0  0  0  0  0  0  0  0  0  0  0
  152.3491  137.5338  159.3399 H   0  0  0  0  0  0  0  0  0  0  0  0
  152.7354  138.3998  160.7830 H   0  0  0  0  0  0  0  0  0  0  0  0
  154.9412  139.1619  159.4554 H   0  0  0  0  0  0  0  0  0  0  0  0
  154.3048  137.7519  157.6879 H   0  0  0  0  0  0  0  0  0  0  0  0
  153.0421  140.7832  158.1466 H   0  0  0  0  0  0  0  0  0  0  0  0
  152.1930  140.2274  159.5650 H   0  0  0  0  0  0  0  0  0  0  0  0
  154.0311  141.0458  161.0406 H   0  0  0  0  0  0  0  0  0  0  0  0
  154.9104  141.6216  159.6471 H   0  0  0  0  0  0  0  0  0  0  0  0
  153.3784  143.1884  157.9872 H   0  0  0  0  0  0  0  0  0  0  0  0
  152.1294  145.3311  158.1024 H   0  0  0  0  0  0  0  0  0  0  0  0
  151.1772  146.1061  160.2665 H   0  0  0  0  0  0  0  0  0  0  0  0
  151.4769  144.7330  162.3203 H   0  0  0  0  0  0  0  0  0  0  0  0
  152.7307  142.5916  162.2138 H   0  0  0  0  0  0  0  0  0  0  0  0
  1  2  1  0  0  0  0
  1 21  1  0  0  0  0
  1 22  1  0  0  0  0
  1 23  1  0  0  0  0
  2  3  1  0  0  0  0
  3 20  2  0  0  0  0
  3  4  1  0  0  0  0
  4  5  2  0  0  0  0
  4 24  1  0  0  0  0
  5  6  1  0  0  0  0
  5 25  1  0  0  0  0
  6  7  2  0  0  0  0
  6  8  1  0  0  0  0
  8  9  1  0  0  0  0
  8 20  1  0  0  0  0
  9 10  1  0  0  0  0
  9 26  1  0  0  0  0
  9 27  1  0  0  0  0
 10 11  1  0  0  0  0
 10 12  1  0  0  0  0
 10 28  1  0  0  0  0
 11 29  1  0  0  0  0
 12 13  1  0  0  0  0
 12 30  1  0  0  0  0
 12 31  1  0  0  0  0
 13 14  1  0  0  0  0
 13 32  1  0  0  0  0
 13 33  1  0  0  0  0
 14 19  1  0  0  0  0
 14 15  2  0  0  0  0
 15 16  1  0  0  0  0
 15 34  1  0  0  0  0
 16 17  2  0  0  0  0
 16 35  1  0  0  0  0
 17 18  1  0  0  0  0
 17 36  1  0  0  0  0
 18 19  2  0  0  0  0
 18 37  1  0  0  0  0
 19 38  1  0  0  0  0
M  END
> <s_m_source_file>
AV-unprocessed.smi

> <i_m_source_file_index>
2572

> <i_lp_mmshare_version>
43012

> <i_f3d_flags>
0

> <s_epik_input>
W0NIM11PYzFbY0hdW2NIXWMoPU8pbihuMSlbQ0gyXVtDQEhdKFtPSF0pW0NIMl1bQ0gyXWMyW2NIXVtjSF1bY0hdW2NIXVtjSF0y

> <s_epik_cmdline>
J2VwaWtfcHl0aG9uJywgJy1waCcsICc3LjAnLCAnLXRuJywgJzgnLCAnLW1hJywgJzIwMCcsICctbWV0YWxfYmluZGluZycsICctaW1hZScsICc8aW5maWxlLm1hZT4nLCAnLW9tYWUnLCAnPG91dGZpbGUubWFlPic=

> <r_lp_tautomer_probability>
1

> <r_epik_Ionization_Penalty>
8.48543e-06

> <r_epik_Ionization_Penalty_Charging>
6.90219e-06

> <r_epik_Ionization_Penalty_Neutral>
1.58323e-06

> <r_epik_State_Penalty>
-0

> <r_epik_Charging_Adjusted_Penalty>
6.90219e-06

> <i_epik_Tot_Q>
0

> <i_epik_Tot_abs_Q>
0

> <r_epik_Metal_State_Penalty>
-0

> <b_epik_Metal_Only>
0

> <s_lp_Force_Field>
OPLS_2005

> <r_lp_Energy>
30.5458

> <b_lp_Chiralities_Consistent>
1

> <s_lp_Variant>
AV-unprocessed.smi:2572-2

> <Gold.Version>
5.8.1

> <Gold.Id.Protein>
6NUR|6NUR_protein|mol2

> <Gold.PLP.Fitness>
46.6956

> <Gold.PLP.PLP>
-45.7277

> <Gold.PLP.part.hbond>
-1.0000

> <Gold.PLP.part.metal>
0.0000

> <Gold.PLP.part.buried>
-4.4841

> <Gold.PLP.part.nonpolar>
-40.3255

> <Gold.PLP.part.repulsive>
0.0610

> <Gold.PLP.ligand.clash>
0.0000

> <Gold.PLP.ligand.torsion>
1.0355

> <Gold.PLP.Chemscore.Hbond>
1.0000

> <Gold.PLP.Chemscore.CHOScore>
0.0000

> <Gold.PLP.Chemscore.Metal>
0.0000

> <Gold.Chemscore.Hbonds>
donor molecule, donor type, donor heavy atom, donor atom, acceptor molecule, acceptor atom, score
      P1  H  7997  8008       L1    11  1.00

> <Gold.PLP.Chemscore.Internal.Correction>
0.0389

> <Gold.Rescore>
     Score         DG    S(hbond)    S(metal)    S(lipo)     H(rot)  DE(clash)    DE(int)     intcor
     14.36     -15.69       0.75        0.00     121.12       2.52       0.14       1.19       ----

> <Gold.Chemscore.Fitness>
14.3597

> <Gold.Chemscore.DG>
-15.6886

> <Gold.Chemscore.ZeroCoef>
-5.4800

> <Gold.Chemscore.Hbond>
0.7461

> <Gold.Chemscore.Metal>
0.0000

> <Gold.Chemscore.Lipo>
121.1196

> <Gold.Chemscore.Internal_Hbond>
0.0000

> <Gold.Chemscore.DEClash>
0.1434

> <Gold.Chemscore.DEInternal>
1.1854

> <Gold.Chemscore.Rot>
2.5212

> <Gold.Chemscore.Internal.Correction>
   9.000000E+99

> <Gold.Chemscore.Hbonds>
donor molecule, donor type, donor heavy atom, donor atom, acceptor molecule, acceptor atom, score
      P1  H  7997  8008       L1    11  0.33

> <Gold.Chemscore.Hbond.Weighted>
-2.4919

> <Gold.Chemscore.Metal.Weighted>
-0.0000

> <Gold.Chemscore.Lipo.Weighted>
-14.1710

> <Gold.Chemscore.Internal_Hbond.Weighted>
0.0000

> <Gold.Chemscore.DEClash.Weighted>
0.1434

> <Gold.Chemscore.DEInternal.Weighted>
1.1854

> <Gold.Chemscore.Rot.Weighted>
6.4543

> <Gold.Chemscore.Internal.Correction.Weighted>
   9.000000E+99

> <Gold.Protein.RotatedTorsions>
[ 6907 6896 6895 6894 ] final  -14.12 input  -60.11 | X-H torsion
[ 7974 7965 7964 7962 ] final  118.68 input  175.53 | X-H torsion
[ 8008 7997 7996 7995 ] final  -82.45 input   59.86 | X-H torsion
[ 10167 10162 10161 10158 ] final -100.60 input  -65.29 | X-H torsion
[ 10718 10713 10712 10709 ] final  166.00 input   66.30 | X-H torsion
[ 10763 10752 10751 10750 ] final  147.13 input  -60.55 | X-H torsion
[ 11005 11000 10999 10996 ] final  -98.11 input  -57.11 | X-H torsion

> <Gold.Protein.ActiveResidues>
 VAL166  LYS551  ARG553  GLY616  TRP617  ASP618  TYR619  PRO620  LYS621  CYS622 
 ASP623  PHE694  ASN695  SER759  ASP760  ASP761  ALA762  ILE779  LEU786  VAL792 
 PHE793  MET794  SER795  GLU796  ALA797  LYS798  CYS799  TRP800  GLU811  SER814 

> <Gold.Protein.RotatedAtoms>
  151.3443  135.0870  159.9381 H   0  0  0  0  0  0  0  0  0  0  0  0  # atno 6907 bound_to 6896
  152.5203  133.9416  159.7639 H   0  0  0  0  0  0  0  0  0  0  0  0  # atno 6908 bound_to 6896
  150.9779  133.6222  159.2757 H   0  0  0  0  0  0  0  0  0  0  0  0  # atno 6909 bound_to 6896
  145.1522  139.3204  143.4560 H   0  0  0  0  0  0  0  0  0  0  0  0  # atno 7974 bound_to 7965
  154.6088  140.0633  156.9466 H   0  0  0  0  0  0  0  0  0  0  0  0  # atno 8008 bound_to 7997
  155.2009  140.3315  155.4325 H   0  0  0  0  0  0  0  0  0  0  0  0  # atno 8009 bound_to 7997
  156.2364  140.1865  156.7092 H   0  0  0  0  0  0  0  0  0  0  0  0  # atno 8010 bound_to 7997
  140.2502  143.3478  152.0722 H   0  0  0  0  0  0  0  0  0  0  0  0  # atno 10167 bound_to 10162
  157.0721  131.0369  151.2608 H   0  0  0  0  0  0  0  0  0  0  0  0  # atno 10718 bound_to 10713
  154.0333  135.2896  155.3365 H   0  0  0  0  0  0  0  0  0  0  0  0  # atno 10763 bound_to 10752
  154.6974  135.5202  153.8481 H   0  0  0  0  0  0  0  0  0  0  0  0  # atno 10764 bound_to 10752
  153.0630  135.6621  154.0544 H   0  0  0  0  0  0  0  0  0  0  0  0  # atno 10765 bound_to 10752
  141.1356  133.8221  157.0796 H   0  0  0  0  0  0  0  0  0  0  0  0  # atno 11005 bound_to 11000
  146.3493  140.1601  142.8591 LP  0  0  0  0  0  0  0  0  0  0  0  0  # atno 17320 bound_to 7965
  145.0418  140.8951  143.5047 LP  0  0  0  0  0  0  0  0  0  0  0  0  # atno 17321 bound_to 7965
  139.5049  144.6784  151.6071 LP  0  0  0  0  0  0  0  0  0  0  0  0  # atno 17342 bound_to 10162
  140.6047  143.9547  150.6410 LP  0  0  0  0  0  0  0  0  0  0  0  0  # atno 17343 bound_to 10162
  157.4869  130.7799  149.7469 LP  0  0  0  0  0  0  0  0  0  0  0  0  # atno 17370 bound_to 10713
  155.9947  130.3916  150.2847 LP  0  0  0  0  0  0  0  0  0  0  0  0  # atno 17371 bound_to 10713
  140.0460  134.9830  157.1050 LP  0  0  0  0  0  0  0  0  0  0  0  0  # atno 17394 bound_to 11000
  140.4062  134.2030  155.7163 LP  0  0  0  0  0  0  0  0  0  0  0  0  # atno 17395 bound_to 11000

$$$$
