AV-unprocessed.smi:3280|AV-procd|sdf|12552|dock5
  -GOLD-   2272018473D 1   1.00000     0.00000
 Structure written by MMmdl.
 39 40  0  0  0  0  0  0  0  0  2 V2000
  145.3770  144.7710  152.5587 C   0  0  0  0  0  0  0  0  0  0  0  0
  144.8423  143.9983  153.7739 C   0  0  0  0  0  0  0  0  0  0  0  0
  144.0953  144.8951  154.7723 C   0  0  0  0  0  0  0  0  0  0  0  0
  145.9188  143.2013  154.4451 C   0  0  0  0  0  0  0  0  0  0  0  0
  145.9069  142.9964  155.7576 N   0  0  0  0  0  0  0  0  0  0  0  0
  147.0699  142.2466  155.9815 O   0  0  0  0  0  0  0  0  0  0  0  0
  147.6381  142.0753  154.7644 C   0  0  0  0  0  0  0  0  0  0  0  0
  148.9376  141.3485  154.6722 C   0  0  0  0  0  0  0  0  0  0  0  0
  149.6723  141.2963  156.0177 C   0  0  0  0  0  0  0  0  0  0  0  0
  150.4853  142.5138  156.2248 N   0  3  0  0  0  0  0  0  0  0  0  0
  150.9629  142.7356  157.6086 C   0  0  2  0  0  0  0  0  0  0  0  0
  151.6851  144.0957  157.6812 C   0  0  0  0  0  0  0  0  0  0  0  0
  152.1404  144.4604  159.1036 C   0  0  0  0  0  0  0  0  0  0  0  0
  153.1357  143.4443  159.6785 C   0  0  0  0  0  0  0  0  0  0  0  0
  152.3847  141.8003  159.8081 S   0  0  0  0  0  0  0  0  0  0  0  0
  151.8839  141.5892  158.0777 C   0  0  0  0  0  0  0  0  0  0  0  0
  146.9779  142.6670  153.7733 N   0  0  0  0  0  0  0  0  0  0  0  0
  145.8402  144.0970  151.8372 H   0  0  0  0  0  0  0  0  0  0  0  0
  146.1241  145.5085  152.8537 H   0  0  0  0  0  0  0  0  0  0  0  0
  144.5730  145.3005  152.0469 H   0  0  0  0  0  0  0  0  0  0  0  0
  144.1077  143.2899  153.3867 H   0  0  0  0  0  0  0  0  0  0  0  0
  143.6654  144.3056  155.5828 H   0  0  0  0  0  0  0  0  0  0  0  0
  143.2799  145.4300  154.2850 H   0  0  0  0  0  0  0  0  0  0  0  0
  144.7606  145.6368  155.2151 H   0  0  0  0  0  0  0  0  0  0  0  0
  148.7447  140.3384  154.3083 H   0  0  0  0  0  0  0  0  0  0  0  0
  149.5582  141.8401  153.9217 H   0  0  0  0  0  0  0  0  0  0  0  0
  148.9475  141.2018  156.8276 H   0  0  0  0  0  0  0  0  0  0  0  0
  150.3118  140.4141  156.0502 H   0  0  0  0  0  0  0  0  0  0  0  0
  151.2804  142.4941  155.6020 H   0  0  0  0  0  0  0  0  0  0  0  0
  150.0888  142.7810  158.2602 H   0  0  0  0  0  0  0  0  0  0  0  0
  152.5480  144.0944  157.0135 H   0  0  0  0  0  0  0  0  0  0  0  0
  151.0204  144.8798  157.3163 H   0  0  0  0  0  0  0  0  0  0  0  0
  152.6045  145.4470  159.0896 H   0  0  0  0  0  0  0  0  0  0  0  0
  151.2741  144.5409  159.7614 H   0  0  0  0  0  0  0  0  0  0  0  0
  154.0248  143.3822  159.0500 H   0  0  0  0  0  0  0  0  0  0  0  0
  153.4656  143.7569  160.6695 H   0  0  0  0  0  0  0  0  0  0  0  0
  151.3841  140.6241  158.0035 H   0  0  0  0  0  0  0  0  0  0  0  0
  152.7775  141.5343  157.4549 H   0  0  0  0  0  0  0  0  0  0  0  0
  149.9061  143.3036  155.9775 H   0  0  0  0  0  0  0  0  0  0  0  0
  1  2  1  0  0  0  0
  1 18  1  0  0  0  0
  1 19  1  0  0  0  0
  1 20  1  0  0  0  0
  2  3  1  0  0  0  0
  2  4  1  0  0  0  0
  2 21  1  0  0  0  0
  3 22  1  0  0  0  0
  3 23  1  0  0  0  0
  3 24  1  0  0  0  0
  4 17  1  0  0  0  0
  4  5  2  0  0  0  0
  5  6  1  0  0  0  0
  6  7  1  0  0  0  0
  7  8  1  0  0  0  0
  7 17  2  0  0  0  0
  8  9  1  0  0  0  0
  8 25  1  0  0  0  0
  8 26  1  0  0  0  0
  9 10  1  0  0  0  0
  9 27  1  0  0  0  0
  9 28  1  0  0  0  0
 10 11  1  0  0  0  0
 10 29  1  0  0  0  0
 10 39  1  0  0  0  0
 11 16  1  0  0  0  0
 11 12  1  0  0  0  0
 11 30  1  0  0  0  0
 12 13  1  0  0  0  0
 12 31  1  0  0  0  0
 12 32  1  0  0  0  0
 13 14  1  0  0  0  0
 13 33  1  0  0  0  0
 13 34  1  0  0  0  0
 14 15  1  0  0  0  0
 14 35  1  0  0  0  0
 14 36  1  0  0  0  0
 15 16  1  0  0  0  0
 16 37  1  0  0  0  0
 16 38  1  0  0  0  0
M  CHG  1  10   1
M  END
> <s_m_source_file>
AV-unprocessed.smi

> <i_m_source_file_index>
3280

> <i_lp_mmshare_version>
43012

> <i_f3d_flags>
0

> <s_epik_input>
W0NIM11bQ0hdKFtDSDNdKWMxbm9jKG4xKVtDSDJdW0NIMl1bTkhdW0NAQEhdMltDSDJdW0NIMl1bQ0gyXVNbQ0gyXTI=

> <s_epik_cmdline>
J2VwaWtfcHl0aG9uJywgJy1waCcsICc3LjAnLCAnLXRuJywgJzgnLCAnLW1hJywgJzIwMCcsICctbWV0YWxfYmluZGluZycsICctaW1hZScsICc8aW5maWxlLm1hZT4nLCAnLW9tYWUnLCAnPG91dGZpbGUubWFlPic=

> <r_lp_tautomer_probability>
1

> <r_epik_Ionization_Penalty>
0.0103043

> <r_epik_Ionization_Penalty_Charging>
0.0103043

> <r_epik_Ionization_Penalty_Neutral>
2.61801e-13

> <r_epik_State_Penalty>
0.0078728

> <r_epik_Charging_Adjusted_Penalty>
0.0181771

> <i_epik_Tot_Q>
1

> <i_epik_Tot_abs_Q>
1

> <r_epik_Metal_State_Penalty>
0.0078728

> <b_epik_Metal_Only>
0

> <s_lp_Force_Field>
OPLS_2005

> <r_lp_Energy>
0.790669

> <b_lp_Chiralities_Consistent>
1

> <s_lp_Variant>
AV-unprocessed.smi:3280-1

> <Gold.Version>
5.8.1

> <Gold.Id.Protein>
6NUR|6NUR_protein|mol2

> <Gold.PLP.Fitness>
43.2219

> <Gold.PLP.PLP>
-39.4533

> <Gold.PLP.part.hbond>
-1.0000

> <Gold.PLP.part.metal>
0.0000

> <Gold.PLP.part.buried>
-1.5312

> <Gold.PLP.part.nonpolar>
-37.7527

> <Gold.PLP.part.repulsive>
0.7328

> <Gold.PLP.ligand.clash>
0.0000

> <Gold.PLP.ligand.torsion>
1.1629

> <Gold.PLP.Chemscore.Hbond>
2.0000

> <Gold.PLP.Chemscore.CHOScore>
0.0000

> <Gold.PLP.Chemscore.Metal>
0.0000

> <Gold.Chemscore.Hbonds>
donor molecule, donor type, donor heavy atom, donor atom, acceptor molecule, acceptor atom, score
      L1  H    10    39       P1  8028  2.00

> <Gold.PLP.Chemscore.Internal.Correction>
0.0943

> <Gold.Rescore>
     Score         DG    S(hbond)    S(metal)    S(lipo)     H(rot)  DE(clash)    DE(int)     intcor
     15.38     -16.34       1.00        0.00     102.70       1.76       0.29       0.66       ----

> <Gold.Chemscore.Fitness>
15.3826

> <Gold.Chemscore.DG>
-16.3375

> <Gold.Chemscore.ZeroCoef>
-5.4800

> <Gold.Chemscore.Hbond>
1.0000

> <Gold.Chemscore.Metal>
0.0000

> <Gold.Chemscore.Lipo>
102.6995

> <Gold.Chemscore.Internal_Hbond>
0.0000

> <Gold.Chemscore.DEClash>
0.2928

> <Gold.Chemscore.DEInternal>
0.6621

> <Gold.Chemscore.Rot>
1.7572

> <Gold.Chemscore.Internal.Correction>
   9.000000E+99

> <Gold.Chemscore.Hbonds>
donor molecule, donor type, donor heavy atom, donor atom, acceptor molecule, acceptor atom, score
      L1  H    10    39       P1  8028  1.00

> <Gold.Chemscore.Hbond.Weighted>
-3.3400

> <Gold.Chemscore.Metal.Weighted>
-0.0000

> <Gold.Chemscore.Lipo.Weighted>
-12.0158

> <Gold.Chemscore.Internal_Hbond.Weighted>
0.0000

> <Gold.Chemscore.DEClash.Weighted>
0.2928

> <Gold.Chemscore.DEInternal.Weighted>
0.6621

> <Gold.Chemscore.Rot.Weighted>
4.4984

> <Gold.Chemscore.Internal.Correction.Weighted>
   9.000000E+99

> <Gold.Protein.RotatedTorsions>
[ 6907 6896 6895 6894 ] final   72.46 input  -60.11 | X-H torsion
[ 7974 7965 7964 7962 ] final  110.36 input  175.53 | X-H torsion
[ 8008 7997 7996 7995 ] final  172.40 input   59.86 | X-H torsion
[ 10167 10162 10161 10158 ] final   34.78 input  -65.29 | X-H torsion
[ 10718 10713 10712 10709 ] final -164.12 input   66.30 | X-H torsion
[ 10763 10752 10751 10750 ] final -148.65 input  -60.55 | X-H torsion
[ 11005 11000 10999 10996 ] final   44.74 input  -57.11 | X-H torsion

> <Gold.Protein.ActiveResidues>
 VAL166  LYS551  ARG553  GLY616  TRP617  ASP618  TYR619  PRO620  LYS621  CYS622 
 ASP623  PHE694  ASN695  SER759  ASP760  ASP761  ALA762  ILE779  LEU786  VAL792 
 PHE793  MET794  SER795  GLU796  ALA797  LYS798  CYS799  TRP800  GLU811  SER814 

> <Gold.Protein.RotatedAtoms>
  152.4869  134.4567  159.9591 H   0  0  0  0  0  0  0  0  0  0  0  0  # atno 6907 bound_to 6896
  151.4562  133.3598  159.2810 H   0  0  0  0  0  0  0  0  0  0  0  0  # atno 6908 bound_to 6896
  150.8988  134.8423  159.7405 H   0  0  0  0  0  0  0  0  0  0  0  0  # atno 6909 bound_to 6896
  145.2560  139.2721  143.4042 H   0  0  0  0  0  0  0  0  0  0  0  0  # atno 7974 bound_to 7965
  156.1178  140.1487  156.9248 H   0  0  0  0  0  0  0  0  0  0  0  0  # atno 8008 bound_to 7997
  154.4813  140.0878  156.7426 H   0  0  0  0  0  0  0  0  0  0  0  0  # atno 8009 bound_to 7997
  155.4483  140.3434  155.4300 H   0  0  0  0  0  0  0  0  0  0  0  0  # atno 8010 bound_to 7997
  140.4283  144.1361  150.6156 H   0  0  0  0  0  0  0  0  0  0  0  0  # atno 10167 bound_to 10162
  156.6345  130.8943  151.2984 H   0  0  0  0  0  0  0  0  0  0  0  0  # atno 10718 bound_to 10713
  154.8221  135.3329  154.7007 H   0  0  0  0  0  0  0  0  0  0  0  0  # atno 10763 bound_to 10752
  153.7639  135.6930  153.4924 H   0  0  0  0  0  0  0  0  0  0  0  0  # atno 10764 bound_to 10752
  153.2091  135.4488  155.0308 H   0  0  0  0  0  0  0  0  0  0  0  0  # atno 10765 bound_to 10752
  140.1524  134.4445  155.8373 H   0  0  0  0  0  0  0  0  0  0  0  0  # atno 11005 bound_to 11000
  146.3289  140.2964  142.8618 LP  0  0  0  0  0  0  0  0  0  0  0  0  # atno 17320 bound_to 7965
  144.9461  140.8129  143.5601 LP  0  0  0  0  0  0  0  0  0  0  0  0  # atno 17321 bound_to 7965
  140.4456  143.2508  151.9416 LP  0  0  0  0  0  0  0  0  0  0  0  0  # atno 17342 bound_to 10162
  139.4784  144.5612  151.8236 LP  0  0  0  0  0  0  0  0  0  0  0  0  # atno 17343 bound_to 10162
  157.7190  130.9533  150.1364 LP  0  0  0  0  0  0  0  0  0  0  0  0  # atno 17370 bound_to 10713
  156.2208  130.3674  149.8558 LP  0  0  0  0  0  0  0  0  0  0  0  0  # atno 17371 bound_to 10713
  141.2200  133.6878  156.7445 LP  0  0  0  0  0  0  0  0  0  0  0  0  # atno 17394 bound_to 11000
  140.2589  134.8482  157.3739 LP  0  0  0  0  0  0  0  0  0  0  0  0  # atno 17395 bound_to 11000

$$$$
