#       Name:                AV-unprocessed.smi:3058
#       Creating user name   scv26
#       Creation time:       Fri Mar 27 17:07:33 2020


#       File generated by GOLD software.
#

@<TRIPOS>MOLECULE
AV-unprocessed.smi:3058
    41    43     1
SMALL
NO_CHARGES


@<TRIPOS>ATOM
      1 ****        -0.2546   1.4307   0.0699 O.2            1 S1                 0.0000
      2 ****        -0.7196   0.4736   0.6905 C.2            1 S1                 0.0000
      3 ****         0.0480  -0.4474   1.2931 N.am           1 S1                 0.0000
      4 ****         1.5058  -0.4553   1.2864 C.3            1 S1                 0.0000
      5 ****         2.0624  -1.0219  -0.0297 C.3            1 S1                 0.0000
      6 ****         3.5780  -1.0388  -0.0454 C.ar           1 S1                 0.0000
      7 ****         4.3070   0.0527  -0.5604 C.ar           1 S1                 0.0000
      8 ****         5.7139  -0.0052  -0.5481 C.ar           1 S1                 0.0000
      9 ****         6.3330  -1.1554  -0.0189 C.ar           1 S1                 0.0000
     10 ****         5.6448  -2.2062   0.4777 N.ar           1 S1                 0.0000
     11 ****         4.2960  -2.1427   0.4616 C.ar           1 S1                 0.0000
     12 ****        -2.2401   0.2844   0.8337 C.3            1 S1                 0.0000
     13 ****        -3.0475   1.5997   0.9656 C.3            1 S1                 0.0000
     14 ****        -4.1101   1.4660  -0.1416 C.3            1 S1                 0.0000
     15 ****        -3.4459   1.6554  -1.5184 C.3            1 S1                 0.0000
     16 ****        -2.6767   0.3353  -1.7082 C.3            1 S1                 0.0000
     17 ****        -2.9317  -0.4016  -0.3746 C.3            1 S1                 0.0000
     18 ****        -4.3913  -0.0323  -0.1260 C.3            1 S1                 0.0000
     19 ****        -0.4111  -1.1975   1.7892 H              1 S1                 0.0000
     20 ****         1.8852   0.5532   1.4607 H              1 S1                 0.0000
     21 ****         1.8445  -1.0633   2.1258 H              1 S1                 0.0000
     22 ****         1.6938  -2.0365  -0.1868 H              1 S1                 0.0000
     23 ****         1.7092  -0.4321  -0.8767 H              1 S1                 0.0000
     24 ****         3.7991   0.9202  -0.9558 H              1 S1                 0.0000
     25 ****         6.3043   0.8126  -0.9340 H              1 S1                 0.0000
     26 ****         7.4099  -1.2329   0.0066 H              1 S1                 0.0000
     27 ****         3.7753  -2.9970   0.8690 H              1 S1                 0.0000
     28 ****        -2.4245  -0.3176   1.7258 H              1 S1                 0.0000
     29 ****        -3.5241   1.6499   1.9454 H              1 S1                 0.0000
     30 ****        -2.4546   2.5081   0.8510 H              1 S1                 0.0000
     31 ****        -4.9826   2.1012   0.0130 H              1 S1                 0.0000
     32 ****        -4.1944   1.7792  -2.3020 H              1 S1                 0.0000
     33 ****        -2.7887   2.5256  -1.5414 H              1 S1                 0.0000
     34 ****        -3.1044  -0.2302  -2.5371 H              1 S1                 0.0000
     35 ****        -1.6227   0.4852  -1.9387 H              1 S1                 0.0000
     36 ****        -2.7462  -1.4747  -0.4283 H              1 S1                 0.0000
     37 ****        -4.7748  -0.3915   0.8308 H              1 S1                 0.0000
     38 ****        -5.0643  -0.3543  -0.9228 H              1 S1                 0.0000
     39 ****         0.7361   1.5468  -0.0012 LP             1 S1                 0.0000
     40 ****        -0.8678   2.0916  -0.3628 LP             1 S1                 0.0000
     41 ****         6.1191  -3.0059   0.8456 LP             1 S1                 0.0000
@<TRIPOS>BOND
    1    1    2 2     
    2    2    3 am    
    3    2   12 1     
    4    3    4 1     
    5    3   19 1     
    6    4    5 1     
    7    4   20 1     
    8    4   21 1     
    9    5    6 1     
   10    5   22 1     
   11    5   23 1     
   12    6   11 ar    
   13    6    7 ar    
   14    7    8 ar    
   15    7   24 1     
   16    8    9 ar    
   17    8   25 1     
   18    9   10 ar    
   19    9   26 1     
   20   10   11 ar    
   21   11   27 1     
   22   12   17 1     
   23   12   13 1     
   24   12   28 1     
   25   13   14 1     
   26   13   29 1     
   27   13   30 1     
   28   14   18 1     
   29   14   15 1     
   30   14   31 1     
   31   15   16 1     
   32   15   32 1     
   33   15   33 1     
   34   16   17 1     
   35   16   34 1     
   36   16   35 1     
   37   17   18 1     
   38   17   36 1     
   39   18   37 1     
   40   18   38 1     
   41    1   39 1     
   42    1   40 1     
   43   10   41 1     
@<TRIPOS>SUBSTRUCTURE
      1 S1             1
@<TRIPOS>SET
LONE_PAIRS      STATIC     ATOMS    <user>   **** ""
3 39 40 41
DONOR_HYDROGENS      STATIC     ATOMS    <user>   **** ""
1 19
ATOM$BLUE        STATIC     ATOMS    COLORGROUP SYSTEM
3 39 40 41
ATOM$RED        STATIC     ATOMS    COLORGROUP SYSTEM
1 19
