AV-unprocessed.smi:2663|AV-procd|sdf|10325|dock8
  -GOLD-   2272014343D 1   1.00000     0.00000
 Structure written by MMmdl.
 38 39  0  0  0  0  0  0  0  0  2 V2000
  149.6559  138.8535  156.0329 C   0  0  0  0  0  0  0  0  0  0  0  0
  150.7969  138.6543  157.0638 C   0  0  2  0  0  0  0  0  0  0  0  0
  152.0924  138.2539  156.2988 C   0  0  0  0  0  0  0  0  0  0  0  0
  151.9277  137.0720  155.5396 O   0  0  0  0  0  0  0  0  0  0  0  0
  150.4413  137.5815  158.0070 N   0  0  0  0  0  0  0  0  0  0  0  0
  149.3498  137.4371  158.7773 C   0  0  0  0  0  0  0  0  0  0  0  0
  148.4497  138.2787  158.7569 O   0  0  0  0  0  0  0  0  0  0  0  0
  149.3713  136.3135  159.5298 N   0  5  0  0  0  0  0  0  0  0  0  0
  148.3781  136.0672  160.4003 C   0  0  0  0  0  0  0  0  0  0  0  0
  147.7232  137.0509  161.0381 N   0  0  0  0  0  0  0  0  0  0  0  0
  146.7375  136.5837  161.8970 N   0  0  0  0  0  0  0  0  0  0  0  0
  146.6800  135.2522  161.8918 C   0  0  0  0  0  0  0  0  0  0  0  0
  147.8262  134.4482  160.8400 S   0  0  0  0  0  0  0  0  0  0  0  0
  151.0007  139.9658  157.9036 C   0  0  0  0  0  0  0  0  0  0  0  0
  151.1947  141.2377  157.0342 C   0  0  0  0  0  0  0  0  0  0  0  0
  151.3351  142.5101  157.8854 C   0  0  0  0  0  0  0  0  0  0  0  0
  152.4880  142.3863  158.8891 C   0  0  0  0  0  0  0  0  0  0  0  0
  152.3046  141.1465  159.7728 C   0  0  0  0  0  0  0  0  0  0  0  0
  152.1679  139.8722  158.9245 C   0  0  0  0  0  0  0  0  0  0  0  0
  149.7968  139.7699  155.4592 H   0  0  0  0  0  0  0  0  0  0  0  0
  148.6765  138.9064  156.5081 H   0  0  0  0  0  0  0  0  0  0  0  0
  149.6091  138.0366  155.3128 H   0  0  0  0  0  0  0  0  0  0  0  0
  152.4194  139.0519  155.6323 H   0  0  0  0  0  0  0  0  0  0  0  0
  152.9198  138.0853  156.9879 H   0  0  0  0  0  0  0  0  0  0  0  0
  151.0184  137.0003  155.2932 H   0  0  0  0  0  0  0  0  0  0  0  0
  151.1266  136.8448  158.0895 H   0  0  0  0  0  0  0  0  0  0  0  0
  145.9610  134.7406  162.5139 H   0  0  0  0  0  0  0  0  0  0  0  0
  150.0938  140.1210  158.4901 H   0  0  0  0  0  0  0  0  0  0  0  0
  152.0763  141.1308  156.4012 H   0  0  0  0  0  0  0  0  0  0  0  0
  150.3494  141.3802  156.3623 H   0  0  0  0  0  0  0  0  0  0  0  0
  151.4981  143.3727  157.2389 H   0  0  0  0  0  0  0  0  0  0  0  0
  150.4027  142.6969  158.4197 H   0  0  0  0  0  0  0  0  0  0  0  0
  153.4363  142.3200  158.3538 H   0  0  0  0  0  0  0  0  0  0  0  0
  152.5420  143.2821  159.5084 H   0  0  0  0  0  0  0  0  0  0  0  0
  153.1503  141.0491  160.4542 H   0  0  0  0  0  0  0  0  0  0  0  0
  151.4175  141.2675  160.3959 H   0  0  0  0  0  0  0  0  0  0  0  0
  152.0230  139.0329  159.6032 H   0  0  0  0  0  0  0  0  0  0  0  0
  153.1103  139.6899  158.4068 H   0  0  0  0  0  0  0  0  0  0  0  0
  1  2  1  0  0  0  0
  1 20  1  0  0  0  0
  1 21  1  0  0  0  0
  1 22  1  0  0  0  0
  2  3  1  0  0  0  0
  2  5  1  0  0  0  0
  2 14  1  0  0  0  0
  3  4  1  0  0  0  0
  3 23  1  0  0  0  0
  3 24  1  0  0  0  0
  4 25  1  0  0  0  0
  5  6  1  0  0  0  0
  5 26  1  0  0  0  0
  6  7  2  0  0  0  0
  6  8  1  0  0  0  0
  8  9  1  0  0  0  0
  9 13  1  0  0  0  0
  9 10  2  0  0  0  0
 10 11  1  0  0  0  0
 11 12  2  0  0  0  0
 12 13  1  0  0  0  0
 12 27  1  0  0  0  0
 14 19  1  0  0  0  0
 14 15  1  0  0  0  0
 14 28  1  0  0  0  0
 15 16  1  0  0  0  0
 15 29  1  0  0  0  0
 15 30  1  0  0  0  0
 16 17  1  0  0  0  0
 16 31  1  0  0  0  0
 16 32  1  0  0  0  0
 17 18  1  0  0  0  0
 17 33  1  0  0  0  0
 17 34  1  0  0  0  0
 18 19  1  0  0  0  0
 18 35  1  0  0  0  0
 18 36  1  0  0  0  0
 19 37  1  0  0  0  0
 19 38  1  0  0  0  0
M  CHG  1   8  -1
M  END
> <s_m_source_file>
AV-unprocessed.smi

> <i_m_source_file_index>
2663

> <i_lp_mmshare_version>
43012

> <i_f3d_flags>
0

> <s_epik_input>
W0NIMl0xW0NIMl1bQ0gyXVtDSDJdW0NIMl1bQ0hdMVtDQF0oW0NIM10pKFtDSDJdW09IXSlbTkhdQyg9TylbTkhdYzJubltjSF1zMg==

> <s_epik_cmdline>
J2VwaWtfcHl0aG9uJywgJy1waCcsICc3LjAnLCAnLXRuJywgJzgnLCAnLW1hJywgJzIwMCcsICctbWV0YWxfYmluZGluZycsICctaW1hZScsICc8aW5maWxlLm1hZT4nLCAnLW9tYWUnLCAnPG91dGZpbGUubWFlPic=

> <r_lp_tautomer_probability>
1

> <r_epik_Ionization_Penalty>
4.39194

> <r_epik_Ionization_Penalty_Charging>
4.34423

> <r_epik_Ionization_Penalty_Neutral>
0.047714

> <r_epik_State_Penalty>
4.34384

> <r_epik_Charging_Adjusted_Penalty>
8.68806

> <i_epik_Tot_Q>
-1

> <i_epik_Tot_abs_Q>
1

> <r_epik_Metal_State_Penalty>
0.746645

> <b_epik_Metal_Only>
1

> <s_lp_Force_Field>
OPLS_2005

> <r_lp_Energy>
18.1486

> <b_lp_Chiralities_Consistent>
1

> <s_lp_Variant>
AV-unprocessed.smi:2663-4

> <Gold.Version>
5.8.1

> <Gold.Id.Protein>
6NUR|6NUR_protein|mol2

> <Gold.PLP.Fitness>
42.4306

> <Gold.PLP.PLP>
-28.5448

> <Gold.PLP.part.hbond>
-5.0000

> <Gold.PLP.part.metal>
0.0000

> <Gold.PLP.part.buried>
-5.4053

> <Gold.PLP.part.nonpolar>
-19.3752

> <Gold.PLP.part.repulsive>
0.0909

> <Gold.PLP.ligand.clash>
0.0000

> <Gold.PLP.ligand.torsion>
0.3158

> <Gold.PLP.Chemscore.Hbond>
4.8160

> <Gold.PLP.Chemscore.CHOScore>
0.0000

> <Gold.PLP.Chemscore.Metal>
0.0000

> <Gold.Chemscore.Hbonds>
donor molecule, donor type, donor heavy atom, donor atom, acceptor molecule, acceptor atom, score
      P1  H  6896  6907       L1     8  1.82
      P1  H  6931  6943       L1    10  0.98
      P1  H  6934  6947       L1    10  0.86
      P1  H 10752 10763       L1     4  1.00

> <Gold.PLP.Chemscore.Internal.Correction>
0.0694

> <Gold.Rescore>
     Score         DG    S(hbond)    S(metal)    S(lipo)     H(rot)  DE(clash)    DE(int)     intcor
     14.83     -16.88       2.63        0.00      70.05       2.18       0.22       1.84       ----

> <Gold.Chemscore.Fitness>
14.8252

> <Gold.Chemscore.DG>
-16.8770

> <Gold.Chemscore.ZeroCoef>
-5.4800

> <Gold.Chemscore.Hbond>
2.6281

> <Gold.Chemscore.Metal>
0.0000

> <Gold.Chemscore.Lipo>
70.0476

> <Gold.Chemscore.Internal_Hbond>
0.0000

> <Gold.Chemscore.DEClash>
0.2159

> <Gold.Chemscore.DEInternal>
1.8359

> <Gold.Chemscore.Rot>
2.1783

> <Gold.Chemscore.Internal.Correction>
   9.000000E+99

> <Gold.Chemscore.Hbonds>
donor molecule, donor type, donor heavy atom, donor atom, acceptor molecule, acceptor atom, score
      P1  H  6896  6907       L1     8  0.66
      P1  H  6931  6943       L1    10  0.56
      P1  H  6934  6947       L1    10  0.21
      P1  H 10752 10763       L1     4  0.74

> <Gold.Chemscore.Hbond.Weighted>
-8.7780

> <Gold.Chemscore.Metal.Weighted>
-0.0000

> <Gold.Chemscore.Lipo.Weighted>
-8.1956

> <Gold.Chemscore.Internal_Hbond.Weighted>
0.0000

> <Gold.Chemscore.DEClash.Weighted>
0.2159

> <Gold.Chemscore.DEInternal.Weighted>
1.8359

> <Gold.Chemscore.Rot.Weighted>
5.5765

> <Gold.Chemscore.Internal.Correction.Weighted>
   9.000000E+99

> <Gold.Protein.RotatedTorsions>
[ 6907 6896 6895 6894 ] final  -45.07 input  -60.11 | X-H torsion
[ 7974 7965 7964 7962 ] final   10.29 input  175.53 | X-H torsion
[ 8008 7997 7996 7995 ] final -159.77 input   59.86 | X-H torsion
[ 10167 10162 10161 10158 ] final -119.72 input  -65.29 | X-H torsion
[ 10718 10713 10712 10709 ] final   -3.45 input   66.30 | X-H torsion
[ 10763 10752 10751 10750 ] final   73.76 input  -60.55 | X-H torsion
[ 11005 11000 10999 10996 ] final  -99.81 input  -57.11 | X-H torsion

> <Gold.Protein.ActiveResidues>
 VAL166  LYS551  ARG553  GLY616  TRP617  ASP618  TYR619  PRO620  LYS621  CYS622 
 ASP623  PHE694  ASN695  SER759  ASP760  ASP761  ALA762  ILE779  LEU786  VAL792 
 PHE793  MET794  SER795  GLU796  ALA797  LYS798  CYS799  TRP800  GLU811  SER814 

> <Gold.Protein.RotatedAtoms>
  150.9259  134.8676  159.7519 H   0  0  0  0  0  0  0  0  0  0  0  0  # atno 6907 bound_to 6896
  152.5015  134.4150  159.9471 H   0  0  0  0  0  0  0  0  0  0  0  0  # atno 6908 bound_to 6896
  151.4180  133.3667  159.2787 H   0  0  0  0  0  0  0  0  0  0  0  0  # atno 6909 bound_to 6896
  146.2391  139.9657  142.8453 H   0  0  0  0  0  0  0  0  0  0  0  0  # atno 7974 bound_to 7965
  155.7675  140.0847  157.2124 H   0  0  0  0  0  0  0  0  0  0  0  0  # atno 8008 bound_to 7997
  154.3998  140.1531  156.2961 H   0  0  0  0  0  0  0  0  0  0  0  0  # atno 8009 bound_to 7997
  155.8779  140.3422  155.5870 H   0  0  0  0  0  0  0  0  0  0  0  0  # atno 8010 bound_to 7997
  140.0436  143.5129  152.2118 H   0  0  0  0  0  0  0  0  0  0  0  0  # atno 10167 bound_to 10162
  156.7758  130.5314  149.5759 H   0  0  0  0  0  0  0  0  0  0  0  0  # atno 10718 bound_to 10713
  153.0542  135.5051  154.7941 H   0  0  0  0  0  0  0  0  0  0  0  0  # atno 10763 bound_to 10752
  154.6780  135.2963  154.9655 H   0  0  0  0  0  0  0  0  0  0  0  0  # atno 10764 bound_to 10752
  154.0451  135.6711  153.4847 H   0  0  0  0  0  0  0  0  0  0  0  0  # atno 10765 bound_to 10752
  141.1294  133.8350  157.1021 H   0  0  0  0  0  0  0  0  0  0  0  0  # atno 11005 bound_to 11000
  145.1729  140.9729  143.4311 LP  0  0  0  0  0  0  0  0  0  0  0  0  # atno 17320 bound_to 7965
  145.0012  139.3596  143.6166 LP  0  0  0  0  0  0  0  0  0  0  0  0  # atno 17321 bound_to 7965
  139.5998  144.7579  151.3199 LP  0  0  0  0  0  0  0  0  0  0  0  0  # atno 17342 bound_to 10162
  140.7249  143.7032  150.7828 LP  0  0  0  0  0  0  0  0  0  0  0  0  # atno 17343 bound_to 10162
  156.1249  130.6136  151.0248 LP  0  0  0  0  0  0  0  0  0  0  0  0  # atno 17370 bound_to 10713
  157.6669  131.0869  150.7705 LP  0  0  0  0  0  0  0  0  0  0  0  0  # atno 17371 bound_to 10713
  140.0327  134.9893  157.0811 LP  0  0  0  0  0  0  0  0  0  0  0  0  # atno 17394 bound_to 11000
  140.4260  134.1831  155.7166 LP  0  0  0  0  0  0  0  0  0  0  0  0  # atno 17395 bound_to 11000

$$$$
