#       Name:                AV-unprocessed.smi:72
#       Creating user name   scv26
#       Creation time:       Thu Mar 26 17:04:50 2020


#       File generated by GOLD software.
#

@<TRIPOS>MOLECULE
AV-unprocessed.smi:72
    41    42     1
SMALL
NO_CHARGES


@<TRIPOS>ATOM
      1 ****        -4.0357   2.8870  -2.0153 N.2            1 S1                 0.0000
      2 ****        -3.0887   2.3408  -1.3879 C.2            1 S1                 0.0000
      3 ****        -1.9381   1.8352  -2.1045 N.2            1 S1                 0.0000
      4 ****        -0.9892   1.2829  -1.4128 C.2            1 S1                 0.0000
      5 ****        -1.0624   1.1669   0.0384 N.am           1 S1                 0.0000
      6 ****         0.0429   0.5200   0.8576 C.3            1 S1                 0.0000
      7 ****         1.2342   0.4925   0.1229 O.3            1 S1                 0.0000
      8 ****         1.5437  -0.8441  -0.2555 C.3            1 S1                 0.0000
      9 ****         3.0408  -0.9934  -0.5781 C.3            1 S1                 0.0000
     10 ****         3.3180  -2.3002  -1.0353 O.3            1 S1                 0.0000
     11 ****         0.9916  -1.6843   0.9030 C.3            1 S1                 0.0000
     12 ****         1.8929  -1.7127   1.9947 O.3            1 S1                 0.0000
     13 ****        -0.2802  -0.9359   1.2798 C.3            1 S1                 0.0000
     14 ****        -1.3841  -1.5012   0.5931 O.3            1 S1                 0.0000
     15 ****        -2.2067   1.6691   0.7136 C.2            1 S1                 0.0000
     16 ****        -2.2557   1.5484   1.9380 O.2            1 S1                 0.0000
     17 ****        -3.1985   2.2490  -0.0183 N.pl3          1 S1                -1.0000
     18 ****         0.2044   1.1866   1.7064 H              1 S1                 0.0000
     19 ****         0.9651  -1.0723  -1.1522 H              1 S1                 0.0000
     20 ****         0.7988  -2.7150   0.6013 H              1 S1                 0.0000
     21 ****        -0.4874  -0.9720   2.3501 H              1 S1                 0.0000
     22 ****        -4.7749   3.1945  -1.4000 H              1 S1                 0.0000
     23 ****        -0.0899   0.8770  -1.8749 H              1 S1                 0.0000
     24 ****         3.3208  -0.2896  -1.3622 H              1 S1                 0.0000
     25 ****         3.6640  -0.7658   0.2870 H              1 S1                 0.0000
     26 ****         4.2337  -2.3508  -1.2634 H              1 S1                 0.0000
     27 ****         2.6827  -2.1504   1.7162 H              1 S1                 0.0000
     28 ****        -2.1433  -0.9618   0.7574 H              1 S1                 0.0000
     29 ****        -4.0529   3.0025  -3.0084 LP             1 S1                 0.0000
     30 ****        -1.8761   1.9089  -3.0998 LP             1 S1                 0.0000
     31 ****         1.9772   0.8582   0.6835 LP             1 S1                 0.0000
     32 ****         1.1294   1.0531  -0.6985 LP             1 S1                 0.0000
     33 ****         2.7586  -2.5019  -1.8393 LP             1 S1                 0.0000
     34 ****         3.1135  -2.9607  -0.3128 LP             1 S1                 0.0000
     35 ****         1.4825  -2.2098   2.7592 LP             1 S1                 0.0000
     36 ****         2.1069  -0.7788   2.2809 LP             1 S1                 0.0000
     37 ****        -1.5502  -2.4295   0.9260 LP             1 S1                 0.0000
     38 ****        -1.1942  -1.5281  -0.3883 LP             1 S1                 0.0000
     39 ****        -1.5034   1.1072   2.4275 LP             1 S1                 0.0000
     40 ****        -3.0477   1.8915   2.4430 LP             1 S1                 0.0000
     41 ****        -4.0101   2.6097   0.4412 LP             1 S1                 0.0000
@<TRIPOS>BOND
    1    1    2 2     
    2    1   22 1     
    3    2   17 1     
    4    2    3 1     
    5    3    4 2     
    6    4    5 1     
    7    4   23 1     
    8    5    6 1     
    9    5   15 am    
   10    6   18 1     
   11    6   13 1     
   12    6    7 1     
   13    7    8 1     
   14    8   19 1     
   15    8    9 1     
   16    8   11 1     
   17    9   10 1     
   18    9   24 1     
   19    9   25 1     
   20   10   26 1     
   21   11   20 1     
   22   11   12 1     
   23   11   13 1     
   24   12   27 1     
   25   13   21 1     
   26   13   14 1     
   27   14   28 1     
   28   15   16 2     
   29   15   17 1     
   30    1   29 1     
   31    3   30 1     
   32    7   31 1     
   33    7   32 1     
   34   10   33 1     
   35   10   34 1     
   36   12   35 1     
   37   12   36 1     
   38   14   37 1     
   39   14   38 1     
   40   16   39 1     
   41   16   40 1     
   42   17   41 1     
@<TRIPOS>SUBSTRUCTURE
      1 S1             1
@<TRIPOS>SET
LONE_PAIRS      STATIC     ATOMS    <user>   **** ""
13 29 30 31 32 33 34 35 36 37 38 39 40 41
DONOR_HYDROGENS      STATIC     ATOMS    <user>   **** ""
4 22 26 27 28
ATOM$BLUE        STATIC     ATOMS    COLORGROUP SYSTEM
13 29 30 31 32 33 34 35 36 37 38 39 40 41
ATOM$RED        STATIC     ATOMS    COLORGROUP SYSTEM
4 22 26 27 28
