#       Name:                AV-unprocessed.smi:89
#       Creating user name   scv26
#       Creation time:       Thu Mar 26 17:23:59 2020


#       File generated by GOLD software.
#

@<TRIPOS>MOLECULE
AV-unprocessed.smi:89
    61    63     1
SMALL
NO_CHARGES


@<TRIPOS>ATOM
      1 ****        -1.1870   3.3205  -2.8971 C.3            1 S1                 0.0000
      2 ****        -0.3829   3.3955  -1.5876 C.3            1 S1                 0.0000
      3 ****         0.4979   2.2462  -1.3655 N.pl3          1 S1                 0.0000
      4 ****        -0.1004   1.0243  -1.3657 C.ar           1 S1                 0.0000
      5 ****         0.3118   0.0698  -2.2408 N.ar           1 S1                 0.0000
      6 ****        -0.2687  -1.1331  -2.2549 C.ar           1 S1                 0.0000
      7 ****        -1.2635  -1.5875  -1.4915 N.ar           1 S1                 0.0000
      8 ****        -1.6864  -0.6345  -0.6127 C.ar           1 S1                 0.0000
      9 ****        -1.1714   0.6872  -0.4898 C.ar           1 S1                 0.0000
     10 ****        -1.8521   1.3656   0.5141 N.2            1 S1                 0.0000
     11 ****        -2.7173   0.4965   0.9588 C.2            1 S1                 0.0000
     12 ****        -2.6800  -0.7349   0.3453 N.pl3          1 S1                 0.0000
     13 ****        -3.5159  -1.8852   0.6525 C.3            1 S1                 0.0000
     14 ****        -2.9923  -2.7174   1.8461 C.3            1 S1                 0.0000
     15 ****        -3.0371  -1.9204   3.0175 O.3            1 S1                 0.0000
     16 ****        -1.5687  -3.2375   1.6683 C.3            1 S1                 0.0000
     17 ****        -1.5874  -4.5462   2.4452 C.3            1 S1                 0.0000
     18 ****        -2.8650  -5.0734   2.1304 O.3            1 S1                 0.0000
     19 ****        -3.8042  -4.0029   2.1019 C.3            1 S1                 0.0000
     20 ****         1.9415   2.4002  -1.6123 C.3            1 S1                 0.0000
     21 ****         2.2981   2.4338  -3.1107 C.3            1 S1                 0.0000
     22 ****         2.8314   1.4065  -0.8276 C.3            1 S1                 0.0000
     23 ****         2.7417   1.6833   0.9987 S.o2           1 S1                 0.0000
     24 ****         3.2700   3.0272   1.2791 O.2            1 S1                 0.0000
     25 ****         1.3953   1.3211   1.4661 O.2            1 S1                 0.0000
     26 ****         3.9277   0.4277   1.6514 C.3            1 S1                 0.0000
     27 ****         5.3815   0.7575   1.2919 C.3            1 S1                 0.0000
     28 ****        -1.7744   4.2282  -3.0356 H              1 S1                 0.0000
     29 ****        -1.8826   2.4810  -2.8938 H              1 S1                 0.0000
     30 ****        -0.5384   3.2125  -3.7654 H              1 S1                 0.0000
     31 ****         0.2204   4.3034  -1.6013 H              1 S1                 0.0000
     32 ****        -1.0589   3.5111  -0.7415 H              1 S1                 0.0000
     33 ****         0.1206  -1.8314  -2.9809 H              1 S1                 0.0000
     34 ****        -3.4045   0.7275   1.7598 H              1 S1                 0.0000
     35 ****        -4.5286  -1.5315   0.8508 H              1 S1                 0.0000
     36 ****        -3.5799  -2.5091  -0.2400 H              1 S1                 0.0000
     37 ****        -2.7160  -2.4352   3.7420 H              1 S1                 0.0000
     38 ****        -1.3772  -3.4605   0.6183 H              1 S1                 0.0000
     39 ****        -0.7980  -2.5430   2.0062 H              1 S1                 0.0000
     40 ****        -0.7873  -5.2252   2.1497 H              1 S1                 0.0000
     41 ****        -1.5140  -4.3684   3.5193 H              1 S1                 0.0000
     42 ****        -4.3467  -3.9661   3.0481 H              1 S1                 0.0000
     43 ****        -4.5352  -4.1949   1.3159 H              1 S1                 0.0000
     44 ****         2.2000   3.3873  -1.2276 H              1 S1                 0.0000
     45 ****         3.3617   2.6279  -3.2499 H              1 S1                 0.0000
     46 ****         1.7621   3.2274  -3.6297 H              1 S1                 0.0000
     47 ****         2.0732   1.4930  -3.6115 H              1 S1                 0.0000
     48 ****         2.5947   0.3644  -1.0351 H              1 S1                 0.0000
     49 ****         3.8697   1.5530  -1.1207 H              1 S1                 0.0000
     50 ****         3.8111   0.3984   2.7348 H              1 S1                 0.0000
     51 ****         3.6404  -0.5507   1.2659 H              1 S1                 0.0000
     52 ****         6.0608   0.0301   1.7366 H              1 S1                 0.0000
     53 ****         5.6665   1.7430   1.6602 H              1 S1                 0.0000
     54 ****         5.5445   0.7396   0.2152 H              1 S1                 0.0000
     55 ****         1.0553   0.2695  -2.8790 LP             1 S1                 0.0000
     56 ****        -1.6493  -2.5079  -1.5554 LP             1 S1                 0.0000
     57 ****        -1.7109   2.3056   0.8247 LP             1 S1                 0.0000
     58 ****        -3.9790  -1.6363   3.1966 LP             1 S1                 0.0000
     59 ****        -2.4620  -1.1112   2.8973 LP             1 S1                 0.0000
     60 ****        -3.1349  -5.7399   2.8253 LP             1 S1                 0.0000
     61 ****        -2.8345  -5.5187   1.2355 LP             1 S1                 0.0000
@<TRIPOS>BOND
    1    1    2 1     
    2    1   28 1     
    3    1   29 1     
    4    1   30 1     
    5    2    3 1     
    6    2   31 1     
    7    2   32 1     
    8    3    4 1     
    9    3   20 1     
   10    4    9 ar    
   11    4    5 ar    
   12    5    6 ar    
   13    6    7 ar    
   14    6   33 1     
   15    7    8 ar    
   16    8   12 1     
   17    8    9 ar    
   18    9   10 1     
   19   10   11 2     
   20   11   12 1     
   21   11   34 1     
   22   12   13 1     
   23   13   14 1     
   24   13   35 1     
   25   13   36 1     
   26   14   19 1     
   27   14   15 1     
   28   14   16 1     
   29   15   37 1     
   30   16   17 1     
   31   16   38 1     
   32   16   39 1     
   33   17   18 1     
   34   17   40 1     
   35   17   41 1     
   36   18   19 1     
   37   19   42 1     
   38   19   43 1     
   39   20   21 1     
   40   20   22 1     
   41   20   44 1     
   42   21   45 1     
   43   21   46 1     
   44   21   47 1     
   45   22   23 1     
   46   22   48 1     
   47   22   49 1     
   48   23   24 2     
   49   23   25 2     
   50   23   26 1     
   51   26   27 1     
   52   26   50 1     
   53   26   51 1     
   54   27   52 1     
   55   27   53 1     
   56   27   54 1     
   57    5   55 1     
   58    7   56 1     
   59   10   57 1     
   60   15   58 1     
   61   15   59 1     
   62   18   60 1     
   63   18   61 1     
@<TRIPOS>SUBSTRUCTURE
      1 S1             1
@<TRIPOS>SET
LONE_PAIRS      STATIC     ATOMS    <user>   **** ""
9 55 56 57 58 59 60 61 24 25
DONOR_HYDROGENS      STATIC     ATOMS    <user>   **** ""
1 37
ATOM$BLUE        STATIC     ATOMS    COLORGROUP SYSTEM
9 55 56 57 58 59 60 61 24 25
ATOM$RED        STATIC     ATOMS    COLORGROUP SYSTEM
1 37
