#       Name:                AV-unprocessed.smi:1766
#       Creating user name   scv26
#       Creation time:       Fri Mar 27 08:37:35 2020


#       File generated by GOLD software.
#

@<TRIPOS>MOLECULE
AV-unprocessed.smi:1766
    44    46     1
SMALL
NO_CHARGES


@<TRIPOS>ATOM
      1 ****        -1.4328   3.5192   1.3142 N.am           1 S1                 0.0000
      2 ****        -2.1789   3.3058   0.2273 C.2            1 S1                 0.0000
      3 ****        -3.3457   3.6843   0.1465 O.2            1 S1                 0.0000
      4 ****        -1.5266   2.5576  -0.9376 C.3            1 S1                 0.0000
      5 ****        -1.8687   1.0978  -0.8966 C.2            1 S1                 0.0000
      6 ****        -3.1283   0.5752  -0.9553 N.pl3          1 S1                 1.0000
      7 ****        -3.0711  -0.8162  -0.8867 C.ar           1 S1                 0.0000
      8 ****        -4.0826  -1.7716  -0.9008 C.ar           1 S1                 0.0000
      9 ****        -3.6800  -3.1203  -0.8106 C.ar           1 S1                 0.0000
     10 ****        -2.3188  -3.4748  -0.7122 C.ar           1 S1                 0.0000
     11 ****        -1.3024  -2.4966  -0.7017 C.ar           1 S1                 0.0000
     12 ****        -1.7092  -1.1654  -0.7912 C.ar           1 S1                 0.0000
     13 ****        -1.0030   0.0431  -0.8111 N.pl3          1 S1                 0.0000
     14 ****         0.4675   0.0036  -0.7443 C.3            1 S1                 0.0000
     15 ****         1.0042  -0.1333   0.6941 C.3            1 S1                 0.0000
     16 ****         0.5306   0.9365   1.4886 O.3            1 S1                 0.0000
     17 ****         2.5214  -0.2324   0.7064 C.ar           1 S1                 0.0000
     18 ****         3.1434  -1.4906   0.8563 C.ar           1 S1                 0.0000
     19 ****         4.5483  -1.5922   0.8591 C.ar           1 S1                 0.0000
     20 ****         5.3392  -0.4368   0.7100 C.ar           1 S1                 0.0000
     21 ****         6.6896  -0.5348   0.7130 F              1 S1                 0.0000
     22 ****         4.7246   0.8206   0.5562 C.ar           1 S1                 0.0000
     23 ****         3.3198   0.9228   0.5526 C.ar           1 S1                 0.0000
     24 ****        -1.8289   4.0045   2.1063 H              1 S1                 0.0000
     25 ****        -0.4778   3.1912   1.3450 H              1 S1                 0.0000
     26 ****        -1.8776   2.9787  -1.8802 H              1 S1                 0.0000
     27 ****        -0.4470   2.7019  -0.9107 H              1 S1                 0.0000
     28 ****        -5.1260  -1.5016  -0.9757 H              1 S1                 0.0000
     29 ****        -4.4302  -3.8979  -0.8163 H              1 S1                 0.0000
     30 ****        -2.0487  -4.5187  -0.6436 H              1 S1                 0.0000
     31 ****        -0.2630  -2.7797  -0.6248 H              1 S1                 0.0000
     32 ****         0.8159  -0.8226  -1.3652 H              1 S1                 0.0000
     33 ****         0.8534   0.9083  -1.2137 H              1 S1                 0.0000
     34 ****         0.6015  -1.0457   1.1355 H              1 S1                 0.0000
     35 ****         0.7988   0.7851   2.3824 H              1 S1                 0.0000
     36 ****         2.5461  -2.3836   0.9687 H              1 S1                 0.0000
     37 ****         5.0196  -2.5570   0.9752 H              1 S1                 0.0000
     38 ****         5.3311   1.7068   0.4400 H              1 S1                 0.0000
     39 ****         2.8575   1.8913   0.4292 H              1 S1                 0.0000
     40 ****        -3.9665   1.1379  -1.0278 H              1 S1                 0.0000
     41 ****        -3.7677   4.1706   0.9116 LP             1 S1                 0.0000
     42 ****        -3.8728   3.5058  -0.6843 LP             1 S1                 0.0000
     43 ****        -0.4672   0.9791   1.4378 LP             1 S1                 0.0000
     44 ****         0.9182   1.7981   1.1609 LP             1 S1                 0.0000
@<TRIPOS>BOND
    1    1    2 am    
    2    1   24 1     
    3    1   25 1     
    4    2    3 2     
    5    2    4 1     
    6    4    5 1     
    7    4   26 1     
    8    4   27 1     
    9    5   13 1     
   10    5    6 2     
   11    6    7 1     
   12    6   40 1     
   13    7   12 ar    
   14    7    8 ar    
   15    8    9 ar    
   16    8   28 1     
   17    9   10 ar    
   18    9   29 1     
   19   10   11 ar    
   20   10   30 1     
   21   11   12 ar    
   22   11   31 1     
   23   12   13 1     
   24   13   14 1     
   25   14   15 1     
   26   14   32 1     
   27   14   33 1     
   28   15   16 1     
   29   15   17 1     
   30   15   34 1     
   31   16   35 1     
   32   17   23 ar    
   33   17   18 ar    
   34   18   19 ar    
   35   18   36 1     
   36   19   20 ar    
   37   19   37 1     
   38   20   21 1     
   39   20   22 ar    
   40   22   23 ar    
   41   22   38 1     
   42   23   39 1     
   43    3   41 1     
   44    3   42 1     
   45   16   43 1     
   46   16   44 1     
@<TRIPOS>SUBSTRUCTURE
      1 S1             1
@<TRIPOS>SET
LONE_PAIRS      STATIC     ATOMS    <user>   **** ""
4 41 42 43 44
DONOR_HYDROGENS      STATIC     ATOMS    <user>   **** ""
4 24 25 40 35
ATOM$BLUE        STATIC     ATOMS    COLORGROUP SYSTEM
4 41 42 43 44
ATOM$RED        STATIC     ATOMS    COLORGROUP SYSTEM
4 24 25 40 35
