AV-unprocessed.smi:121|AV-procd|sdf|1140|dock4
  -GOLD-   2262018273D 1   1.00000     0.00000
 Structure written by MMmdl.
 37 39  0  0  0  0  0  0  0  0  1 V2000
  146.7239  137.3794  160.3332 N   0  0  0  0  0  0  0  0  0  0  0  0
  147.5143  137.1429  159.5220 C   0  0  0  0  0  0  0  0  0  0  0  0
  148.5073  136.8457  158.5033 C   0  0  0  0  0  0  0  0  0  0  0  0
  148.3222  135.7514  157.6343 C   0  0  0  0  0  0  0  0  0  0  0  0
  149.2881  135.4635  156.6513 C   0  0  0  0  0  0  0  0  0  0  0  0
  150.4371  136.2688  156.5340 C   0  0  0  0  0  0  0  0  0  0  0  0
  150.6272  137.3708  157.3938 C   0  0  0  0  0  0  0  0  0  0  0  0
  151.8804  138.2263  157.2420 C   0  0  0  0  0  0  0  0  0  0  0  0
  151.6490  139.6516  157.0627 N   0  0  0  0  0  0  0  0  0  0  0  0
  150.8724  140.0407  155.9438 C   0  0  0  0  0  0  0  0  0  0  0  0
  150.4138  139.2175  155.1494 O   0  0  0  0  0  0  0  0  0  0  0  0
  150.6619  141.4788  155.8215 C   0  0  0  0  0  0  0  0  0  0  0  0
  149.9589  141.9619  154.7833 F   0  0  0  0  0  0  0  0  0  0  0  0
  151.1655  142.3365  156.7347 C   0  0  0  0  0  0  0  0  0  0  0  0
  151.8994  141.9251  157.8343 N   0  0  0  0  0  0  0  0  0  0  0  0
  152.4382  142.9282  158.8291 C   0  0  1  0  0  0  0  0  0  0  0  0
  152.2902  144.3522  158.2805 C   0  0  0  0  0  0  0  0  0  0  0  0
  151.0139  144.8177  158.9478 C   0  0  0  0  0  0  0  0  0  0  0  0
  151.0942  144.1062  160.2929 C   0  0  0  0  0  0  0  0  0  0  0  0
  151.6892  142.8441  160.0075 O   0  0  0  0  0  0  0  0  0  0  0  0
  152.1725  140.5521  158.0223 C   0  0  0  0  0  0  0  0  0  0  0  0
  152.8345  140.1663  158.9885 O   0  0  0  0  0  0  0  0  0  0  0  0
  149.6581  137.6515  158.3837 C   0  0  0  0  0  0  0  0  0  0  0  0
  147.4432  135.1283  157.7172 H   0  0  0  0  0  0  0  0  0  0  0  0
  149.1475  134.6244  155.9860 H   0  0  0  0  0  0  0  0  0  0  0  0
  151.1717  136.0394  155.7758 H   0  0  0  0  0  0  0  0  0  0  0  0
  152.5339  138.0787  158.1019 H   0  0  0  0  0  0  0  0  0  0  0  0
  152.4749  137.8994  156.3863 H   0  0  0  0  0  0  0  0  0  0  0  0
  150.9815  143.3906  156.5883 H   0  0  0  0  0  0  0  0  0  0  0  0
  153.4698  142.6413  159.0370 H   0  0  0  0  0  0  0  0  0  0  0  0
  153.1380  144.9466  158.6231 H   0  0  0  0  0  0  0  0  0  0  0  0
  152.2578  144.3776  157.1904 H   0  0  0  0  0  0  0  0  0  0  0  0
  150.9507  145.9022  159.0427 H   0  0  0  0  0  0  0  0  0  0  0  0
  150.1451  144.4718  158.3863 H   0  0  0  0  0  0  0  0  0  0  0  0
  151.7445  144.6551  160.9753 H   0  0  0  0  0  0  0  0  0  0  0  0
  150.1198  143.9914  160.7682 H   0  0  0  0  0  0  0  0  0  0  0  0
  149.7946  138.4856  159.0565 H   0  0  0  0  0  0  0  0  0  0  0  0
  1  2  3  0  0  0  0
  2  3  1  0  0  0  0
  3 23  1  0  0  0  0
  3  4  2  0  0  0  0
  4  5  1  0  0  0  0
  4 24  1  0  0  0  0
  5  6  2  0  0  0  0
  5 25  1  0  0  0  0
  6  7  1  0  0  0  0
  6 26  1  0  0  0  0
  7  8  1  0  0  0  0
  7 23  2  0  0  0  0
  8  9  1  0  0  0  0
  8 27  1  0  0  0  0
  8 28  1  0  0  0  0
  9 21  1  0  0  0  0
  9 10  1  0  0  0  0
 10 11  2  0  0  0  0
 10 12  1  0  0  0  0
 12 13  1  0  0  0  0
 12 14  2  0  0  0  0
 14 15  1  0  0  0  0
 14 29  1  0  0  0  0
 15 16  1  0  0  0  0
 15 21  1  0  0  0  0
 16 20  1  0  0  0  0
 16 17  1  0  0  0  0
 16 30  1  0  0  0  0
 17 18  1  0  0  0  0
 17 31  1  0  0  0  0
 17 32  1  0  0  0  0
 18 19  1  0  0  0  0
 18 33  1  0  0  0  0
 18 34  1  0  0  0  0
 19 20  1  0  0  0  0
 19 35  1  0  0  0  0
 19 36  1  0  0  0  0
 21 22  2  0  0  0  0
 23 37  1  0  0  0  0
M  END
> <s_m_source_file>
AV-unprocessed.smi

> <i_m_source_file_index>
121

> <i_lp_mmshare_version>
43012

> <i_f3d_flags>
0

> <s_epik_input>
TiNDYzFbY0hdW2NIXVtjSF1jKFtjSF0xKVtDSDJdbjJjKD1PKWMoRilbY0hdbihjMj1PKVtDQEBIXTNbQ0gyXVtDSDJdW0NIMl1PMw==

> <s_epik_cmdline>
J2VwaWtfcHl0aG9uJywgJy1waCcsICc3LjAnLCAnLXRuJywgJzgnLCAnLW1hJywgJzIwMCcsICctbWV0YWxfYmluZGluZycsICctaW1hZScsICc8aW5maWxlLm1hZT4nLCAnLW9tYWUnLCAnPG91dGZpbGUubWFlPic=

> <r_lp_tautomer_probability>
1

> <r_epik_Ionization_Penalty>
1.69864e-08

> <r_epik_Ionization_Penalty_Charging>
1.69802e-08

> <r_epik_Ionization_Penalty_Neutral>
6.20402e-12

> <r_epik_State_Penalty>
-0

> <r_epik_Charging_Adjusted_Penalty>
1.69802e-08

> <i_epik_Tot_Q>
0

> <i_epik_Tot_abs_Q>
0

> <r_epik_Metal_State_Penalty>
-0

> <b_epik_Metal_Only>
0

> <s_epik_Chemistry_Notes>
This compound contains an acetal/aminal-like group ( X-CH(R)-Y where X, Y are N, S, or O) that may be acid/base labile, releasing an aldehyde.

> <s_lp_Force_Field>
OPLS_2005

> <r_lp_Energy>
33.8546

> <b_lp_Chiralities_Consistent>
1

> <s_lp_Variant>
AV-unprocessed.smi:121-2

> <Gold.Version>
5.8.1

> <Gold.Id.Protein>
6NUR|6NUR_protein|mol2

> <Gold.PLP.Fitness>
45.6006

> <Gold.PLP.PLP>
-38.9233

> <Gold.PLP.part.hbond>
-2.5255

> <Gold.PLP.part.metal>
0.0000

> <Gold.PLP.part.buried>
-4.3617

> <Gold.PLP.part.nonpolar>
-32.7616

> <Gold.PLP.part.repulsive>
0.0496

> <Gold.PLP.ligand.clash>
0.0000

> <Gold.PLP.ligand.torsion>
0.3141

> <Gold.PLP.Chemscore.Hbond>
1.4320

> <Gold.PLP.Chemscore.CHOScore>
1.0000

> <Gold.PLP.Chemscore.Metal>
0.0000

> <Gold.Chemscore.Hbonds>
donor molecule, donor type, donor heavy atom, donor atom, acceptor molecule, acceptor atom, score
      P1  H  6934  6947       L1     1  1.00
      L1  C    14    29       P1  8028  0.73

> <Gold.PLP.Chemscore.Internal.Correction>
0.0095

> <Gold.Rescore>
     Score         DG    S(hbond)    S(metal)    S(lipo)     H(rot)  DE(clash)    DE(int)     intcor
     10.24     -12.70       0.78        0.00      74.08       1.59       0.04       2.42       ----

> <Gold.Chemscore.Fitness>
10.2429

> <Gold.Chemscore.DG>
-12.6991

> <Gold.Chemscore.ZeroCoef>
-5.4800

> <Gold.Chemscore.Hbond>
0.7837

> <Gold.Chemscore.Metal>
0.0000

> <Gold.Chemscore.Lipo>
74.0793

> <Gold.Chemscore.Internal_Hbond>
0.0000

> <Gold.Chemscore.DEClash>
0.0388

> <Gold.Chemscore.DEInternal>
2.4174

> <Gold.Chemscore.Rot>
1.5882

> <Gold.Chemscore.Internal.Correction>
   9.000000E+99

> <Gold.Chemscore.Hbonds>
donor molecule, donor type, donor heavy atom, donor atom, acceptor molecule, acceptor atom, score
      P1  H  6934  6947       L1     1  0.45

> <Gold.Chemscore.Hbond.Weighted>
-2.6176

> <Gold.Chemscore.Metal.Weighted>
-0.0000

> <Gold.Chemscore.Lipo.Weighted>
-8.6673

> <Gold.Chemscore.Internal_Hbond.Weighted>
0.0000

> <Gold.Chemscore.DEClash.Weighted>
0.0388

> <Gold.Chemscore.DEInternal.Weighted>
2.4174

> <Gold.Chemscore.Rot.Weighted>
4.0657

> <Gold.Chemscore.Internal.Correction.Weighted>
   9.000000E+99

> <Gold.Protein.RotatedTorsions>
[ 6907 6896 6895 6894 ] final  157.38 input  -60.11 | X-H torsion
[ 7974 7965 7964 7962 ] final  -23.33 input  175.53 | X-H torsion
[ 8008 7997 7996 7995 ] final  -26.61 input   59.86 | X-H torsion
[ 10167 10162 10161 10158 ] final   -5.01 input  -65.29 | X-H torsion
[ 10718 10713 10712 10709 ] final   37.65 input   66.30 | X-H torsion
[ 10763 10752 10751 10750 ] final -168.90 input  -60.55 | X-H torsion
[ 11005 11000 10999 10996 ] final  -35.77 input  -57.11 | X-H torsion

> <Gold.Protein.ActiveResidues>
 VAL166  LYS551  ARG553  GLY616  TRP617  ASP618  TYR619  PRO620  LYS621  CYS622 
 ASP623  PHE694  ASN695  SER759  ASP760  ASP761  ALA762  ILE779  LEU786  VAL792 
 PHE793  MET794  SER795  GLU796  ALA797  LYS798  CYS799  TRP800  GLU811  SER814 

> <Gold.Protein.RotatedAtoms>
  152.0160  133.3880  159.4238 H   0  0  0  0  0  0  0  0  0  0  0  0  # atno 6907 bound_to 6896
  150.6895  134.3679  159.4988 H   0  0  0  0  0  0  0  0  0  0  0  0  # atno 6908 bound_to 6896
  152.1446  134.9036  160.0602 H   0  0  0  0  0  0  0  0  0  0  0  0  # atno 6909 bound_to 6896
  146.1622  140.4602  142.8566 H   0  0  0  0  0  0  0  0  0  0  0  0  # atno 7974 bound_to 7965
  154.4417  140.1895  156.0802 H   0  0  0  0  0  0  0  0  0  0  0  0  # atno 8008 bound_to 7997
  156.0445  140.3316  155.7254 H   0  0  0  0  0  0  0  0  0  0  0  0  # atno 8009 bound_to 7997
  155.5650  140.0607  157.2811 H   0  0  0  0  0  0  0  0  0  0  0  0  # atno 8010 bound_to 7997
  140.6948  143.6358  150.8481 H   0  0  0  0  0  0  0  0  0  0  0  0  # atno 10167 bound_to 10162
  157.3494  130.7590  149.6968 H   0  0  0  0  0  0  0  0  0  0  0  0  # atno 10718 bound_to 10713
  154.6580  135.2921  154.9903 H   0  0  0  0  0  0  0  0  0  0  0  0  # atno 10763 bound_to 10752
  154.0973  135.6582  153.4866 H   0  0  0  0  0  0  0  0  0  0  0  0  # atno 10764 bound_to 10752
  153.0413  135.5234  154.7518 H   0  0  0  0  0  0  0  0  0  0  0  0  # atno 10765 bound_to 10752
  140.9822  133.7050  156.1704 H   0  0  0  0  0  0  0  0  0  0  0  0  # atno 11005 bound_to 11000
  144.8043  140.6270  143.6457 LP  0  0  0  0  0  0  0  0  0  0  0  0  # atno 17320 bound_to 7965
  145.4559  139.1518  143.3893 LP  0  0  0  0  0  0  0  0  0  0  0  0  # atno 17321 bound_to 7965
  140.0074  143.5679  152.2852 LP  0  0  0  0  0  0  0  0  0  0  0  0  # atno 17342 bound_to 10162
  139.6390  144.7653  151.2378 LP  0  0  0  0  0  0  0  0  0  0  0  0  # atno 17343 bound_to 10162
  155.9719  130.4145  150.4134 LP  0  0  0  0  0  0  0  0  0  0  0  0  # atno 17370 bound_to 10713
  157.2194  131.0479  151.2555 LP  0  0  0  0  0  0  0  0  0  0  0  0  # atno 17371 bound_to 10713
  140.7168  134.4401  157.5578 LP  0  0  0  0  0  0  0  0  0  0  0  0  # atno 17394 bound_to 11000
  139.8955  134.8681  156.2128 LP  0  0  0  0  0  0  0  0  0  0  0  0  # atno 17395 bound_to 11000

$$$$
