#       Name:                AV-unprocessed.smi:4
#       Creating user name   scv26
#       Creation time:       Thu Mar 26 15:14:47 2020


#       File generated by GOLD software.
#

@<TRIPOS>MOLECULE
AV-unprocessed.smi:4
    50    51     1
SMALL
NO_CHARGES


@<TRIPOS>ATOM
      1 ****        -3.1250   1.3331  -2.3453 C.3            1 S1                 0.0000
      2 ****        -2.8913   2.4383  -1.2825 C.3            1 S1                 0.0000
      3 ****        -2.2058   3.6019  -2.0458 C.3            1 S1                 0.0000
      4 ****        -4.3042   2.8543  -0.7990 C.3            1 S1                 0.0000
      5 ****        -2.0596   1.9727  -0.1523 N.am           1 S1                 0.0000
      6 ****        -1.5625   0.6719  -0.0321 C.2            1 S1                 0.0000
      7 ****        -0.7946   0.2284   0.9959 C.2            1 S1                 0.0000
      8 ****        -0.3171  -1.2150   1.0786 C.3            1 S1                 0.0000
      9 ****         1.1322  -1.3082   0.9253 N.3            1 S1                 0.0000
     10 ****         1.6238  -2.6832   0.9505 C.3            1 S1                 0.0000
     11 ****         3.1512  -2.7328   0.8543 C.3            1 S1                 0.0000
     12 ****         3.6192  -2.4023   2.1475 O.3            1 S1                 0.0000
     13 ****         3.7742  -4.0211   0.2862 C.3            1 S1                 0.0000
     14 ****         4.7788  -3.1704  -0.4922 C.3            1 S1                 0.0000
     15 ****         3.8376  -1.9806  -0.3016 C.3            1 S1                 0.0000
     16 ****        -0.4583   1.1431   2.0874 C.2            1 S1                 0.0000
     17 ****         0.2137   0.8602   3.0779 O.2            1 S1                 0.0000
     18 ****        -0.9675   2.4319   1.9468 N.am           1 S1                 0.0000
     19 ****        -1.7476   2.8933   0.8889 C.2            1 S1                 0.0000
     20 ****        -2.1244   4.0637   0.9166 O.2            1 S1                 0.0000
     21 ****        -0.7521   3.0919   2.6798 H              1 S1                 0.0000
     22 ****        -3.7320   1.7014  -3.1733 H              1 S1                 0.0000
     23 ****        -3.6585   0.4753  -1.9333 H              1 S1                 0.0000
     24 ****        -2.1887   0.9822  -2.7816 H              1 S1                 0.0000
     25 ****        -1.1858   3.3399  -2.3297 H              1 S1                 0.0000
     26 ****        -2.1624   4.5301  -1.4792 H              1 S1                 0.0000
     27 ****        -2.7446   3.8416  -2.9632 H              1 S1                 0.0000
     28 ****        -4.9606   3.0701  -1.6427 H              1 S1                 0.0000
     29 ****        -4.3056   3.7512  -0.1823 H              1 S1                 0.0000
     30 ****        -4.7728   2.0565  -0.2216 H              1 S1                 0.0000
     31 ****        -1.7764  -0.0681  -0.7849 H              1 S1                 0.0000
     32 ****        -0.6251  -1.6342   2.0372 H              1 S1                 0.0000
     33 ****        -0.8111  -1.8083   0.3083 H              1 S1                 0.0000
     34 ****         1.5817  -0.7904   1.6745 H              1 S1                 0.0000
     35 ****         1.2837  -3.1882   1.8561 H              1 S1                 0.0000
     36 ****         1.1816  -3.2332   0.1189 H              1 S1                 0.0000
     37 ****         4.5628  -2.4432   2.1181 H              1 S1                 0.0000
     38 ****         4.2270  -4.6792   1.0288 H              1 S1                 0.0000
     39 ****         3.0970  -4.5715  -0.3688 H              1 S1                 0.0000
     40 ****         5.7260  -3.0472   0.0349 H              1 S1                 0.0000
     41 ****         4.9265  -3.4729  -1.5293 H              1 S1                 0.0000
     42 ****         3.1791  -1.8262  -1.1582 H              1 S1                 0.0000
     43 ****         4.3370  -1.0552  -0.0131 H              1 S1                 0.0000
     44 ****         1.3545  -0.9248   0.0289 LP             1 S1                 0.0000
     45 ****         3.2677  -3.0561   2.8175 LP             1 S1                 0.0000
     46 ****         3.3229  -1.4798   2.3947 LP             1 S1                 0.0000
     47 ****         0.5811  -0.0636   3.1856 LP             1 S1                 0.0000
     48 ****         0.3927   1.5539   3.7755 LP             1 S1                 0.0000
     49 ****        -2.6888   4.4249   0.1743 LP             1 S1                 0.0000
     50 ****        -1.8664   4.6540   1.6814 LP             1 S1                 0.0000
@<TRIPOS>BOND
    1    1    2 1     
    2    1   22 1     
    3    1   23 1     
    4    1   24 1     
    5    2    3 1     
    6    2    4 1     
    7    2    5 1     
    8    3   25 1     
    9    3   26 1     
   10    3   27 1     
   11    4   28 1     
   12    4   29 1     
   13    4   30 1     
   14    5   19 1     
   15    5    6 1     
   16    6    7 2     
   17    6   31 1     
   18    7    8 1     
   19    7   16 1     
   20    8    9 1     
   21    8   32 1     
   22    8   33 1     
   23    9   10 1     
   24    9   34 1     
   25   10   11 1     
   26   10   35 1     
   27   10   36 1     
   28   11   15 1     
   29   11   12 1     
   30   11   13 1     
   31   12   37 1     
   32   13   14 1     
   33   13   38 1     
   34   13   39 1     
   35   14   15 1     
   36   14   40 1     
   37   14   41 1     
   38   15   42 1     
   39   15   43 1     
   40   16   17 2     
   41   16   18 1     
   42   18   21 1     
   43   18   19 1     
   44   19   20 2     
   45    9   44 1     
   46   12   45 1     
   47   12   46 1     
   48   17   47 1     
   49   17   48 1     
   50   20   49 1     
   51   20   50 1     
@<TRIPOS>SUBSTRUCTURE
      1 S1             1
@<TRIPOS>SET
LONE_PAIRS      STATIC     ATOMS    <user>   **** ""
7 44 45 46 47 48 49 50
DONOR_HYDROGENS      STATIC     ATOMS    <user>   **** ""
3 34 37 21
ATOM$BLUE        STATIC     ATOMS    COLORGROUP SYSTEM
7 44 45 46 47 48 49 50
ATOM$RED        STATIC     ATOMS    COLORGROUP SYSTEM
3 34 37 21
