#       Name:                AV-unprocessed.smi:1243
#       Creating user name   scv26
#       Creation time:       Fri Mar 27 04:31:25 2020


#       File generated by GOLD software.
#

@<TRIPOS>MOLECULE
AV-unprocessed.smi:1243
    57    58     1
SMALL
NO_CHARGES


@<TRIPOS>ATOM
      1 ****        -1.6792   5.1043  -0.3241 C.3            1 S1                 0.0000
      2 ****        -1.8948   3.7231  -0.5930 O.3            1 S1                 0.0000
      3 ****        -2.7969   3.3772  -1.5814 C.ar           1 S1                 0.0000
      4 ****        -3.4443   4.3703  -2.2414 N.ar           1 S1                 0.0000
      5 ****        -4.3270   4.0333  -3.2041 C.ar           1 S1                 0.0000
      6 ****        -4.6156   2.7012  -3.5534 C.ar           1 S1                 0.0000
      7 ****        -3.9448   1.6695  -2.8710 C.ar           1 S1                 0.0000
      8 ****        -3.0038   2.0082  -1.8691 C.ar           1 S1                 0.0000
      9 ****        -2.2922   1.0414  -1.1087 N.am           1 S1                 0.0000
     10 ****        -1.9315  -0.1991  -1.4765 C.2            1 S1                 0.0000
     11 ****        -2.1512  -0.7040  -2.5773 O.2            1 S1                 0.0000
     12 ****        -1.2661  -0.8185  -0.4917 N.am           1 S1                 0.0000
     13 ****        -0.6753  -2.1549  -0.5656 C.3            1 S1                 0.0000
     14 ****         0.8810  -2.1270  -0.5181 C.3            1 S1                 0.0000
     15 ****         1.3998  -3.5847  -0.4907 C.3            1 S1                 0.0000
     16 ****         1.3755  -1.4487  -1.8214 C.3            1 S1                 0.0000
     17 ****         1.3549  -1.3488   0.6591 N.3            1 S1                 0.0000
     18 ****         2.8159  -1.1815   0.7409 C.3            1 S1                 0.0000
     19 ****         3.1821  -0.1569   1.8334 C.3            1 S1                 0.0000
     20 ****         2.6686  -0.5686   3.1596 N.4            1 S1                 1.0000
     21 ****         3.4554  -1.6467   3.8017 C.3            1 S1                 0.0000
     22 ****         1.2172  -0.8497   3.0805 C.3            1 S1                 0.0000
     23 ****         0.8973  -1.8614   1.9617 C.3            1 S1                 0.0000
     24 ****        -0.9386   5.2059   0.4689 H              1 S1                 0.0000
     25 ****        -2.5944   5.5920   0.0140 H              1 S1                 0.0000
     26 ****        -1.2972   5.6278  -1.2018 H              1 S1                 0.0000
     27 ****        -4.8233   4.8504  -3.7066 H              1 S1                 0.0000
     28 ****        -5.3387   2.4761  -4.3232 H              1 S1                 0.0000
     29 ****        -4.1732   0.6433  -3.1147 H              1 S1                 0.0000
     30 ****        -1.9514   1.3603  -0.2136 H              1 S1                 0.0000
     31 ****        -1.1282  -0.3148   0.3717 H              1 S1                 0.0000
     32 ****        -1.0919  -2.7576   0.2403 H              1 S1                 0.0000
     33 ****        -1.0008  -2.6682  -1.4722 H              1 S1                 0.0000
     34 ****         1.0539  -4.1310  -1.3690 H              1 S1                 0.0000
     35 ****         1.0432  -4.1352   0.3797 H              1 S1                 0.0000
     36 ****         2.4881  -3.6395  -0.4992 H              1 S1                 0.0000
     37 ****         0.8660  -1.8586  -2.6942 H              1 S1                 0.0000
     38 ****         2.4399  -1.6036  -1.9971 H              1 S1                 0.0000
     39 ****         1.1901  -0.3738  -1.8162 H              1 S1                 0.0000
     40 ****         3.3049  -2.1360   0.9355 H              1 S1                 0.0000
     41 ****         3.2226  -0.8050  -0.1950 H              1 S1                 0.0000
     42 ****         4.2627  -0.0166   1.8794 H              1 S1                 0.0000
     43 ****         2.7566   0.8154   1.5802 H              1 S1                 0.0000
     44 ****         3.4214  -2.5742   3.2302 H              1 S1                 0.0000
     45 ****         3.0744  -1.8515   4.8027 H              1 S1                 0.0000
     46 ****         4.4997  -1.3485   3.9012 H              1 S1                 0.0000
     47 ****         0.8554  -1.2155   4.0422 H              1 S1                 0.0000
     48 ****         0.6892   0.0858   2.8894 H              1 S1                 0.0000
     49 ****        -0.1796  -2.0127   1.9704 H              1 S1                 0.0000
     50 ****         1.3523  -2.8278   2.1795 H              1 S1                 0.0000
     51 ****         2.7713   0.2329   3.7656 H              1 S1                 0.0000
     52 ****        -2.2125   3.3029   0.2570 LP             1 S1                 0.0000
     53 ****        -1.0114   3.3307  -0.8490 LP             1 S1                 0.0000
     54 ****        -3.2711   5.3299  -2.0192 LP             1 S1                 0.0000
     55 ****        -2.6337  -0.1810  -3.2799 LP             1 S1                 0.0000
     56 ****        -1.8471  -1.6371  -2.7690 LP             1 S1                 0.0000
     57 ****         0.9294  -0.4609   0.4842 LP             1 S1                 0.0000
@<TRIPOS>BOND
    1    1    2 1     
    2    1   24 1     
    3    1   25 1     
    4    1   26 1     
    5    2    3 1     
    6    3    8 ar    
    7    3    4 ar    
    8    4    5 ar    
    9    5    6 ar    
   10    5   27 1     
   11    6    7 ar    
   12    6   28 1     
   13    7    8 ar    
   14    7   29 1     
   15    8    9 1     
   16    9   10 am    
   17    9   30 1     
   18   10   11 2     
   19   10   12 am    
   20   12   13 1     
   21   12   31 1     
   22   13   14 1     
   23   13   32 1     
   24   13   33 1     
   25   14   15 1     
   26   14   16 1     
   27   14   17 1     
   28   15   34 1     
   29   15   35 1     
   30   15   36 1     
   31   16   37 1     
   32   16   38 1     
   33   16   39 1     
   34   17   23 1     
   35   17   18 1     
   36   18   19 1     
   37   18   40 1     
   38   18   41 1     
   39   19   20 1     
   40   19   42 1     
   41   19   43 1     
   42   20   21 1     
   43   20   22 1     
   44   20   51 1     
   45   21   44 1     
   46   21   45 1     
   47   21   46 1     
   48   22   23 1     
   49   22   47 1     
   50   22   48 1     
   51   23   49 1     
   52   23   50 1     
   53    2   52 1     
   54    2   53 1     
   55    4   54 1     
   56   11   55 1     
   57   11   56 1     
   58   17   57 1     
@<TRIPOS>SUBSTRUCTURE
      1 S1             1
@<TRIPOS>SET
LONE_PAIRS      STATIC     ATOMS    <user>   **** ""
6 52 53 54 55 56 57
DONOR_HYDROGENS      STATIC     ATOMS    <user>   **** ""
3 30 31 51
ATOM$BLUE        STATIC     ATOMS    COLORGROUP SYSTEM
6 52 53 54 55 56 57
ATOM$RED        STATIC     ATOMS    COLORGROUP SYSTEM
3 30 31 51
