AV-unprocessed.smi:2284|AV-procd|sdf|9202|dock2
  -GOLD-   2272012413D 1   1.00000     0.00000
 Structure written by MMmdl.
 44 45  0  0  0  0  0  0  0  0  1 V2000
  151.5678  146.1527  160.1348 C   0  0  0  0  0  0  0  0  0  0  0  0
  151.9262  144.6831  160.0502 C   0  0  0  0  0  0  0  0  0  0  0  0
  152.4596  144.0136  161.1686 C   0  0  0  0  0  0  0  0  0  0  0  0
  152.7871  142.6485  161.0801 C   0  0  0  0  0  0  0  0  0  0  0  0
  152.5844  141.9451  159.8748 C   0  0  0  0  0  0  0  0  0  0  0  0
  152.9452  140.4733  159.7937 C   0  0  0  0  0  0  0  0  0  0  0  0
  152.0517  142.6061  158.7441 C   0  0  0  0  0  0  0  0  0  0  0  0
  151.8794  141.8596  157.5979 O   0  0  0  0  0  0  0  0  0  0  0  0
  150.8274  142.2089  156.7084 C   0  0  0  0  0  0  0  0  0  0  0  0
  149.5136  141.6548  157.2789 C   0  0  1  0  0  0  0  0  0  0  0  0
  148.4573  142.3742  156.6757 O   0  0  0  0  0  0  0  0  0  0  0  0
  149.3352  140.1480  156.9791 C   0  0  0  0  0  0  0  0  0  0  0  0
  150.6250  139.4407  156.9390 N   0  0  0  0  0  0  0  0  0  0  0  0
  151.0329  138.8213  158.1327 C   0  0  0  0  0  0  0  0  0  0  0  0
  152.1428  138.1631  158.2116 N   0  0  0  0  0  0  0  0  0  0  0  0
  152.9684  138.0531  157.0890 C   0  0  0  0  0  0  0  0  0  0  0  0
  154.2473  137.2601  157.2911 C   0  0  0  0  0  0  0  0  0  0  0  0
  152.6282  138.6255  155.9018 C   0  0  0  0  0  0  0  0  0  0  0  0
  153.4880  138.5385  154.6469 C   0  0  0  0  0  0  0  0  0  0  0  0
  151.3651  139.3741  155.7953 C   0  0  0  0  0  0  0  0  0  0  0  0
  150.9920  139.9089  154.7496 O   0  0  0  0  0  0  0  0  0  0  0  0
  151.7234  143.9819  158.8447 C   0  0  0  0  0  0  0  0  0  0  0  0
  151.8027  146.5651  161.1166 H   0  0  0  0  0  0  0  0  0  0  0  0
  150.5020  146.2925  159.9526 H   0  0  0  0  0  0  0  0  0  0  0  0
  152.1215  146.7200  159.3862 H   0  0  0  0  0  0  0  0  0  0  0  0
  152.6195  144.5421  162.0972 H   0  0  0  0  0  0  0  0  0  0  0  0
  153.1959  142.1435  161.9432 H   0  0  0  0  0  0  0  0  0  0  0  0
  153.6969  140.3094  159.0209 H   0  0  0  0  0  0  0  0  0  0  0  0
  152.0640  139.8806  159.5464 H   0  0  0  0  0  0  0  0  0  0  0  0
  153.3455  140.1070  160.7392 H   0  0  0  0  0  0  0  0  0  0  0  0
  150.7671  143.2957  156.6275 H   0  0  0  0  0  0  0  0  0  0  0  0
  151.0077  141.8010  155.7121 H   0  0  0  0  0  0  0  0  0  0  0  0
  149.4919  141.8470  158.3526 H   0  0  0  0  0  0  0  0  0  0  0  0
  148.8100  143.1615  156.2897 H   0  0  0  0  0  0  0  0  0  0  0  0
  148.6401  139.6901  157.6856 H   0  0  0  0  0  0  0  0  0  0  0  0
  148.8408  140.0200  156.0139 H   0  0  0  0  0  0  0  0  0  0  0  0
  150.3485  138.9313  158.9761 H   0  0  0  0  0  0  0  0  0  0  0  0
  155.1192  137.8897  157.1117 H   0  0  0  0  0  0  0  0  0  0  0  0
  154.2827  136.4112  156.6077 H   0  0  0  0  0  0  0  0  0  0  0  0
  154.3185  136.8729  158.3083 H   0  0  0  0  0  0  0  0  0  0  0  0
  152.9377  138.0380  153.8495 H   0  0  0  0  0  0  0  0  0  0  0  0
  154.4169  137.9912  154.7988 H   0  0  0  0  0  0  0  0  0  0  0  0
  153.7507  139.5389  154.3009 H   0  0  0  0  0  0  0  0  0  0  0  0
  151.3099  144.5222  158.0066 H   0  0  0  0  0  0  0  0  0  0  0  0
  1  2  1  0  0  0  0
  1 23  1  0  0  0  0
  1 24  1  0  0  0  0
  1 25  1  0  0  0  0
  2 22  1  0  0  0  0
  2  3  2  0  0  0  0
  3  4  1  0  0  0  0
  3 26  1  0  0  0  0
  4  5  2  0  0  0  0
  4 27  1  0  0  0  0
  5  6  1  0  0  0  0
  5  7  1  0  0  0  0
  6 28  1  0  0  0  0
  6 29  1  0  0  0  0
  6 30  1  0  0  0  0
  7  8  1  0  0  0  0
  7 22  2  0  0  0  0
  8  9  1  0  0  0  0
  9 10  1  0  0  0  0
  9 31  1  0  0  0  0
  9 32  1  0  0  0  0
 10 11  1  0  0  0  0
 10 12  1  0  0  0  0
 10 33  1  0  0  0  0
 11 34  1  0  0  0  0
 12 13  1  0  0  0  0
 12 35  1  0  0  0  0
 12 36  1  0  0  0  0
 13 20  1  0  0  0  0
 13 14  1  0  0  0  0
 14 15  2  0  0  0  0
 14 37  1  0  0  0  0
 15 16  1  0  0  0  0
 16 17  1  0  0  0  0
 16 18  2  0  0  0  0
 17 38  1  0  0  0  0
 17 39  1  0  0  0  0
 17 40  1  0  0  0  0
 18 19  1  0  0  0  0
 18 20  1  0  0  0  0
 19 41  1  0  0  0  0
 19 42  1  0  0  0  0
 19 43  1  0  0  0  0
 20 21  2  0  0  0  0
 22 44  1  0  0  0  0
M  END
> <s_m_source_file>
AV-unprocessed.smi

> <i_m_source_file_index>
2284

> <i_lp_mmshare_version>
43012

> <i_f3d_flags>
0

> <s_epik_input>
W0NIM11jMVtjSF1bY0hdYyhbQ0gzXSljKFtjSF0xKU9bQ0gyXVtDQEhdKFtPSF0pW0NIMl1uMltjSF1uYyhbQ0gzXSljKFtDSDNdKWMyPU8=

> <s_epik_cmdline>
J2VwaWtfcHl0aG9uJywgJy1waCcsICc3LjAnLCAnLXRuJywgJzgnLCAnLW1hJywgJzIwMCcsICctbWV0YWxfYmluZGluZycsICctaW1hZScsICc8aW5maWxlLm1hZT4nLCAnLW9tYWUnLCAnPG91dGZpbGUubWFlPic=

> <r_lp_tautomer_probability>
1

> <r_epik_Ionization_Penalty>
3.7476e-05

> <r_epik_Ionization_Penalty_Charging>
8.44705e-08

> <r_epik_Ionization_Penalty_Neutral>
3.73915e-05

> <r_epik_State_Penalty>
-0

> <r_epik_Charging_Adjusted_Penalty>
8.44705e-08

> <i_epik_Tot_Q>
0

> <i_epik_Tot_abs_Q>
0

> <r_epik_Metal_State_Penalty>
-0

> <b_epik_Metal_Only>
0

> <s_lp_Force_Field>
OPLS_2005

> <r_lp_Energy>
21.7941

> <b_lp_Chiralities_Consistent>
1

> <s_lp_Variant>
AV-unprocessed.smi:2284-2

> <Gold.Version>
5.8.1

> <Gold.Id.Protein>
6NUR|6NUR_protein|mol2

> <Gold.PLP.Fitness>
46.0636

> <Gold.PLP.PLP>
-42.6738

> <Gold.PLP.part.hbond>
-2.0000

> <Gold.PLP.part.metal>
0.0000

> <Gold.PLP.part.buried>
-3.3656

> <Gold.PLP.part.nonpolar>
-38.8579

> <Gold.PLP.part.repulsive>
0.0864

> <Gold.PLP.ligand.clash>
0.0000

> <Gold.PLP.ligand.torsion>
1.3529

> <Gold.PLP.Chemscore.Hbond>
2.0000

> <Gold.PLP.Chemscore.CHOScore>
0.0000

> <Gold.PLP.Chemscore.Metal>
0.0000

> <Gold.Chemscore.Hbonds>
donor molecule, donor type, donor heavy atom, donor atom, acceptor molecule, acceptor atom, score
      L1  H    11    34       P1  8028  1.00
      P1  H  7989  7998       L1    21  1.00

> <Gold.PLP.Chemscore.Internal.Correction>
0.0955

> <Gold.Rescore>
     Score         DG    S(hbond)    S(metal)    S(lipo)     H(rot)  DE(clash)    DE(int)     intcor
     18.10     -21.03       1.89        0.00     129.86       2.32       0.20       2.74       ----

> <Gold.Chemscore.Fitness>
18.1013

> <Gold.Chemscore.DG>
-21.0327

> <Gold.Chemscore.ZeroCoef>
-5.4800

> <Gold.Chemscore.Hbond>
1.8885

> <Gold.Chemscore.Metal>
0.0000

> <Gold.Chemscore.Lipo>
129.8606

> <Gold.Chemscore.Internal_Hbond>
0.0000

> <Gold.Chemscore.DEClash>
0.1958

> <Gold.Chemscore.DEInternal>
2.7357

> <Gold.Chemscore.Rot>
2.3236

> <Gold.Chemscore.Internal.Correction>
   9.000000E+99

> <Gold.Chemscore.Hbonds>
donor molecule, donor type, donor heavy atom, donor atom, acceptor molecule, acceptor atom, score
      L1  H    11    34       P1  8028  0.98
      P1  H  7989  7998       L1    21  1.00

> <Gold.Chemscore.Hbond.Weighted>
-6.3074

> <Gold.Chemscore.Metal.Weighted>
-0.0000

> <Gold.Chemscore.Lipo.Weighted>
-15.1937

> <Gold.Chemscore.Internal_Hbond.Weighted>
0.0000

> <Gold.Chemscore.DEClash.Weighted>
0.1958

> <Gold.Chemscore.DEInternal.Weighted>
2.7357

> <Gold.Chemscore.Rot.Weighted>
5.9484

> <Gold.Chemscore.Internal.Correction.Weighted>
   9.000000E+99

> <Gold.Protein.RotatedTorsions>
[ 6907 6896 6895 6894 ] final  -22.83 input  -60.11 | X-H torsion
[ 7974 7965 7964 7962 ] final    3.84 input  175.53 | X-H torsion
[ 8008 7997 7996 7995 ] final   63.08 input   59.86 | X-H torsion
[ 10167 10162 10161 10158 ] final   80.71 input  -65.29 | X-H torsion
[ 10718 10713 10712 10709 ] final   58.45 input   66.30 | X-H torsion
[ 10763 10752 10751 10750 ] final   34.92 input  -60.55 | X-H torsion
[ 11005 11000 10999 10996 ] final  -95.80 input  -57.11 | X-H torsion

> <Gold.Protein.ActiveResidues>
 VAL166  LYS551  ARG553  GLY616  TRP617  ASP618  TYR619  PRO620  LYS621  CYS622 
 ASP623  PHE694  ASN695  SER759  ASP760  ASP761  ALA762  ILE779  LEU786  VAL792 
 PHE793  MET794  SER795  GLU796  ALA797  LYS798  CYS799  TRP800  GLU811  SER814 

> <Gold.Protein.RotatedAtoms>
  151.2129  135.0488  159.8918 H   0  0  0  0  0  0  0  0  0  0  0  0  # atno 6907 bound_to 6896
  152.5423  134.0725  159.8210 H   0  0  0  0  0  0  0  0  0  0  0  0  # atno 6908 bound_to 6896
  151.0880  133.5290  159.2648 H   0  0  0  0  0  0  0  0  0  0  0  0  # atno 6909 bound_to 6896
  146.2445  140.0625  142.8367 H   0  0  0  0  0  0  0  0  0  0  0  0  # atno 7974 bound_to 7965
  155.6246  140.3496  155.4663 H   0  0  0  0  0  0  0  0  0  0  0  0  # atno 8008 bound_to 7997
  156.0052  140.1221  157.0532 H   0  0  0  0  0  0  0  0  0  0  0  0  # atno 8009 bound_to 7997
  154.4262  140.1092  156.5739 H   0  0  0  0  0  0  0  0  0  0  0  0  # atno 8010 bound_to 7997
  139.9469  144.6052  150.8198 H   0  0  0  0  0  0  0  0  0  0  0  0  # atno 10167 bound_to 10162
  157.5597  130.8826  149.9091 H   0  0  0  0  0  0  0  0  0  0  0  0  # atno 10718 bound_to 10713
  153.0142  135.6347  154.1745 H   0  0  0  0  0  0  0  0  0  0  0  0  # atno 10763 bound_to 10752
  154.1485  135.2830  155.3143 H   0  0  0  0  0  0  0  0  0  0  0  0  # atno 10764 bound_to 10752
  154.6071  135.5568  153.7495 H   0  0  0  0  0  0  0  0  0  0  0  0  # atno 10765 bound_to 10752
  141.1431  133.8052  157.0484 H   0  0  0  0  0  0  0  0  0  0  0  0  # atno 11005 bound_to 11000
  145.0887  140.9270  143.4782 LP  0  0  0  0  0  0  0  0  0  0  0  0  # atno 17320 bound_to 7965
  145.0793  139.2972  143.5791 LP  0  0  0  0  0  0  0  0  0  0  0  0  # atno 17321 bound_to 7965
  140.7594  143.3129  151.2802 LP  0  0  0  0  0  0  0  0  0  0  0  0  # atno 17342 bound_to 10162
  139.6659  144.0106  152.2723 LP  0  0  0  0  0  0  0  0  0  0  0  0  # atno 17343 bound_to 10162
  156.0651  130.3693  150.0896 LP  0  0  0  0  0  0  0  0  0  0  0  0  # atno 17370 bound_to 10713
  156.9061  130.9636  151.3569 LP  0  0  0  0  0  0  0  0  0  0  0  0  # atno 17371 bound_to 10713
  140.0648  134.9735  157.1366 LP  0  0  0  0  0  0  0  0  0  0  0  0  # atno 17394 bound_to 11000
  140.3796  134.2301  155.7172 LP  0  0  0  0  0  0  0  0  0  0  0  0  # atno 17395 bound_to 11000

$$$$
