AV-unprocessed.smi:2699|AV-procd|sdf|10424|dock3
  -GOLD-   2272014463D 1   1.00000     0.00000
 Structure written by MMmdl.
 43 45  0  0  0  0  0  0  0  0  1 V2000
  151.3039  144.5358  159.8450 C   0  0  0  0  0  0  0  0  0  0  0  0
  152.2240  143.3646  160.1664 C   0  0  0  0  0  0  0  0  0  0  0  0
  152.8335  143.2687  161.3623 C   0  0  0  0  0  0  0  0  0  0  0  0
  153.6714  142.1309  161.6504 C   0  0  0  0  0  0  0  0  0  0  0  0
  154.2882  142.0336  162.8345 O   0  0  0  0  0  0  0  0  0  0  0  0
  153.8231  141.1651  160.7260 C   0  0  0  0  0  0  0  0  0  0  0  0
  153.1676  141.2347  159.4181 C   0  0  0  0  0  0  0  0  0  0  0  0
  153.3036  140.3368  158.5855 O   0  0  0  0  0  0  0  0  0  0  0  0
  152.4052  142.3508  159.1794 N   0  0  0  0  0  0  0  0  0  0  0  0
  151.7592  142.4896  157.8528 C   0  0  0  0  0  0  0  0  0  0  0  0
  150.2302  142.2908  157.8865 C   0  0  0  0  0  0  0  0  0  0  0  0
  149.6187  142.3263  158.9532 O   0  0  0  0  0  0  0  0  0  0  0  0
  149.5808  142.0864  156.7303 N   0  0  0  0  0  0  0  0  0  0  0  0
  148.1450  141.8797  156.5660 C   0  0  0  0  0  0  0  0  0  0  0  0
  147.8115  141.1523  155.2494 C   0  0  0  0  0  0  0  0  0  0  0  0
  148.5266  139.7974  155.2780 C   0  0  0  0  0  0  0  0  0  0  0  0
  149.9015  139.6167  154.6856 C   0  0  0  0  0  0  0  0  0  0  0  0
  148.7109  138.9007  154.0757 C   0  0  0  0  0  0  0  0  0  0  0  0
  146.3149  141.1034  154.8702 C   0  0  0  0  0  0  0  0  0  0  0  0
  146.4930  142.3901  154.0663 C   0  0  0  0  0  0  0  0  0  0  0  0
  147.9783  142.0397  153.9905 C   0  0  0  0  0  0  0  0  0  0  0  0
  151.0468  145.0828  160.7525 H   0  0  0  0  0  0  0  0  0  0  0  0
  150.3646  144.2080  159.4003 H   0  0  0  0  0  0  0  0  0  0  0  0
  151.7955  145.2344  159.1676 H   0  0  0  0  0  0  0  0  0  0  0  0
  152.6872  144.0327  162.1123 H   0  0  0  0  0  0  0  0  0  0  0  0
  153.7507  141.4912  163.3914 H   0  0  0  0  0  0  0  0  0  0  0  0
  154.4481  140.3116  160.9473 H   0  0  0  0  0  0  0  0  0  0  0  0
  151.9896  143.4502  157.3954 H   0  0  0  0  0  0  0  0  0  0  0  0
  152.1849  141.7697  157.1520 H   0  0  0  0  0  0  0  0  0  0  0  0
  150.1340  142.0718  155.8856 H   0  0  0  0  0  0  0  0  0  0  0  0
  147.7771  141.3121  157.4218 H   0  0  0  0  0  0  0  0  0  0  0  0
  147.6368  142.8445  156.5977 H   0  0  0  0  0  0  0  0  0  0  0  0
  148.3373  139.2417  156.1946 H   0  0  0  0  0  0  0  0  0  0  0  0
  150.3279  140.4470  154.1263 H   0  0  0  0  0  0  0  0  0  0  0  0
  150.6150  139.0205  155.2505 H   0  0  0  0  0  0  0  0  0  0  0  0
  148.6376  137.8278  154.2408 H   0  0  0  0  0  0  0  0  0  0  0  0
  148.3622  139.2364  153.1030 H   0  0  0  0  0  0  0  0  0  0  0  0
  146.0651  140.2506  154.2367 H   0  0  0  0  0  0  0  0  0  0  0  0
  145.6201  141.1873  155.7064 H   0  0  0  0  0  0  0  0  0  0  0  0
  145.9768  142.4040  153.1062 H   0  0  0  0  0  0  0  0  0  0  0  0
  146.2926  143.2899  154.6496 H   0  0  0  0  0  0  0  0  0  0  0  0
  148.6460  142.8922  154.1186 H   0  0  0  0  0  0  0  0  0  0  0  0
  148.2160  141.5002  153.0749 H   0  0  0  0  0  0  0  0  0  0  0  0
  1  2  1  0  0  0  0
  1 22  1  0  0  0  0
  1 23  1  0  0  0  0
  1 24  1  0  0  0  0
  2  9  1  0  0  0  0
  2  3  2  0  0  0  0
  3  4  1  0  0  0  0
  3 25  1  0  0  0  0
  4  5  1  0  0  0  0
  4  6  2  0  0  0  0
  5 26  1  0  0  0  0
  6  7  1  0  0  0  0
  6 27  1  0  0  0  0
  7  8  2  0  0  0  0
  7  9  1  0  0  0  0
  9 10  1  0  0  0  0
 10 11  1  0  0  0  0
 10 28  1  0  0  0  0
 10 29  1  0  0  0  0
 11 12  2  0  0  0  0
 11 13  1  0  0  0  0
 13 14  1  0  0  0  0
 13 30  1  0  0  0  0
 14 15  1  0  0  0  0
 14 31  1  0  0  0  0
 14 32  1  0  0  0  0
 15 21  1  0  0  0  0
 15 16  1  0  0  0  0
 15 19  1  0  0  0  0
 16 18  1  0  0  0  0
 16 17  1  0  0  0  0
 16 33  1  0  0  0  0
 17 18  1  0  0  0  0
 17 34  1  0  0  0  0
 17 35  1  0  0  0  0
 18 36  1  0  0  0  0
 18 37  1  0  0  0  0
 19 20  1  0  0  0  0
 19 38  1  0  0  0  0
 19 39  1  0  0  0  0
 20 21  1  0  0  0  0
 20 40  1  0  0  0  0
 20 41  1  0  0  0  0
 21 42  1  0  0  0  0
 21 43  1  0  0  0  0
M  END
> <s_m_source_file>
AV-unprocessed.smi

> <i_m_source_file_index>
2699

> <i_lp_mmshare_version>
43012

> <i_f3d_flags>
0

> <s_epik_input>
W0NIM11jMVtjSF1jKFtPSF0pW2NIXWMoPU8pbjFbQ0gyXUMoPU8pW05IXVtDSDJdQzIoW0NIXTNbQ0gyXVtDSDJdMylbQ0gyXVtDSDJdW0NIMl0y

> <s_epik_cmdline>
J2VwaWtfcHl0aG9uJywgJy1waCcsICc3LjAnLCAnLXRuJywgJzgnLCAnLW1hJywgJzIwMCcsICctbWV0YWxfYmluZGluZycsICctaW1hZScsICc8aW5maWxlLm1hZT4nLCAnLW9tYWUnLCAnPG91dGZpbGUubWFlPic=

> <r_lp_tautomer_probability>
0.999984

> <r_epik_Ionization_Penalty>
0.783068

> <r_epik_Ionization_Penalty_Charging>
1.5268e-07

> <r_epik_Ionization_Penalty_Neutral>
0.783068

> <r_epik_State_Penalty>
0.823318

> <r_epik_Charging_Adjusted_Penalty>
0.823318

> <i_epik_Tot_Q>
0

> <i_epik_Tot_abs_Q>
0

> <r_epik_Metal_State_Penalty>
0.823318

> <b_epik_Metal_Only>
0

> <s_lp_Force_Field>
OPLS_2005

> <r_lp_Energy>
38.185

> <b_lp_Chiralities_Consistent>
1

> <s_lp_Variant>
AV-unprocessed.smi:2699-2

> <Gold.Version>
5.8.1

> <Gold.Id.Protein>
6NUR|6NUR_protein|mol2

> <Gold.PLP.Fitness>
45.9694

> <Gold.PLP.PLP>
-44.2517

> <Gold.PLP.part.hbond>
-4.0000

> <Gold.PLP.part.metal>
0.0000

> <Gold.PLP.part.buried>
-3.2052

> <Gold.PLP.part.nonpolar>
-35.4623

> <Gold.PLP.part.repulsive>
0.0938

> <Gold.PLP.ligand.clash>
0.0000

> <Gold.PLP.ligand.torsion>
1.3601

> <Gold.PLP.Chemscore.Hbond>
0.9120

> <Gold.PLP.Chemscore.CHOScore>
0.0000

> <Gold.PLP.Chemscore.Metal>
0.0000

> <Gold.Chemscore.Hbonds>
donor molecule, donor type, donor heavy atom, donor atom, acceptor molecule, acceptor atom, score
      P1  H  7997  8009       L1     8  0.88

> <Gold.PLP.Chemscore.Internal.Correction>
1.7018

> <Gold.Rescore>
     Score         DG    S(hbond)    S(metal)    S(lipo)     H(rot)  DE(clash)    DE(int)     intcor
     12.64     -15.00       0.90        0.00     105.89       2.30       0.78       1.58       ----

> <Gold.Chemscore.Fitness>
12.6412

> <Gold.Chemscore.DG>
-14.9969

> <Gold.Chemscore.ZeroCoef>
-5.4800

> <Gold.Chemscore.Hbond>
0.9002

> <Gold.Chemscore.Metal>
0.0000

> <Gold.Chemscore.Lipo>
105.8860

> <Gold.Chemscore.Internal_Hbond>
0.0000

> <Gold.Chemscore.DEClash>
0.7773

> <Gold.Chemscore.DEInternal>
1.5785

> <Gold.Chemscore.Rot>
2.2962

> <Gold.Chemscore.Internal.Correction>
   9.000000E+99

> <Gold.Chemscore.Hbonds>
donor molecule, donor type, donor heavy atom, donor atom, acceptor molecule, acceptor atom, score
      P1  H  7997  8009       L1     8  0.81

> <Gold.Chemscore.Hbond.Weighted>
-3.0066

> <Gold.Chemscore.Metal.Weighted>
-0.0000

> <Gold.Chemscore.Lipo.Weighted>
-12.3887

> <Gold.Chemscore.Internal_Hbond.Weighted>
0.0000

> <Gold.Chemscore.DEClash.Weighted>
0.7773

> <Gold.Chemscore.DEInternal.Weighted>
1.5785

> <Gold.Chemscore.Rot.Weighted>
5.8783

> <Gold.Chemscore.Internal.Correction.Weighted>
   9.000000E+99

> <Gold.Protein.RotatedTorsions>
[ 6907 6896 6895 6894 ] final  -98.41 input  -60.11 | X-H torsion
[ 7974 7965 7964 7962 ] final   15.84 input  175.53 | X-H torsion
[ 8008 7997 7996 7995 ] final  153.30 input   59.86 | X-H torsion
[ 10167 10162 10161 10158 ] final -149.00 input  -65.29 | X-H torsion
[ 10718 10713 10712 10709 ] final -160.25 input   66.30 | X-H torsion
[ 10763 10752 10751 10750 ] final   76.12 input  -60.55 | X-H torsion
[ 11005 11000 10999 10996 ] final  118.59 input  -57.11 | X-H torsion

> <Gold.Protein.ActiveResidues>
 VAL166  LYS551  ARG553  GLY616  TRP617  ASP618  TYR619  PRO620  LYS621  CYS622 
 ASP623  PHE694  ASN695  SER759  ASP760  ASP761  ALA762  ILE779  LEU786  VAL792 
 PHE793  MET794  SER795  GLU796  ALA797  LYS798  CYS799  TRP800  GLU811  SER814 

> <Gold.Protein.RotatedAtoms>
  150.7046  134.1198  159.4030 H   0  0  0  0  0  0  0  0  0  0  0  0  # atno 6907 bound_to 6896
  151.9185  135.0306  160.0529 H   0  0  0  0  0  0  0  0  0  0  0  0  # atno 6908 bound_to 6896
  152.2276  133.4997  159.5234 H   0  0  0  0  0  0  0  0  0  0  0  0  # atno 6909 bound_to 6896
  146.2267  139.8835  142.8567 H   0  0  0  0  0  0  0  0  0  0  0  0  # atno 7974 bound_to 7965
  156.2588  140.1997  156.6469 H   0  0  0  0  0  0  0  0  0  0  0  0  # atno 8008 bound_to 7997
  154.6567  140.0565  157.0041 H   0  0  0  0  0  0  0  0  0  0  0  0  # atno 8009 bound_to 7997
  155.1337  140.3236  155.4471 H   0  0  0  0  0  0  0  0  0  0  0  0  # atno 8010 bound_to 7997
  139.7482  143.8559  152.2580 H   0  0  0  0  0  0  0  0  0  0  0  0  # atno 10167 bound_to 10162
  156.5795  130.8723  151.2860 H   0  0  0  0  0  0  0  0  0  0  0  0  # atno 10718 bound_to 10713
  153.0703  135.4963  154.8290 H   0  0  0  0  0  0  0  0  0  0  0  0  # atno 10763 bound_to 10752
  154.7013  135.3002  154.9339 H   0  0  0  0  0  0  0  0  0  0  0  0  # atno 10764 bound_to 10752
  154.0062  135.6760  153.4815 H   0  0  0  0  0  0  0  0  0  0  0  0  # atno 10765 bound_to 10752
  139.9115  134.9621  156.7527 H   0  0  0  0  0  0  0  0  0  0  0  0  # atno 11005 bound_to 11000
  145.2489  141.0036  143.3893 LP  0  0  0  0  0  0  0  0  0  0  0  0  # atno 17320 bound_to 7965
  144.9391  139.4210  143.6458 LP  0  0  0  0  0  0  0  0  0  0  0  0  # atno 17321 bound_to 7965
  139.8529  144.7155  150.9192 LP  0  0  0  0  0  0  0  0  0  0  0  0  # atno 17342 bound_to 10162
  140.7794  143.3883  151.1354 LP  0  0  0  0  0  0  0  0  0  0  0  0  # atno 17343 bound_to 10162
  157.7330  130.9723  150.1955 LP  0  0  0  0  0  0  0  0  0  0  0  0  # atno 17370 bound_to 10713
  156.2644  130.3714  149.8097 LP  0  0  0  0  0  0  0  0  0  0  0  0  # atno 17371 bound_to 10713
  140.6761  133.9516  155.7883 LP  0  0  0  0  0  0  0  0  0  0  0  0  # atno 17394 bound_to 11000
  141.0543  134.0439  157.3742 LP  0  0  0  0  0  0  0  0  0  0  0  0  # atno 17395 bound_to 11000

$$$$
