#       Name:                AV-unprocessed.smi:3057
#       Creating user name   scv26
#       Creation time:       Fri Mar 27 17:07:05 2020


#       File generated by GOLD software.
#

@<TRIPOS>MOLECULE
AV-unprocessed.smi:3057
    45    47     1
SMALL
NO_CHARGES


@<TRIPOS>ATOM
      1 ****        -3.1211   2.9300   1.3299 C.3            1 S1                 0.0000
      2 ****        -3.8125   1.6915   0.7278 C.3            1 S1                 0.0000
      3 ****        -4.9160   2.0908  -0.2686 C.3            1 S1                 0.0000
      4 ****        -4.2310   2.0402  -1.6425 C.3            1 S1                 0.0000
      5 ****        -3.0712   1.0893  -1.3945 C.2            1 S1                 0.0000
      6 ****        -2.4502   0.5288  -2.2964 O.2            1 S1                 0.0000
      7 ****        -2.8909   0.9148  -0.0791 N.am           1 S1                 0.0000
      8 ****        -2.1478  -0.1679   0.5705 C.3            1 S1                 0.0000
      9 ****        -0.6450   0.1567   0.6143 C.2            1 S1                 0.0000
     10 ****        -0.2503   1.2950   0.8706 O.2            1 S1                 0.0000
     11 ****         0.1847  -0.8672   0.3668 N.am           1 S1                 0.0000
     12 ****         1.6383  -0.7722   0.3441 C.3            1 S1                 0.0000
     13 ****         2.2377  -1.9009  -0.5060 C.3            1 S1                 0.0000
     14 ****         3.7515  -1.8349  -0.5662 C.ar           1 S1                 0.0000
     15 ****         4.5740  -2.6809   0.2095 C.ar           1 S1                 0.0000
     16 ****         5.9759  -2.5640   0.1040 C.ar           1 S1                 0.0000
     17 ****         6.5250  -1.6049  -0.7723 C.ar           1 S1                 0.0000
     18 ****         5.6570  -0.7851  -1.5220 C.ar           1 S1                 0.0000
     19 ****         4.3196  -0.9279  -1.3940 N.pl3          1 S1                 1.0000
     20 ****        -2.7095  -0.2830   2.0096 C.3            1 S1                 0.0000
     21 ****        -4.3280   0.5377   2.0104 S.3            1 S1                 0.0000
     22 ****        -2.7068   3.5733   0.5531 H              1 S1                 0.0000
     23 ****        -2.3053   2.6542   1.9980 H              1 S1                 0.0000
     24 ****        -3.8266   3.5257   1.9098 H              1 S1                 0.0000
     25 ****        -5.7345   1.3697  -0.2451 H              1 S1                 0.0000
     26 ****        -5.3421   3.0718  -0.0551 H              1 S1                 0.0000
     27 ****        -4.8973   1.6775  -2.4256 H              1 S1                 0.0000
     28 ****        -3.8412   3.0167  -1.9315 H              1 S1                 0.0000
     29 ****        -2.3281  -1.0974   0.0268 H              1 S1                 0.0000
     30 ****        -0.2209  -1.7708   0.1700 H              1 S1                 0.0000
     31 ****         1.9466   0.1938  -0.0598 H              1 S1                 0.0000
     32 ****         2.0122  -0.8275   1.3672 H              1 S1                 0.0000
     33 ****         1.9372  -2.8706  -0.1067 H              1 S1                 0.0000
     34 ****         1.8449  -1.8516  -1.5228 H              1 S1                 0.0000
     35 ****         4.1392  -3.4109   0.8770 H              1 S1                 0.0000
     36 ****         6.6223  -3.2022   0.6885 H              1 S1                 0.0000
     37 ****         7.5959  -1.4994  -0.8674 H              1 S1                 0.0000
     38 ****         5.9890  -0.0256  -2.2149 H              1 S1                 0.0000
     39 ****        -2.8033  -1.3202   2.3319 H              1 S1                 0.0000
     40 ****        -2.0815   0.2322   2.7383 H              1 S1                 0.0000
     41 ****         3.7102  -0.3240  -1.9464 H              1 S1                 0.0000
     42 ****        -2.7010   0.6897  -3.2510 LP             1 S1                 0.0000
     43 ****        -1.6946  -0.0877  -2.0750 LP             1 S1                 0.0000
     44 ****        -0.9102   2.0236   1.0539 LP             1 S1                 0.0000
     45 ****         0.7301   1.4905   0.8954 LP             1 S1                 0.0000
@<TRIPOS>BOND
    1    1    2 1     
    2    1   22 1     
    3    1   23 1     
    4    1   24 1     
    5    2    7 1     
    6    2   21 1     
    7    2    3 1     
    8    3    4 1     
    9    3   25 1     
   10    3   26 1     
   11    4    5 1     
   12    4   27 1     
   13    4   28 1     
   14    5    6 2     
   15    5    7 am    
   16    7    8 1     
   17    8    9 1     
   18    8   20 1     
   19    8   29 1     
   20    9   10 2     
   21    9   11 am    
   22   11   12 1     
   23   11   30 1     
   24   12   13 1     
   25   12   31 1     
   26   12   32 1     
   27   13   14 1     
   28   13   33 1     
   29   13   34 1     
   30   14   19 ar    
   31   14   15 ar    
   32   15   16 ar    
   33   15   35 1     
   34   16   17 ar    
   35   16   36 1     
   36   17   18 ar    
   37   17   37 1     
   38   18   19 ar    
   39   18   38 1     
   40   19   41 1     
   41   20   21 1     
   42   20   39 1     
   43   20   40 1     
   44    6   42 1     
   45    6   43 1     
   46   10   44 1     
   47   10   45 1     
@<TRIPOS>SUBSTRUCTURE
      1 S1             1
@<TRIPOS>SET
LONE_PAIRS      STATIC     ATOMS    <user>   **** ""
4 42 43 44 45
DONOR_HYDROGENS      STATIC     ATOMS    <user>   **** ""
2 30 41
ATOM$BLUE        STATIC     ATOMS    COLORGROUP SYSTEM
4 42 43 44 45
ATOM$RED        STATIC     ATOMS    COLORGROUP SYSTEM
2 30 41
