AV-unprocessed.smi:2533|AV-procd|sdf|9973|dock10
  -GOLD-   2272014 23D 1   1.00000     0.00000
 Structure written by MMmdl.
 35 36  0  0  0  0  0  0  0  0  1 V2000
  151.5345  144.4065  159.3536 C   0  0  0  0  0  0  0  0  0  0  0  0
  152.4304  143.4563  159.9110 O   0  0  0  0  0  0  0  0  0  0  0  0
  152.2304  142.1242  159.6170 C   0  0  0  0  0  0  0  0  0  0  0  0
  151.0960  141.6241  158.9295 C   0  0  0  0  0  0  0  0  0  0  0  0
  150.9725  140.2470  158.6629 C   0  0  0  0  0  0  0  0  0  0  0  0
  151.9756  139.3467  159.0783 C   0  0  0  0  0  0  0  0  0  0  0  0
  151.8709  137.8626  158.7497 C   0  0  1  0  0  0  0  0  0  0  0  0
  152.2109  137.0460  159.8512 O   0  0  0  0  0  0  0  0  0  0  0  0
  150.4622  137.4575  158.2549 C   0  0  0  0  0  0  0  0  0  0  0  0
  150.2122  137.8582  156.8632 N   0  0  0  0  0  0  0  0  0  0  0  0
  149.2381  138.8316  156.7170 N   0  0  0  0  0  0  0  0  0  0  0  0
  148.9568  139.3336  155.5584 C   0  0  0  0  0  0  0  0  0  0  0  0
  147.9035  140.4119  155.5076 C   0  0  0  0  0  0  0  0  0  0  0  0
  146.9010  140.0662  154.6993 F   0  0  0  0  0  0  0  0  0  0  0  0
  147.4094  140.6280  156.7270 F   0  0  0  0  0  0  0  0  0  0  0  0
  148.4360  141.5497  155.0594 F   0  0  0  0  0  0  0  0  0  0  0  0
  149.6626  138.8421  154.3868 C   0  0  0  0  0  0  0  0  0  0  0  0
  150.6006  137.8815  154.5298 C   0  0  0  0  0  0  0  0  0  0  0  0
  150.9354  137.3230  155.8374 C   0  0  0  0  0  0  0  0  0  0  0  0
  151.7977  136.4611  156.0035 O   0  0  0  0  0  0  0  0  0  0  0  0
  153.1027  139.8398  159.7664 C   0  0  0  0  0  0  0  0  0  0  0  0
  153.2279  141.2167  160.0314 C   0  0  0  0  0  0  0  0  0  0  0  0
  154.3227  141.6713  160.6865 F   0  0  0  0  0  0  0  0  0  0  0  0
  151.8270  145.4066  159.6733 H   0  0  0  0  0  0  0  0  0  0  0  0
  150.5120  144.2373  159.6936 H   0  0  0  0  0  0  0  0  0  0  0  0
  151.5614  144.3878  158.2632 H   0  0  0  0  0  0  0  0  0  0  0  0
  150.3071  142.2777  158.5904 H   0  0  0  0  0  0  0  0  0  0  0  0
  150.1081  139.8850  158.1257 H   0  0  0  0  0  0  0  0  0  0  0  0
  152.5951  137.6376  157.9657 H   0  0  0  0  0  0  0  0  0  0  0  0
  152.6091  137.5890  160.5146 H   0  0  0  0  0  0  0  0  0  0  0  0
  150.3163  136.3818  158.3703 H   0  0  0  0  0  0  0  0  0  0  0  0
  149.7094  137.9188  158.8977 H   0  0  0  0  0  0  0  0  0  0  0  0
  149.4345  139.2430  153.4103 H   0  0  0  0  0  0  0  0  0  0  0  0
  151.1219  137.5184  153.6562 H   0  0  0  0  0  0  0  0  0  0  0  0
  153.8851  139.1648  160.0809 H   0  0  0  0  0  0  0  0  0  0  0  0
  1  2  1  0  0  0  0
  1 24  1  0  0  0  0
  1 25  1  0  0  0  0
  1 26  1  0  0  0  0
  2  3  1  0  0  0  0
  3 22  1  0  0  0  0
  3  4  2  0  0  0  0
  4  5  1  0  0  0  0
  4 27  1  0  0  0  0
  5  6  2  0  0  0  0
  5 28  1  0  0  0  0
  6  7  1  0  0  0  0
  6 21  1  0  0  0  0
  7  8  1  0  0  0  0
  7  9  1  0  0  0  0
  7 29  1  0  0  0  0
  8 30  1  0  0  0  0
  9 10  1  0  0  0  0
  9 31  1  0  0  0  0
  9 32  1  0  0  0  0
 10 19  1  0  0  0  0
 10 11  1  0  0  0  0
 11 12  2  0  0  0  0
 12 13  1  0  0  0  0
 12 17  1  0  0  0  0
 13 14  1  0  0  0  0
 13 15  1  0  0  0  0
 13 16  1  0  0  0  0
 17 18  2  0  0  0  0
 17 33  1  0  0  0  0
 18 19  1  0  0  0  0
 18 34  1  0  0  0  0
 19 20  2  0  0  0  0
 21 22  2  0  0  0  0
 21 35  1  0  0  0  0
 22 23  1  0  0  0  0
M  END
> <s_m_source_file>
AV-unprocessed.smi

> <i_m_source_file_index>
2533

> <i_lp_mmshare_version>
43012

> <i_f3d_flags>
0

> <s_epik_input>
W0NIM11PYzFbY0hdW2NIXWMoW2NIXWMxRilbQ0BIXShbT0hdKVtDSDJdbjJuYyhDKEYpKEYpRilbY0hdW2NIXWMyPU8=

> <s_epik_cmdline>
J2VwaWtfcHl0aG9uJywgJy1waCcsICc3LjAnLCAnLXRuJywgJzgnLCAnLW1hJywgJzIwMCcsICctbWV0YWxfYmluZGluZycsICctaW1hZScsICc8aW5maWxlLm1hZT4nLCAnLW9tYWUnLCAnPG91dGZpbGUubWFlPic=

> <r_lp_tautomer_probability>
1

> <r_epik_Ionization_Penalty>
5.00966e-08

> <r_epik_Ionization_Penalty_Charging>
3.92872e-09

> <r_epik_Ionization_Penalty_Neutral>
4.61679e-08

> <r_epik_State_Penalty>
-0

> <r_epik_Charging_Adjusted_Penalty>
3.92872e-09

> <i_epik_Tot_Q>
0

> <i_epik_Tot_abs_Q>
0

> <r_epik_Metal_State_Penalty>
-0

> <b_epik_Metal_Only>
0

> <s_lp_Force_Field>
OPLS_2005

> <r_lp_Energy>
30.5098

> <b_lp_Chiralities_Consistent>
1

> <s_lp_Variant>
AV-unprocessed.smi:2533-2

> <Gold.Version>
5.8.1

> <Gold.Id.Protein>
6NUR|6NUR_protein|mol2

> <Gold.PLP.Fitness>
45.9543

> <Gold.PLP.PLP>
-41.1321

> <Gold.PLP.part.hbond>
-2.0000

> <Gold.PLP.part.metal>
0.0000

> <Gold.PLP.part.buried>
-4.5253

> <Gold.PLP.part.nonpolar>
-34.3734

> <Gold.PLP.part.repulsive>
0.0124

> <Gold.PLP.ligand.clash>
0.0000

> <Gold.PLP.ligand.torsion>
0.6128

> <Gold.PLP.Chemscore.Hbond>
2.0000

> <Gold.PLP.Chemscore.CHOScore>
0.0000

> <Gold.PLP.Chemscore.Metal>
0.0000

> <Gold.Chemscore.Hbonds>
donor molecule, donor type, donor heavy atom, donor atom, acceptor molecule, acceptor atom, score
      P1  H  6896  6907       L1     8  1.00
      P1  H 10752 10763       L1    20  1.00

> <Gold.PLP.Chemscore.Internal.Correction>
0.0478

> <Gold.Rescore>
     Score         DG    S(hbond)    S(metal)    S(lipo)     H(rot)  DE(clash)    DE(int)     intcor
     15.11     -15.51       1.97        0.00      84.27       2.50       0.00       0.40       ----

> <Gold.Chemscore.Fitness>
15.1108

> <Gold.Chemscore.DG>
-15.5134

> <Gold.Chemscore.ZeroCoef>
-5.4800

> <Gold.Chemscore.Hbond>
1.9704

> <Gold.Chemscore.Metal>
0.0000

> <Gold.Chemscore.Lipo>
84.2750

> <Gold.Chemscore.Internal_Hbond>
0.0000

> <Gold.Chemscore.DEClash>
0.0002

> <Gold.Chemscore.DEInternal>
0.4023

> <Gold.Chemscore.Rot>
2.5031

> <Gold.Chemscore.Internal.Correction>
   9.000000E+99

> <Gold.Chemscore.Hbonds>
donor molecule, donor type, donor heavy atom, donor atom, acceptor molecule, acceptor atom, score
      P1  H  6896  6907       L1     8  0.89
      P1  H 10752 10763       L1    20  0.99

> <Gold.Chemscore.Hbond.Weighted>
-6.5811

> <Gold.Chemscore.Metal.Weighted>
-0.0000

> <Gold.Chemscore.Lipo.Weighted>
-9.8602

> <Gold.Chemscore.Internal_Hbond.Weighted>
0.0000

> <Gold.Chemscore.DEClash.Weighted>
0.0002

> <Gold.Chemscore.DEInternal.Weighted>
0.4023

> <Gold.Chemscore.Rot.Weighted>
6.4079

> <Gold.Chemscore.Internal.Correction.Weighted>
   9.000000E+99

> <Gold.Protein.RotatedTorsions>
[ 6907 6896 6895 6894 ] final   -7.12 input  -60.11 | X-H torsion
[ 7974 7965 7964 7962 ] final  -47.75 input  175.53 | X-H torsion
[ 8008 7997 7996 7995 ] final -155.57 input   59.86 | X-H torsion
[ 10167 10162 10161 10158 ] final   24.92 input  -65.29 | X-H torsion
[ 10718 10713 10712 10709 ] final -161.31 input   66.30 | X-H torsion
[ 10763 10752 10751 10750 ] final   69.72 input  -60.55 | X-H torsion
[ 11005 11000 10999 10996 ] final  162.72 input  -57.11 | X-H torsion

> <Gold.Protein.ActiveResidues>
 VAL166  LYS551  ARG553  GLY616  TRP617  ASP618  TYR619  PRO620  LYS621  CYS622 
 ASP623  PHE694  ASN695  SER759  ASP760  ASP761  ALA762  ILE779  LEU786  VAL792 
 PHE793  MET794  SER795  GLU796  ALA797  LYS798  CYS799  TRP800  GLU811  SER814 

> <Gold.Protein.RotatedAtoms>
  151.4547  135.1033  159.9707 H   0  0  0  0  0  0  0  0  0  0  0  0  # atno 6907 bound_to 6896
  152.4875  133.8408  159.7162 H   0  0  0  0  0  0  0  0  0  0  0  0  # atno 6908 bound_to 6896
  150.8998  133.7074  159.2909 H   0  0  0  0  0  0  0  0  0  0  0  0  # atno 6909 bound_to 6896
  145.9583  140.7504  142.9470 H   0  0  0  0  0  0  0  0  0  0  0  0  # atno 7974 bound_to 7965
  155.7039  140.0770  157.2399 H   0  0  0  0  0  0  0  0  0  0  0  0  # atno 8008 bound_to 7997
  154.4069  140.1642  156.2274 H   0  0  0  0  0  0  0  0  0  0  0  0  # atno 8009 bound_to 7997
  155.9343  140.3389  155.6278 H   0  0  0  0  0  0  0  0  0  0  0  0  # atno 8010 bound_to 7997
  140.5149  144.0099  150.6389 H   0  0  0  0  0  0  0  0  0  0  0  0  # atno 10167 bound_to 10162
  156.5945  130.8784  151.2898 H   0  0  0  0  0  0  0  0  0  0  0  0  # atno 10718 bound_to 10713
  153.0302  135.5200  154.7331 H   0  0  0  0  0  0  0  0  0  0  0  0  # atno 10763 bound_to 10752
  154.6353  135.2905  155.0171 H   0  0  0  0  0  0  0  0  0  0  0  0  # atno 10764 bound_to 10752
  154.1108  135.6622  153.4937 H   0  0  0  0  0  0  0  0  0  0  0  0  # atno 10765 bound_to 10752
  140.2285  134.8142  157.3293 H   0  0  0  0  0  0  0  0  0  0  0  0  # atno 11005 bound_to 11000
  144.6809  140.2549  143.7327 LP  0  0  0  0  0  0  0  0  0  0  0  0  # atno 17320 bound_to 7965
  145.8075  139.1989  143.2012 LP  0  0  0  0  0  0  0  0  0  0  0  0  # atno 17321 bound_to 7965
  140.3432  143.3007  152.0566 LP  0  0  0  0  0  0  0  0  0  0  0  0  # atno 17342 bound_to 10162
  139.4906  144.6427  151.6842 LP  0  0  0  0  0  0  0  0  0  0  0  0  # atno 17343 bound_to 10162
  157.7295  130.9672  150.1791 LP  0  0  0  0  0  0  0  0  0  0  0  0  # atno 17370 bound_to 10713
  156.2522  130.3701  149.8220 LP  0  0  0  0  0  0  0  0  0  0  0  0  # atno 17371 bound_to 10713
  140.1775  134.4531  155.7793 LP  0  0  0  0  0  0  0  0  0  0  0  0  # atno 17394 bound_to 11000
  141.2219  133.6969  156.7812 LP  0  0  0  0  0  0  0  0  0  0  0  0  # atno 17395 bound_to 11000

$$$$
