AV-unprocessed.smi:250|AV-procd|sdf|1931|dock4
  -GOLD-   2262021 53D 1   1.00000     0.00000
 Structure written by MMmdl.
 56 60  0  0  0  0  0  0  0  0  1 V2000
  152.2848  144.1150  161.1593 C   0  0  0  0  0  0  0  0  0  0  0  0
  151.6081  143.7389  159.9250 N   0  0  0  0  0  0  0  0  0  0  0  0
  150.7343  144.4839  159.2158 C   0  0  0  0  0  0  0  0  0  0  0  0
  150.3332  145.6093  159.5054 O   0  0  0  0  0  0  0  0  0  0  0  0
  150.3699  143.7860  158.1263 N   0  0  0  0  0  0  0  0  0  0  0  0
  150.8228  142.4198  158.2433 C   0  0  1  0  0  0  0  0  0  0  0  0
  151.2251  141.6055  157.0168 C   0  0  0  0  0  0  0  0  0  0  0  0
  151.7097  140.3027  157.5010 N   0  0  0  0  0  0  0  0  0  0  0  0
  151.7821  139.3320  156.5564 C   0  0  0  0  0  0  0  0  0  0  0  0
  152.7717  139.3698  155.6244 N   0  0  0  0  0  0  0  0  0  0  0  0
  152.8461  138.4267  154.6809 C   0  0  0  0  0  0  0  0  0  0  0  0
  152.0489  137.3744  154.4889 N   0  0  0  0  0  0  0  0  0  0  0  0
  151.0577  137.3257  155.4242 C   0  0  0  0  0  0  0  0  0  0  0  0
  150.8582  138.2511  156.4877 C   0  0  0  0  0  0  0  0  0  0  0  0
  149.7698  137.8584  157.2575 N   0  0  0  0  0  0  0  0  0  0  0  0
  149.3445  136.7707  156.6763 C   0  0  0  0  0  0  0  0  0  0  0  0
  150.0448  136.3901  155.5537 N   0  0  0  0  0  0  0  0  0  0  0  0
  149.7851  135.2239  154.7221 C   0  0  0  0  0  0  0  0  0  0  0  0
  149.9462  133.8414  155.4252 C   0  0  0  0  0  0  0  0  0  0  0  0
  149.7023  132.6741  154.4214 C   0  0  0  0  0  0  0  0  0  0  0  0
  148.4508  132.7336  153.7676 O   0  0  0  0  0  0  0  0  0  0  0  0
  151.3280  133.7260  156.1188 C   0  0  0  0  0  0  0  0  0  0  0  0
  151.4081  132.5304  157.0830 C   0  0  0  0  0  0  0  0  0  0  0  0
  150.3946  132.6441  158.0731 O   0  0  0  0  0  0  0  0  0  0  0  0
  149.0829  132.6067  157.5268 C   0  0  0  0  0  0  0  0  0  0  0  0
  148.8789  133.7802  156.5480 C   0  0  0  0  0  0  0  0  0  0  0  0
  152.7304  140.2982  158.5698 C   0  0  0  0  0  0  0  0  0  0  0  0
  152.3820  141.2526  159.7449 C   0  0  0  0  0  0  0  0  0  0  0  0
  152.0346  142.6071  159.1248 C   0  0  2  0  0  0  0  0  0  0  0  0
  150.0343  141.8807  158.7753 H   0  0  0  0  0  0  0  0  0  0  0  0
  152.8896  142.9516  158.5368 H   0  0  0  0  0  0  0  0  0  0  0  0
  151.7701  144.9301  161.6698 H   0  0  0  0  0  0  0  0  0  0  0  0
  153.3052  144.4343  160.9472 H   0  0  0  0  0  0  0  0  0  0  0  0
  152.3256  143.2678  161.8441 H   0  0  0  0  0  0  0  0  0  0  0  0
  149.7056  144.0981  157.4332 H   0  0  0  0  0  0  0  0  0  0  0  0
  150.3721  141.5014  156.3479 H   0  0  0  0  0  0  0  0  0  0  0  0
  152.0160  142.1055  156.4560 H   0  0  0  0  0  0  0  0  0  0  0  0
  153.6594  138.5314  153.9779 H   0  0  0  0  0  0  0  0  0  0  0  0
  148.4928  136.2180  157.0452 H   0  0  0  0  0  0  0  0  0  0  0  0
  148.7734  135.3278  154.3276 H   0  0  0  0  0  0  0  0  0  0  0  0
  150.4445  135.2779  153.8548 H   0  0  0  0  0  0  0  0  0  0  0  0
  150.4547  132.6598  153.6353 H   0  0  0  0  0  0  0  0  0  0  0  0
  149.7822  131.7137  154.9314 H   0  0  0  0  0  0  0  0  0  0  0  0
  148.4512  132.1070  153.0600 H   0  0  0  0  0  0  0  0  0  0  0  0
  152.1342  133.6626  155.3881 H   0  0  0  0  0  0  0  0  0  0  0  0
  151.5183  134.6331  156.6937 H   0  0  0  0  0  0  0  0  0  0  0  0
  151.3177  131.5818  156.5524 H   0  0  0  0  0  0  0  0  0  0  0  0
  152.3785  132.5203  157.5794 H   0  0  0  0  0  0  0  0  0  0  0  0
  148.9015  131.6430  157.0513 H   0  0  0  0  0  0  0  0  0  0  0  0
  148.3667  132.6825  158.3451 H   0  0  0  0  0  0  0  0  0  0  0  0
  148.9103  134.7021  157.1307 H   0  0  0  0  0  0  0  0  0  0  0  0
  147.8775  133.7325  156.1183 H   0  0  0  0  0  0  0  0  0  0  0  0
  152.8570  139.2850  158.9538 H   0  0  0  0  0  0  0  0  0  0  0  0
  153.6873  140.5946  158.1378 H   0  0  0  0  0  0  0  0  0  0  0  0
  151.5423  140.8628  160.3218 H   0  0  0  0  0  0  0  0  0  0  0  0
  153.2286  141.3389  160.4260 H   0  0  0  0  0  0  0  0  0  0  0  0
  1  2  1  0  0  0  0
  1 32  1  0  0  0  0
  1 33  1  0  0  0  0
  1 34  1  0  0  0  0
  2 29  1  0  0  0  0
  2  3  1  0  0  0  0
  3  4  2  0  0  0  0
  3  5  1  0  0  0  0
  5  6  1  0  0  0  0
  5 35  1  0  0  0  0
  6 30  1  0  0  0  0
  6 29  1  0  0  0  0
  6  7  1  0  0  0  0
  7  8  1  0  0  0  0
  7 36  1  0  0  0  0
  7 37  1  0  0  0  0
  8  9  1  0  0  0  0
  8 27  1  0  0  0  0
  9 14  1  0  0  0  0
  9 10  2  0  0  0  0
 10 11  1  0  0  0  0
 11 12  2  0  0  0  0
 11 38  1  0  0  0  0
 12 13  1  0  0  0  0
 13 17  1  0  0  0  0
 13 14  2  0  0  0  0
 14 15  1  0  0  0  0
 15 16  2  0  0  0  0
 16 17  1  0  0  0  0
 16 39  1  0  0  0  0
 17 18  1  0  0  0  0
 18 19  1  0  0  0  0
 18 40  1  0  0  0  0
 18 41  1  0  0  0  0
 19 26  1  0  0  0  0
 19 20  1  0  0  0  0
 19 22  1  0  0  0  0
 20 21  1  0  0  0  0
 20 42  1  0  0  0  0
 20 43  1  0  0  0  0
 21 44  1  0  0  0  0
 22 23  1  0  0  0  0
 22 45  1  0  0  0  0
 22 46  1  0  0  0  0
 23 24  1  0  0  0  0
 23 47  1  0  0  0  0
 23 48  1  0  0  0  0
 24 25  1  0  0  0  0
 25 26  1  0  0  0  0
 25 49  1  0  0  0  0
 25 50  1  0  0  0  0
 26 51  1  0  0  0  0
 26 52  1  0  0  0  0
 27 28  1  0  0  0  0
 27 53  1  0  0  0  0
 27 54  1  0  0  0  0
 28 29  1  0  0  0  0
 28 55  1  0  0  0  0
 28 56  1  0  0  0  0
 29 31  1  0  0  0  0
M  END
> <s_m_source_file>
AV-unprocessed.smi

> <i_m_source_file_index>
250

> <i_lp_mmshare_version>
43012

> <i_f3d_flags>
0

> <s_epik_input>
Tz1DKFtOSF0xKU4oW0NIM10pW0NASF0oW0NASF0xMilbQ0gyXVtDSDJdTihbQ0gyXTIpYyhuW2NIXW4zKWMoYzM0KW5bY0hdbjRbQ0gyXUM1KFtDSDJdW09IXSlbQ0gyXVtDSDJdT1tDSDJdW0NIMl01

> <s_epik_cmdline>
J2VwaWtfcHl0aG9uJywgJy1waCcsICc3LjAnLCAnLXRuJywgJzgnLCAnLW1hJywgJzIwMCcsICctbWV0YWxfYmluZGluZycsICctaW1hZScsICc8aW5maWxlLm1hZT4nLCAnLW9tYWUnLCAnPG91dGZpbGUubWFlPic=

> <r_lp_tautomer_probability>
1

> <r_epik_Ionization_Penalty>
0.00229024

> <r_epik_Ionization_Penalty_Charging>
0

> <r_epik_Ionization_Penalty_Neutral>
0.00229024

> <r_epik_State_Penalty>
0.0013961

> <r_epik_Charging_Adjusted_Penalty>
0.0013961

> <i_epik_Tot_Q>
0

> <i_epik_Tot_abs_Q>
0

> <r_epik_Metal_State_Penalty>
-0

> <b_epik_Metal_Only>
0

> <s_lp_Force_Field>
OPLS_2005

> <r_lp_Energy>
73.7244

> <b_lp_Chiralities_Consistent>
1

> <s_lp_Variant>
AV-unprocessed.smi:250-2

> <Gold.Version>
5.8.1

> <Gold.Id.Protein>
6NUR|6NUR_protein|mol2

> <Gold.PLP.Fitness>
53.5601

> <Gold.PLP.PLP>
-44.4563

> <Gold.PLP.part.hbond>
-5.7809

> <Gold.PLP.part.metal>
0.0000

> <Gold.PLP.part.buried>
-5.2976

> <Gold.PLP.part.nonpolar>
-34.6719

> <Gold.PLP.part.repulsive>
0.3951

> <Gold.PLP.ligand.clash>
0.0000

> <Gold.PLP.ligand.torsion>
1.4127

> <Gold.PLP.Chemscore.Hbond>
3.8800

> <Gold.PLP.Chemscore.CHOScore>
0.0000

> <Gold.PLP.Chemscore.Metal>
0.0000

> <Gold.Chemscore.Hbonds>
donor molecule, donor type, donor heavy atom, donor atom, acceptor molecule, acceptor atom, score
      L1  H     5    35       P1  8028  1.00
      P1  H  6896  6908       L1    24  0.94
      P1  H  7997  8009       L1    10  1.00
      P1  H 10752 10765       L1    12  0.86

> <Gold.PLP.Chemscore.Internal.Correction>
0.2891

> <Gold.Rescore>
     Score         DG    S(hbond)    S(metal)    S(lipo)     H(rot)  DE(clash)    DE(int)     intcor
     14.56     -18.09       2.37        0.00      88.69       2.22       2.06       1.47       ----

> <Gold.Chemscore.Fitness>
14.5600

> <Gold.Chemscore.DG>
-18.0930

> <Gold.Chemscore.ZeroCoef>
-5.4800

> <Gold.Chemscore.Hbond>
2.3688

> <Gold.Chemscore.Metal>
0.0000

> <Gold.Chemscore.Lipo>
88.6922

> <Gold.Chemscore.Internal_Hbond>
0.0000

> <Gold.Chemscore.DEClash>
2.0591

> <Gold.Chemscore.DEInternal>
1.4740

> <Gold.Chemscore.Rot>
2.2170

> <Gold.Chemscore.Internal.Correction>
   9.000000E+99

> <Gold.Chemscore.Hbonds>
donor molecule, donor type, donor heavy atom, donor atom, acceptor molecule, acceptor atom, score
      L1  H     5    35       P1  8028  0.37
      P1  H  6896  6908       L1    24  0.70
      P1  H  7997  8009       L1    10  0.87
      P1  H 10752 10765       L1    12  0.69

> <Gold.Chemscore.Hbond.Weighted>
-7.9116

> <Gold.Chemscore.Metal.Weighted>
-0.0000

> <Gold.Chemscore.Lipo.Weighted>
-10.3770

> <Gold.Chemscore.Internal_Hbond.Weighted>
0.0000

> <Gold.Chemscore.DEClash.Weighted>
2.0591

> <Gold.Chemscore.DEInternal.Weighted>
1.4740

> <Gold.Chemscore.Rot.Weighted>
5.6756

> <Gold.Chemscore.Internal.Correction.Weighted>
   9.000000E+99

> <Gold.Protein.RotatedTorsions>
[ 6907 6896 6895 6894 ] final  118.80 input  -60.11 | X-H torsion
[ 7974 7965 7964 7962 ] final   24.21 input  175.53 | X-H torsion
[ 8008 7997 7996 7995 ] final -155.64 input   59.86 | X-H torsion
[ 10167 10162 10161 10158 ] final  169.64 input  -65.29 | X-H torsion
[ 10718 10713 10712 10709 ] final -147.37 input   66.30 | X-H torsion
[ 10763 10752 10751 10750 ] final  155.55 input  -60.55 | X-H torsion
[ 11005 11000 10999 10996 ] final   78.39 input  -57.11 | X-H torsion

> <Gold.Protein.ActiveResidues>
 VAL166  LYS551  ARG553  GLY616  TRP617  ASP618  TYR619  PRO620  LYS621  CYS622 
 ASP623  PHE694  ASN695  SER759  ASP760  ASP761  ALA762  ILE779  LEU786  VAL792 
 PHE793  MET794  SER795  GLU796  ALA797  LYS798  CYS799  TRP800  GLU811  SER814 

> <Gold.Protein.RotatedAtoms>
  152.4517  133.7643  159.6763 H   0  0  0  0  0  0  0  0  0  0  0  0  # atno 6907 bound_to 6896
  150.8431  133.7894  159.3059 H   0  0  0  0  0  0  0  0  0  0  0  0  # atno 6908 bound_to 6896
  151.5512  135.1070  160.0002 H   0  0  0  0  0  0  0  0  0  0  0  0  # atno 6909 bound_to 6896
  146.1948  139.7636  142.8805 H   0  0  0  0  0  0  0  0  0  0  0  0  # atno 7974 bound_to 7965
  155.7049  140.0771  157.2395 H   0  0  0  0  0  0  0  0  0  0  0  0  # atno 8008 bound_to 7997
  154.4067  140.1640  156.2285 H   0  0  0  0  0  0  0  0  0  0  0  0  # atno 8009 bound_to 7997
  155.9335  140.3389  155.6271 H   0  0  0  0  0  0  0  0  0  0  0  0  # atno 8010 bound_to 7997
  139.4997  144.3683  151.9751 H   0  0  0  0  0  0  0  0  0  0  0  0  # atno 10167 bound_to 10162
  156.4067  130.7961  151.2176 H   0  0  0  0  0  0  0  0  0  0  0  0  # atno 10718 bound_to 10713
  154.1701  135.2805  155.3083 H   0  0  0  0  0  0  0  0  0  0  0  0  # atno 10763 bound_to 10752
  154.6082  135.5507  153.7448 H   0  0  0  0  0  0  0  0  0  0  0  0  # atno 10764 bound_to 10752
  153.0167  135.6408  154.1841 H   0  0  0  0  0  0  0  0  0  0  0  0  # atno 10765 bound_to 10752
  139.9214  134.7760  156.1644 H   0  0  0  0  0  0  0  0  0  0  0  0  # atno 11005 bound_to 11000
  145.3678  141.0337  143.3248 LP  0  0  0  0  0  0  0  0  0  0  0  0  # atno 17320 bound_to 7965
  144.8558  139.5252  143.6835 LP  0  0  0  0  0  0  0  0  0  0  0  0  # atno 17321 bound_to 7965
  140.3119  144.3528  150.6031 LP  0  0  0  0  0  0  0  0  0  0  0  0  # atno 17342 bound_to 10162
  140.5792  143.2174  151.7460 LP  0  0  0  0  0  0  0  0  0  0  0  0  # atno 17343 bound_to 10162
  157.7506  131.0270  150.3986 LP  0  0  0  0  0  0  0  0  0  0  0  0  # atno 17370 bound_to 10713
  156.4277  130.3965  149.6782 LP  0  0  0  0  0  0  0  0  0  0  0  0  # atno 17371 bound_to 10713
  141.0738  133.6784  156.2195 LP  0  0  0  0  0  0  0  0  0  0  0  0  # atno 17394 bound_to 11000
  140.6462  134.5115  157.5574 LP  0  0  0  0  0  0  0  0  0  0  0  0  # atno 17395 bound_to 11000

$$$$
