AV-unprocessed.smi:55|AV-procd|sdf|564|dock1
  -GOLD-   2262016463D 1   1.00000     0.00000
 Structure written by MMmdl.
 31 32  0  0  0  0  0  0  0  0  1 V2000
  150.8541  143.0864  158.5972 C   0  0  0  0  0  0  0  0  0  0  0  0
  151.0746  141.9218  157.6458 C   0  0  0  0  0  0  0  0  0  0  0  0
  150.3864  141.7918  156.4823 C   0  0  0  0  0  0  0  0  0  0  0  0
  150.5634  140.7357  155.5950 N   0  0  0  0  0  0  0  0  0  0  0  0
  149.7914  140.6143  154.2938 C   0  0  1  0  0  0  0  0  0  0  0  0
  148.9000  139.3569  154.2980 C   0  0  0  0  0  0  0  0  0  0  0  0
  147.5141  139.9070  154.0063 C   0  0  2  0  0  0  0  0  0  0  0  0
  147.2317  139.8404  152.6204 O   0  0  0  0  0  0  0  0  0  0  0  0
  147.6137  141.3529  154.5033 C   0  0  2  0  0  0  0  0  0  0  0  0
  146.5864  142.3334  153.9127 C   0  0  0  0  0  0  0  0  0  0  0  0
  145.2963  142.0296  154.3983 O   0  0  0  0  0  0  0  0  0  0  0  0
  148.9411  141.7117  154.1351 O   0  0  0  0  0  0  0  0  0  0  0  0
  151.5264  139.7475  155.8882 C   0  0  0  0  0  0  0  0  0  0  0  0
  151.7543  138.7982  155.1392 O   0  0  0  0  0  0  0  0  0  0  0  0
  152.2300  139.8788  157.0833 N   0  0  0  0  0  0  0  0  0  0  0  0
  152.0714  140.9114  158.0099 C   0  0  0  0  0  0  0  0  0  0  0  0
  152.7510  140.9173  159.0350 O   0  0  0  0  0  0  0  0  0  0  0  0
  150.5454  140.6242  153.5045 H   0  0  0  0  0  0  0  0  0  0  0  0
  146.7409  139.3523  154.5388 H   0  0  0  0  0  0  0  0  0  0  0  0
  147.5345  141.3398  155.5921 H   0  0  0  0  0  0  0  0  0  0  0  0
  152.9151  139.1686  157.2968 H   0  0  0  0  0  0  0  0  0  0  0  0
  150.1209  143.7939  158.2087 H   0  0  0  0  0  0  0  0  0  0  0  0
  151.7861  143.6285  158.7603 H   0  0  0  0  0  0  0  0  0  0  0  0
  150.4937  142.7261  159.5612 H   0  0  0  0  0  0  0  0  0  0  0  0
  149.6683  142.5634  156.2508 H   0  0  0  0  0  0  0  0  0  0  0  0
  149.2469  138.6272  153.5653 H   0  0  0  0  0  0  0  0  0  0  0  0
  148.9160  138.8906  155.2844 H   0  0  0  0  0  0  0  0  0  0  0  0
  147.9516  140.2276  152.1463 H   0  0  0  0  0  0  0  0  0  0  0  0
  146.8436  143.3677  154.1429 H   0  0  0  0  0  0  0  0  0  0  0  0
  146.5568  142.2373  152.8269 H   0  0  0  0  0  0  0  0  0  0  0  0
  144.8970  141.3994  153.8181 H   0  0  0  0  0  0  0  0  0  0  0  0
  1  2  1  0  0  0  0
  1 22  1  0  0  0  0
  1 23  1  0  0  0  0
  1 24  1  0  0  0  0
  2 16  1  0  0  0  0
  2  3  2  0  0  0  0
  3  4  1  0  0  0  0
  3 25  1  0  0  0  0
  4  5  1  0  0  0  0
  4 13  1  0  0  0  0
  5 18  1  0  0  0  0
  5 12  1  0  0  0  0
  5  6  1  0  0  0  0
  6  7  1  0  0  0  0
  6 26  1  0  0  0  0
  6 27  1  0  0  0  0
  7 19  1  0  0  0  0
  7  8  1  0  0  0  0
  7  9  1  0  0  0  0
  8 28  1  0  0  0  0
  9 20  1  0  0  0  0
  9 10  1  0  0  0  0
  9 12  1  0  0  0  0
 10 11  1  0  0  0  0
 10 29  1  0  0  0  0
 10 30  1  0  0  0  0
 11 31  1  0  0  0  0
 13 14  2  0  0  0  0
 13 15  1  0  0  0  0
 15 21  1  0  0  0  0
 15 16  1  0  0  0  0
 16 17  2  0  0  0  0
M  END
> <s_m_source_file>
AV-unprocessed.smi

> <i_m_source_file_index>
55

> <i_lp_mmshare_version>
43012

> <i_f3d_flags>
0

> <s_epik_input>
Tz1jMVtuSF1jKD1PKW4oW2NIXWMxW0NIM10pW0NAQEhdMltDSDJdW0NAQEhdKFtPSF0pW0NAQEhdKE8yKVtDSDJdW09IXQ==

> <s_epik_cmdline>
J2VwaWtfcHl0aG9uJywgJy1waCcsICc3LjAnLCAnLXRuJywgJzgnLCAnLW1hJywgJzIwMCcsICctbWV0YWxfYmluZGluZycsICctaW1hZScsICc8aW5maWxlLm1hZT4nLCAnLW9tYWUnLCAnPG91dGZpbGUubWFlPic=

> <r_lp_tautomer_probability>
0.999537

> <r_epik_Ionization_Penalty>
0.00121888

> <r_epik_Ionization_Penalty_Charging>
0.00121876

> <r_epik_Ionization_Penalty_Neutral>
1.19946e-07

> <r_epik_State_Penalty>
0.000805124

> <r_epik_Charging_Adjusted_Penalty>
0.00202389

> <i_epik_Tot_Q>
0

> <i_epik_Tot_abs_Q>
0

> <r_epik_Metal_State_Penalty>
0.662472

> <b_epik_Metal_Only>
0

> <s_epik_Chemistry_Notes>
This compound contains an acetal/aminal-like group ( X-CH(R)-Y where X, Y are N, S, or O) that may be acid/base labile, releasing an aldehyde.

> <s_lp_Force_Field>
OPLS_2005

> <r_lp_Energy>
28.0991

> <b_lp_Chiralities_Consistent>
1

> <s_lp_Variant>
AV-unprocessed.smi:55-4

> <Gold.Version>
5.8.1

> <Gold.Id.Protein>
6NUR|6NUR_protein|mol2

> <Gold.PLP.Fitness>
39.6955

> <Gold.PLP.PLP>
-29.3100

> <Gold.PLP.part.hbond>
-3.1005

> <Gold.PLP.part.metal>
0.0000

> <Gold.PLP.part.buried>
-3.1283

> <Gold.PLP.part.nonpolar>
-23.9497

> <Gold.PLP.part.repulsive>
0.3329

> <Gold.PLP.ligand.clash>
0.0000

> <Gold.PLP.ligand.torsion>
0.0570

> <Gold.PLP.Chemscore.Hbond>
2.4961

> <Gold.PLP.Chemscore.CHOScore>
1.0000

> <Gold.PLP.Chemscore.Metal>
0.0000

> <Gold.Chemscore.Hbonds>
donor molecule, donor type, donor heavy atom, donor atom, acceptor molecule, acceptor atom, score
      L1  H     8    28       P1  7957  1.00
      L1  H    11    31       P1 10175  1.00
      P1  H  8011  8017       L1    12  0.37
      L1  C     3    25       P1  8028  1.00

> <Gold.PLP.Chemscore.Internal.Correction>
0.0112

> <Gold.Rescore>
     Score         DG    S(hbond)    S(metal)    S(lipo)     H(rot)  DE(clash)    DE(int)     intcor
      9.93     -11.17       2.16        0.00      46.51       2.73       0.56       0.68       ----

> <Gold.Chemscore.Fitness>
9.9307

> <Gold.Chemscore.DG>
-11.1687

> <Gold.Chemscore.ZeroCoef>
-5.4800

> <Gold.Chemscore.Hbond>
2.1627

> <Gold.Chemscore.Metal>
0.0000

> <Gold.Chemscore.Lipo>
46.5126

> <Gold.Chemscore.Internal_Hbond>
0.0000

> <Gold.Chemscore.DEClash>
0.5566

> <Gold.Chemscore.DEInternal>
0.6814

> <Gold.Chemscore.Rot>
2.7253

> <Gold.Chemscore.Internal.Correction>
   9.000000E+99

> <Gold.Chemscore.Hbonds>
donor molecule, donor type, donor heavy atom, donor atom, acceptor molecule, acceptor atom, score
      L1  H     8    28       P1  7957  0.94
      L1  H    11    31       P1 10175  0.29
      P1  H  8011  8017       L1    12  0.06

> <Gold.Chemscore.Hbond.Weighted>
-7.2235

> <Gold.Chemscore.Metal.Weighted>
-0.0000

> <Gold.Chemscore.Lipo.Weighted>
-5.4420

> <Gold.Chemscore.Internal_Hbond.Weighted>
0.0000

> <Gold.Chemscore.DEClash.Weighted>
0.5566

> <Gold.Chemscore.DEInternal.Weighted>
0.6814

> <Gold.Chemscore.Rot.Weighted>
6.9769

> <Gold.Chemscore.Internal.Correction.Weighted>
   9.000000E+99

> <Gold.Protein.RotatedTorsions>
[ 6907 6896 6895 6894 ] final    2.93 input  -60.11 | X-H torsion
[ 7974 7965 7964 7962 ] final  167.10 input  175.53 | X-H torsion
[ 8008 7997 7996 7995 ] final  168.02 input   59.86 | X-H torsion
[ 10167 10162 10161 10158 ] final  125.42 input  -65.29 | X-H torsion
[ 10718 10713 10712 10709 ] final -108.59 input   66.30 | X-H torsion
[ 10763 10752 10751 10750 ] final -151.64 input  -60.55 | X-H torsion
[ 11005 11000 10999 10996 ] final  -34.48 input  -57.11 | X-H torsion

> <Gold.Protein.ActiveResidues>
 VAL166  LYS551  ARG553  GLY616  TRP617  ASP618  TYR619  PRO620  LYS621  CYS622 
 ASP623  PHE694  ASN695  SER759  ASP760  ASP761  ALA762  ILE779  LEU786  VAL792 
 PHE793  MET794  SER795  GLU796  ALA797  LYS798  CYS799  TRP800  GLU811  SER814 

> <Gold.Protein.RotatedAtoms>
  151.6169  135.1035  160.0092 H   0  0  0  0  0  0  0  0  0  0  0  0  # atno 6907 bound_to 6896
  152.4179  133.7063  159.6464 H   0  0  0  0  0  0  0  0  0  0  0  0  # atno 6908 bound_to 6896
  150.8066  133.8424  159.3224 H   0  0  0  0  0  0  0  0  0  0  0  0  # atno 6909 bound_to 6896
  144.7437  139.8712  143.6389 H   0  0  0  0  0  0  0  0  0  0  0  0  # atno 7974 bound_to 7965
  156.1583  140.1601  156.8655 H   0  0  0  0  0  0  0  0  0  0  0  0  # atno 8008 bound_to 7997
  154.5136  140.0795  156.8074 H   0  0  0  0  0  0  0  0  0  0  0  0  # atno 8009 bound_to 7997
  155.3759  140.3402  155.4247 H   0  0  0  0  0  0  0  0  0  0  0  0  # atno 8010 bound_to 7997
  139.5686  144.6926  151.3840 H   0  0  0  0  0  0  0  0  0  0  0  0  # atno 10167 bound_to 10162
  156.0493  130.5721  150.7983 H   0  0  0  0  0  0  0  0  0  0  0  0  # atno 10718 bound_to 10713
  154.8045  135.3255  154.7466 H   0  0  0  0  0  0  0  0  0  0  0  0  # atno 10763 bound_to 10752
  153.8128  135.6894  153.4843 H   0  0  0  0  0  0  0  0  0  0  0  0  # atno 10764 bound_to 10752
  153.1782  135.4597  154.9937 H   0  0  0  0  0  0  0  0  0  0  0  0  # atno 10765 bound_to 10752
  140.9719  133.7104  156.1538 H   0  0  0  0  0  0  0  0  0  0  0  0  # atno 11005 bound_to 11000
  146.1279  139.4308  143.0187 LP  0  0  0  0  0  0  0  0  0  0  0  0  # atno 17320 bound_to 7965
  145.7207  141.0076  143.1404 LP  0  0  0  0  0  0  0  0  0  0  0  0  # atno 17321 bound_to 7965
  140.6971  143.7723  150.7343 LP  0  0  0  0  0  0  0  0  0  0  0  0  # atno 17342 bound_to 10162
  140.1223  143.4601  152.2305 LP  0  0  0  0  0  0  0  0  0  0  0  0  # atno 17343 bound_to 10162
  157.5403  131.0940  150.9836 LP  0  0  0  0  0  0  0  0  0  0  0  0  # atno 17370 bound_to 10713
  157.0120  130.5640  149.5322 LP  0  0  0  0  0  0  0  0  0  0  0  0  # atno 17371 bound_to 10713
  140.7316  134.4248  157.5565 LP  0  0  0  0  0  0  0  0  0  0  0  0  # atno 17394 bound_to 11000
  139.8915  134.8777  156.2314 LP  0  0  0  0  0  0  0  0  0  0  0  0  # atno 17395 bound_to 11000

$$$$
