AV-unprocessed.smi:2245|AV-procd|sdf|9080|dock5
  -GOLD-   2272012283D 1   1.00000     0.00000
 Structure written by MMmdl.
 45 46  0  0  0  0  0  0  0  0  2 V2000
  152.0174  145.9007  160.1097 C   0  0  0  0  0  0  0  0  0  0  0  0
  151.9779  144.5269  159.4743 C   0  0  0  0  0  0  0  0  0  0  0  0
  152.7439  143.4689  159.9994 C   0  0  0  0  0  0  0  0  0  0  0  0
  152.6693  142.2144  159.3630 C   0  0  0  0  0  0  0  0  0  0  0  0
  153.4633  141.0318  159.8764 C   0  0  0  0  0  0  0  0  0  0  0  0
  151.9006  141.9835  158.2771 N   0  0  0  0  0  0  0  0  0  0  0  0
  151.1596  142.9958  157.7619 C   0  0  0  0  0  0  0  0  0  0  0  0
  150.3227  142.8580  156.6228 N   0  0  0  0  0  0  0  0  0  0  0  0
  149.9597  141.7282  155.9906 C   0  0  0  0  0  0  0  0  0  0  0  0
  150.2950  140.5886  156.3154 O   0  0  0  0  0  0  0  0  0  0  0  0
  149.1774  141.9921  154.9340 N   0  0  0  0  0  0  0  0  0  0  0  0
  148.6307  140.9881  154.0271 C   0  0  0  0  0  0  0  0  0  0  0  0
  147.5332  140.1379  154.6960 C   0  0  2  0  0  0  0  0  0  0  0  0
  146.9871  139.0009  153.8363 C   0  0  0  0  0  0  0  0  0  0  0  0
  145.6584  138.6856  154.5161 C   0  0  0  0  0  0  0  0  0  0  0  0
  145.1300  139.9889  154.9788 N   0  3  1  0  0  0  0  0  0  0  0  0
  144.2863  139.9314  156.1983 C   0  0  0  0  0  0  0  0  0  0  0  0
  142.8050  139.6465  155.8911 C   0  0  0  0  0  0  0  0  0  0  0  0
  142.1897  139.2910  157.0177 F   0  0  0  0  0  0  0  0  0  0  0  0
  142.2176  140.7428  155.4112 F   0  0  0  0  0  0  0  0  0  0  0  0
  142.6741  138.6552  155.0102 F   0  0  0  0  0  0  0  0  0  0  0  0
  146.2739  140.9288  155.0743 C   0  0  0  0  0  0  0  0  0  0  0  0
  151.1765  144.2849  158.3403 C   0  0  0  0  0  0  0  0  0  0  0  0
  152.3335  145.8409  161.1515 H   0  0  0  0  0  0  0  0  0  0  0  0
  151.0319  146.3665  160.0815 H   0  0  0  0  0  0  0  0  0  0  0  0
  152.7172  146.5425  159.5742 H   0  0  0  0  0  0  0  0  0  0  0  0
  153.3712  143.6152  160.8665 H   0  0  0  0  0  0  0  0  0  0  0  0
  154.1402  141.3275  160.6785 H   0  0  0  0  0  0  0  0  0  0  0  0
  154.0587  140.5953  159.0737 H   0  0  0  0  0  0  0  0  0  0  0  0
  152.7911  140.2651  160.2622 H   0  0  0  0  0  0  0  0  0  0  0  0
  149.9678  143.7216  156.2397 H   0  0  0  0  0  0  0  0  0  0  0  0
  148.9457  142.9559  154.7416 H   0  0  0  0  0  0  0  0  0  0  0  0
  148.2399  141.4740  153.1315 H   0  0  0  0  0  0  0  0  0  0  0  0
  149.4512  140.3501  153.6979 H   0  0  0  0  0  0  0  0  0  0  0  0
  147.9314  139.6988  155.6125 H   0  0  0  0  0  0  0  0  0  0  0  0
  146.8135  139.3438  152.8150 H   0  0  0  0  0  0  0  0  0  0  0  0
  147.6544  138.1392  153.7967 H   0  0  0  0  0  0  0  0  0  0  0  0
  144.9600  138.1831  153.8465 H   0  0  0  0  0  0  0  0  0  0  0  0
  145.8384  138.0308  155.3705 H   0  0  0  0  0  0  0  0  0  0  0  0
  144.6852  139.1953  156.8979 H   0  0  0  0  0  0  0  0  0  0  0  0
  144.3483  140.8995  156.6977 H   0  0  0  0  0  0  0  0  0  0  0  0
  146.3759  141.3732  156.0657 H   0  0  0  0  0  0  0  0  0  0  0  0
  146.0971  141.7421  154.3693 H   0  0  0  0  0  0  0  0  0  0  0  0
  150.5823  145.0829  157.9190 H   0  0  0  0  0  0  0  0  0  0  0  0
  144.5457  140.3446  154.2354 H   0  0  0  0  0  0  0  0  0  0  0  0
  1  2  1  0  0  0  0
  1 24  1  0  0  0  0
  1 25  1  0  0  0  0
  1 26  1  0  0  0  0
  2 23  1  0  0  0  0
  2  3  2  0  0  0  0
  3  4  1  0  0  0  0
  3 27  1  0  0  0  0
  4  5  1  0  0  0  0
  4  6  2  0  0  0  0
  5 28  1  0  0  0  0
  5 29  1  0  0  0  0
  5 30  1  0  0  0  0
  6  7  1  0  0  0  0
  7  8  1  0  0  0  0
  7 23  2  0  0  0  0
  8  9  1  0  0  0  0
  8 31  1  0  0  0  0
  9 10  2  0  0  0  0
  9 11  1  0  0  0  0
 11 12  1  0  0  0  0
 11 32  1  0  0  0  0
 12 13  1  0  0  0  0
 12 33  1  0  0  0  0
 12 34  1  0  0  0  0
 13 22  1  0  0  0  0
 13 14  1  0  0  0  0
 13 35  1  0  0  0  0
 14 15  1  0  0  0  0
 14 36  1  0  0  0  0
 14 37  1  0  0  0  0
 15 16  1  0  0  0  0
 15 38  1  0  0  0  0
 15 39  1  0  0  0  0
 16 17  1  0  0  0  0
 16 22  1  0  0  0  0
 16 45  1  0  0  0  0
 17 18  1  0  0  0  0
 17 40  1  0  0  0  0
 17 41  1  0  0  0  0
 18 19  1  0  0  0  0
 18 20  1  0  0  0  0
 18 21  1  0  0  0  0
 22 42  1  0  0  0  0
 22 43  1  0  0  0  0
 23 44  1  0  0  0  0
M  CHG  1  16   1
M  END
> <s_m_source_file>
AV-unprocessed.smi

> <i_m_source_file_index>
2245

> <i_lp_mmshare_version>
43012

> <i_f3d_flags>
0

> <s_epik_input>
W0NIM11jMVtjSF1jKFtDSDNdKW5jKFtjSF0xKVtOSF1DKD1PKVtOSF1bQ0gyXVtDQEBIXTJbQ0gyXVtDSDJdTihbQ0gyXTIpW0NIMl1DKEYpKEYpRg==

> <s_epik_cmdline>
J2VwaWtfcHl0aG9uJywgJy1waCcsICc3LjAnLCAnLXRuJywgJzgnLCAnLW1hJywgJzIwMCcsICctbWV0YWxfYmluZGluZycsICctaW1hZScsICc8aW5maWxlLm1hZT4nLCAnLW9tYWUnLCAnPG91dGZpbGUubWFlPic=

> <r_epik_Ionization_Penalty>
0.628315

> <r_epik_Ionization_Penalty_Charging>
0.628113

> <r_epik_Ionization_Penalty_Neutral>
0.000202271

> <r_epik_State_Penalty>
0.644725

> <r_epik_Charging_Adjusted_Penalty>
1.27284

> <i_epik_Tot_Q>
1

> <i_epik_Tot_abs_Q>
1

> <r_epik_Metal_State_Penalty>
0.644752

> <b_epik_Metal_Only>
0

> <s_lp_Force_Field>
OPLS_2005

> <r_lp_Energy>
28.8046

> <b_lp_Chiralities_Consistent>
1

> <s_lp_Variant>
AV-unprocessed.smi:2245-5

> <Gold.Version>
5.8.1

> <Gold.Id.Protein>
6NUR|6NUR_protein|mol2

> <Gold.PLP.Fitness>
49.2324

> <Gold.PLP.PLP>
-38.5744

> <Gold.PLP.part.hbond>
-3.0000

> <Gold.PLP.part.metal>
0.0000

> <Gold.PLP.part.buried>
-4.0237

> <Gold.PLP.part.nonpolar>
-31.6348

> <Gold.PLP.part.repulsive>
0.3074

> <Gold.PLP.ligand.clash>
0.0000

> <Gold.PLP.ligand.torsion>
0.6196

> <Gold.PLP.Chemscore.Hbond>
3.8320

> <Gold.PLP.Chemscore.CHOScore>
0.0000

> <Gold.PLP.Chemscore.Metal>
0.0000

> <Gold.Chemscore.Hbonds>
donor molecule, donor type, donor heavy atom, donor atom, acceptor molecule, acceptor atom, score
      L1  H     8    31       P1  8028  1.00
      L1  H    11    32       P1  8028  0.83
      L1  H    16    45       P1 10175  2.00

> <Gold.PLP.Chemscore.Internal.Correction>
0.4012

> <Gold.Rescore>
     Score         DG    S(hbond)    S(metal)    S(lipo)     H(rot)  DE(clash)    DE(int)     intcor
     18.87     -21.54       2.86        0.00      90.97       1.61       0.06       2.62       ----

> <Gold.Chemscore.Fitness>
18.8676

> <Gold.Chemscore.DG>
-21.5449

> <Gold.Chemscore.ZeroCoef>
-5.4800

> <Gold.Chemscore.Hbond>
2.8604

> <Gold.Chemscore.Metal>
0.0000

> <Gold.Chemscore.Lipo>
90.9699

> <Gold.Chemscore.Internal_Hbond>
0.0000

> <Gold.Chemscore.DEClash>
0.0552

> <Gold.Chemscore.DEInternal>
2.6221

> <Gold.Chemscore.Rot>
1.6143

> <Gold.Chemscore.Internal.Correction>
   9.000000E+99

> <Gold.Chemscore.Hbonds>
donor molecule, donor type, donor heavy atom, donor atom, acceptor molecule, acceptor atom, score
      L1  H     8    31       P1  8028  0.97
      L1  H    11    32       P1  8028  0.80
      L1  H    16    45       P1 10175  0.99

> <Gold.Chemscore.Hbond.Weighted>
-9.5539

> <Gold.Chemscore.Metal.Weighted>
-0.0000

> <Gold.Chemscore.Lipo.Weighted>
-10.6435

> <Gold.Chemscore.Internal_Hbond.Weighted>
0.0000

> <Gold.Chemscore.DEClash.Weighted>
0.0552

> <Gold.Chemscore.DEInternal.Weighted>
2.6221

> <Gold.Chemscore.Rot.Weighted>
4.1325

> <Gold.Chemscore.Internal.Correction.Weighted>
   9.000000E+99

> <Gold.Protein.RotatedTorsions>
[ 6907 6896 6895 6894 ] final   38.14 input  -60.11 | X-H torsion
[ 7974 7965 7964 7962 ] final -143.07 input  175.53 | X-H torsion
[ 8008 7997 7996 7995 ] final -138.36 input   59.86 | X-H torsion
[ 10167 10162 10161 10158 ] final  160.75 input  -65.29 | X-H torsion
[ 10718 10713 10712 10709 ] final  -38.26 input   66.30 | X-H torsion
[ 10763 10752 10751 10750 ] final -175.14 input  -60.55 | X-H torsion
[ 11005 11000 10999 10996 ] final   12.27 input  -57.11 | X-H torsion

> <Gold.Protein.ActiveResidues>
 VAL166  LYS551  ARG553  GLY616  TRP617  ASP618  TYR619  PRO620  LYS621  CYS622 
 ASP623  PHE694  ASN695  SER759  ASP760  ASP761  ALA762  ILE779  LEU786  VAL792 
 PHE793  MET794  SER795  GLU796  ALA797  LYS798  CYS799  TRP800  GLU811  SER814 

> <Gold.Protein.RotatedAtoms>
  152.1525  134.8976  160.0546 H   0  0  0  0  0  0  0  0  0  0  0  0  # atno 6907 bound_to 6896
  152.0003  133.3818  159.4187 H   0  0  0  0  0  0  0  0  0  0  0  0  # atno 6908 bound_to 6896
  150.6877  134.3764  159.5058 H   0  0  0  0  0  0  0  0  0  0  0  0  # atno 6909 bound_to 6896
  144.8396  140.5880  143.5461 H   0  0  0  0  0  0  0  0  0  0  0  0  # atno 7974 bound_to 7965
  155.4270  140.0522  157.3021 H   0  0  0  0  0  0  0  0  0  0  0  0  # atno 8008 bound_to 7997
  154.4877  140.2107  155.9577 H   0  0  0  0  0  0  0  0  0  0  0  0  # atno 8009 bound_to 7997
  156.1298  140.3174  155.8337 H   0  0  0  0  0  0  0  0  0  0  0  0  # atno 8010 bound_to 7997
  139.4843  144.4604  151.8713 H   0  0  0  0  0  0  0  0  0  0  0  0  # atno 10167 bound_to 10162
  156.3058  130.4246  149.8098 H   0  0  0  0  0  0  0  0  0  0  0  0  # atno 10718 bound_to 10713
  154.5879  135.2842  155.0666 H   0  0  0  0  0  0  0  0  0  0  0  0  # atno 10763 bound_to 10752
  154.1977  135.6430  153.5082 H   0  0  0  0  0  0  0  0  0  0  0  0  # atno 10764 bound_to 10752
  153.0111  135.5461  154.6555 H   0  0  0  0  0  0  0  0  0  0  0  0  # atno 10765 bound_to 10752
  140.4939  134.0813  155.7777 H   0  0  0  0  0  0  0  0  0  0  0  0  # atno 11005 bound_to 11000
  145.4721  139.1502  143.3808 LP  0  0  0  0  0  0  0  0  0  0  0  0  # atno 17320 bound_to 7965
  146.2691  140.4855  142.8822 LP  0  0  0  0  0  0  0  0  0  0  0  0  # atno 17321 bound_to 7965
  140.4066  144.2424  150.5890 LP  0  0  0  0  0  0  0  0  0  0  0  0  # atno 17342 bound_to 10162
  140.5007  143.2319  151.8683 LP  0  0  0  0  0  0  0  0  0  0  0  0  # atno 17343 bound_to 10162
  156.5460  130.8321  151.3284 LP  0  0  0  0  0  0  0  0  0  0  0  0  # atno 17370 bound_to 10713
  157.7379  130.9804  150.2221 LP  0  0  0  0  0  0  0  0  0  0  0  0  # atno 17371 bound_to 10713
  141.1470  133.9037  157.2191 LP  0  0  0  0  0  0  0  0  0  0  0  0  # atno 17394 bound_to 11000
  139.9753  135.0116  156.9615 LP  0  0  0  0  0  0  0  0  0  0  0  0  # atno 17395 bound_to 11000

$$$$
