#       Name:                AV-unprocessed.smi:2913
#       Creating user name   scv26
#       Creation time:       Fri Mar 27 16:07:40 2020


#       File generated by GOLD software.
#

@<TRIPOS>MOLECULE
AV-unprocessed.smi:2913
    47    48     1
SMALL
NO_CHARGES


@<TRIPOS>ATOM
      1 ****        -1.9463  -3.2192   0.3855 C.3            1 S1                 0.0000
      2 ****        -2.7551  -1.9325   0.3861 C.2            1 S1                 0.0000
      3 ****        -4.1032  -1.9873   0.3051 C.2            1 S1                 0.0000
      4 ****        -4.9458  -0.7906   0.3002 C.2            1 S1                 0.0000
      5 ****        -6.1738  -0.8514   0.2301 O.2            1 S1                 0.0000
      6 ****        -4.2814   0.3949   0.3768 N.am           1 S1                 0.0000
      7 ****        -5.0348   1.6520   0.3723 C.3            1 S1                 0.0000
      8 ****        -2.8803   0.4664   0.4608 C.2            1 S1                 0.0000
      9 ****        -2.0965  -0.6350   0.4747 C.2            1 S1                 0.0000
     10 ****        -0.6929  -0.6141   0.5519 N.am           1 S1                 0.0000
     11 ****         0.1432   0.4145   0.7872 C.2            1 S1                 0.0000
     12 ****        -0.1871   1.5790   1.0088 O.2            1 S1                 0.0000
     13 ****         1.4192   0.0026   0.7592 N.am           1 S1                 0.0000
     14 ****         2.6007   0.8331   0.9921 C.3            1 S1                 0.0000
     15 ****         3.4375   0.2200   2.1244 C.3            1 S1                 0.0000
     16 ****         3.4222   1.0043  -0.3027 C.3            1 S1                 0.0000
     17 ****         2.7149   1.7399  -1.4436 C.3            1 S1                 0.0000
     18 ****         3.4991   1.2541  -2.6409 C.3            1 S1                 0.0000
     19 ****         3.7521  -0.2066  -2.2767 C.3            1 S1                 0.0000
     20 ****         3.7978  -0.2573  -0.8525 O.3            1 S1                 0.0000
     21 ****        -2.5867  -4.0999   0.3255 H              1 S1                 0.0000
     22 ****        -1.3557  -3.2961   1.2988 H              1 S1                 0.0000
     23 ****        -1.2673  -3.2394  -0.4674 H              1 S1                 0.0000
     24 ****        -4.5910  -2.9490   0.2413 H              1 S1                 0.0000
     25 ****        -4.3938   2.5319   0.4313 H              1 S1                 0.0000
     26 ****        -5.7180   1.6916   1.2220 H              1 S1                 0.0000
     27 ****        -5.6244   1.7415  -0.5413 H              1 S1                 0.0000
     28 ****        -2.5083   1.4768   0.5040 H              1 S1                 0.0000
     29 ****        -0.2561  -1.5149   0.4225 H              1 S1                 0.0000
     30 ****         1.5937  -0.9723   0.5636 H              1 S1                 0.0000
     31 ****         2.2989   1.8279   1.3241 H              1 S1                 0.0000
     32 ****         4.3154   0.8301   2.3380 H              1 S1                 0.0000
     33 ****         3.7838  -0.7818   1.8678 H              1 S1                 0.0000
     34 ****         2.8578   0.1460   3.0450 H              1 S1                 0.0000
     35 ****         4.3440   1.5426  -0.0755 H              1 S1                 0.0000
     36 ****         1.6742   1.4290  -1.5382 H              1 S1                 0.0000
     37 ****         2.7377   2.8238  -1.3282 H              1 S1                 0.0000
     38 ****         2.9643   1.3734  -3.5834 H              1 S1                 0.0000
     39 ****         4.4449   1.7931  -2.7123 H              1 S1                 0.0000
     40 ****         2.9263  -0.8322  -2.6175 H              1 S1                 0.0000
     41 ****         4.6720  -0.5902  -2.7182 H              1 S1                 0.0000
     42 ****        -6.6280  -1.7405   0.1739 LP             1 S1                 0.0000
     43 ****        -6.7168  -0.0116   0.2293 LP             1 S1                 0.0000
     44 ****        -1.1551   1.8298   1.0250 LP             1 S1                 0.0000
     45 ****         0.5124   2.2746   1.1726 LP             1 S1                 0.0000
     46 ****         3.1664  -0.9609  -0.5265 LP             1 S1                 0.0000
     47 ****         4.7272  -0.4818  -0.5596 LP             1 S1                 0.0000
@<TRIPOS>BOND
    1    1    2 1     
    2    1   21 1     
    3    1   22 1     
    4    1   23 1     
    5    2    9 1     
    6    2    3 2     
    7    3    4 1     
    8    3   24 1     
    9    4    5 2     
   10    4    6 am    
   11    6    7 1     
   12    6    8 1     
   13    7   25 1     
   14    7   26 1     
   15    7   27 1     
   16    8    9 2     
   17    8   28 1     
   18    9   10 1     
   19   10   11 am    
   20   10   29 1     
   21   11   12 2     
   22   11   13 am    
   23   13   14 1     
   24   13   30 1     
   25   14   15 1     
   26   14   16 1     
   27   14   31 1     
   28   15   32 1     
   29   15   33 1     
   30   15   34 1     
   31   16   20 1     
   32   16   17 1     
   33   16   35 1     
   34   17   18 1     
   35   17   36 1     
   36   17   37 1     
   37   18   19 1     
   38   18   38 1     
   39   18   39 1     
   40   19   20 1     
   41   19   40 1     
   42   19   41 1     
   43    5   42 1     
   44    5   43 1     
   45   12   44 1     
   46   12   45 1     
   47   20   46 1     
   48   20   47 1     
@<TRIPOS>SUBSTRUCTURE
      1 S1             1
@<TRIPOS>SET
LONE_PAIRS      STATIC     ATOMS    <user>   **** ""
6 42 43 44 45 46 47
DONOR_HYDROGENS      STATIC     ATOMS    <user>   **** ""
2 29 30
ATOM$BLUE        STATIC     ATOMS    COLORGROUP SYSTEM
6 42 43 44 45 46 47
ATOM$RED        STATIC     ATOMS    COLORGROUP SYSTEM
2 29 30
