AV-unprocessed.smi:2477|AV-procd|sdf|9759|dock1
  -GOLD-   2272013403D 1   1.00000     0.00000
 Structure written by MMmdl.
 51 53  0  0  0  0  0  0  0  0  1 V2000
  145.0865  131.7094  150.6961 C   0  0  0  0  0  0  0  0  0  0  0  0
  144.7082  132.9653  151.3493 N   0  0  0  0  0  0  0  0  0  0  0  0
  143.3472  133.1650  151.6352 C   0  0  0  0  0  0  0  0  0  0  0  0
  142.9102  134.2842  152.2290 C   0  0  0  0  0  0  0  0  0  0  0  0
  143.8760  135.2989  152.5764 C   0  0  0  0  0  0  0  0  0  0  0  0
  145.1967  135.1227  152.3187 C   0  0  0  0  0  0  0  0  0  0  0  0
  146.2042  136.0569  152.6176 N   0  0  0  0  0  0  0  0  0  0  0  0
  146.1276  137.2086  153.3095 C   0  0  0  0  0  0  0  0  0  0  0  0
  145.1158  137.6669  153.8391 O   0  0  0  0  0  0  0  0  0  0  0  0
  147.3300  137.7977  153.3844 N   0  0  0  0  0  0  0  0  0  0  0  0
  147.6330  139.0251  154.1177 C   0  0  2  0  0  0  0  0  0  0  0  0
  147.2414  140.2338  153.2446 C   0  0  0  0  0  0  0  0  0  0  0  0
  147.6119  141.5666  153.9137 C   0  0  0  0  0  0  0  0  0  0  0  0
  149.1052  141.6110  154.2685 C   0  0  0  0  0  0  0  0  0  0  0  0
  149.4924  140.4201  155.1567 C   0  0  0  0  0  0  0  0  0  0  0  0
  149.1334  139.0784  154.4930 C   0  0  1  0  0  0  0  0  0  0  0  0
  149.4239  138.0550  155.4385 O   0  0  0  0  0  0  0  0  0  0  0  0
  150.5867  137.2848  155.1558 C   0  0  0  0  0  0  0  0  0  0  0  0
  151.0337  136.6108  156.4537 C   0  0  0  0  0  0  0  0  0  0  0  0
  151.8631  137.6631  157.2019 C   0  0  0  0  0  0  0  0  0  0  0  0
  152.2560  138.7255  156.1635 C   0  0  0  0  0  0  0  0  0  0  0  0
  151.7659  138.1992  154.8117 C   0  0  0  0  0  0  0  0  0  0  0  0
  145.6669  133.8884  151.6590 C   0  0  0  0  0  0  0  0  0  0  0  0
  146.8552  133.6864  151.3958 O   0  0  0  0  0  0  0  0  0  0  0  0
  144.2322  131.0591  150.5060 H   0  0  0  0  0  0  0  0  0  0  0  0
  145.7872  131.1501  151.3178 H   0  0  0  0  0  0  0  0  0  0  0  0
  145.5651  131.9051  149.7356 H   0  0  0  0  0  0  0  0  0  0  0  0
  142.6878  132.3601  151.3452 H   0  0  0  0  0  0  0  0  0  0  0  0
  141.8609  134.4231  152.4437 H   0  0  0  0  0  0  0  0  0  0  0  0
  143.4976  136.1987  153.0327 H   0  0  0  0  0  0  0  0  0  0  0  0
  147.1242  135.7923  152.2966 H   0  0  0  0  0  0  0  0  0  0  0  0
  148.1057  137.3466  152.9223 H   0  0  0  0  0  0  0  0  0  0  0  0
  147.0388  139.0684  155.0326 H   0  0  0  0  0  0  0  0  0  0  0  0
  147.7415  140.1686  152.2771 H   0  0  0  0  0  0  0  0  0  0  0  0
  146.1705  140.2138  153.0393 H   0  0  0  0  0  0  0  0  0  0  0  0
  147.3618  142.3969  153.2527 H   0  0  0  0  0  0  0  0  0  0  0  0
  147.0161  141.7002  154.8175 H   0  0  0  0  0  0  0  0  0  0  0  0
  149.7013  141.5965  153.3553 H   0  0  0  0  0  0  0  0  0  0  0  0
  149.3395  142.5463  154.7775 H   0  0  0  0  0  0  0  0  0  0  0  0
  150.5604  140.4534  155.3741 H   0  0  0  0  0  0  0  0  0  0  0  0
  148.9807  140.5024  156.1164 H   0  0  0  0  0  0  0  0  0  0  0  0
  149.7363  138.9725  153.5882 H   0  0  0  0  0  0  0  0  0  0  0  0
  150.3872  136.5451  154.3790 H   0  0  0  0  0  0  0  0  0  0  0  0
  150.1962  136.2353  157.0428 H   0  0  0  0  0  0  0  0  0  0  0  0
  151.6693  135.7576  156.2142 H   0  0  0  0  0  0  0  0  0  0  0  0
  151.2725  138.1205  157.9967 H   0  0  0  0  0  0  0  0  0  0  0  0
  152.7393  137.2095  157.6667 H   0  0  0  0  0  0  0  0  0  0  0  0
  151.7523  139.6649  156.3954 H   0  0  0  0  0  0  0  0  0  0  0  0
  153.3285  138.9224  156.1580 H   0  0  0  0  0  0  0  0  0  0  0  0
  152.5550  137.6067  154.3468 H   0  0  0  0  0  0  0  0  0  0  0  0
  151.5089  138.9992  154.1173 H   0  0  0  0  0  0  0  0  0  0  0  0
  1  2  1  0  0  0  0
  1 25  1  0  0  0  0
  1 26  1  0  0  0  0
  1 27  1  0  0  0  0
  2 23  1  0  0  0  0
  2  3  1  0  0  0  0
  3  4  2  0  0  0  0
  3 28  1  0  0  0  0
  4  5  1  0  0  0  0
  4 29  1  0  0  0  0
  5  6  2  0  0  0  0
  5 30  1  0  0  0  0
  6  7  1  0  0  0  0
  6 23  1  0  0  0  0
  7  8  1  0  0  0  0
  7 31  1  0  0  0  0
  8  9  2  0  0  0  0
  8 10  1  0  0  0  0
 10 11  1  0  0  0  0
 10 32  1  0  0  0  0
 11 16  1  0  0  0  0
 11 12  1  0  0  0  0
 11 33  1  0  0  0  0
 12 13  1  0  0  0  0
 12 34  1  0  0  0  0
 12 35  1  0  0  0  0
 13 14  1  0  0  0  0
 13 36  1  0  0  0  0
 13 37  1  0  0  0  0
 14 15  1  0  0  0  0
 14 38  1  0  0  0  0
 14 39  1  0  0  0  0
 15 16  1  0  0  0  0
 15 40  1  0  0  0  0
 15 41  1  0  0  0  0
 16 17  1  0  0  0  0
 16 42  1  0  0  0  0
 17 18  1  0  0  0  0
 18 22  1  0  0  0  0
 18 19  1  0  0  0  0
 18 43  1  0  0  0  0
 19 20  1  0  0  0  0
 19 44  1  0  0  0  0
 19 45  1  0  0  0  0
 20 21  1  0  0  0  0
 20 46  1  0  0  0  0
 20 47  1  0  0  0  0
 21 22  1  0  0  0  0
 21 48  1  0  0  0  0
 21 49  1  0  0  0  0
 22 50  1  0  0  0  0
 22 51  1  0  0  0  0
 23 24  2  0  0  0  0
M  END
> <s_m_source_file>
AV-unprocessed.smi

> <i_m_source_file_index>
2477

> <i_lp_mmshare_version>
43012

> <i_f3d_flags>
0

> <s_epik_input>
W0NIM11uMVtjSF1bY0hdW2NIXWMoYzE9TylbTkhdQyg9TylbTkhdW0NAQEhdMltDSDJdW0NIMl1bQ0gyXVtDSDJdW0NASF0yT1tDSF0zW0NIMl1bQ0gyXVtDSDJdW0NIMl0z

> <s_epik_cmdline>
J2VwaWtfcHl0aG9uJywgJy1waCcsICc3LjAnLCAnLXRuJywgJzgnLCAnLW1hJywgJzIwMCcsICctbWV0YWxfYmluZGluZycsICctaW1hZScsICc8aW5maWxlLm1hZT4nLCAnLW9tYWUnLCAnPG91dGZpbGUubWFlPic=

> <r_lp_tautomer_probability>
1

> <r_epik_Ionization_Penalty>
2.40753e-05

> <r_epik_Ionization_Penalty_Charging>
4.84018e-06

> <r_epik_Ionization_Penalty_Neutral>
1.92352e-05

> <r_epik_State_Penalty>
-0

> <r_epik_Charging_Adjusted_Penalty>
4.84018e-06

> <i_epik_Tot_Q>
0

> <i_epik_Tot_abs_Q>
0

> <r_epik_Metal_State_Penalty>
-0

> <b_epik_Metal_Only>
0

> <s_lp_Force_Field>
OPLS_2005

> <r_lp_Energy>
41.4176

> <b_lp_Chiralities_Consistent>
1

> <s_lp_Variant>
AV-unprocessed.smi:2477-1

> <Gold.Version>
5.8.1

> <Gold.Id.Protein>
6NUR|6NUR_protein|mol2

> <Gold.PLP.Fitness>
44.6468

> <Gold.PLP.PLP>
-40.6789

> <Gold.PLP.part.hbond>
-2.0000

> <Gold.PLP.part.metal>
0.0000

> <Gold.PLP.part.buried>
-4.2265

> <Gold.PLP.part.nonpolar>
-34.5160

> <Gold.PLP.part.repulsive>
0.5088

> <Gold.PLP.ligand.clash>
0.0000

> <Gold.PLP.ligand.torsion>
1.1339

> <Gold.PLP.Chemscore.Hbond>
2.0000

> <Gold.PLP.Chemscore.CHOScore>
0.0000

> <Gold.PLP.Chemscore.Metal>
0.0000

> <Gold.Chemscore.Hbonds>
donor molecule, donor type, donor heavy atom, donor atom, acceptor molecule, acceptor atom, score
      L1  H     7    31       P1  7948  1.00
      L1  H    10    32       P1  7948  1.00

> <Gold.PLP.Chemscore.Internal.Correction>
0.2356

> <Gold.Rescore>
     Score         DG    S(hbond)    S(metal)    S(lipo)     H(rot)  DE(clash)    DE(int)     intcor
     17.99     -20.30       1.96        0.00     100.39       1.36       0.11       2.20       ----

> <Gold.Chemscore.Fitness>
17.9889

> <Gold.Chemscore.DG>
-20.3006

> <Gold.Chemscore.ZeroCoef>
-5.4800

> <Gold.Chemscore.Hbond>
1.9603

> <Gold.Chemscore.Metal>
0.0000

> <Gold.Chemscore.Lipo>
100.3912

> <Gold.Chemscore.Internal_Hbond>
0.0000

> <Gold.Chemscore.DEClash>
0.1071

> <Gold.Chemscore.DEInternal>
2.2046

> <Gold.Chemscore.Rot>
1.3564

> <Gold.Chemscore.Internal.Correction>
   9.000000E+99

> <Gold.Chemscore.Hbonds>
donor molecule, donor type, donor heavy atom, donor atom, acceptor molecule, acceptor atom, score
      L1  H     7    31       P1  7948  0.96
      L1  H    10    32       P1  7948  0.99

> <Gold.Chemscore.Hbond.Weighted>
-6.5472

> <Gold.Chemscore.Metal.Weighted>
-0.0000

> <Gold.Chemscore.Lipo.Weighted>
-11.7458

> <Gold.Chemscore.Internal_Hbond.Weighted>
0.0000

> <Gold.Chemscore.DEClash.Weighted>
0.1071

> <Gold.Chemscore.DEInternal.Weighted>
2.2046

> <Gold.Chemscore.Rot.Weighted>
3.4724

> <Gold.Chemscore.Internal.Correction.Weighted>
   9.000000E+99

> <Gold.Protein.RotatedTorsions>
[ 6907 6896 6895 6894 ] final  -56.63 input  -60.11 | X-H torsion
[ 7974 7965 7964 7962 ] final -146.27 input  175.53 | X-H torsion
[ 8008 7997 7996 7995 ] final  132.97 input   59.86 | X-H torsion
[ 10167 10162 10161 10158 ] final  171.39 input  -65.29 | X-H torsion
[ 10718 10713 10712 10709 ] final  -45.57 input   66.30 | X-H torsion
[ 10763 10752 10751 10750 ] final  167.45 input  -60.55 | X-H torsion
[ 11005 11000 10999 10996 ] final -131.61 input  -57.11 | X-H torsion

> <Gold.Protein.ActiveResidues>
 VAL166  LYS551  ARG553  GLY616  TRP617  ASP618  TYR619  PRO620  LYS621  CYS622 
 ASP623  PHE694  ASN695  SER759  ASP760  ASP761  ALA762  ILE779  LEU786  VAL792 
 PHE793  MET794  SER795  GLU796  ALA797  LYS798  CYS799  TRP800  GLU811  SER814 

> <Gold.Protein.RotatedAtoms>
  150.8152  134.7330  159.6723 H   0  0  0  0  0  0  0  0  0  0  0  0  # atno 6907 bound_to 6896
  152.4271  134.5845  159.9967 H   0  0  0  0  0  0  0  0  0  0  0  0  # atno 6908 bound_to 6896
  151.6043  133.3316  159.3090 H   0  0  0  0  0  0  0  0  0  0  0  0  # atno 6909 bound_to 6896
  144.8170  140.5477  143.5604 H   0  0  0  0  0  0  0  0  0  0  0  0  # atno 7974 bound_to 7965
  156.2988  140.2533  156.3176 H   0  0  0  0  0  0  0  0  0  0  0  0  # atno 8008 bound_to 7997
  154.9266  140.0399  157.2045 H   0  0  0  0  0  0  0  0  0  0  0  0  # atno 8009 bound_to 7997
  154.8259  140.2867  155.5759 H   0  0  0  0  0  0  0  0  0  0  0  0  # atno 8010 bound_to 7997
  139.5045  144.3490  151.9941 H   0  0  0  0  0  0  0  0  0  0  0  0  # atno 10167 bound_to 10162
  156.2270  130.4170  149.8921 H   0  0  0  0  0  0  0  0  0  0  0  0  # atno 10718 bound_to 10713
  154.3541  135.2753  155.2356 H   0  0  0  0  0  0  0  0  0  0  0  0  # atno 10763 bound_to 10752
  154.4573  135.5916  153.6235 H   0  0  0  0  0  0  0  0  0  0  0  0  # atno 10764 bound_to 10752
  152.9848  135.6056  154.3754 H   0  0  0  0  0  0  0  0  0  0  0  0  # atno 10765 bound_to 10752
  140.9243  134.1403  157.4288 H   0  0  0  0  0  0  0  0  0  0  0  0  # atno 11005 bound_to 11000
  145.5191  139.1477  143.3562 LP  0  0  0  0  0  0  0  0  0  0  0  0  # atno 17320 bound_to 7965
  146.2474  140.5331  142.8908 LP  0  0  0  0  0  0  0  0  0  0  0  0  # atno 17321 bound_to 7965
  140.2927  144.3735  150.6083 LP  0  0  0  0  0  0  0  0  0  0  0  0  # atno 17342 bound_to 10162
  140.5934  143.2167  151.7210 LP  0  0  0  0  0  0  0  0  0  0  0  0  # atno 17343 bound_to 10162
  156.6548  130.8758  151.3537 LP  0  0  0  0  0  0  0  0  0  0  0  0  # atno 17370 bound_to 10713
  157.7115  130.9446  150.1107 LP  0  0  0  0  0  0  0  0  0  0  0  0  # atno 17371 bound_to 10713
  139.8782  134.9982  156.5890 LP  0  0  0  0  0  0  0  0  0  0  0  0  # atno 17394 bound_to 11000
  140.7947  133.8554  155.8675 LP  0  0  0  0  0  0  0  0  0  0  0  0  # atno 17395 bound_to 11000

$$$$
