AV-unprocessed.smi:2347|AV-procd|sdf|9369|dock3
  -GOLD-   2272012593D 1   1.00000     0.00000
 Structure written by MMmdl.
 41 43  0  0  0  0  0  0  0  0  1 V2000
  149.4762  134.7636  156.1895 O   0  0  0  0  0  0  0  0  0  0  0  0
  149.4291  135.2198  155.0471 C   0  0  0  0  0  0  0  0  0  0  0  0
  149.9339  136.4057  154.6650 N   0  0  0  0  0  0  0  0  0  0  0  0
  150.6426  137.3552  155.4497 C   0  0  0  0  0  0  0  0  0  0  0  0
  151.0147  138.6423  154.9944 C   0  0  0  0  0  0  0  0  0  0  0  0
  151.6984  139.5035  155.8733 C   0  0  0  0  0  0  0  0  0  0  0  0
  151.9921  139.0519  157.1797 C   0  0  0  0  0  0  0  0  0  0  0  0
  152.7022  139.9454  158.1551 C   0  0  0  0  0  0  0  0  0  0  0  0
  153.7930  139.5812  158.5964 O   0  0  0  0  0  0  0  0  0  0  0  0
  152.1125  141.1160  158.5091 N   0  0  0  0  0  0  0  0  0  0  0  0
  150.8806  141.5987  157.8691 C   0  0  0  0  0  0  0  0  0  0  0  0
  151.1765  142.9222  157.1400 C   0  0  0  0  0  0  0  0  0  0  0  0
  151.7666  143.9652  158.1062 C   0  0  0  0  0  0  0  0  0  0  0  0
  152.9539  143.3907  158.9001 C   0  0  0  0  0  0  0  0  0  0  0  0
  152.5807  142.0453  159.5497 C   0  0  0  0  0  0  0  0  0  0  0  0
  151.6144  137.8338  157.6283 N   0  0  0  0  0  0  0  0  0  0  0  0
  150.9574  137.0139  156.7812 C   0  0  0  0  0  0  0  0  0  0  0  0
  148.8401  134.5909  154.0206 N   0  0  0  0  0  0  0  0  0  0  0  0
  148.1878  133.3230  154.0914 C   0  0  0  0  0  0  0  0  0  0  0  0
  148.8848  132.1353  153.4638 C   0  0  0  0  0  0  0  0  0  0  0  0
  147.6717  132.7257  152.7999 C   0  0  0  0  0  0  0  0  0  0  0  0
  149.7381  136.6879  153.7156 H   0  0  0  0  0  0  0  0  0  0  0  0
  150.7754  138.9907  154.0016 H   0  0  0  0  0  0  0  0  0  0  0  0
  151.9842  140.4935  155.5496 H   0  0  0  0  0  0  0  0  0  0  0  0
  150.4594  140.8835  157.1616 H   0  0  0  0  0  0  0  0  0  0  0  0
  150.1142  141.7511  158.6303 H   0  0  0  0  0  0  0  0  0  0  0  0
  151.8790  142.7397  156.3256 H   0  0  0  0  0  0  0  0  0  0  0  0
  150.2662  143.3105  156.6826 H   0  0  0  0  0  0  0  0  0  0  0  0
  152.0735  144.8567  157.5587 H   0  0  0  0  0  0  0  0  0  0  0  0
  150.9911  144.2832  158.8043 H   0  0  0  0  0  0  0  0  0  0  0  0
  153.8059  143.2542  158.2336 H   0  0  0  0  0  0  0  0  0  0  0  0
  153.2697  144.1016  159.6642 H   0  0  0  0  0  0  0  0  0  0  0  0
  151.7776  142.1968  160.2725 H   0  0  0  0  0  0  0  0  0  0  0  0
  153.4182  141.6654  160.1332 H   0  0  0  0  0  0  0  0  0  0  0  0
  150.6784  136.0496  157.1808 H   0  0  0  0  0  0  0  0  0  0  0  0
  148.8478  135.0455  153.1194 H   0  0  0  0  0  0  0  0  0  0  0  0
  147.5941  133.1152  154.9806 H   0  0  0  0  0  0  0  0  0  0  0  0
  149.8489  132.3028  152.9874 H   0  0  0  0  0  0  0  0  0  0  0  0
  148.7702  131.1711  153.9552 H   0  0  0  0  0  0  0  0  0  0  0  0
  146.7466  132.1548  152.8454 H   0  0  0  0  0  0  0  0  0  0  0  0
  147.8275  133.2857  151.8795 H   0  0  0  0  0  0  0  0  0  0  0  0
  1  2  2  0  0  0  0
  2  3  1  0  0  0  0
  2 18  1  0  0  0  0
  3  4  1  0  0  0  0
  3 22  1  0  0  0  0
  4 17  1  0  0  0  0
  4  5  2  0  0  0  0
  5  6  1  0  0  0  0
  5 23  1  0  0  0  0
  6  7  2  0  0  0  0
  6 24  1  0  0  0  0
  7  8  1  0  0  0  0
  7 16  1  0  0  0  0
  8  9  2  0  0  0  0
  8 10  1  0  0  0  0
 10 15  1  0  0  0  0
 10 11  1  0  0  0  0
 11 12  1  0  0  0  0
 11 25  1  0  0  0  0
 11 26  1  0  0  0  0
 12 13  1  0  0  0  0
 12 27  1  0  0  0  0
 12 28  1  0  0  0  0
 13 14  1  0  0  0  0
 13 29  1  0  0  0  0
 13 30  1  0  0  0  0
 14 15  1  0  0  0  0
 14 31  1  0  0  0  0
 14 32  1  0  0  0  0
 15 33  1  0  0  0  0
 15 34  1  0  0  0  0
 16 17  2  0  0  0  0
 17 35  1  0  0  0  0
 18 19  1  0  0  0  0
 18 36  1  0  0  0  0
 19 21  1  0  0  0  0
 19 20  1  0  0  0  0
 19 37  1  0  0  0  0
 20 21  1  0  0  0  0
 20 38  1  0  0  0  0
 20 39  1  0  0  0  0
 21 40  1  0  0  0  0
 21 41  1  0  0  0  0
M  END
> <s_m_source_file>
AV-unprocessed.smi

> <i_m_source_file_index>
2347

> <i_lp_mmshare_version>
43012

> <i_f3d_flags>
0

> <s_epik_input>
W0NIMl0xW0NIMl1bQ0hdMVtOSF1DKD1PKVtOSF1jMltjSF1bY0hdYyhuW2NIXTIpQyg9TylOM1tDSDJdW0NIMl1bQ0gyXVtDSDJdW0NIMl0z

> <s_epik_cmdline>
J2VwaWtfcHl0aG9uJywgJy1waCcsICc3LjAnLCAnLXRuJywgJzgnLCAnLW1hJywgJzIwMCcsICctbWV0YWxfYmluZGluZycsICctaW1hZScsICc8aW5maWxlLm1hZT4nLCAnLW9tYWUnLCAnPG91dGZpbGUubWFlPic=

> <r_lp_tautomer_probability>
1

> <r_epik_Ionization_Penalty>
4.62416e-05

> <r_epik_Ionization_Penalty_Charging>
0

> <r_epik_Ionization_Penalty_Neutral>
4.62416e-05

> <r_epik_State_Penalty>
-0

> <r_epik_Charging_Adjusted_Penalty>
0

> <i_epik_Tot_Q>
0

> <i_epik_Tot_abs_Q>
0

> <r_epik_Metal_State_Penalty>
-0

> <b_epik_Metal_Only>
0

> <s_lp_Force_Field>
OPLS_2005

> <r_lp_Energy>
48.3228

> <b_lp_Chiralities_Consistent>
1

> <s_lp_Variant>
AV-unprocessed.smi:2347-1

> <Gold.Version>
5.8.1

> <Gold.Id.Protein>
6NUR|6NUR_protein|mol2

> <Gold.PLP.Fitness>
46.1974

> <Gold.PLP.PLP>
-38.7414

> <Gold.PLP.part.hbond>
-3.0000

> <Gold.PLP.part.metal>
0.0000

> <Gold.PLP.part.buried>
-3.2780

> <Gold.PLP.part.nonpolar>
-33.0678

> <Gold.PLP.part.repulsive>
0.0686

> <Gold.PLP.ligand.clash>
0.0000

> <Gold.PLP.ligand.torsion>
1.2801

> <Gold.PLP.Chemscore.Hbond>
2.9511

> <Gold.PLP.Chemscore.CHOScore>
0.0000

> <Gold.PLP.Chemscore.Metal>
0.0000

> <Gold.Chemscore.Hbonds>
donor molecule, donor type, donor heavy atom, donor atom, acceptor molecule, acceptor atom, score
      L1  H     3    22       P1  7948  0.99
      L1  H    18    36       P1  7948  1.00
      P1  H  7997  8009       L1     9  1.00

> <Gold.PLP.Chemscore.Internal.Correction>
1.1630

> <Gold.Rescore>
     Score         DG    S(hbond)    S(metal)    S(lipo)     H(rot)  DE(clash)    DE(int)     intcor
     18.67     -21.51       2.57        0.00      85.38       1.00       0.00       2.83       ----

> <Gold.Chemscore.Fitness>
18.6739

> <Gold.Chemscore.DG>
-21.5071

> <Gold.Chemscore.ZeroCoef>
-5.4800

> <Gold.Chemscore.Hbond>
2.5741

> <Gold.Chemscore.Metal>
0.0000

> <Gold.Chemscore.Lipo>
85.3810

> <Gold.Chemscore.Internal_Hbond>
0.0000

> <Gold.Chemscore.DEClash>
0.0000

> <Gold.Chemscore.DEInternal>
2.8332

> <Gold.Chemscore.Rot>
1.0000

> <Gold.Chemscore.Internal.Correction>
   9.000000E+99

> <Gold.Chemscore.Hbonds>
donor molecule, donor type, donor heavy atom, donor atom, acceptor molecule, acceptor atom, score
      L1  H     3    22       P1  7948  0.48
      L1  H    18    36       P1  7948  0.35
      P1  H  7997  8009       L1     9  0.39

> <Gold.Chemscore.Hbond.Weighted>
-8.5975

> <Gold.Chemscore.Metal.Weighted>
-0.0000

> <Gold.Chemscore.Lipo.Weighted>
-9.9896

> <Gold.Chemscore.Internal_Hbond.Weighted>
0.0000

> <Gold.Chemscore.DEClash.Weighted>
0.0000

> <Gold.Chemscore.DEInternal.Weighted>
2.8332

> <Gold.Chemscore.Rot.Weighted>
2.5600

> <Gold.Chemscore.Internal.Correction.Weighted>
   9.000000E+99

> <Gold.Protein.RotatedTorsions>
[ 6907 6896 6895 6894 ] final   92.05 input  -60.11 | X-H torsion
[ 7974 7965 7964 7962 ] final -126.39 input  175.53 | X-H torsion
[ 8008 7997 7996 7995 ] final  130.42 input   59.86 | X-H torsion
[ 10167 10162 10161 10158 ] final  168.64 input  -65.29 | X-H torsion
[ 10718 10713 10712 10709 ] final  -35.58 input   66.30 | X-H torsion
[ 10763 10752 10751 10750 ] final   51.74 input  -60.55 | X-H torsion
[ 11005 11000 10999 10996 ] final  138.45 input  -57.11 | X-H torsion

> <Gold.Protein.ActiveResidues>
 VAL166  LYS551  ARG553  GLY616  TRP617  ASP618  TYR619  PRO620  LYS621  CYS622 
 ASP623  PHE694  ASN695  SER759  ASP760  ASP761  ALA762  ILE779  LEU786  VAL792 
 PHE793  MET794  SER795  GLU796  ALA797  LYS798  CYS799  TRP800  GLU811  SER814 

> <Gold.Protein.RotatedAtoms>
  152.5452  134.1562  159.8538 H   0  0  0  0  0  0  0  0  0  0  0  0  # atno 6907 bound_to 6896
  151.1584  133.4854  159.2602 H   0  0  0  0  0  0  0  0  0  0  0  0  # atno 6908 bound_to 6896
  151.1398  135.0184  159.8675 H   0  0  0  0  0  0  0  0  0  0  0  0  # atno 6909 bound_to 6896
  144.9878  140.7703  143.4573 H   0  0  0  0  0  0  0  0  0  0  0  0  # atno 7974 bound_to 7965
  156.2954  140.2596  156.2759 H   0  0  0  0  0  0  0  0  0  0  0  0  # atno 8008 bound_to 7997
  154.9649  140.0392  157.2226 H   0  0  0  0  0  0  0  0  0  0  0  0  # atno 8009 bound_to 7997
  154.7912  140.2812  155.5995 H   0  0  0  0  0  0  0  0  0  0  0  0  # atno 8010 bound_to 7997
  139.4973  144.3793  151.9640 H   0  0  0  0  0  0  0  0  0  0  0  0  # atno 10167 bound_to 10162
  156.3369  130.4287  149.7822 H   0  0  0  0  0  0  0  0  0  0  0  0  # atno 10718 bound_to 10713
  152.9786  135.5836  154.4464 H   0  0  0  0  0  0  0  0  0  0  0  0  # atno 10763 bound_to 10752
  154.4059  135.2769  155.2069 H   0  0  0  0  0  0  0  0  0  0  0  0  # atno 10764 bound_to 10752
  154.3880  135.6131  153.5882 H   0  0  0  0  0  0  0  0  0  0  0  0  # atno 10765 bound_to 10752
  140.0185  134.9407  157.0425 H   0  0  0  0  0  0  0  0  0  0  0  0  # atno 11005 bound_to 11000
  145.2329  139.2107  143.5033 LP  0  0  0  0  0  0  0  0  0  0  0  0  # atno 17320 bound_to 7965
  146.3424  140.2209  142.8591 LP  0  0  0  0  0  0  0  0  0  0  0  0  # atno 17321 bound_to 7965
  140.3229  144.3407  150.6005 LP  0  0  0  0  0  0  0  0  0  0  0  0  # atno 17342 bound_to 10162
  140.5708  143.2181  151.7603 LP  0  0  0  0  0  0  0  0  0  0  0  0  # atno 17343 bound_to 10162
  156.5073  130.8156  151.3155 LP  0  0  0  0  0  0  0  0  0  0  0  0  # atno 17370 bound_to 10713
  157.7440  130.9925  150.2639 LP  0  0  0  0  0  0  0  0  0  0  0  0  # atno 17371 bound_to 10713
  140.4429  134.1662  155.7175 LP  0  0  0  0  0  0  0  0  0  0  0  0  # atno 17394 bound_to 11000
  141.1758  133.8516  157.1425 LP  0  0  0  0  0  0  0  0  0  0  0  0  # atno 17395 bound_to 11000

$$$$
