AV-unprocessed.smi:1931|AV-procd|sdf|7813|dock3
  -GOLD-   22720 9553D 1   1.00000     0.00000
 Structure written by MMmdl.
 48 49  0  0  0  0  0  0  0  0  1 V2000
  144.4044  133.0155  150.3273 C   0  0  0  0  0  0  0  0  0  0  0  0
  145.0355  134.2633  150.0991 O   0  0  0  0  0  0  0  0  0  0  0  0
  145.3080  134.9620  151.3023 C   0  0  0  0  0  0  0  0  0  0  0  0
  146.0304  136.2711  150.9698 C   0  0  0  0  0  0  0  0  0  0  0  0
  146.2121  137.0149  152.1630 O   0  0  0  0  0  0  0  0  0  0  0  0
  146.8458  138.2654  151.9374 C   0  0  0  0  0  0  0  0  0  0  0  0
  147.1764  138.9186  153.2800 C   0  0  0  0  0  0  0  0  0  0  0  0
  146.3346  138.9063  154.1771 O   0  0  0  0  0  0  0  0  0  0  0  0
  148.3981  139.4747  153.3832 N   0  0  0  0  0  0  0  0  0  0  0  0
  148.9775  140.1456  154.4936 C   0  0  0  0  0  0  0  0  0  0  0  0
  148.3140  140.3802  155.7195 C   0  0  0  0  0  0  0  0  0  0  0  0
  148.9903  141.0742  156.7413 C   0  0  0  0  0  0  0  0  0  0  0  0
  150.3158  141.5248  156.5155 C   0  0  0  0  0  0  0  0  0  0  0  0
  151.0506  142.2287  157.4963 N   0  0  0  0  0  0  0  0  0  0  0  0
  151.8164  141.4696  158.4794 C   0  0  0  0  0  0  0  0  0  0  0  0
  152.2240  142.3681  159.6610 C   0  0  1  0  0  0  0  0  0  0  0  0
  153.1545  141.6406  160.6373 C   0  0  0  0  0  0  0  0  0  0  0  0
  152.9097  143.5208  159.1758 O   0  0  0  0  0  0  0  0  0  0  0  0
  152.1627  144.3130  158.2505 C   0  0  2  0  0  0  0  0  0  0  0  0
  151.0057  145.0688  158.9286 C   0  0  0  0  0  0  0  0  0  0  0  0
  151.7142  143.4536  157.0524 C   0  0  0  0  0  0  0  0  0  0  0  0
  150.9387  141.3097  155.3319 N   0  0  0  0  0  0  0  0  0  0  0  0
  150.2865  140.6459  154.3553 C   0  0  0  0  0  0  0  0  0  0  0  0
  144.2180  132.5196  149.3747 H   0  0  0  0  0  0  0  0  0  0  0  0
  143.4461  133.1450  150.8322 H   0  0  0  0  0  0  0  0  0  0  0  0
  145.0328  132.3593  150.9309 H   0  0  0  0  0  0  0  0  0  0  0  0
  144.3894  135.1631  151.8559 H   0  0  0  0  0  0  0  0  0  0  0  0
  145.9457  134.3456  151.9377 H   0  0  0  0  0  0  0  0  0  0  0  0
  147.0062  136.0472  150.5360 H   0  0  0  0  0  0  0  0  0  0  0  0
  145.4663  136.8437  150.2321 H   0  0  0  0  0  0  0  0  0  0  0  0
  147.7687  138.1304  151.3718 H   0  0  0  0  0  0  0  0  0  0  0  0
  146.1917  138.9219  151.3611 H   0  0  0  0  0  0  0  0  0  0  0  0
  149.0098  139.3363  152.5915 H   0  0  0  0  0  0  0  0  0  0  0  0
  147.3002  140.0553  155.8941 H   0  0  0  0  0  0  0  0  0  0  0  0
  148.4783  141.2389  157.6770 H   0  0  0  0  0  0  0  0  0  0  0  0
  151.2224  140.6388  158.8616 H   0  0  0  0  0  0  0  0  0  0  0  0
  152.7007  141.0502  157.9976 H   0  0  0  0  0  0  0  0  0  0  0  0
  151.3339  142.6744  160.2109 H   0  0  0  0  0  0  0  0  0  0  0  0
  152.6746  140.7526  161.0496 H   0  0  0  0  0  0  0  0  0  0  0  0
  153.4272  142.2883  161.4708 H   0  0  0  0  0  0  0  0  0  0  0  0
  154.0752  141.3259  160.1452 H   0  0  0  0  0  0  0  0  0  0  0  0
  152.8526  145.0689  157.8742 H   0  0  0  0  0  0  0  0  0  0  0  0
  150.5427  145.7685  158.2325 H   0  0  0  0  0  0  0  0  0  0  0  0
  151.3639  145.6431  159.7832 H   0  0  0  0  0  0  0  0  0  0  0  0
  150.2215  144.3983  159.2791 H   0  0  0  0  0  0  0  0  0  0  0  0
  152.5845  143.1699  156.4595 H   0  0  0  0  0  0  0  0  0  0  0  0
  151.0762  144.0538  156.4037 H   0  0  0  0  0  0  0  0  0  0  0  0
  150.8335  140.5045  153.4346 H   0  0  0  0  0  0  0  0  0  0  0  0
  1  2  1  0  0  0  0
  1 24  1  0  0  0  0
  1 25  1  0  0  0  0
  1 26  1  0  0  0  0
  2  3  1  0  0  0  0
  3  4  1  0  0  0  0
  3 27  1  0  0  0  0
  3 28  1  0  0  0  0
  4  5  1  0  0  0  0
  4 29  1  0  0  0  0
  4 30  1  0  0  0  0
  5  6  1  0  0  0  0
  6  7  1  0  0  0  0
  6 31  1  0  0  0  0
  6 32  1  0  0  0  0
  7  8  2  0  0  0  0
  7  9  1  0  0  0  0
  9 10  1  0  0  0  0
  9 33  1  0  0  0  0
 10 23  1  0  0  0  0
 10 11  2  0  0  0  0
 11 12  1  0  0  0  0
 11 34  1  0  0  0  0
 12 13  2  0  0  0  0
 12 35  1  0  0  0  0
 13 14  1  0  0  0  0
 13 22  1  0  0  0  0
 14 21  1  0  0  0  0
 14 15  1  0  0  0  0
 15 16  1  0  0  0  0
 15 36  1  0  0  0  0
 15 37  1  0  0  0  0
 16 17  1  0  0  0  0
 16 18  1  0  0  0  0
 16 38  1  0  0  0  0
 17 39  1  0  0  0  0
 17 40  1  0  0  0  0
 17 41  1  0  0  0  0
 18 19  1  0  0  0  0
 19 20  1  0  0  0  0
 19 21  1  0  0  0  0
 19 42  1  0  0  0  0
 20 43  1  0  0  0  0
 20 44  1  0  0  0  0
 20 45  1  0  0  0  0
 21 46  1  0  0  0  0
 21 47  1  0  0  0  0
 22 23  2  0  0  0  0
 23 48  1  0  0  0  0
M  END
> <s_m_source_file>
AV-unprocessed.smi

> <i_m_source_file_index>
1931

> <i_lp_mmshare_version>
43012

> <i_f3d_flags>
0

> <s_epik_input>
W0NIM11PW0NIMl1bQ0gyXU9bQ0gyXUMoPU8pW05IXWMxW2NIXVtjSF1jKG5bY0hdMSlOMltDSDJdW0NAQEhdKFtDSDNdKU9bQ0BASF0oW0NIM10pW0NIMl0y

> <s_epik_cmdline>
J2VwaWtfcHl0aG9uJywgJy1waCcsICc3LjAnLCAnLXRuJywgJzgnLCAnLW1hJywgJzIwMCcsICctbWV0YWxfYmluZGluZycsICctaW1hZScsICc8aW5maWxlLm1hZT4nLCAnLW9tYWUnLCAnPG91dGZpbGUubWFlPic=

> <r_lp_tautomer_probability>
1

> <r_epik_Ionization_Penalty>
0.000582342

> <r_epik_Ionization_Penalty_Charging>
0

> <r_epik_Ionization_Penalty_Neutral>
0.000582342

> <r_epik_State_Penalty>
0.00036524

> <r_epik_Charging_Adjusted_Penalty>
0.00036524

> <i_epik_Tot_Q>
0

> <i_epik_Tot_abs_Q>
0

> <r_epik_Metal_State_Penalty>
-0

> <b_epik_Metal_Only>
0

> <s_lp_Force_Field>
OPLS_2005

> <r_lp_Energy>
26.0102

> <b_lp_Chiralities_Consistent>
1

> <s_lp_Variant>
AV-unprocessed.smi:1931-3

> <Gold.Version>
5.8.1

> <Gold.Id.Protein>
6NUR|6NUR_protein|mol2

> <Gold.PLP.Fitness>
45.2517

> <Gold.PLP.PLP>
-40.1444

> <Gold.PLP.part.hbond>
-2.0000

> <Gold.PLP.part.metal>
0.0000

> <Gold.PLP.part.buried>
-1.5299

> <Gold.PLP.part.nonpolar>
-37.5982

> <Gold.PLP.part.repulsive>
1.4672

> <Gold.PLP.ligand.clash>
0.0000

> <Gold.PLP.ligand.torsion>
0.7227

> <Gold.PLP.Chemscore.Hbond>
1.0000

> <Gold.PLP.Chemscore.CHOScore>
1.0000

> <Gold.PLP.Chemscore.Metal>
0.0000

> <Gold.Chemscore.Hbonds>
donor molecule, donor type, donor heavy atom, donor atom, acceptor molecule, acceptor atom, score
      L1  H     9    33       P1  7957  0.90
      L1  C    23    48       P1  7957  0.69

> <Gold.PLP.Chemscore.Internal.Correction>
0.5526

> <Gold.Rescore>
     Score         DG    S(hbond)    S(metal)    S(lipo)     H(rot)  DE(clash)    DE(int)     intcor
     13.00     -16.49       0.92        0.00     110.09       1.93       1.53       1.96       ----

> <Gold.Chemscore.Fitness>
12.9971

> <Gold.Chemscore.DG>
-16.4925

> <Gold.Chemscore.ZeroCoef>
-5.4800

> <Gold.Chemscore.Hbond>
0.9239

> <Gold.Chemscore.Metal>
0.0000

> <Gold.Chemscore.Lipo>
110.0854

> <Gold.Chemscore.Internal_Hbond>
0.0000

> <Gold.Chemscore.DEClash>
1.5310

> <Gold.Chemscore.DEInternal>
1.9644

> <Gold.Chemscore.Rot>
1.9349

> <Gold.Chemscore.Internal.Correction>
   9.000000E+99

> <Gold.Chemscore.Hbonds>
donor molecule, donor type, donor heavy atom, donor atom, acceptor molecule, acceptor atom, score
      L1  H     9    33       P1  7957  0.88

> <Gold.Chemscore.Hbond.Weighted>
-3.0860

> <Gold.Chemscore.Metal.Weighted>
-0.0000

> <Gold.Chemscore.Lipo.Weighted>
-12.8800

> <Gold.Chemscore.Internal_Hbond.Weighted>
0.0000

> <Gold.Chemscore.DEClash.Weighted>
1.5310

> <Gold.Chemscore.DEInternal.Weighted>
1.9644

> <Gold.Chemscore.Rot.Weighted>
4.9534

> <Gold.Chemscore.Internal.Correction.Weighted>
   9.000000E+99

> <Gold.Protein.RotatedTorsions>
[ 6907 6896 6895 6894 ] final  136.58 input  -60.11 | X-H torsion
[ 7974 7965 7964 7962 ] final  -13.20 input  175.53 | X-H torsion
[ 8008 7997 7996 7995 ] final   57.15 input   59.86 | X-H torsion
[ 10167 10162 10161 10158 ] final   18.83 input  -65.29 | X-H torsion
[ 10718 10713 10712 10709 ] final  -61.25 input   66.30 | X-H torsion
[ 10763 10752 10751 10750 ] final -168.11 input  -60.55 | X-H torsion
[ 11005 11000 10999 10996 ] final  -99.43 input  -57.11 | X-H torsion

> <Gold.Protein.ActiveResidues>
 VAL166  LYS551  ARG553  GLY616  TRP617  ASP618  TYR619  PRO620  LYS621  CYS622 
 ASP623  PHE694  ASN695  SER759  ASP760  ASP761  ALA762  ILE779  LEU786  VAL792 
 PHE793  MET794  SER795  GLU796  ALA797  LYS798  CYS799  TRP800  GLU811  SER814 

> <Gold.Protein.RotatedAtoms>
  152.2878  133.5532  159.5537 H   0  0  0  0  0  0  0  0  0  0  0  0  # atno 6907 bound_to 6896
  150.7222  134.0472  159.3795 H   0  0  0  0  0  0  0  0  0  0  0  0  # atno 6908 bound_to 6896
  151.8379  135.0600  160.0495 H   0  0  0  0  0  0  0  0  0  0  0  0  # atno 6909 bound_to 6896
  146.2123  140.3169  142.8387 H   0  0  0  0  0  0  0  0  0  0  0  0  # atno 7974 bound_to 7965
  155.5291  140.3481  155.4422 H   0  0  0  0  0  0  0  0  0  0  0  0  # atno 8008 bound_to 7997
  156.0731  140.1368  156.9831 H   0  0  0  0  0  0  0  0  0  0  0  0  # atno 8009 bound_to 7997
  154.4539  140.0961  156.6674 H   0  0  0  0  0  0  0  0  0  0  0  0  # atno 8010 bound_to 7997
  140.5624  143.9312  150.6652 H   0  0  0  0  0  0  0  0  0  0  0  0  # atno 10167 bound_to 10162
  156.0935  130.4196  150.0967 H   0  0  0  0  0  0  0  0  0  0  0  0  # atno 10718 bound_to 10713
  154.6663  135.2932  154.9801 H   0  0  0  0  0  0  0  0  0  0  0  0  # atno 10763 bound_to 10752
  154.0844  135.6600  153.4846 H   0  0  0  0  0  0  0  0  0  0  0  0  # atno 10764 bound_to 10752
  153.0459  135.5205  154.7637 H   0  0  0  0  0  0  0  0  0  0  0  0  # atno 10765 bound_to 10752
  141.1309  133.8320  157.0970 H   0  0  0  0  0  0  0  0  0  0  0  0  # atno 11005 bound_to 11000
  144.8948  140.7569  143.5904 LP  0  0  0  0  0  0  0  0  0  0  0  0  # atno 17320 bound_to 7965
  145.3092  139.1824  143.4648 LP  0  0  0  0  0  0  0  0  0  0  0  0  # atno 17321 bound_to 7965
  140.2766  143.3418  152.1189 LP  0  0  0  0  0  0  0  0  0  0  0  0  # atno 17342 bound_to 10162
  139.5076  144.6836  151.5946 LP  0  0  0  0  0  0  0  0  0  0  0  0  # atno 17343 bound_to 10162
  156.8972  130.9608  151.3581 LP  0  0  0  0  0  0  0  0  0  0  0  0  # atno 17370 bound_to 10713
  157.6090  130.8568  149.8921 LP  0  0  0  0  0  0  0  0  0  0  0  0  # atno 17371 bound_to 10713
  140.0357  134.9879  157.0866 LP  0  0  0  0  0  0  0  0  0  0  0  0  # atno 17394 bound_to 11000
  140.4214  134.1876  155.7164 LP  0  0  0  0  0  0  0  0  0  0  0  0  # atno 17395 bound_to 11000

$$$$
