AV-unprocessed.smi:805|AV-procd|sdf|3797|dock5
  -GOLD-   22720 1233D 1   1.00000     0.00000
 Structure written by MMmdl.
 40 41  0  0  0  0  0  0  0  0  1 V2000
  149.4398  141.9993  154.3958 C   0  0  0  0  0  0  0  0  0  0  0  0
  148.2734  142.2555  153.4386 C   0  0  0  0  0  0  0  0  0  0  0  0
  148.4120  141.4095  152.3093 O   0  0  0  0  0  0  0  0  0  0  0  0
  147.2026  140.7572  151.9552 C   0  0  1  0  0  0  0  0  0  0  0  0
  147.3371  139.7309  150.8256 C   0  0  0  0  0  0  0  0  0  0  0  0
  146.3437  138.8854  151.6241 C   0  0  1  0  0  0  0  0  0  0  0  0
  146.6422  137.4584  151.5632 N   0  0  0  0  0  0  0  0  0  0  0  0
  145.7298  136.5047  151.3337 C   0  0  0  0  0  0  0  0  0  0  0  0
  144.5381  136.7415  151.1372 O   0  0  0  0  0  0  0  0  0  0  0  0
  146.2933  135.2843  151.3349 N   0  0  0  0  0  0  0  0  0  0  0  0
  145.6735  134.0217  151.1310 C   0  0  0  0  0  0  0  0  0  0  0  0
  144.3200  134.0077  150.7353 C   0  0  0  0  0  0  0  0  0  0  0  0
  143.6826  132.7729  150.5108 C   0  0  0  0  0  0  0  0  0  0  0  0
  144.4308  131.5925  150.6830 C   0  0  0  0  0  0  0  0  0  0  0  0
  145.7306  131.5871  151.0460 N   0  0  0  0  0  0  0  0  0  0  0  0
  146.3356  132.7753  151.2615 C   0  0  0  0  0  0  0  0  0  0  0  0
  146.8307  139.5989  152.9141 C   0  0  0  0  0  0  0  0  0  0  0  0
  148.0001  138.9522  153.6773 C   0  0  0  0  0  0  0  0  0  0  0  0
  145.7488  139.9174  153.9457 C   0  0  0  0  0  0  0  0  0  0  0  0
  149.3689  142.6373  155.2770 H   0  0  0  0  0  0  0  0  0  0  0  0
  150.3949  142.2029  153.9114 H   0  0  0  0  0  0  0  0  0  0  0  0
  149.4488  140.9626  154.7326 H   0  0  0  0  0  0  0  0  0  0  0  0
  147.3269  142.0555  153.9433 H   0  0  0  0  0  0  0  0  0  0  0  0
  148.2690  143.3021  153.1311 H   0  0  0  0  0  0  0  0  0  0  0  0
  146.3710  141.4488  151.7995 H   0  0  0  0  0  0  0  0  0  0  0  0
  146.9714  140.0701  149.8562 H   0  0  0  0  0  0  0  0  0  0  0  0
  148.3360  139.2965  150.7534 H   0  0  0  0  0  0  0  0  0  0  0  0
  145.3109  139.1342  151.3678 H   0  0  0  0  0  0  0  0  0  0  0  0
  147.6023  137.1829  151.7098 H   0  0  0  0  0  0  0  0  0  0  0  0
  147.2970  135.2609  151.4393 H   0  0  0  0  0  0  0  0  0  0  0  0
  143.7725  134.9305  150.6087 H   0  0  0  0  0  0  0  0  0  0  0  0
  142.6452  132.7309  150.2132 H   0  0  0  0  0  0  0  0  0  0  0  0
  143.9741  130.6275  150.5197 H   0  0  0  0  0  0  0  0  0  0  0  0
  147.3794  132.7051  151.5238 H   0  0  0  0  0  0  0  0  0  0  0  0
  147.6903  138.0413  154.1907 H   0  0  0  0  0  0  0  0  0  0  0  0
  148.4046  139.6274  154.4320 H   0  0  0  0  0  0  0  0  0  0  0  0
  148.8243  138.6844  153.0160 H   0  0  0  0  0  0  0  0  0  0  0  0
  145.4138  139.0188  154.4645 H   0  0  0  0  0  0  0  0  0  0  0  0
  144.8706  140.3646  153.4791 H   0  0  0  0  0  0  0  0  0  0  0  0
  146.1077  140.6206  154.6978 H   0  0  0  0  0  0  0  0  0  0  0  0
  1  2  1  0  0  0  0
  1 20  1  0  0  0  0
  1 21  1  0  0  0  0
  1 22  1  0  0  0  0
  2  3  1  0  0  0  0
  2 23  1  0  0  0  0
  2 24  1  0  0  0  0
  3  4  1  0  0  0  0
  4 17  1  0  0  0  0
  4  5  1  0  0  0  0
  4 25  1  0  0  0  0
  5  6  1  0  0  0  0
  5 26  1  0  0  0  0
  5 27  1  0  0  0  0
  6  7  1  0  0  0  0
  6 17  1  0  0  0  0
  6 28  1  0  0  0  0
  7  8  1  0  0  0  0
  7 29  1  0  0  0  0
  8  9  2  0  0  0  0
  8 10  1  0  0  0  0
 10 11  1  0  0  0  0
 10 30  1  0  0  0  0
 11 16  1  0  0  0  0
 11 12  2  0  0  0  0
 12 13  1  0  0  0  0
 12 31  1  0  0  0  0
 13 14  2  0  0  0  0
 13 32  1  0  0  0  0
 14 15  1  0  0  0  0
 14 33  1  0  0  0  0
 15 16  2  0  0  0  0
 16 34  1  0  0  0  0
 17 18  1  0  0  0  0
 17 19  1  0  0  0  0
 18 35  1  0  0  0  0
 18 36  1  0  0  0  0
 18 37  1  0  0  0  0
 19 38  1  0  0  0  0
 19 39  1  0  0  0  0
 19 40  1  0  0  0  0
M  END
> <s_m_source_file>
AV-unprocessed.smi

> <i_m_source_file_index>
805

> <i_lp_mmshare_version>
43012

> <i_f3d_flags>
0

> <s_epik_input>
W0NIM11bQ0gyXU9bQ0BASF0oQzEoW0NIM10pW0NIM10pW0NIMl1bQ0BIXTFbTkhdQyg9TylbTkhdYzJbY0hdW2NIXVtjSF1uW2NIXTI=

> <s_epik_cmdline>
J2VwaWtfcHl0aG9uJywgJy1waCcsICc3LjAnLCAnLXRuJywgJzgnLCAnLW1hJywgJzIwMCcsICctbWV0YWxfYmluZGluZycsICctaW1hZScsICc8aW5maWxlLm1hZT4nLCAnLW9tYWUnLCAnPG91dGZpbGUubWFlPic=

> <r_epik_Ionization_Penalty>
0.00485231

> <r_epik_Ionization_Penalty_Charging>
0

> <r_epik_Ionization_Penalty_Neutral>
0.00485231

> <r_epik_State_Penalty>
0.00349213

> <r_epik_Charging_Adjusted_Penalty>
0.00349213

> <i_epik_Tot_Q>
0

> <i_epik_Tot_abs_Q>
0

> <r_epik_Metal_State_Penalty>
-0

> <b_epik_Metal_Only>
0

> <s_lp_Force_Field>
OPLS_2005

> <r_lp_Energy>
21.475

> <b_lp_Chiralities_Consistent>
1

> <s_lp_Variant>
AV-unprocessed.smi:805-2

> <Gold.Version>
5.8.1

> <Gold.Id.Protein>
6NUR|6NUR_protein|mol2

> <Gold.PLP.Fitness>
39.5923

> <Gold.PLP.PLP>
-30.1679

> <Gold.PLP.part.hbond>
-2.7492

> <Gold.PLP.part.metal>
0.0000

> <Gold.PLP.part.buried>
-1.2173

> <Gold.PLP.part.nonpolar>
-29.2437

> <Gold.PLP.part.repulsive>
2.3570

> <Gold.PLP.ligand.clash>
0.0000

> <Gold.PLP.ligand.torsion>
0.5031

> <Gold.PLP.Chemscore.Hbond>
2.3972

> <Gold.PLP.Chemscore.CHOScore>
0.9790

> <Gold.PLP.Chemscore.Metal>
0.0000

> <Gold.Chemscore.Hbonds>
donor molecule, donor type, donor heavy atom, donor atom, acceptor molecule, acceptor atom, score
      L1  H     7    29       P1  7948  1.00
      L1  H    10    30       P1  7948  0.99
      L1  C    16    34       P1 10747  0.38

> <Gold.PLP.Chemscore.Internal.Correction>
0.3021

> <Gold.Rescore>
     Score         DG    S(hbond)    S(metal)    S(lipo)     H(rot)  DE(clash)    DE(int)     intcor
     15.19     -18.54       2.02        0.00      83.59       1.36       1.47       1.89       ----

> <Gold.Chemscore.Fitness>
15.1882

> <Gold.Chemscore.DG>
-18.5435

> <Gold.Chemscore.ZeroCoef>
-5.4800

> <Gold.Chemscore.Hbond>
2.0218

> <Gold.Chemscore.Metal>
0.0000

> <Gold.Chemscore.Lipo>
83.5881

> <Gold.Chemscore.Internal_Hbond>
0.0000

> <Gold.Chemscore.DEClash>
1.4657

> <Gold.Chemscore.DEInternal>
1.8895

> <Gold.Chemscore.Rot>
1.3551

> <Gold.Chemscore.Internal.Correction>
   9.000000E+99

> <Gold.Chemscore.Hbonds>
donor molecule, donor type, donor heavy atom, donor atom, acceptor molecule, acceptor atom, score
      L1  H     7    29       P1  7948  0.99
      L1  H    10    30       P1  7948  0.79

> <Gold.Chemscore.Hbond.Weighted>
-6.7527

> <Gold.Chemscore.Metal.Weighted>
-0.0000

> <Gold.Chemscore.Lipo.Weighted>
-9.7798

> <Gold.Chemscore.Internal_Hbond.Weighted>
0.0000

> <Gold.Chemscore.DEClash.Weighted>
1.4657

> <Gold.Chemscore.DEInternal.Weighted>
1.8895

> <Gold.Chemscore.Rot.Weighted>
3.4691

> <Gold.Chemscore.Internal.Correction.Weighted>
   9.000000E+99

> <Gold.Protein.RotatedTorsions>
[ 6907 6896 6895 6894 ] final   -4.99 input  -60.11 | X-H torsion
[ 7974 7965 7964 7962 ] final  140.66 input  175.53 | X-H torsion
[ 8008 7997 7996 7995 ] final -134.34 input   59.86 | X-H torsion
[ 10167 10162 10161 10158 ] final -155.88 input  -65.29 | X-H torsion
[ 10718 10713 10712 10709 ] final   15.80 input   66.30 | X-H torsion
[ 10763 10752 10751 10750 ] final    6.39 input  -60.55 | X-H torsion
[ 11005 11000 10999 10996 ] final   51.51 input  -57.11 | X-H torsion

> <Gold.Protein.ActiveResidues>
 VAL166  LYS551  ARG553  GLY616  TRP617  ASP618  TYR619  PRO620  LYS621  CYS622 
 ASP623  PHE694  ASN695  SER759  ASP760  ASP761  ALA762  ILE779  LEU786  VAL792 
 PHE793  MET794  SER795  GLU796  ALA797  LYS798  CYS799  TRP800  GLU811  SER814 

> <Gold.Protein.RotatedAtoms>
  151.4888  135.1056  159.9797 H   0  0  0  0  0  0  0  0  0  0  0  0  # atno 6907 bound_to 6896
  152.4749  133.8111  159.7014 H   0  0  0  0  0  0  0  0  0  0  0  0  # atno 6908 bound_to 6896
  150.8781  133.7348  159.2966 H   0  0  0  0  0  0  0  0  0  0  0  0  # atno 6909 bound_to 6896
  144.9166  139.5222  143.5683 H   0  0  0  0  0  0  0  0  0  0  0  0  # atno 7974 bound_to 7965
  155.3605  140.0482  157.3046 H   0  0  0  0  0  0  0  0  0  0  0  0  # atno 8008 bound_to 7997
  154.5181  140.2215  155.8992 H   0  0  0  0  0  0  0  0  0  0  0  0  # atno 8009 bound_to 7997
  156.1658  140.3106  155.8893 H   0  0  0  0  0  0  0  0  0  0  0  0  # atno 8010 bound_to 7997
  139.6895  143.9445  152.2378 H   0  0  0  0  0  0  0  0  0  0  0  0  # atno 10167 bound_to 10162
  157.0587  130.6300  149.5782 H   0  0  0  0  0  0  0  0  0  0  0  0  # atno 10718 bound_to 10713
  153.2483  135.6911  153.7707 H   0  0  0  0  0  0  0  0  0  0  0  0  # atno 10763 bound_to 10752
  153.6811  135.3328  155.3179 H   0  0  0  0  0  0  0  0  0  0  0  0  # atno 10764 bound_to 10752
  154.8384  135.4522  154.1431 H   0  0  0  0  0  0  0  0  0  0  0  0  # atno 10765 bound_to 10752
  140.0926  134.5188  155.8837 H   0  0  0  0  0  0  0  0  0  0  0  0  # atno 11005 bound_to 11000
  146.3185  139.8014  142.8964 LP  0  0  0  0  0  0  0  0  0  0  0  0  # atno 17320 bound_to 7965
  145.3365  141.0278  143.3417 LP  0  0  0  0  0  0  0  0  0  0  0  0  # atno 17321 bound_to 7965
  139.9257  144.6772  150.8415 LP  0  0  0  0  0  0  0  0  0  0  0  0  # atno 17342 bound_to 10162
  140.7678  143.3344  151.2341 LP  0  0  0  0  0  0  0  0  0  0  0  0  # atno 17343 bound_to 10162
  155.9985  130.5059  150.7573 LP  0  0  0  0  0  0  0  0  0  0  0  0  # atno 17370 bound_to 10713
  157.4972  131.0916  151.0357 LP  0  0  0  0  0  0  0  0  0  0  0  0  # atno 17371 bound_to 10713
  141.2082  133.6672  156.6359 LP  0  0  0  0  0  0  0  0  0  0  0  0  # atno 17394 bound_to 11000
  140.3330  134.7912  157.4341 LP  0  0  0  0  0  0  0  0  0  0  0  0  # atno 17395 bound_to 11000

$$$$
