AV-unprocessed.smi:2278|AV-procd|sdf|9182|dock5
  -GOLD-   2272012403D 1   1.00000     0.00000
 Structure written by MMmdl.
 46 47  0  0  0  0  0  0  0  0  2 V2000
  145.2555  131.9347  149.7420 C   0  0  0  0  0  0  0  0  0  0  0  0
  145.2595  133.2935  150.4195 C   0  0  0  0  0  0  0  0  0  0  0  0
  144.4925  134.2819  149.7955 N   0  0  0  0  0  0  0  0  0  0  0  0
  144.4367  135.4704  150.3010 C   0  0  0  0  0  0  0  0  0  0  0  0
  145.1330  135.8062  151.4735 N   0  0  0  0  0  0  0  0  0  0  0  0
  145.0000  137.1965  151.9395 C   0  0  0  0  0  0  0  0  0  0  0  0
  146.3695  137.9035  152.0556 C   0  0  1  0  0  0  0  0  0  0  0  0
  146.7839  138.2875  150.7591 O   0  0  0  0  0  0  0  0  0  0  0  0
  146.2770  139.1863  152.9069 C   0  0  0  0  0  0  0  0  0  0  0  0
  147.6129  139.7565  153.2179 N   0  3  2  0  0  0  0  0  0  0  0  0
  148.4653  138.8478  154.0297 C   0  0  0  0  0  0  0  0  0  0  0  0
  149.8825  139.4230  154.2010 C   0  0  0  0  0  0  0  0  0  0  0  0
  149.8678  140.8366  154.8107 C   0  0  2  0  0  0  0  0  0  0  0  0
  149.5392  140.8329  156.3140 C   0  0  0  0  0  0  0  0  0  0  0  0
  148.9198  141.7354  153.9958 C   0  0  0  0  0  0  0  0  0  0  0  0
  147.5240  141.1088  153.8252 C   0  0  0  0  0  0  0  0  0  0  0  0
  145.9072  134.9036  152.1431 C   0  0  0  0  0  0  0  0  0  0  0  0
  146.5245  135.2154  153.1637 O   0  0  0  0  0  0  0  0  0  0  0  0
  145.9582  133.5543  151.5580 C   0  0  0  0  0  0  0  0  0  0  0  0
  146.8115  132.5196  152.2807 C   0  0  0  0  0  0  0  0  0  0  0  0
  144.8736  131.1703  150.4192 H   0  0  0  0  0  0  0  0  0  0  0  0
  146.2649  131.6577  149.4364 H   0  0  0  0  0  0  0  0  0  0  0  0
  144.6255  131.9364  148.8515 H   0  0  0  0  0  0  0  0  0  0  0  0
  143.8557  136.2772  149.8508 H   0  0  0  0  0  0  0  0  0  0  0  0
  144.3146  137.7800  151.3206 H   0  0  0  0  0  0  0  0  0  0  0  0
  144.5162  137.1748  152.9179 H   0  0  0  0  0  0  0  0  0  0  0  0
  147.1098  137.2246  152.4769 H   0  0  0  0  0  0  0  0  0  0  0  0
  146.3948  139.1241  150.5522 H   0  0  0  0  0  0  0  0  0  0  0  0
  145.6717  139.9175  152.3683 H   0  0  0  0  0  0  0  0  0  0  0  0
  145.7506  138.9909  153.8426 H   0  0  0  0  0  0  0  0  0  0  0  0
  148.0016  138.6813  155.0029 H   0  0  0  0  0  0  0  0  0  0  0  0
  148.5404  137.8710  153.5536 H   0  0  0  0  0  0  0  0  0  0  0  0
  150.4874  138.7534  154.8134 H   0  0  0  0  0  0  0  0  0  0  0  0
  150.3681  139.4600  153.2247 H   0  0  0  0  0  0  0  0  0  0  0  0
  150.8740  141.2470  154.7158 H   0  0  0  0  0  0  0  0  0  0  0  0
  148.5448  140.4367  156.5181 H   0  0  0  0  0  0  0  0  0  0  0  0
  149.5819  141.8419  156.7249 H   0  0  0  0  0  0  0  0  0  0  0  0
  150.2555  140.2254  156.8678 H   0  0  0  0  0  0  0  0  0  0  0  0
  148.8354  142.7174  154.4625 H   0  0  0  0  0  0  0  0  0  0  0  0
  149.3522  141.9070  153.0091 H   0  0  0  0  0  0  0  0  0  0  0  0
  146.9229  141.7577  153.1869 H   0  0  0  0  0  0  0  0  0  0  0  0
  147.0089  141.0482  154.7848 H   0  0  0  0  0  0  0  0  0  0  0  0
  147.8476  132.8559  152.3310 H   0  0  0  0  0  0  0  0  0  0  0  0
  146.8074  131.5447  151.7960 H   0  0  0  0  0  0  0  0  0  0  0  0
  146.4509  132.3807  153.3004 H   0  0  0  0  0  0  0  0  0  0  0  0
  148.0754  139.8804  152.3282 H   0  0  0  0  0  0  0  0  0  0  0  0
  1  2  1  0  0  0  0
  1 21  1  0  0  0  0
  1 22  1  0  0  0  0
  1 23  1  0  0  0  0
  2 19  2  0  0  0  0
  2  3  1  0  0  0  0
  3  4  2  0  0  0  0
  4  5  1  0  0  0  0
  4 24  1  0  0  0  0
  5  6  1  0  0  0  0
  5 17  1  0  0  0  0
  6  7  1  0  0  0  0
  6 25  1  0  0  0  0
  6 26  1  0  0  0  0
  7  8  1  0  0  0  0
  7  9  1  0  0  0  0
  7 27  1  0  0  0  0
  8 28  1  0  0  0  0
  9 10  1  0  0  0  0
  9 29  1  0  0  0  0
  9 30  1  0  0  0  0
 10 16  1  0  0  0  0
 10 11  1  0  0  0  0
 10 46  1  0  0  0  0
 11 12  1  0  0  0  0
 11 31  1  0  0  0  0
 11 32  1  0  0  0  0
 12 13  1  0  0  0  0
 12 33  1  0  0  0  0
 12 34  1  0  0  0  0
 13 14  1  0  0  0  0
 13 15  1  0  0  0  0
 13 35  1  0  0  0  0
 14 36  1  0  0  0  0
 14 37  1  0  0  0  0
 14 38  1  0  0  0  0
 15 16  1  0  0  0  0
 15 39  1  0  0  0  0
 15 40  1  0  0  0  0
 16 41  1  0  0  0  0
 16 42  1  0  0  0  0
 17 18  2  0  0  0  0
 17 19  1  0  0  0  0
 19 20  1  0  0  0  0
 20 43  1  0  0  0  0
 20 44  1  0  0  0  0
 20 45  1  0  0  0  0
M  CHG  1  10   1
M  END
> <s_m_source_file>
AV-unprocessed.smi

> <i_m_source_file_index>
2278

> <i_lp_mmshare_version>
43012

> <i_f3d_flags>
0

> <s_epik_input>
W0NIM11jMW5bY0hdbihjKD1PKWMxW0NIM10pW0NIMl1bQ0BIXShbT0hdKVtDSDJdTjJbQ0gyXVtDSDJdW0NIXShbQ0gzXSlbQ0gyXVtDSDJdMg==

> <s_epik_cmdline>
J2VwaWtfcHl0aG9uJywgJy1waCcsICc3LjAnLCAnLXRuJywgJzgnLCAnLW1hJywgJzIwMCcsICctbWV0YWxfYmluZGluZycsICctaW1hZScsICc8aW5maWxlLm1hZT4nLCAnLW9tYWUnLCAnPG91dGZpbGUubWFlPic=

> <r_lp_tautomer_probability>
1

> <r_epik_Ionization_Penalty>
0.00139489

> <r_epik_Ionization_Penalty_Charging>
0.00136819

> <r_epik_Ionization_Penalty_Neutral>
2.66975e-05

> <r_epik_State_Penalty>
0.000910892

> <r_epik_Charging_Adjusted_Penalty>
0.00227908

> <i_epik_Tot_Q>
1

> <i_epik_Tot_abs_Q>
1

> <r_epik_Metal_State_Penalty>
-0

> <b_epik_Metal_Only>
0

> <s_lp_Force_Field>
OPLS_2005

> <r_lp_Energy>
31.1112

> <b_lp_Chiralities_Consistent>
1

> <s_lp_Variant>
AV-unprocessed.smi:2278-4

> <Gold.Version>
5.8.1

> <Gold.Id.Protein>
6NUR|6NUR_protein|mol2

> <Gold.PLP.Fitness>
43.8593

> <Gold.PLP.PLP>
-35.2853

> <Gold.PLP.part.hbond>
-3.7033

> <Gold.PLP.part.metal>
0.0000

> <Gold.PLP.part.buried>
0.6667

> <Gold.PLP.part.nonpolar>
-34.6582

> <Gold.PLP.part.repulsive>
2.4059

> <Gold.PLP.ligand.clash>
0.0000

> <Gold.PLP.ligand.torsion>
0.2332

> <Gold.PLP.Chemscore.Hbond>
1.9913

> <Gold.PLP.Chemscore.CHOScore>
1.0000

> <Gold.PLP.Chemscore.Metal>
0.0000

> <Gold.Chemscore.Hbonds>
donor molecule, donor type, donor heavy atom, donor atom, acceptor molecule, acceptor atom, score
      L1  H    10    46       P1  7957  1.00
      P1  H  7954  7966       L1     8  1.00
      L1  C     4    24       P1 10171  1.00

> <Gold.PLP.Chemscore.Internal.Correction>
0.0667

> <Gold.Rescore>
     Score         DG    S(hbond)    S(metal)    S(lipo)     H(rot)  DE(clash)    DE(int)     intcor
     13.25     -15.72       1.66        0.00      88.36       2.20       1.16       1.31       ----

> <Gold.Chemscore.Fitness>
13.2458

> <Gold.Chemscore.DG>
-15.7218

> <Gold.Chemscore.ZeroCoef>
-5.4800

> <Gold.Chemscore.Hbond>
1.6562

> <Gold.Chemscore.Metal>
0.0000

> <Gold.Chemscore.Lipo>
88.3639

> <Gold.Chemscore.Internal_Hbond>
0.0000

> <Gold.Chemscore.DEClash>
1.1643

> <Gold.Chemscore.DEInternal>
1.3117

> <Gold.Chemscore.Rot>
2.1986

> <Gold.Chemscore.Internal.Correction>
   9.000000E+99

> <Gold.Chemscore.Hbonds>
donor molecule, donor type, donor heavy atom, donor atom, acceptor molecule, acceptor atom, score
      L1  H    10    46       P1  7957  0.98
      P1  H  7954  7966       L1     8  0.89

> <Gold.Chemscore.Hbond.Weighted>
-5.5317

> <Gold.Chemscore.Metal.Weighted>
-0.0000

> <Gold.Chemscore.Lipo.Weighted>
-10.3386

> <Gold.Chemscore.Internal_Hbond.Weighted>
0.0000

> <Gold.Chemscore.DEClash.Weighted>
1.1643

> <Gold.Chemscore.DEInternal.Weighted>
1.3117

> <Gold.Chemscore.Rot.Weighted>
5.6285

> <Gold.Chemscore.Internal.Correction.Weighted>
   9.000000E+99

> <Gold.Protein.RotatedTorsions>
[ 6907 6896 6895 6894 ] final   63.49 input  -60.11 | X-H torsion
[ 7974 7965 7964 7962 ] final  -83.31 input  175.53 | X-H torsion
[ 8008 7997 7996 7995 ] final -174.44 input   59.86 | X-H torsion
[ 10167 10162 10161 10158 ] final    6.92 input  -65.29 | X-H torsion
[ 10718 10713 10712 10709 ] final  -93.70 input   66.30 | X-H torsion
[ 10763 10752 10751 10750 ] final -115.24 input  -60.55 | X-H torsion
[ 11005 11000 10999 10996 ] final  113.84 input  -57.11 | X-H torsion

> <Gold.Protein.ActiveResidues>
 VAL166  LYS551  ARG553  GLY616  TRP617  ASP618  TYR619  PRO620  LYS621  CYS622 
 ASP623  PHE694  ASN695  SER759  ASP760  ASP761  ALA762  ILE779  LEU786  VAL792 
 PHE793  MET794  SER795  GLU796  ALA797  LYS798  CYS799  TRP800  GLU811  SER814 

> <Gold.Protein.RotatedAtoms>
  152.4257  134.5873  159.9964 H   0  0  0  0  0  0  0  0  0  0  0  0  # atno 6907 bound_to 6896
  151.6010  133.3351  159.3055 H   0  0  0  0  0  0  0  0  0  0  0  0  # atno 6908 bound_to 6896
  150.8146  134.7358  159.6784 H   0  0  0  0  0  0  0  0  0  0  0  0  # atno 6909 bound_to 6896
  145.5217  140.9530  143.1651 H   0  0  0  0  0  0  0  0  0  0  0  0  # atno 7974 bound_to 7965
  155.9702  140.1161  157.0819 H   0  0  0  0  0  0  0  0  0  0  0  0  # atno 8008 bound_to 7997
  154.4154  140.1165  156.5363 H   0  0  0  0  0  0  0  0  0  0  0  0  # atno 8009 bound_to 7997
  155.6607  140.3473  155.4784 H   0  0  0  0  0  0  0  0  0  0  0  0  # atno 8010 bound_to 7997
  140.6401  143.7794  150.7415 H   0  0  0  0  0  0  0  0  0  0  0  0  # atno 10167 bound_to 10162
  156.0017  130.5038  150.5816 H   0  0  0  0  0  0  0  0  0  0  0  0  # atno 10718 bound_to 10713
  154.8473  135.4389  154.1631 H   0  0  0  0  0  0  0  0  0  0  0  0  # atno 10763 bound_to 10752
  153.2763  135.6949  153.7436 H   0  0  0  0  0  0  0  0  0  0  0  0  # atno 10764 bound_to 10752
  153.6657  135.3427  155.3114 H   0  0  0  0  0  0  0  0  0  0  0  0  # atno 10765 bound_to 10752
  139.8964  134.9557  156.6800 H   0  0  0  0  0  0  0  0  0  0  0  0  # atno 11005 bound_to 11000
  144.7672  139.6817  143.7210 LP  0  0  0  0  0  0  0  0  0  0  0  0  # atno 17320 bound_to 7965
  146.2102  139.5452  142.9686 LP  0  0  0  0  0  0  0  0  0  0  0  0  # atno 17321 bound_to 7965
  140.1424  143.4429  152.2185 LP  0  0  0  0  0  0  0  0  0  0  0  0  # atno 17342 bound_to 10162
  139.5610  144.7405  151.4155 LP  0  0  0  0  0  0  0  0  0  0  0  0  # atno 17343 bound_to 10162
  157.3695  131.0763  151.1569 LP  0  0  0  0  0  0  0  0  0  0  0  0  # atno 17370 bound_to 10713
  157.2328  130.6533  149.5856 LP  0  0  0  0  0  0  0  0  0  0  0  0  # atno 17371 bound_to 10713
  140.7306  133.9062  155.8209 LP  0  0  0  0  0  0  0  0  0  0  0  0  # atno 17394 bound_to 11000
  141.0156  134.0960  157.4176 LP  0  0  0  0  0  0  0  0  0  0  0  0  # atno 17395 bound_to 11000

$$$$
