AV-unprocessed.smi:219|AV-procd|sdf|1679|dock4
  -GOLD-   2262020113D 1   1.00000     0.00000
 Structure written by MMmdl.
 50 53  0  0  0  0  0  0  0  0  1 V2000
  150.5869  137.1422  153.6677 N   0  0  0  0  0  0  0  0  0  0  0  0
  151.0028  137.3180  154.9243 C   0  0  0  0  0  0  0  0  0  0  0  0
  152.1726  137.1431  155.2589 O   0  0  0  0  0  0  0  0  0  0  0  0
  149.9439  137.7141  155.9601 C   0  0  0  0  0  0  0  0  0  0  0  0
  149.1853  139.0397  155.6560 C   0  0  1  0  0  0  0  0  0  0  0  0
  150.2223  140.1575  155.3968 C   0  0  0  0  0  0  0  0  0  0  0  0
  149.5597  141.4984  155.0567 C   0  0  0  0  0  0  0  0  0  0  0  0
  148.6139  141.3210  153.8653 C   0  0  0  0  0  0  0  0  0  0  0  0
  147.5865  140.2225  154.1665 C   0  0  0  0  0  0  0  0  0  0  0  0
  148.2399  138.9614  154.5247 N   0  0  0  0  0  0  0  0  0  0  0  0
  147.3425  137.9509  154.5662 C   0  0  0  0  0  0  0  0  0  0  0  0
  147.1842  137.2286  155.7074 N   0  0  0  0  0  0  0  0  0  0  0  0
  146.3093  136.2188  155.7388 C   0  0  0  0  0  0  0  0  0  0  0  0
  145.5133  135.7725  154.7645 N   0  0  0  0  0  0  0  0  0  0  0  0
  145.6761  136.4952  153.6188 C   0  0  0  0  0  0  0  0  0  0  0  0
  146.5561  137.5982  153.4390 C   0  0  0  0  0  0  0  0  0  0  0  0
  146.4498  138.0910  152.1454 N   0  0  0  0  0  0  0  0  0  0  0  0
  145.5581  137.3178  151.5880 C   0  0  0  0  0  0  0  0  0  0  0  0
  145.0504  136.3244  152.3960 N   0  0  0  0  0  0  0  0  0  0  0  0
  144.0573  135.3251  152.0323 C   0  0  0  0  0  0  0  0  0  0  0  0
  144.5960  133.8743  152.0523 C   0  0  1  0  0  0  0  0  0  0  0  0
  144.7830  133.4646  153.3958 O   0  0  0  0  0  0  0  0  0  0  0  0
  143.6490  132.8863  151.3811 C   0  0  0  0  0  0  0  0  0  0  0  0
  144.5952  131.8221  150.8423 C   0  0  0  0  0  0  0  0  0  0  0  0
  145.6944  132.5872  150.3792 O   0  0  0  0  0  0  0  0  0  0  0  0
  145.9203  133.6607  151.2881 C   0  0  0  0  0  0  0  0  0  0  0  0
  151.2515  136.8859  152.9521 H   0  0  0  0  0  0  0  0  0  0  0  0
  149.6128  137.2705  153.4354 H   0  0  0  0  0  0  0  0  0  0  0  0
  149.2358  136.8852  155.9977 H   0  0  0  0  0  0  0  0  0  0  0  0
  150.3941  137.7551  156.9531 H   0  0  0  0  0  0  0  0  0  0  0  0
  148.6110  139.3267  156.5385 H   0  0  0  0  0  0  0  0  0  0  0  0
  150.8621  140.2859  156.2707 H   0  0  0  0  0  0  0  0  0  0  0  0
  150.8778  139.8635  154.5754 H   0  0  0  0  0  0  0  0  0  0  0  0
  149.0040  141.8664  155.9201 H   0  0  0  0  0  0  0  0  0  0  0  0
  150.3183  142.2474  154.8283 H   0  0  0  0  0  0  0  0  0  0  0  0
  148.1053  142.2598  153.6457 H   0  0  0  0  0  0  0  0  0  0  0  0
  149.1853  141.0581  152.9740 H   0  0  0  0  0  0  0  0  0  0  0  0
  146.9403  140.5456  154.9843 H   0  0  0  0  0  0  0  0  0  0  0  0
  146.9467  140.0743  153.2950 H   0  0  0  0  0  0  0  0  0  0  0  0
  146.2398  135.6894  156.6775 H   0  0  0  0  0  0  0  0  0  0  0  0
  145.2480  137.4505  150.5618 H   0  0  0  0  0  0  0  0  0  0  0  0
  143.2098  135.4209  152.7123 H   0  0  0  0  0  0  0  0  0  0  0  0
  143.6801  135.5708  151.0388 H   0  0  0  0  0  0  0  0  0  0  0  0
  144.0295  132.9619  153.6645 H   0  0  0  0  0  0  0  0  0  0  0  0
  142.8860  132.4842  152.0492 H   0  0  0  0  0  0  0  0  0  0  0  0
  143.1377  133.3615  150.5427 H   0  0  0  0  0  0  0  0  0  0  0  0
  144.9230  131.1491  151.6362 H   0  0  0  0  0  0  0  0  0  0  0  0
  144.1530  131.2272  150.0431 H   0  0  0  0  0  0  0  0  0  0  0  0
  146.2159  134.5363  150.7113 H   0  0  0  0  0  0  0  0  0  0  0  0
  146.7474  133.4159  151.9566 H   0  0  0  0  0  0  0  0  0  0  0  0
  1  2  1  0  0  0  0
  1 27  1  0  0  0  0
  1 28  1  0  0  0  0
  2  3  2  0  0  0  0
  2  4  1  0  0  0  0
  4  5  1  0  0  0  0
  4 29  1  0  0  0  0
  4 30  1  0  0  0  0
  5 10  1  0  0  0  0
  5  6  1  0  0  0  0
  5 31  1  0  0  0  0
  6  7  1  0  0  0  0
  6 32  1  0  0  0  0
  6 33  1  0  0  0  0
  7  8  1  0  0  0  0
  7 34  1  0  0  0  0
  7 35  1  0  0  0  0
  8  9  1  0  0  0  0
  8 36  1  0  0  0  0
  8 37  1  0  0  0  0
  9 10  1  0  0  0  0
  9 38  1  0  0  0  0
  9 39  1  0  0  0  0
 10 11  1  0  0  0  0
 11 16  1  0  0  0  0
 11 12  2  0  0  0  0
 12 13  1  0  0  0  0
 13 14  2  0  0  0  0
 13 40  1  0  0  0  0
 14 15  1  0  0  0  0
 15 19  1  0  0  0  0
 15 16  2  0  0  0  0
 16 17  1  0  0  0  0
 17 18  2  0  0  0  0
 18 19  1  0  0  0  0
 18 41  1  0  0  0  0
 19 20  1  0  0  0  0
 20 21  1  0  0  0  0
 20 42  1  0  0  0  0
 20 43  1  0  0  0  0
 21 26  1  0  0  0  0
 21 22  1  0  0  0  0
 21 23  1  0  0  0  0
 22 44  1  0  0  0  0
 23 24  1  0  0  0  0
 23 45  1  0  0  0  0
 23 46  1  0  0  0  0
 24 25  1  0  0  0  0
 24 47  1  0  0  0  0
 24 48  1  0  0  0  0
 25 26  1  0  0  0  0
 26 49  1  0  0  0  0
 26 50  1  0  0  0  0
M  END
> <s_m_source_file>
AV-unprocessed.smi

> <i_m_source_file_index>
219

> <i_lp_mmshare_version>
43012

> <i_f3d_flags>
0

> <s_epik_input>
W05IMl1DKD1PKVtDSDJdW0NAQEhdMVtDSDJdW0NIMl1bQ0gyXVtDSDJdTjFjKG5bY0hdbjIpYyhjMjMpbltjSF1uM1tDSDJdW0NAQF00KFtPSF0pW0NIMl1bQ0gyXU9bQ0gyXTQ=

> <s_epik_cmdline>
J2VwaWtfcHl0aG9uJywgJy1waCcsICc3LjAnLCAnLXRuJywgJzgnLCAnLW1hJywgJzIwMCcsICctbWV0YWxfYmluZGluZycsICctaW1hZScsICc8aW5maWxlLm1hZT4nLCAnLW9tYWUnLCAnPG91dGZpbGUubWFlPic=

> <r_lp_tautomer_probability>
1

> <r_epik_Ionization_Penalty>
0.00228532

> <r_epik_Ionization_Penalty_Charging>
0

> <r_epik_Ionization_Penalty_Neutral>
0.00228532

> <r_epik_State_Penalty>
0.00140978

> <r_epik_Charging_Adjusted_Penalty>
0.00140978

> <i_epik_Tot_Q>
0

> <i_epik_Tot_abs_Q>
0

> <r_epik_Metal_State_Penalty>
-0

> <b_epik_Metal_Only>
0

> <s_lp_Force_Field>
OPLS_2005

> <r_lp_Energy>
37.1625

> <b_lp_Chiralities_Consistent>
1

> <s_lp_Variant>
AV-unprocessed.smi:219-2

> <Gold.Version>
5.8.1

> <Gold.Id.Protein>
6NUR|6NUR_protein|mol2

> <Gold.PLP.Fitness>
40.4975

> <Gold.PLP.PLP>
-28.9887

> <Gold.PLP.part.hbond>
-4.0000

> <Gold.PLP.part.metal>
0.0000

> <Gold.PLP.part.buried>
-2.7147

> <Gold.PLP.part.nonpolar>
-24.0197

> <Gold.PLP.part.repulsive>
1.0719

> <Gold.PLP.ligand.clash>
0.0000

> <Gold.PLP.ligand.torsion>
0.3183

> <Gold.PLP.Chemscore.Hbond>
2.9689

> <Gold.PLP.Chemscore.CHOScore>
0.9845

> <Gold.PLP.Chemscore.Metal>
0.0000

> <Gold.Chemscore.Hbonds>
donor molecule, donor type, donor heavy atom, donor atom, acceptor molecule, acceptor atom, score
      L1  H     1    27       P1  7949  0.70
      L1  H     1    28       P1  7948  0.29
      L1  H    22    44       P1 10957  0.76
      P1  H 10752 10765       L1     3  0.86
      L1  C    18    41       P1 10171  0.75

> <Gold.PLP.Chemscore.Internal.Correction>
0.2854

> <Gold.Rescore>
     Score         DG    S(hbond)    S(metal)    S(lipo)     H(rot)  DE(clash)    DE(int)     intcor
     10.28     -12.42       2.51        0.00      61.26       3.37       0.35       1.79       ----

> <Gold.Chemscore.Fitness>
10.2757

> <Gold.Chemscore.DG>
-12.4156

> <Gold.Chemscore.ZeroCoef>
-5.4800

> <Gold.Chemscore.Hbond>
2.5134

> <Gold.Chemscore.Metal>
0.0000

> <Gold.Chemscore.Lipo>
61.2584

> <Gold.Chemscore.Internal_Hbond>
0.0000

> <Gold.Chemscore.DEClash>
0.3492

> <Gold.Chemscore.DEInternal>
1.7907

> <Gold.Chemscore.Rot>
3.3697

> <Gold.Chemscore.Internal.Correction>
   9.000000E+99

> <Gold.Chemscore.Hbonds>
donor molecule, donor type, donor heavy atom, donor atom, acceptor molecule, acceptor atom, score
      L1  H     1    27       P1  7949  0.46
      L1  H     1    28       P1  7948  0.23
      L1  H    22    44       P1 10957  0.64
      P1  H 10752 10765       L1     3  0.81

> <Gold.Chemscore.Hbond.Weighted>
-8.3948

> <Gold.Chemscore.Metal.Weighted>
-0.0000

> <Gold.Chemscore.Lipo.Weighted>
-7.1672

> <Gold.Chemscore.Internal_Hbond.Weighted>
0.0000

> <Gold.Chemscore.DEClash.Weighted>
0.3492

> <Gold.Chemscore.DEInternal.Weighted>
1.7907

> <Gold.Chemscore.Rot.Weighted>
8.6264

> <Gold.Chemscore.Internal.Correction.Weighted>
   9.000000E+99

> <Gold.Protein.RotatedTorsions>
[ 6907 6896 6895 6894 ] final -143.09 input  -60.11 | X-H torsion
[ 7974 7965 7964 7962 ] final   96.38 input  175.53 | X-H torsion
[ 8008 7997 7996 7995 ] final  -54.19 input   59.86 | X-H torsion
[ 10167 10162 10161 10158 ] final   46.23 input  -65.29 | X-H torsion
[ 10718 10713 10712 10709 ] final  127.61 input   66.30 | X-H torsion
[ 10763 10752 10751 10750 ] final -172.97 input  -60.55 | X-H torsion
[ 11005 11000 10999 10996 ] final  -29.16 input  -57.11 | X-H torsion

> <Gold.Protein.ActiveResidues>
 VAL166  LYS551  ARG553  GLY616  TRP617  ASP618  TYR619  PRO620  LYS621  CYS622 
 ASP623  PHE694  ASN695  SER759  ASP760  ASP761  ALA762  ILE779  LEU786  VAL792 
 PHE793  MET794  SER795  GLU796  ALA797  LYS798  CYS799  TRP800  GLU811  SER814 

> <Gold.Protein.RotatedAtoms>
  151.0958  133.5281  159.2612 H   0  0  0  0  0  0  0  0  0  0  0  0  # atno 6907 bound_to 6896
  151.2130  135.0488  159.8929 H   0  0  0  0  0  0  0  0  0  0  0  0  # atno 6908 bound_to 6896
  152.5438  134.0771  159.8273 H   0  0  0  0  0  0  0  0  0  0  0  0  # atno 6909 bound_to 6896
  145.4396  139.2302  143.3099 H   0  0  0  0  0  0  0  0  0  0  0  0  # atno 7974 bound_to 7965
  154.4155  140.1182  156.5276 H   0  0  0  0  0  0  0  0  0  0  0  0  # atno 8008 bound_to 7997
  155.6639  140.3496  155.4773 H   0  0  0  0  0  0  0  0  0  0  0  0  # atno 8009 bound_to 7997
  155.9690  140.1137  157.0819 H   0  0  0  0  0  0  0  0  0  0  0  0  # atno 8010 bound_to 7997
  140.3160  144.2763  150.6191 H   0  0  0  0  0  0  0  0  0  0  0  0  # atno 10167 bound_to 10162
  157.5318  131.1098  150.8997 H   0  0  0  0  0  0  0  0  0  0  0  0  # atno 10718 bound_to 10713
  154.6132  135.2867  155.0409 H   0  0  0  0  0  0  0  0  0  0  0  0  # atno 10763 bound_to 10752
  154.1631  135.6485  153.4994 H   0  0  0  0  0  0  0  0  0  0  0  0  # atno 10764 bound_to 10752
  153.0204  135.5383  154.6894 H   0  0  0  0  0  0  0  0  0  0  0  0  # atno 10765 bound_to 10752
  140.9272  133.7361  156.0885 H   0  0  0  0  0  0  0  0  0  0  0  0  # atno 11005 bound_to 11000
  146.2563  140.5143  142.8872 LP  0  0  0  0  0  0  0  0  0  0  0  0  # atno 17320 bound_to 7965
  144.8130  140.6419  143.6403 LP  0  0  0  0  0  0  0  0  0  0  0  0  # atno 17321 bound_to 7965
  140.5526  143.2204  151.7902 LP  0  0  0  0  0  0  0  0  0  0  0  0  # atno 17342 bound_to 10162
  139.4884  144.4456  151.9713 LP  0  0  0  0  0  0  0  0  0  0  0  0  # atno 17343 bound_to 10162
  156.9576  130.5443  149.5284 LP  0  0  0  0  0  0  0  0  0  0  0  0  # atno 17370 bound_to 10713
  156.0428  130.5508  150.8811 LP  0  0  0  0  0  0  0  0  0  0  0  0  # atno 17371 bound_to 10713
  140.7910  134.3617  157.5464 LP  0  0  0  0  0  0  0  0  0  0  0  0  # atno 17394 bound_to 11000
  139.8788  134.9140  156.3097 LP  0  0  0  0  0  0  0  0  0  0  0  0  # atno 17395 bound_to 11000

$$$$
