AV-unprocessed.smi:895|AV-procd|sdf|4074|dock1
  -GOLD-   22720 1563D 1   1.00000     0.00000
 Structure written by MMmdl.
 44 45  0  0  0  0  0  0  0  0  1 V2000
  143.0306  136.7778  153.1750 C   0  0  0  0  0  0  0  0  0  0  0  0
  144.5412  136.7823  152.8705 C   0  0  0  0  0  0  0  0  0  0  0  0
  144.8324  135.9832  151.5892 C   0  0  0  0  0  0  0  0  0  0  0  0
  144.9373  138.1139  152.6064 O   0  0  0  0  0  0  0  0  0  0  0  0
  145.4048  136.2502  154.0366 C   0  0  0  0  0  0  0  0  0  0  0  0
  146.8061  136.6327  153.9106 N   0  0  0  0  0  0  0  0  0  0  0  0
  147.4923  137.3086  154.8396 C   0  0  0  0  0  0  0  0  0  0  0  0
  147.0155  137.6848  155.9105 O   0  0  0  0  0  0  0  0  0  0  0  0
  148.7584  137.5242  154.4593 N   0  0  0  0  0  0  0  0  0  0  0  0
  149.7743  138.2299  155.2388 C   0  0  1  0  0  0  0  0  0  0  0  0
  150.9694  138.6297  154.3469 C   0  0  0  0  0  0  0  0  0  0  0  0
  152.0320  139.3969  155.1486 C   0  0  0  0  0  0  0  0  0  0  0  0
  151.4363  140.6316  155.8417 C   0  0  0  0  0  0  0  0  0  0  0  0
  150.2377  140.2537  156.7322 C   0  0  0  0  0  0  0  0  0  0  0  0
  149.1513  139.4325  155.9988 C   0  0  1  0  0  0  0  0  0  0  0  0
  148.2693  140.2668  155.1790 N   0  0  0  0  0  0  0  0  0  0  0  0
  148.6424  141.1621  154.1962 C   0  0  0  0  0  0  0  0  0  0  0  0
  147.5056  141.7313  153.6986 C   0  0  0  0  0  0  0  0  0  0  0  0
  146.4667  141.1147  154.4475 C   0  0  0  0  0  0  0  0  0  0  0  0
  146.9255  140.2434  155.3298 N   0  0  0  0  0  0  0  0  0  0  0  0
  142.6842  135.7744  153.4242 H   0  0  0  0  0  0  0  0  0  0  0  0
  142.4540  137.1200  152.3150 H   0  0  0  0  0  0  0  0  0  0  0  0
  142.7788  137.4324  154.0099 H   0  0  0  0  0  0  0  0  0  0  0  0
  144.5453  134.9375  151.7044 H   0  0  0  0  0  0  0  0  0  0  0  0
  145.8932  136.0062  151.3367 H   0  0  0  0  0  0  0  0  0  0  0  0
  144.2816  136.3817  150.7361 H   0  0  0  0  0  0  0  0  0  0  0  0
  144.1995  138.6835  152.7627 H   0  0  0  0  0  0  0  0  0  0  0  0
  145.0316  136.6574  154.9779 H   0  0  0  0  0  0  0  0  0  0  0  0
  145.3226  135.1643  154.1128 H   0  0  0  0  0  0  0  0  0  0  0  0
  147.2807  136.3588  153.0629 H   0  0  0  0  0  0  0  0  0  0  0  0
  149.0499  137.1664  153.5614 H   0  0  0  0  0  0  0  0  0  0  0  0
  150.1560  137.5470  156.0006 H   0  0  0  0  0  0  0  0  0  0  0  0
  151.4230  137.7375  153.9139 H   0  0  0  0  0  0  0  0  0  0  0  0
  150.6365  139.2342  153.5036 H   0  0  0  0  0  0  0  0  0  0  0  0
  152.4688  138.7355  155.8977 H   0  0  0  0  0  0  0  0  0  0  0  0
  152.8473  139.6979  154.4902 H   0  0  0  0  0  0  0  0  0  0  0  0
  152.2025  141.1151  156.4483 H   0  0  0  0  0  0  0  0  0  0  0  0
  151.1410  141.3674  155.0947 H   0  0  0  0  0  0  0  0  0  0  0  0
  150.6091  139.6635  157.5708 H   0  0  0  0  0  0  0  0  0  0  0  0
  149.8000  141.1511  157.1709 H   0  0  0  0  0  0  0  0  0  0  0  0
  148.5107  139.0107  156.7751 H   0  0  0  0  0  0  0  0  0  0  0  0
  149.6785  141.3212  153.9357 H   0  0  0  0  0  0  0  0  0  0  0  0
  147.4286  142.4748  152.9195 H   0  0  0  0  0  0  0  0  0  0  0  0
  145.4007  141.2739  154.3781 H   0  0  0  0  0  0  0  0  0  0  0  0
  1  2  1  0  0  0  0
  1 21  1  0  0  0  0
  1 22  1  0  0  0  0
  1 23  1  0  0  0  0
  2  3  1  0  0  0  0
  2  4  1  0  0  0  0
  2  5  1  0  0  0  0
  3 24  1  0  0  0  0
  3 25  1  0  0  0  0
  3 26  1  0  0  0  0
  4 27  1  0  0  0  0
  5  6  1  0  0  0  0
  5 28  1  0  0  0  0
  5 29  1  0  0  0  0
  6  7  1  0  0  0  0
  6 30  1  0  0  0  0
  7  8  2  0  0  0  0
  7  9  1  0  0  0  0
  9 10  1  0  0  0  0
  9 31  1  0  0  0  0
 10 15  1  0  0  0  0
 10 11  1  0  0  0  0
 10 32  1  0  0  0  0
 11 12  1  0  0  0  0
 11 33  1  0  0  0  0
 11 34  1  0  0  0  0
 12 13  1  0  0  0  0
 12 35  1  0  0  0  0
 12 36  1  0  0  0  0
 13 14  1  0  0  0  0
 13 37  1  0  0  0  0
 13 38  1  0  0  0  0
 14 15  1  0  0  0  0
 14 39  1  0  0  0  0
 14 40  1  0  0  0  0
 15 16  1  0  0  0  0
 15 41  1  0  0  0  0
 16 20  1  0  0  0  0
 16 17  1  0  0  0  0
 17 18  2  0  0  0  0
 17 42  1  0  0  0  0
 18 19  1  0  0  0  0
 18 43  1  0  0  0  0
 19 20  2  0  0  0  0
 19 44  1  0  0  0  0
M  END
> <s_m_source_file>
AV-unprocessed.smi

> <i_m_source_file_index>
895

> <i_lp_mmshare_version>
43012

> <i_f3d_flags>
0

> <s_epik_input>
W0NIM11DKFtDSDNdKShbT0hdKVtDSDJdW05IXUMoPU8pW05IXVtDQEBIXTFbQ0gyXVtDSDJdW0NIMl1bQ0gyXVtDQEhdMW4yW2NIXVtjSF1bY0hdbjI=

> <s_epik_cmdline>
J2VwaWtfcHl0aG9uJywgJy1waCcsICc3LjAnLCAnLXRuJywgJzgnLCAnLW1hJywgJzIwMCcsICctbWV0YWxfYmluZGluZycsICctaW1hZScsICc8aW5maWxlLm1hZT4nLCAnLW9tYWUnLCAnPG91dGZpbGUubWFlPic=

> <r_lp_tautomer_probability>
1

> <r_epik_Ionization_Penalty>
0.000440451

> <r_epik_Ionization_Penalty_Charging>
0

> <r_epik_Ionization_Penalty_Neutral>
0.000440451

> <r_epik_State_Penalty>
-0

> <r_epik_Charging_Adjusted_Penalty>
0

> <i_epik_Tot_Q>
0

> <i_epik_Tot_abs_Q>
0

> <r_epik_Metal_State_Penalty>
-0

> <b_epik_Metal_Only>
0

> <s_lp_Force_Field>
OPLS_2005

> <r_lp_Energy>
15.0391

> <b_lp_Chiralities_Consistent>
1

> <s_lp_Variant>
AV-unprocessed.smi:895-2

> <Gold.Version>
5.8.1

> <Gold.Id.Protein>
6NUR|6NUR_protein|mol2

> <Gold.PLP.Fitness>
41.9890

> <Gold.PLP.PLP>
-31.2854

> <Gold.PLP.part.hbond>
-4.0000

> <Gold.PLP.part.metal>
0.0000

> <Gold.PLP.part.buried>
-4.4907

> <Gold.PLP.part.nonpolar>
-23.4663

> <Gold.PLP.part.repulsive>
0.0688

> <Gold.PLP.ligand.clash>
0.0000

> <Gold.PLP.ligand.torsion>
0.6530

> <Gold.PLP.Chemscore.Hbond>
2.9680

> <Gold.PLP.Chemscore.CHOScore>
1.0000

> <Gold.PLP.Chemscore.Metal>
0.0000

> <Gold.Chemscore.Hbonds>
donor molecule, donor type, donor heavy atom, donor atom, acceptor molecule, acceptor atom, score
      L1  H     4    27       P1 10175  0.82
      L1  H     6    30       P1  7948  0.93
      L1  H     9    31       P1  7948  1.00
      L1  C    19    44       P1 10175  0.65

> <Gold.PLP.Chemscore.Internal.Correction>
0.1057

> <Gold.Rescore>
     Score         DG    S(hbond)    S(metal)    S(lipo)     H(rot)  DE(clash)    DE(int)     intcor
     13.24     -16.11       2.40        0.00      70.27       2.19       0.02       2.84       ----

> <Gold.Chemscore.Fitness>
13.2448

> <Gold.Chemscore.DG>
-16.1054

> <Gold.Chemscore.ZeroCoef>
-5.4800

> <Gold.Chemscore.Hbond>
2.3997

> <Gold.Chemscore.Metal>
0.0000

> <Gold.Chemscore.Lipo>
70.2716

> <Gold.Chemscore.Internal_Hbond>
0.0000

> <Gold.Chemscore.DEClash>
0.0195

> <Gold.Chemscore.DEInternal>
2.8410

> <Gold.Chemscore.Rot>
2.1919

> <Gold.Chemscore.Internal.Correction>
   9.000000E+99

> <Gold.Chemscore.Hbonds>
donor molecule, donor type, donor heavy atom, donor atom, acceptor molecule, acceptor atom, score
      L1  H     4    27       P1 10175  0.80
      L1  H     6    30       P1  7948  0.86
      L1  H     9    31       P1  7948  0.99

> <Gold.Chemscore.Hbond.Weighted>
-8.0149

> <Gold.Chemscore.Metal.Weighted>
-0.0000

> <Gold.Chemscore.Lipo.Weighted>
-8.2218

> <Gold.Chemscore.Internal_Hbond.Weighted>
0.0000

> <Gold.Chemscore.DEClash.Weighted>
0.0195

> <Gold.Chemscore.DEInternal.Weighted>
2.8410

> <Gold.Chemscore.Rot.Weighted>
5.6113

> <Gold.Chemscore.Internal.Correction.Weighted>
   9.000000E+99

> <Gold.Protein.RotatedTorsions>
[ 6907 6896 6895 6894 ] final   44.59 input  -60.11 | X-H torsion
[ 7974 7965 7964 7962 ] final  -12.57 input  175.53 | X-H torsion
[ 8008 7997 7996 7995 ] final  -69.87 input   59.86 | X-H torsion
[ 10167 10162 10161 10158 ] final   -5.81 input  -65.29 | X-H torsion
[ 10718 10713 10712 10709 ] final   72.23 input   66.30 | X-H torsion
[ 10763 10752 10751 10750 ] final -142.92 input  -60.55 | X-H torsion
[ 11005 11000 10999 10996 ] final -175.16 input  -57.11 | X-H torsion

> <Gold.Protein.ActiveResidues>
 VAL166  LYS551  ARG553  GLY616  TRP617  ASP618  TYR619  PRO620  LYS621  CYS622 
 ASP623  PHE694  ASN695  SER759  ASP760  ASP761  ALA762  ILE779  LEU786  VAL792 
 PHE793  MET794  SER795  GLU796  ALA797  LYS798  CYS799  TRP800  GLU811  SER814 

> <Gold.Protein.RotatedAtoms>
  152.2344  134.8290  160.0468 H   0  0  0  0  0  0  0  0  0  0  0  0  # atno 6907 bound_to 6896
  151.9027  133.3537  159.3844 H   0  0  0  0  0  0  0  0  0  0  0  0  # atno 6908 bound_to 6896
  150.7035  134.4737  159.5481 H   0  0  0  0  0  0  0  0  0  0  0  0  # atno 6909 bound_to 6896
  146.2147  140.3076  142.8380 H   0  0  0  0  0  0  0  0  0  0  0  0  # atno 7974 bound_to 7965
  154.4970  140.0845  156.7717 H   0  0  0  0  0  0  0  0  0  0  0  0  # atno 8008 bound_to 7997
  155.4093  140.3441  155.4244 H   0  0  0  0  0  0  0  0  0  0  0  0  # atno 8009 bound_to 7997
  156.1406  140.1528  156.8913 H   0  0  0  0  0  0  0  0  0  0  0  0  # atno 8010 bound_to 7997
  140.6976  143.6266  150.8562 H   0  0  0  0  0  0  0  0  0  0  0  0  # atno 10167 bound_to 10162
  157.6491  130.9568  150.0900 H   0  0  0  0  0  0  0  0  0  0  0  0  # atno 10718 bound_to 10713
  154.8490  135.3482  154.6105 H   0  0  0  0  0  0  0  0  0  0  0  0  # atno 10763 bound_to 10752
  153.6713  135.6985  153.5151 H   0  0  0  0  0  0  0  0  0  0  0  0  # atno 10764 bound_to 10752
  153.2740  135.4284  155.0972 H   0  0  0  0  0  0  0  0  0  0  0  0  # atno 10765 bound_to 10752
  140.4665  134.6206  157.4864 H   0  0  0  0  0  0  0  0  0  0  0  0  # atno 11005 bound_to 11000
  144.9011  140.7644  143.5866 LP  0  0  0  0  0  0  0  0  0  0  0  0  # atno 17320 bound_to 7965
  145.3003  139.1853  143.4693 LP  0  0  0  0  0  0  0  0  0  0  0  0  # atno 17321 bound_to 7965
  139.9985  143.5770  152.2884 LP  0  0  0  0  0  0  0  0  0  0  0  0  # atno 17342 bound_to 10162
  139.6450  144.7657  151.2261 LP  0  0  0  0  0  0  0  0  0  0  0  0  # atno 17343 bound_to 10162
  156.1852  130.3652  149.8982 LP  0  0  0  0  0  0  0  0  0  0  0  0  # atno 17370 bound_to 10713
  156.6925  130.8901  151.3590 LP  0  0  0  0  0  0  0  0  0  0  0  0  # atno 17371 bound_to 10713
  139.9912  134.6982  155.9686 LP  0  0  0  0  0  0  0  0  0  0  0  0  # atno 17394 bound_to 11000
  141.1597  133.6540  156.4278 LP  0  0  0  0  0  0  0  0  0  0  0  0  # atno 17395 bound_to 11000

$$$$
