AV-unprocessed.smi:1793|AV-procd|sdf|7226|dock9
  -GOLD-   22720 8473D 1   1.00000     0.00000
 Structure written by MMmdl.
 46 48  0  0  0  0  0  0  0  0  1 V2000
  151.2289  145.5954  159.0324 C   0  0  0  0  0  0  0  0  0  0  0  0
  151.6517  144.1472  158.7460 C   0  0  2  0  0  0  0  0  0  0  0  0
  150.7851  143.6037  157.7015 N   0  0  0  0  0  0  0  0  0  0  0  0
  150.5902  142.3029  157.4398 C   0  0  0  0  0  0  0  0  0  0  0  0
  151.1334  141.3908  158.0625 O   0  0  0  0  0  0  0  0  0  0  0  0
  149.7144  142.1393  156.4348 N   0  0  0  0  0  0  0  0  0  0  0  0
  149.1622  140.9225  155.9452 C   0  0  0  0  0  0  0  0  0  0  0  0
  149.8909  139.7089  155.9934 C   0  0  0  0  0  0  0  0  0  0  0  0
  149.3314  138.5451  155.4387 C   0  0  0  0  0  0  0  0  0  0  0  0
  148.0657  138.6388  154.8374 C   0  0  0  0  0  0  0  0  0  0  0  0
  147.3661  139.7889  154.7691 N   0  0  0  0  0  0  0  0  0  0  0  0
  147.8851  140.9173  155.3132 C   0  0  0  0  0  0  0  0  0  0  0  0
  147.0973  142.0887  155.2225 N   0  0  0  0  0  0  0  0  0  0  0  0
  146.5448  142.5113  153.9399 C   0  0  0  0  0  0  0  0  0  0  0  0
  145.4820  143.5486  154.2901 C   0  0  0  0  0  0  0  0  0  0  0  0
  144.9116  143.0013  155.5947 C   0  0  0  0  0  0  0  0  0  0  0  0
  146.1213  142.3528  156.2760 C   0  0  0  0  0  0  0  0  0  0  0  0
  151.5875  143.2728  160.0158 C   0  0  1  0  0  0  0  0  0  0  0  0
  152.7072  142.2410  160.1565 C   0  0  0  0  0  0  0  0  0  0  0  0
  152.7429  141.9676  161.6498 C   0  0  0  0  0  0  0  0  0  0  0  0
  152.0559  143.1896  162.2666 C   0  0  0  0  0  0  0  0  0  0  0  0
  151.7778  144.0629  161.1792 O   0  0  0  0  0  0  0  0  0  0  0  0
  151.8727  146.0527  159.7841 H   0  0  0  0  0  0  0  0  0  0  0  0
  150.2031  145.6454  159.3992 H   0  0  0  0  0  0  0  0  0  0  0  0
  151.2914  146.2080  158.1325 H   0  0  0  0  0  0  0  0  0  0  0  0
  152.6837  144.1706  158.3911 H   0  0  0  0  0  0  0  0  0  0  0  0
  150.2884  144.2766  157.1364 H   0  0  0  0  0  0  0  0  0  0  0  0
  149.2908  142.9815  156.0731 H   0  0  0  0  0  0  0  0  0  0  0  0
  150.8781  139.6563  156.4265 H   0  0  0  0  0  0  0  0  0  0  0  0
  149.8659  137.6070  155.4630 H   0  0  0  0  0  0  0  0  0  0  0  0
  147.6047  137.7691  154.3933 H   0  0  0  0  0  0  0  0  0  0  0  0
  147.3168  142.9246  153.2906 H   0  0  0  0  0  0  0  0  0  0  0  0
  146.0758  141.6714  153.4256 H   0  0  0  0  0  0  0  0  0  0  0  0
  145.9490  144.5189  154.4646 H   0  0  0  0  0  0  0  0  0  0  0  0
  144.7302  143.6676  153.5094 H   0  0  0  0  0  0  0  0  0  0  0  0
  144.4396  143.7683  156.2095 H   0  0  0  0  0  0  0  0  0  0  0  0
  144.1625  142.2395  155.3744 H   0  0  0  0  0  0  0  0  0  0  0  0
  145.8384  141.4456  156.8119 H   0  0  0  0  0  0  0  0  0  0  0  0
  146.5578  143.0480  156.9935 H   0  0  0  0  0  0  0  0  0  0  0  0
  150.6183  142.7743  160.0845 H   0  0  0  0  0  0  0  0  0  0  0  0
  152.5348  141.3414  159.5647 H   0  0  0  0  0  0  0  0  0  0  0  0
  153.6582  142.6744  159.8435 H   0  0  0  0  0  0  0  0  0  0  0  0
  152.1899  141.0598  161.8931 H   0  0  0  0  0  0  0  0  0  0  0  0
  153.7657  141.8450  162.0075 H   0  0  0  0  0  0  0  0  0  0  0  0
  151.1205  142.9017  162.7482 H   0  0  0  0  0  0  0  0  0  0  0  0
  152.6805  143.6876  163.0084 H   0  0  0  0  0  0  0  0  0  0  0  0
  1  2  1  0  0  0  0
  1 23  1  0  0  0  0
  1 24  1  0  0  0  0
  1 25  1  0  0  0  0
  2  3  1  0  0  0  0
  2 18  1  0  0  0  0
  2 26  1  0  0  0  0
  3  4  1  0  0  0  0
  3 27  1  0  0  0  0
  4  5  2  0  0  0  0
  4  6  1  0  0  0  0
  6  7  1  0  0  0  0
  6 28  1  0  0  0  0
  7 12  1  0  0  0  0
  7  8  2  0  0  0  0
  8  9  1  0  0  0  0
  8 29  1  0  0  0  0
  9 10  2  0  0  0  0
  9 30  1  0  0  0  0
 10 11  1  0  0  0  0
 10 31  1  0  0  0  0
 11 12  2  0  0  0  0
 12 13  1  0  0  0  0
 13 17  1  0  0  0  0
 13 14  1  0  0  0  0
 14 15  1  0  0  0  0
 14 32  1  0  0  0  0
 14 33  1  0  0  0  0
 15 16  1  0  0  0  0
 15 34  1  0  0  0  0
 15 35  1  0  0  0  0
 16 17  1  0  0  0  0
 16 36  1  0  0  0  0
 16 37  1  0  0  0  0
 17 38  1  0  0  0  0
 17 39  1  0  0  0  0
 18 22  1  0  0  0  0
 18 19  1  0  0  0  0
 18 40  1  0  0  0  0
 19 20  1  0  0  0  0
 19 41  1  0  0  0  0
 19 42  1  0  0  0  0
 20 21  1  0  0  0  0
 20 43  1  0  0  0  0
 20 44  1  0  0  0  0
 21 22  1  0  0  0  0
 21 45  1  0  0  0  0
 21 46  1  0  0  0  0
M  END
> <s_m_source_file>
AV-unprocessed.smi

> <i_m_source_file_index>
1793

> <i_lp_mmshare_version>
43012

> <i_f3d_flags>
0

> <s_epik_input>
TzFbQ0gyXVtDSDJdW0NIMl1bQ0BIXTFbQ0BIXShbQ0gzXSlbTkhdQyg9TylbTkhdYzJbY0hdW2NIXVtjSF1uYzJOM1tDSDJdW0NIMl1bQ0gyXVtDSDJdMw==

> <s_epik_cmdline>
J2VwaWtfcHl0aG9uJywgJy1waCcsICc3LjAnLCAnLXRuJywgJzgnLCAnLW1hJywgJzIwMCcsICctbWV0YWxfYmluZGluZycsICctaW1hZScsICc8aW5maWxlLm1hZT4nLCAnLW9tYWUnLCAnPG91dGZpbGUubWFlPic=

> <r_lp_tautomer_probability>
1

> <r_epik_Ionization_Penalty>
0.0992086

> <r_epik_Ionization_Penalty_Charging>
0

> <r_epik_Ionization_Penalty_Neutral>
0.0992086

> <r_epik_State_Penalty>
0.0887141

> <r_epik_Charging_Adjusted_Penalty>
0.0887141

> <i_epik_Tot_Q>
0

> <i_epik_Tot_abs_Q>
0

> <r_epik_Metal_State_Penalty>
0.075945

> <b_epik_Metal_Only>
0

> <s_lp_Force_Field>
OPLS_2005

> <r_lp_Energy>
46.1922

> <b_lp_Chiralities_Consistent>
1

> <s_lp_Variant>
AV-unprocessed.smi:1793-3

> <Gold.Version>
5.8.1

> <Gold.Id.Protein>
6NUR|6NUR_protein|mol2

> <Gold.PLP.Fitness>
54.9044

> <Gold.PLP.PLP>
-49.8054

> <Gold.PLP.part.hbond>
-2.0000

> <Gold.PLP.part.metal>
0.0000

> <Gold.PLP.part.buried>
-4.2550

> <Gold.PLP.part.nonpolar>
-44.1458

> <Gold.PLP.part.repulsive>
0.6774

> <Gold.PLP.ligand.clash>
0.0000

> <Gold.PLP.ligand.torsion>
1.8480

> <Gold.PLP.Chemscore.Hbond>
1.8112

> <Gold.PLP.Chemscore.CHOScore>
1.0000

> <Gold.PLP.Chemscore.Metal>
0.0000

> <Gold.Chemscore.Hbonds>
donor molecule, donor type, donor heavy atom, donor atom, acceptor molecule, acceptor atom, score
      L1  H     3    27       P1  8028  0.94
      L1  H     6    28       P1  8028  1.00

> <Gold.PLP.Chemscore.Internal.Correction>
0.3615

> <Gold.Rescore>
     Score         DG    S(hbond)    S(metal)    S(lipo)     H(rot)  DE(clash)    DE(int)     intcor
     10.41     -15.53       0.00        0.00     115.58       1.36       1.57       3.54       ----

> <Gold.Chemscore.Fitness>
10.4106

> <Gold.Chemscore.DG>
-15.5258

> <Gold.Chemscore.ZeroCoef>
-5.4800

> <Gold.Chemscore.Hbond>
0.0000

> <Gold.Chemscore.Metal>
0.0000

> <Gold.Chemscore.Lipo>
115.5797

> <Gold.Chemscore.Internal_Hbond>
0.0000

> <Gold.Chemscore.DEClash>
1.5745

> <Gold.Chemscore.DEInternal>
3.5407

> <Gold.Chemscore.Rot>
1.3582

> <Gold.Chemscore.Internal.Correction>
   9.000000E+99

> <Gold.Chemscore.Hbonds>
donor molecule, donor type, donor heavy atom, donor atom, acceptor molecule, acceptor atom, score
      L1  H     3    27       P1  8028  0.71
      L1  H     6    28       P1  8028  1.00

> <Gold.Chemscore.Hbond.Weighted>
-0.0000

> <Gold.Chemscore.Metal.Weighted>
-0.0000

> <Gold.Chemscore.Lipo.Weighted>
-13.5228

> <Gold.Chemscore.Internal_Hbond.Weighted>
0.0000

> <Gold.Chemscore.DEClash.Weighted>
1.5745

> <Gold.Chemscore.DEInternal.Weighted>
3.5407

> <Gold.Chemscore.Rot.Weighted>
3.4771

> <Gold.Chemscore.Internal.Correction.Weighted>
   9.000000E+99

> <Gold.Protein.RotatedTorsions>
[ 6907 6896 6895 6894 ] final  -18.36 input  -60.11 | X-H torsion
[ 7974 7965 7964 7962 ] final  166.05 input  175.53 | X-H torsion
[ 8008 7997 7996 7995 ] final -158.89 input   59.86 | X-H torsion
[ 10167 10162 10161 10158 ] final  -70.53 input  -65.29 | X-H torsion
[ 10718 10713 10712 10709 ] final  -72.89 input   66.30 | X-H torsion
[ 10763 10752 10751 10750 ] final   91.75 input  -60.55 | X-H torsion
[ 11005 11000 10999 10996 ] final  103.13 input  -57.11 | X-H torsion

> <Gold.Protein.ActiveResidues>
 VAL166  LYS551  ARG553  GLY616  TRP617  ASP618  TYR619  PRO620  LYS621  CYS622 
 ASP623  PHE694  ASN695  SER759  ASP760  ASP761  ALA762  ILE779  LEU786  VAL792 
 PHE793  MET794  SER795  GLU796  ALA797  LYS798  CYS799  TRP800  GLU811  SER814 

> <Gold.Protein.RotatedAtoms>
  151.2793  135.0709  159.9163 H   0  0  0  0  0  0  0  0  0  0  0  0  # atno 6907 bound_to 6896
  152.5337  134.0048  159.7921 H   0  0  0  0  0  0  0  0  0  0  0  0  # atno 6908 bound_to 6896
  151.0299  133.5749  159.2692 H   0  0  0  0  0  0  0  0  0  0  0  0  # atno 6909 bound_to 6896
  144.7478  139.8559  143.6376 H   0  0  0  0  0  0  0  0  0  0  0  0  # atno 7974 bound_to 7965
  155.7544  140.0831  157.2186 H   0  0  0  0  0  0  0  0  0  0  0  0  # atno 8008 bound_to 7997
  154.4009  140.1554  156.2817 H   0  0  0  0  0  0  0  0  0  0  0  0  # atno 8009 bound_to 7997
  155.8900  140.3416  155.5952 H   0  0  0  0  0  0  0  0  0  0  0  0  # atno 8010 bound_to 7997
  140.5345  143.2319  151.7202 H   0  0  0  0  0  0  0  0  0  0  0  0  # atno 10167 bound_to 10162
  156.0302  130.4382  150.2660 H   0  0  0  0  0  0  0  0  0  0  0  0  # atno 10718 bound_to 10713
  153.2117  135.4386  155.0387 H   0  0  0  0  0  0  0  0  0  0  0  0  # atno 10763 bound_to 10752
  154.8203  135.3334  154.7059 H   0  0  0  0  0  0  0  0  0  0  0  0  # atno 10764 bound_to 10752
  153.7497  135.6999  153.5004 H   0  0  0  0  0  0  0  0  0  0  0  0  # atno 10765 bound_to 10752
  139.8781  134.9251  156.5163 H   0  0  0  0  0  0  0  0  0  0  0  0  # atno 11005 bound_to 11000
  146.1383  139.4433  143.0125 LP  0  0  0  0  0  0  0  0  0  0  0  0  # atno 17320 bound_to 7965
  145.7058  141.0122  143.1480 LP  0  0  0  0  0  0  0  0  0  0  0  0  # atno 17321 bound_to 7965
  139.4966  144.4064  152.0127 LP  0  0  0  0  0  0  0  0  0  0  0  0  # atno 17342 bound_to 10162
  140.3168  144.3474  150.6019 LP  0  0  0  0  0  0  0  0  0  0  0  0  # atno 17343 bound_to 10162
  157.0762  131.0130  151.3173 LP  0  0  0  0  0  0  0  0  0  0  0  0  # atno 17370 bound_to 10713
  157.4962  130.7852  149.7557 LP  0  0  0  0  0  0  0  0  0  0  0  0  # atno 17371 bound_to 10713
  140.8483  133.8151  155.9143 LP  0  0  0  0  0  0  0  0  0  0  0  0  # atno 17394 bound_to 11000
  140.9169  134.2190  157.4951 LP  0  0  0  0  0  0  0  0  0  0  0  0  # atno 17395 bound_to 11000

$$$$
