#       Name:                AV-unprocessed.smi:2675
#       Creating user name   scv26
#       Creation time:       Fri Mar 27 14:38:49 2020


#       File generated by GOLD software.
#

@<TRIPOS>MOLECULE
AV-unprocessed.smi:2675
    40    41     1
SMALL
NO_CHARGES


@<TRIPOS>ATOM
      1 ****        -2.7585   3.9084  -1.8830 C.3            1 S1                 0.0000
      2 ****        -2.4060   2.6612  -1.1434 C.2            1 S1                 0.0000
      3 ****        -2.4066   2.6121   0.2255 N.pl3          1 S1                 1.0000
      4 ****        -2.0577   1.3982   0.6524 C.2            1 S1                 0.0000
      5 ****        -1.8306   0.6556  -0.4369 N.pl3          1 S1                 0.0000
      6 ****        -1.4116  -0.7498  -0.3387 C.3            1 S1                 0.0000
      7 ****         0.1122  -0.8736  -0.3462 C.2            1 S1                 0.0000
      8 ****         0.7049  -1.0299  -1.4120 O.2            1 S1                 0.0000
      9 ****         0.7213  -0.7965   0.8501 N.am           1 S1                 0.0000
     10 ****         2.1598  -0.8328   1.1459 C.3            1 S1                 0.0000
     11 ****         2.3360  -0.0934   2.4828 C.3            1 S1                 0.0000
     12 ****         2.9447  -0.1067   0.1280 C.1            1 S1                 0.0000
     13 ****         3.5606   0.4643  -0.6683 N.1            1 S1                 0.0000
     14 ****         2.7623  -2.2324   1.2841 C.3            1 S1                 0.0000
     15 ****         2.4187  -3.3982   0.3830 C.3            1 S1                 0.0000
     16 ****         1.9725  -3.4016   1.8283 C.3            1 S1                 0.0000
     17 ****        -2.0372   1.4063  -1.5741 C.2            1 S1                 0.0000
     18 ****        -1.8614   0.8580  -2.9539 C.3            1 S1                 0.0000
     19 ****        -2.6758   3.7591  -2.9591 H              1 S1                 0.0000
     20 ****        -2.0881   4.7186  -1.5952 H              1 S1                 0.0000
     21 ****        -3.7823   4.2052  -1.6538 H              1 S1                 0.0000
     22 ****        -1.9724   1.0823   1.6769 H              1 S1                 0.0000
     23 ****        -1.8279  -1.1791   0.5742 H              1 S1                 0.0000
     24 ****        -1.8399  -1.3032  -1.1750 H              1 S1                 0.0000
     25 ****         0.1219  -0.6832   1.6542 H              1 S1                 0.0000
     26 ****         3.3870  -0.0379   2.7690 H              1 S1                 0.0000
     27 ****         1.8024  -0.5970   3.2898 H              1 S1                 0.0000
     28 ****         1.9612   0.9295   2.4241 H              1 S1                 0.0000
     29 ****         3.8068  -2.2018   1.5906 H              1 S1                 0.0000
     30 ****         1.6479  -3.2771  -0.3727 H              1 S1                 0.0000
     31 ****         3.2286  -4.0711   0.1085 H              1 S1                 0.0000
     32 ****         2.4846  -4.0761   2.5115 H              1 S1                 0.0000
     33 ****         0.9111  -3.2631   2.0231 H              1 S1                 0.0000
     34 ****        -2.0929   1.6141  -3.7034 H              1 S1                 0.0000
     35 ****        -2.5244   0.0072  -3.1119 H              1 S1                 0.0000
     36 ****        -0.8318   0.5338  -3.1049 H              1 S1                 0.0000
     37 ****        -2.6382   3.3892   0.8316 H              1 S1                 0.0000
     38 ****         0.1903  -1.0754  -2.2683 LP             1 S1                 0.0000
     39 ****         1.7015  -1.1114  -1.4226 LP             1 S1                 0.0000
     40 ****         4.0927   0.9577  -1.3564 LP             1 S1                 0.0000
@<TRIPOS>BOND
    1    1    2 1     
    2    1   19 1     
    3    1   20 1     
    4    1   21 1     
    5    2   17 2     
    6    2    3 1     
    7    3    4 2     
    8    3   37 1     
    9    4    5 1     
   10    4   22 1     
   11    5    6 1     
   12    5   17 1     
   13    6    7 1     
   14    6   23 1     
   15    6   24 1     
   16    7    8 2     
   17    7    9 am    
   18    9   10 1     
   19    9   25 1     
   20   10   11 1     
   21   10   12 1     
   22   10   14 1     
   23   11   26 1     
   24   11   27 1     
   25   11   28 1     
   26   12   13 3     
   27   14   16 1     
   28   14   15 1     
   29   14   29 1     
   30   15   16 1     
   31   15   30 1     
   32   15   31 1     
   33   16   32 1     
   34   16   33 1     
   35   17   18 1     
   36   18   34 1     
   37   18   35 1     
   38   18   36 1     
   39    8   38 1     
   40    8   39 1     
   41   13   40 1     
@<TRIPOS>SUBSTRUCTURE
      1 S1             1
@<TRIPOS>SET
LONE_PAIRS      STATIC     ATOMS    <user>   **** ""
3 38 39 40
DONOR_HYDROGENS      STATIC     ATOMS    <user>   **** ""
2 37 25
ATOM$BLUE        STATIC     ATOMS    COLORGROUP SYSTEM
3 38 39 40
ATOM$RED        STATIC     ATOMS    COLORGROUP SYSTEM
2 37 25
