AV-unprocessed.smi:3035|AV-procd|sdf|11581|dock9
  -GOLD-   2272016553D 1   1.00000     0.00000
 Structure written by MMmdl.
 38 39  0  0  0  0  0  0  0  0  1 V2000
  147.1076  134.0279  160.9840 C   0  0  0  0  0  0  0  0  0  0  0  0
  147.6051  134.3971  159.7097 O   0  0  0  0  0  0  0  0  0  0  0  0
  148.1006  133.2891  158.9769 C   0  0  0  0  0  0  0  0  0  0  0  0
  148.6469  133.7465  157.6579 C   0  0  0  0  0  0  0  0  0  0  0  0
  148.1774  133.5081  156.4923 N   0  0  0  0  0  0  0  0  0  0  0  0
  149.0290  134.1336  155.6785 N   0  0  0  0  0  0  0  0  0  0  0  0
  148.8428  134.1255  154.2319 C   0  0  0  0  0  0  0  0  0  0  0  0
  148.7634  132.6908  153.6893 C   0  0  0  0  0  0  0  0  0  0  0  0
  148.0466  132.6601  152.4224 N   0  0  0  0  0  0  0  0  0  0  0  0
  146.8854  133.2909  152.1952 C   0  0  0  0  0  0  0  0  0  0  0  0
  146.3085  133.9636  153.0506 O   0  0  0  0  0  0  0  0  0  0  0  0
  146.2846  133.1347  150.7882 C   0  0  0  0  0  0  0  0  0  0  0  0
  144.9598  133.9179  150.6323 C   0  0  0  0  0  0  0  0  0  0  0  0
  143.8644  132.8907  150.3171 C   0  0  0  0  0  0  0  0  0  0  0  0
  144.4290  131.5458  150.7655 C   0  0  0  0  0  0  0  0  0  0  0  0
  145.9257  131.6674  150.4842 C   0  0  0  0  0  0  0  0  0  0  0  0
  150.0411  134.7711  156.3708 C   0  0  0  0  0  0  0  0  0  0  0  0
  150.9783  135.4377  155.9351 O   0  0  0  0  0  0  0  0  0  0  0  0
  149.7850  134.5123  157.6604 O   0  0  0  0  0  0  0  0  0  0  0  0
  146.7381  134.9120  161.5035 H   0  0  0  0  0  0  0  0  0  0  0  0
  147.8898  133.5789  161.5978 H   0  0  0  0  0  0  0  0  0  0  0  0
  146.2824  133.3201  160.8953 H   0  0  0  0  0  0  0  0  0  0  0  0
  148.8812  132.7845  159.5487 H   0  0  0  0  0  0  0  0  0  0  0  0
  147.3021  132.5646  158.8098 H   0  0  0  0  0  0  0  0  0  0  0  0
  147.9327  134.6741  153.9840 H   0  0  0  0  0  0  0  0  0  0  0  0
  149.6660  134.6616  153.7566 H   0  0  0  0  0  0  0  0  0  0  0  0
  149.7680  132.2893  153.5462 H   0  0  0  0  0  0  0  0  0  0  0  0
  148.2552  132.0428  154.4056 H   0  0  0  0  0  0  0  0  0  0  0  0
  148.4586  132.1271  151.6703 H   0  0  0  0  0  0  0  0  0  0  0  0
  147.0113  133.4855  150.0533 H   0  0  0  0  0  0  0  0  0  0  0  0
  144.7009  134.4647  151.5406 H   0  0  0  0  0  0  0  0  0  0  0  0
  145.0315  134.6589  149.8356 H   0  0  0  0  0  0  0  0  0  0  0  0
  142.9170  133.1274  150.8024 H   0  0  0  0  0  0  0  0  0  0  0  0
  143.6863  132.8676  149.2412 H   0  0  0  0  0  0  0  0  0  0  0  0
  144.2603  131.4111  151.8348 H   0  0  0  0  0  0  0  0  0  0  0  0
  143.9708  130.7034  150.2465 H   0  0  0  0  0  0  0  0  0  0  0  0
  146.1174  131.4584  149.4308 H   0  0  0  0  0  0  0  0  0  0  0  0
  146.5069  130.9474  151.0625 H   0  0  0  0  0  0  0  0  0  0  0  0
  1  2  1  0  0  0  0
  1 20  1  0  0  0  0
  1 21  1  0  0  0  0
  1 22  1  0  0  0  0
  2  3  1  0  0  0  0
  3  4  1  0  0  0  0
  3 23  1  0  0  0  0
  3 24  1  0  0  0  0
  4 19  1  0  0  0  0
  4  5  2  0  0  0  0
  5  6  1  0  0  0  0
  6  7  1  0  0  0  0
  6 17  1  0  0  0  0
  7  8  1  0  0  0  0
  7 25  1  0  0  0  0
  7 26  1  0  0  0  0
  8  9  1  0  0  0  0
  8 27  1  0  0  0  0
  8 28  1  0  0  0  0
  9 10  1  0  0  0  0
  9 29  1  0  0  0  0
 10 11  2  0  0  0  0
 10 12  1  0  0  0  0
 12 16  1  0  0  0  0
 12 13  1  0  0  0  0
 12 30  1  0  0  0  0
 13 14  1  0  0  0  0
 13 31  1  0  0  0  0
 13 32  1  0  0  0  0
 14 15  1  0  0  0  0
 14 33  1  0  0  0  0
 14 34  1  0  0  0  0
 15 16  1  0  0  0  0
 15 35  1  0  0  0  0
 15 36  1  0  0  0  0
 16 37  1  0  0  0  0
 16 38  1  0  0  0  0
 17 18  2  0  0  0  0
 17 19  1  0  0  0  0
M  END
> <s_m_source_file>
AV-unprocessed.smi

> <i_m_source_file_index>
3035

> <i_lp_mmshare_version>
43012

> <i_f3d_flags>
0

> <s_epik_input>
W0NIM11PW0NIMl1jMW5uKGMoPU8pbzEpW0NIMl1bQ0gyXVtOSF1DKD1PKVtDSF0yW0NIMl1bQ0gyXVtDSDJdW0NIMl0y

> <s_epik_cmdline>
J2VwaWtfcHl0aG9uJywgJy1waCcsICc3LjAnLCAnLXRuJywgJzgnLCAnLW1hJywgJzIwMCcsICctbWV0YWxfYmluZGluZycsICctaW1hZScsICc8aW5maWxlLm1hZT4nLCAnLW9tYWUnLCAnPG91dGZpbGUubWFlPic=

> <r_lp_tautomer_probability>
1

> <r_epik_Ionization_Penalty>
6.81406e-08

> <r_epik_Ionization_Penalty_Charging>
1.21446e-09

> <r_epik_Ionization_Penalty_Neutral>
6.69261e-08

> <r_epik_State_Penalty>
-0

> <r_epik_Charging_Adjusted_Penalty>
1.21446e-09

> <i_epik_Tot_Q>
0

> <i_epik_Tot_abs_Q>
0

> <r_epik_Metal_State_Penalty>
-0

> <b_epik_Metal_Only>
0

> <s_lp_Force_Field>
OPLS_2005

> <r_lp_Energy>
26.4396

> <b_lp_Chiralities_Consistent>
1

> <s_lp_Variant>
AV-unprocessed.smi:3035-1

> <Gold.Version>
5.8.1

> <Gold.Id.Protein>
6NUR|6NUR_protein|mol2

> <Gold.PLP.Fitness>
40.3961

> <Gold.PLP.PLP>
-32.3399

> <Gold.PLP.part.hbond>
-3.0000

> <Gold.PLP.part.metal>
0.0000

> <Gold.PLP.part.buried>
-3.9593

> <Gold.PLP.part.nonpolar>
-25.2591

> <Gold.PLP.part.repulsive>
0.1537

> <Gold.PLP.ligand.clash>
0.0000

> <Gold.PLP.ligand.torsion>
0.3039

> <Gold.PLP.Chemscore.Hbond>
2.8800

> <Gold.PLP.Chemscore.CHOScore>
0.0000

> <Gold.PLP.Chemscore.Metal>
0.0000

> <Gold.Chemscore.Hbonds>
donor molecule, donor type, donor heavy atom, donor atom, acceptor molecule, acceptor atom, score
      L1  H     9    29       P1 10747  1.00
      P1  H  6896  6908       L1    19  0.90
      P1  H 10752 10763       L1    18  0.32

> <Gold.PLP.Chemscore.Internal.Correction>
0.0240

> <Gold.Rescore>
     Score         DG    S(hbond)    S(metal)    S(lipo)     H(rot)  DE(clash)    DE(int)     intcor
     13.15     -14.73       2.32        0.00      64.47       2.36       0.00       1.58       ----

> <Gold.Chemscore.Fitness>
13.1476

> <Gold.Chemscore.DG>
-14.7288

> <Gold.Chemscore.ZeroCoef>
-5.4800

> <Gold.Chemscore.Hbond>
2.3187

> <Gold.Chemscore.Metal>
0.0000

> <Gold.Chemscore.Lipo>
64.4670

> <Gold.Chemscore.Internal_Hbond>
0.0000

> <Gold.Chemscore.DEClash>
0.0000

> <Gold.Chemscore.DEInternal>
1.5813

> <Gold.Chemscore.Rot>
2.3587

> <Gold.Chemscore.Internal.Correction>
   9.000000E+99

> <Gold.Chemscore.Hbonds>
donor molecule, donor type, donor heavy atom, donor atom, acceptor molecule, acceptor atom, score
      L1  H     9    29       P1 10747  0.99
      P1  H  6896  6908       L1    19  0.39
      P1  H 10752 10763       L1    18  0.33

> <Gold.Chemscore.Hbond.Weighted>
-7.7444

> <Gold.Chemscore.Metal.Weighted>
-0.0000

> <Gold.Chemscore.Lipo.Weighted>
-7.5426

> <Gold.Chemscore.Internal_Hbond.Weighted>
0.0000

> <Gold.Chemscore.DEClash.Weighted>
0.0000

> <Gold.Chemscore.DEInternal.Weighted>
1.5813

> <Gold.Chemscore.Rot.Weighted>
6.0382

> <Gold.Chemscore.Internal.Correction.Weighted>
   9.000000E+99

> <Gold.Protein.RotatedTorsions>
[ 6907 6896 6895 6894 ] final  126.29 input  -60.11 | X-H torsion
[ 7974 7965 7964 7962 ] final  130.62 input  175.53 | X-H torsion
[ 8008 7997 7996 7995 ] final  -26.86 input   59.86 | X-H torsion
[ 10167 10162 10161 10158 ] final -169.83 input  -65.29 | X-H torsion
[ 10718 10713 10712 10709 ] final  176.20 input   66.30 | X-H torsion
[ 10763 10752 10751 10750 ] final   75.22 input  -60.55 | X-H torsion
[ 11005 11000 10999 10996 ] final -135.33 input  -57.11 | X-H torsion

> <Gold.Protein.ActiveResidues>
 VAL166  LYS551  ARG553  GLY616  TRP617  ASP618  TYR619  PRO620  LYS621  CYS622 
 ASP623  PHE694  ASN695  SER759  ASP760  ASP761  ALA762  ILE779  LEU786  VAL792 
 PHE793  MET794  SER795  GLU796  ALA797  LYS798  CYS799  TRP800  GLU811  SER814 

> <Gold.Protein.RotatedAtoms>
  152.3916  133.6687  159.6242 H   0  0  0  0  0  0  0  0  0  0  0  0  # atno 6907 bound_to 6896
  150.7823  133.8944  159.3331 H   0  0  0  0  0  0  0  0  0  0  0  0  # atno 6908 bound_to 6896
  151.6729  135.0975  160.0253 H   0  0  0  0  0  0  0  0  0  0  0  0  # atno 6909 bound_to 6896
  145.0160  139.4176  143.5221 H   0  0  0  0  0  0  0  0  0  0  0  0  # atno 7974 bound_to 7965
  154.4405  140.1888  156.0841 H   0  0  0  0  0  0  0  0  0  0  0  0  # atno 8008 bound_to 7997
  156.0416  140.3319  155.7223 H   0  0  0  0  0  0  0  0  0  0  0  0  # atno 8009 bound_to 7997
  155.5691  140.0611  157.2801 H   0  0  0  0  0  0  0  0  0  0  0  0  # atno 8010 bound_to 7997
  139.5899  144.1237  152.1621 H   0  0  0  0  0  0  0  0  0  0  0  0  # atno 10167 bound_to 10162
  156.9236  130.9948  151.3000 H   0  0  0  0  0  0  0  0  0  0  0  0  # atno 10718 bound_to 10713
  153.0639  135.4997  154.8157 H   0  0  0  0  0  0  0  0  0  0  0  0  # atno 10763 bound_to 10752
  154.6925  135.2987  154.9461 H   0  0  0  0  0  0  0  0  0  0  0  0  # atno 10764 bound_to 10752
  154.0211  135.6742  153.4825 H   0  0  0  0  0  0  0  0  0  0  0  0  # atno 10765 bound_to 10752
  140.8908  134.1814  157.4529 H   0  0  0  0  0  0  0  0  0  0  0  0  # atno 11005 bound_to 11000
  146.3478  139.9630  142.8715 LP  0  0  0  0  0  0  0  0  0  0  0  0  # atno 17320 bound_to 7965
  145.1959  140.9833  143.4183 LP  0  0  0  0  0  0  0  0  0  0  0  0  # atno 17321 bound_to 7965
  140.0809  144.5702  150.7123 LP  0  0  0  0  0  0  0  0  0  0  0  0  # atno 17342 bound_to 10162
  140.7164  143.2548  151.4421 LP  0  0  0  0  0  0  0  0  0  0  0  0  # atno 17343 bound_to 10162
  157.5892  130.8431  149.8634 LP  0  0  0  0  0  0  0  0  0  0  0  0  # atno 17370 bound_to 10713
  156.0479  130.3724  150.1272 LP  0  0  0  0  0  0  0  0  0  0  0  0  # atno 17371 bound_to 10713
  139.8729  134.9857  156.5295 LP  0  0  0  0  0  0  0  0  0  0  0  0  # atno 17394 bound_to 11000
  140.8349  133.8250  155.9019 LP  0  0  0  0  0  0  0  0  0  0  0  0  # atno 17395 bound_to 11000

$$$$
