AV-unprocessed.smi:1389|AV-procd|sdf|5652|dock6
  -GOLD-   22720 5273D 1   1.00000     0.00000
 Structure written by MMmdl.
 53 55  0  0  0  0  0  0  0  0  3 V2000
  147.9151  137.4948  155.0926 C   0  0  0  0  0  0  0  0  0  0  0  0
  149.3384  137.0725  154.6503 C   0  0  2  0  0  0  0  0  0  0  0  0
  149.5815  135.5667  154.9500 C   0  0  0  0  0  0  0  0  0  0  0  0
  148.8465  134.6702  154.0593 N   0  0  0  0  0  0  0  0  0  0  0  0
  148.6140  133.3692  154.2878 C   0  0  0  0  0  0  0  0  0  0  0  0
  148.9736  132.7829  155.3085 O   0  0  0  0  0  0  0  0  0  0  0  0
  147.9593  132.8003  153.2616 N   0  0  0  0  0  0  0  0  0  0  0  0
  147.5618  131.4395  153.1264 C   0  0  0  0  0  0  0  0  0  0  0  0
  148.1600  130.3938  153.8751 C   0  0  0  0  0  0  0  0  0  0  0  0
  147.7087  129.0695  153.7100 C   0  0  0  0  0  0  0  0  0  0  0  0
  146.6605  128.8107  152.8080 C   0  0  0  0  0  0  0  0  0  0  0  0
  146.1011  129.8296  152.1224 N   0  3  0  0  0  0  0  0  0  0  0  0
  146.4990  131.1202  152.2428 C   0  0  0  0  0  0  0  0  0  0  0  0
  145.8444  132.1075  151.4860 N   0  0  0  0  0  0  0  0  0  0  0  0
  145.8730  131.9269  150.0435 C   0  0  0  0  0  0  0  0  0  0  0  0
  144.7986  132.8685  149.4943 C   0  0  0  0  0  0  0  0  0  0  0  0
  143.8497  133.1133  150.6740 C   0  0  0  0  0  0  0  0  0  0  0  0
  144.4499  132.3175  151.8365 C   0  0  0  0  0  0  0  0  0  0  0  0
  150.4067  137.9310  155.2670 N   0  3  0  0  0  0  0  0  0  0  0  0
  151.7820  137.3880  155.0799 C   0  0  0  0  0  0  0  0  0  0  0  0
  152.8379  138.2817  155.7510 C   0  0  0  0  0  0  0  0  0  0  0  0
  152.7531  139.5958  155.2242 O   0  0  0  0  0  0  0  0  0  0  0  0
  151.4911  140.1791  155.5050 C   0  0  0  0  0  0  0  0  0  0  0  0
  150.3741  139.3583  154.8372 C   0  0  0  0  0  0  0  0  0  0  0  0
  147.1461  136.8511  154.6678 H   0  0  0  0  0  0  0  0  0  0  0  0
  147.6560  138.4975  154.7546 H   0  0  0  0  0  0  0  0  0  0  0  0
  147.8095  137.4600  156.1774 H   0  0  0  0  0  0  0  0  0  0  0  0
  149.3913  137.2133  153.5695 H   0  0  0  0  0  0  0  0  0  0  0  0
  150.6262  135.3009  154.8029 H   0  0  0  0  0  0  0  0  0  0  0  0
  149.3585  135.3526  155.9968 H   0  0  0  0  0  0  0  0  0  0  0  0
  148.5118  135.0673  153.1934 H   0  0  0  0  0  0  0  0  0  0  0  0
  147.8134  133.3800  152.4480 H   0  0  0  0  0  0  0  0  0  0  0  0
  148.9498  130.5869  154.5848 H   0  0  0  0  0  0  0  0  0  0  0  0
  148.1580  128.2637  154.2722 H   0  0  0  0  0  0  0  0  0  0  0  0
  146.2511  127.8287  152.6201 H   0  0  0  0  0  0  0  0  0  0  0  0
  146.8575  132.1617  149.6377 H   0  0  0  0  0  0  0  0  0  0  0  0
  145.6358  130.8961  149.7767 H   0  0  0  0  0  0  0  0  0  0  0  0
  145.2469  133.8110  149.1773 H   0  0  0  0  0  0  0  0  0  0  0  0
  144.2881  132.4375  148.6326 H   0  0  0  0  0  0  0  0  0  0  0  0
  143.8225  134.1769  150.9142 H   0  0  0  0  0  0  0  0  0  0  0  0
  142.8293  132.7963  150.4573 H   0  0  0  0  0  0  0  0  0  0  0  0
  143.9362  131.3608  151.9419 H   0  0  0  0  0  0  0  0  0  0  0  0
  144.3585  132.8551  152.7807 H   0  0  0  0  0  0  0  0  0  0  0  0
  151.8804  136.3953  155.5135 H   0  0  0  0  0  0  0  0  0  0  0  0
  151.9965  137.2971  154.0139 H   0  0  0  0  0  0  0  0  0  0  0  0
  152.7064  138.2969  156.8344 H   0  0  0  0  0  0  0  0  0  0  0  0
  153.8368  137.8898  155.5588 H   0  0  0  0  0  0  0  0  0  0  0  0
  151.3366  140.2442  156.5833 H   0  0  0  0  0  0  0  0  0  0  0  0
  151.4844  141.1999  155.1224 H   0  0  0  0  0  0  0  0  0  0  0  0
  150.4666  139.4152  153.7515 H   0  0  0  0  0  0  0  0  0  0  0  0
  149.4306  139.8278  155.1110 H   0  0  0  0  0  0  0  0  0  0  0  0
  150.2309  137.9352  156.2618 H   0  0  0  0  0  0  0  0  0  0  0  0
  145.3383  129.6163  151.4794 H   0  0  0  0  0  0  0  0  0  0  0  0
  1  2  1  0  0  0  0
  1 25  1  0  0  0  0
  1 26  1  0  0  0  0
  1 27  1  0  0  0  0
  2  3  1  0  0  0  0
  2 19  1  0  0  0  0
  2 28  1  0  0  0  0
  3  4  1  0  0  0  0
  3 29  1  0  0  0  0
  3 30  1  0  0  0  0
  4  5  1  0  0  0  0
  4 31  1  0  0  0  0
  5  6  2  0  0  0  0
  5  7  1  0  0  0  0
  7  8  1  0  0  0  0
  7 32  1  0  0  0  0
  8 13  1  0  0  0  0
  8  9  2  0  0  0  0
  9 10  1  0  0  0  0
  9 33  1  0  0  0  0
 10 11  2  0  0  0  0
 10 34  1  0  0  0  0
 11 12  1  0  0  0  0
 11 35  1  0  0  0  0
 12 13  2  0  0  0  0
 12 53  1  0  0  0  0
 13 14  1  0  0  0  0
 14 18  1  0  0  0  0
 14 15  1  0  0  0  0
 15 16  1  0  0  0  0
 15 36  1  0  0  0  0
 15 37  1  0  0  0  0
 16 17  1  0  0  0  0
 16 38  1  0  0  0  0
 16 39  1  0  0  0  0
 17 18  1  0  0  0  0
 17 40  1  0  0  0  0
 17 41  1  0  0  0  0
 18 42  1  0  0  0  0
 18 43  1  0  0  0  0
 19 24  1  0  0  0  0
 19 20  1  0  0  0  0
 19 52  1  0  0  0  0
 20 21  1  0  0  0  0
 20 44  1  0  0  0  0
 20 45  1  0  0  0  0
 21 22  1  0  0  0  0
 21 46  1  0  0  0  0
 21 47  1  0  0  0  0
 22 23  1  0  0  0  0
 23 24  1  0  0  0  0
 23 48  1  0  0  0  0
 23 49  1  0  0  0  0
 24 50  1  0  0  0  0
 24 51  1  0  0  0  0
M  CHG  1  12   1
M  CHG  1  19   1
M  END
> <s_m_source_file>
AV-unprocessed.smi

> <i_m_source_file_index>
1389

> <i_lp_mmshare_version>
43012

> <i_f3d_flags>
0

> <s_epik_input>
W0NIMl0xW0NIMl1PW0NIMl1bQ0gyXU4xW0NASF0oW0NIM10pW0NIMl1bTkhdQyg9TylbTkhdYzJbY0hdW2NIXVtjSF1uYzJOM1tDSDJdW0NIMl1bQ0gyXVtDSDJdMw==

> <s_epik_cmdline>
J2VwaWtfcHl0aG9uJywgJy1waCcsICc3LjAnLCAnLXRuJywgJzgnLCAnLW1hJywgJzIwMCcsICctbWV0YWxfYmluZGluZycsICctaW1hZScsICc8aW5maWxlLm1hZT4nLCAnLW9tYWUnLCAnPG91dGZpbGUubWFlPic=

> <r_lp_tautomer_probability>
0.999994

> <r_epik_Ionization_Penalty>
1.80872

> <r_epik_Ionization_Penalty_Charging>
1.8087

> <r_epik_Ionization_Penalty_Neutral>
2.02981e-05

> <r_epik_State_Penalty>
1.84892

> <r_epik_Charging_Adjusted_Penalty>
3.65762

> <i_epik_Tot_Q>
2

> <i_epik_Tot_abs_Q>
2

> <r_epik_Metal_State_Penalty>
1.9311

> <b_epik_Metal_Only>
0

> <s_lp_Force_Field>
OPLS_2005

> <r_lp_Energy>
59.2072

> <b_lp_Chiralities_Consistent>
1

> <s_lp_Variant>
AV-unprocessed.smi:1389-7

> <Gold.Version>
5.8.1

> <Gold.Id.Protein>
6NUR|6NUR_protein|mol2

> <Gold.PLP.Fitness>
38.1992

> <Gold.PLP.PLP>
-33.4667

> <Gold.PLP.part.hbond>
-2.1617

> <Gold.PLP.part.metal>
0.0000

> <Gold.PLP.part.buried>
1.2877

> <Gold.PLP.part.nonpolar>
-31.9571

> <Gold.PLP.part.repulsive>
0.1735

> <Gold.PLP.ligand.clash>
0.0000

> <Gold.PLP.ligand.torsion>
0.4927

> <Gold.PLP.Chemscore.Hbond>
1.8800

> <Gold.PLP.Chemscore.CHOScore>
0.0000

> <Gold.PLP.Chemscore.Metal>
0.0000

> <Gold.Chemscore.Hbonds>
donor molecule, donor type, donor heavy atom, donor atom, acceptor molecule, acceptor atom, score
      L1  H     4    31       P1  7948  0.85
      P1  H  7997  8009       L1    22  0.70

> <Gold.PLP.Chemscore.Internal.Correction>
0.0780

> <Gold.Rescore>
     Score         DG    S(hbond)    S(metal)    S(lipo)     H(rot)  DE(clash)    DE(int)     intcor
     15.35     -17.33       1.75        0.00      87.52       1.66       0.15       1.83       ----

> <Gold.Chemscore.Fitness>
15.3461

> <Gold.Chemscore.DG>
-17.3258

> <Gold.Chemscore.ZeroCoef>
-5.4800

> <Gold.Chemscore.Hbond>
1.7548

> <Gold.Chemscore.Metal>
0.0000

> <Gold.Chemscore.Lipo>
87.5176

> <Gold.Chemscore.Internal_Hbond>
0.0000

> <Gold.Chemscore.DEClash>
0.1534

> <Gold.Chemscore.DEInternal>
1.8263

> <Gold.Chemscore.Rot>
1.6620

> <Gold.Chemscore.Internal.Correction>
   9.000000E+99

> <Gold.Chemscore.Hbonds>
donor molecule, donor type, donor heavy atom, donor atom, acceptor molecule, acceptor atom, score
      L1  H     4    31       P1  7948  0.67
      P1  H  7997  8009       L1    22  0.07

> <Gold.Chemscore.Hbond.Weighted>
-5.8609

> <Gold.Chemscore.Metal.Weighted>
-0.0000

> <Gold.Chemscore.Lipo.Weighted>
-10.2396

> <Gold.Chemscore.Internal_Hbond.Weighted>
0.0000

> <Gold.Chemscore.DEClash.Weighted>
0.1534

> <Gold.Chemscore.DEInternal.Weighted>
1.8263

> <Gold.Chemscore.Rot.Weighted>
4.2547

> <Gold.Chemscore.Internal.Correction.Weighted>
   9.000000E+99

> <Gold.Protein.RotatedTorsions>
[ 6907 6896 6895 6894 ] final   45.37 input  -60.11 | X-H torsion
[ 7974 7965 7964 7962 ] final   62.56 input  175.53 | X-H torsion
[ 8008 7997 7996 7995 ] final -144.01 input   59.86 | X-H torsion
[ 10167 10162 10161 10158 ] final   97.82 input  -65.29 | X-H torsion
[ 10718 10713 10712 10709 ] final  -65.46 input   66.30 | X-H torsion
[ 10763 10752 10751 10750 ] final -153.81 input  -60.55 | X-H torsion
[ 11005 11000 10999 10996 ] final  -96.54 input  -57.11 | X-H torsion

> <Gold.Protein.ActiveResidues>
 VAL166  LYS551  ARG553  GLY616  TRP617  ASP618  TYR619  PRO620  LYS621  CYS622 
 ASP623  PHE694  ASN695  SER759  ASP760  ASP761  ALA762  ILE779  LEU786  VAL792 
 PHE793  MET794  SER795  GLU796  ALA797  LYS798  CYS799  TRP800  GLU811  SER814 

> <Gold.Protein.RotatedAtoms>
  152.2438  134.8202  160.0456 H   0  0  0  0  0  0  0  0  0  0  0  0  # atno 6907 bound_to 6896
  151.8907  133.3510  159.3805 H   0  0  0  0  0  0  0  0  0  0  0  0  # atno 6908 bound_to 6896
  150.7062  134.4853  159.5534 H   0  0  0  0  0  0  0  0  0  0  0  0  # atno 6909 bound_to 6896
  145.8720  139.3384  143.0757 H   0  0  0  0  0  0  0  0  0  0  0  0  # atno 7974 bound_to 7965
  155.5200  140.0590  157.2908 H   0  0  0  0  0  0  0  0  0  0  0  0  # atno 8008 bound_to 7997
  154.4521  140.1954  156.0434 H   0  0  0  0  0  0  0  0  0  0  0  0  # atno 8009 bound_to 7997
  156.0725  140.3258  155.7598 H   0  0  0  0  0  0  0  0  0  0  0  0  # atno 8010 bound_to 7997
  139.7765  144.6904  151.0082 H   0  0  0  0  0  0  0  0  0  0  0  0  # atno 10167 bound_to 10162
  156.0668  130.4247  150.1567 H   0  0  0  0  0  0  0  0  0  0  0  0  # atno 10718 bound_to 10713
  154.7902  135.3204  154.7795 H   0  0  0  0  0  0  0  0  0  0  0  0  # atno 10763 bound_to 10752
  153.8485  135.6864  153.4799 H   0  0  0  0  0  0  0  0  0  0  0  0  # atno 10764 bound_to 10752
  153.1569  135.4676  154.9657 H   0  0  0  0  0  0  0  0  0  0  0  0  # atno 10765 bound_to 10752
  141.1408  133.8105  157.0585 H   0  0  0  0  0  0  0  0  0  0  0  0  # atno 11005 bound_to 11000
  145.9126  140.9170  143.0446 LP  0  0  0  0  0  0  0  0  0  0  0  0  # atno 17320 bound_to 7965
  144.6726  140.1181  143.7451 LP  0  0  0  0  0  0  0  0  0  0  0  0  # atno 17321 bound_to 7965
  140.7816  143.4530  151.0386 LP  0  0  0  0  0  0  0  0  0  0  0  0  # atno 17342 bound_to 10162
  139.8212  143.7818  152.3177 LP  0  0  0  0  0  0  0  0  0  0  0  0  # atno 17343 bound_to 10162
  156.9626  130.9809  151.3476 LP  0  0  0  0  0  0  0  0  0  0  0  0  # atno 17370 bound_to 10713
  157.5715  130.8314  149.8398 LP  0  0  0  0  0  0  0  0  0  0  0  0  # atno 17371 bound_to 10713
  140.0586  134.9767  157.1265 LP  0  0  0  0  0  0  0  0  0  0  0  0  # atno 17394 bound_to 11000
  140.3882  134.2213  155.7167 LP  0  0  0  0  0  0  0  0  0  0  0  0  # atno 17395 bound_to 11000

$$$$
