#       Name:                AV-unprocessed.smi:1615
#       Creating user name   scv26
#       Creation time:       Fri Mar 27 07:14:19 2020


#       File generated by GOLD software.
#

@<TRIPOS>MOLECULE
AV-unprocessed.smi:1615
    35    36     1
SMALL
NO_CHARGES


@<TRIPOS>ATOM
      1 ****         0.2486   2.5702  -0.7627 O.2            1 S1                 0.0000
      2 ****         0.9186   1.5394  -0.7110 C.2            1 S1                 0.0000
      3 ****         2.4445   1.6238  -0.6627 C.3            1 S1                 0.0000
      4 ****         2.9275   1.5470   0.7047 N.pl3          1 S1                 0.0000
      5 ****         3.1811   0.4169   1.4592 C.2            1 S1                 0.0000
      6 ****         3.6060   0.8757   2.6683 C.2            1 S1                 0.0000
      7 ****         4.1193  -0.1759   4.1681 Br             1 S1                 0.0000
      8 ****         3.5890   2.2913   2.5889 C.2            1 S1                 0.0000
      9 ****         3.1772   2.6903   1.3944 N.2            1 S1                 0.0000
     10 ****         0.3901   0.3055  -0.6876 N.am           1 S1                 0.0000
     11 ****        -1.0335  -0.0182  -0.6869 C.3            1 S1                 0.0000
     12 ****        -1.3792  -0.8146   0.5856 C.3            1 S1                 0.0000
     13 ****        -2.8500  -1.2614   0.5889 C.3            1 S1                 0.0000
     14 ****        -3.1907  -2.0660  -0.6752 C.3            1 S1                 0.0000
     15 ****        -2.8587  -1.2667  -1.9450 C.3            1 S1                 0.0000
     16 ****        -1.3877  -0.8196  -1.9544 C.3            1 S1                 0.0000
     17 ****         2.8860   0.8103  -1.2402 H              1 S1                 0.0000
     18 ****         2.7814   2.5577  -1.1156 H              1 S1                 0.0000
     19 ****         3.0390  -0.5847   1.0808 H              1 S1                 0.0000
     20 ****         3.8543   3.0240   3.3366 H              1 S1                 0.0000
     21 ****         1.0276  -0.4766  -0.6517 H              1 S1                 0.0000
     22 ****        -1.6314   0.8950  -0.6860 H              1 S1                 0.0000
     23 ****        -0.7364  -1.6930   0.6589 H              1 S1                 0.0000
     24 ****        -1.1770  -0.2097   1.4706 H              1 S1                 0.0000
     25 ****        -3.0548  -1.8595   1.4771 H              1 S1                 0.0000
     26 ****        -3.4975  -0.3857   0.6497 H              1 S1                 0.0000
     27 ****        -2.6318  -3.0027  -0.6751 H              1 S1                 0.0000
     28 ****        -4.2471  -2.3362  -0.6710 H              1 S1                 0.0000
     29 ****        -3.0700  -1.8684  -2.8293 H              1 S1                 0.0000
     30 ****        -3.5066  -0.3912  -2.0048 H              1 S1                 0.0000
     31 ****        -1.1924  -0.2180  -2.8431 H              1 S1                 0.0000
     32 ****        -0.7454  -1.6983  -2.0285 H              1 S1                 0.0000
     33 ****         0.7022   3.4613  -0.7731 LP             1 S1                 0.0000
     34 ****        -0.7495   2.5167  -0.7944 LP             1 S1                 0.0000
     35 ****         3.0727   3.6306   1.0704 LP             1 S1                 0.0000
@<TRIPOS>BOND
    1    1    2 2     
    2    2    3 1     
    3    2   10 am    
    4    3    4 1     
    5    3   17 1     
    6    3   18 1     
    7    4    9 1     
    8    4    5 1     
    9    5    6 2     
   10    5   19 1     
   11    6    7 1     
   12    6    8 1     
   13    8    9 2     
   14    8   20 1     
   15   10   11 1     
   16   10   21 1     
   17   11   16 1     
   18   11   12 1     
   19   11   22 1     
   20   12   13 1     
   21   12   23 1     
   22   12   24 1     
   23   13   14 1     
   24   13   25 1     
   25   13   26 1     
   26   14   15 1     
   27   14   27 1     
   28   14   28 1     
   29   15   16 1     
   30   15   29 1     
   31   15   30 1     
   32   16   31 1     
   33   16   32 1     
   34    1   33 1     
   35    1   34 1     
   36    9   35 1     
@<TRIPOS>SUBSTRUCTURE
      1 S1             1
@<TRIPOS>SET
LONE_PAIRS      STATIC     ATOMS    <user>   **** ""
3 33 34 35
DONOR_HYDROGENS      STATIC     ATOMS    <user>   **** ""
1 21
ATOM$BLUE        STATIC     ATOMS    COLORGROUP SYSTEM
3 33 34 35
ATOM$RED        STATIC     ATOMS    COLORGROUP SYSTEM
1 21
