AV-unprocessed.smi:33|AV-procd|sdf|210|dock8
  -GOLD-   2262015513D 1   1.00000     0.00000
 Structure written by MMmdl.
 67 72  0  0  0  0  0  0  0  0  1 V2000
  151.6993  144.0992  156.9529 O   0  0  0  0  0  0  0  0  0  0  0  0
  151.9129  143.1566  157.7178 C   0  0  0  0  0  0  0  0  0  0  0  0
  151.9692  141.8717  157.3199 O   0  0  0  0  0  0  0  0  0  0  0  0
  151.6589  141.5266  155.9802 C   0  0  0  0  0  0  0  0  0  0  0  0
  150.7864  140.2666  155.9858 C   0  0  1  0  0  0  0  0  0  0  0  0
  149.9108  140.2492  154.8587 O   0  0  0  0  0  0  0  0  0  0  0  0
  149.6317  138.9303  154.4857 C   0  0  2  0  0  0  0  0  0  0  0  0
  148.1631  138.6916  154.6493 N   0  0  0  0  0  0  0  0  0  0  0  0
  147.1668  139.6432  154.6507 C   0  0  0  0  0  0  0  0  0  0  0  0
  145.9538  139.1883  154.8107 N   0  0  0  0  0  0  0  0  0  0  0  0
  146.1264  137.8176  154.9445 C   0  0  0  0  0  0  0  0  0  0  0  0
  145.2378  136.7267  155.1423 C   0  0  0  0  0  0  0  0  0  0  0  0
  143.8968  136.8812  155.2426 N   0  0  0  0  0  0  0  0  0  0  0  0
  143.3974  137.6483  156.3923 C   0  0  0  0  0  0  0  0  0  0  0  0
  144.0679  137.7033  157.4249 O   0  0  0  0  0  0  0  0  0  0  0  0
  142.0578  138.3255  156.3292 C   0  0  0  0  0  0  0  0  0  0  0  0
  141.5006  138.6779  155.0805 C   0  0  0  0  0  0  0  0  0  0  0  0
  140.2376  139.2980  155.0166 C   0  0  0  0  0  0  0  0  0  0  0  0
  139.5159  139.5520  156.1985 C   0  0  0  0  0  0  0  0  0  0  0  0
  140.0536  139.1781  157.4446 C   0  0  0  0  0  0  0  0  0  0  0  0
  141.3168  138.5593  157.5097 C   0  0  0  0  0  0  0  0  0  0  0  0
  143.0655  136.2735  154.1927 C   0  0  0  0  0  0  0  0  0  0  0  0
  141.8930  135.9838  154.4384 O   0  0  0  0  0  0  0  0  0  0  0  0
  143.6504  135.9519  152.8463 C   0  0  0  0  0  0  0  0  0  0  0  0
  143.2517  134.7812  152.1644 C   0  0  0  0  0  0  0  0  0  0  0  0
  143.7854  134.4813  150.8962 C   0  0  0  0  0  0  0  0  0  0  0  0
  144.7068  135.3586  150.2934 C   0  0  0  0  0  0  0  0  0  0  0  0
  145.0872  136.5416  150.9550 C   0  0  0  0  0  0  0  0  0  0  0  0
  144.5543  136.8422  152.2234 C   0  0  0  0  0  0  0  0  0  0  0  0
  145.7674  135.4794  155.2293 N   0  0  0  0  0  0  0  0  0  0  0  0
  147.0890  135.3128  155.1278 C   0  0  0  0  0  0  0  0  0  0  0  0
  148.0341  136.2360  154.9377 N   0  0  0  0  0  0  0  0  0  0  0  0
  147.5077  137.4918  154.8502 C   0  0  0  0  0  0  0  0  0  0  0  0
  150.4571  138.0102  155.3965 C   0  0  1  0  0  0  0  0  0  0  0  0
  151.0024  136.8895  154.7299 O   0  0  0  0  0  0  0  0  0  0  0  0
  151.5580  138.9561  155.8488 C   0  0  1  0  0  0  0  0  0  0  0  0
  152.4867  139.0974  154.8979 F   0  0  0  0  0  0  0  0  0  0  0  0
  152.1366  143.3191  159.1835 C   0  0  0  0  0  0  0  0  0  0  0  0
  152.6431  142.2311  159.9321 C   0  0  0  0  0  0  0  0  0  0  0  0
  152.8663  142.3558  161.3172 C   0  0  0  0  0  0  0  0  0  0  0  0
  152.5861  143.5702  161.9703 C   0  0  0  0  0  0  0  0  0  0  0  0
  152.0817  144.6600  161.2369 C   0  0  0  0  0  0  0  0  0  0  0  0
  151.8575  144.5373  159.8518 C   0  0  0  0  0  0  0  0  0  0  0  0
  151.1470  142.3498  155.4797 H   0  0  0  0  0  0  0  0  0  0  0  0
  152.5863  141.3336  155.4391 H   0  0  0  0  0  0  0  0  0  0  0  0
  150.2043  140.2333  156.9062 H   0  0  0  0  0  0  0  0  0  0  0  0
  149.8339  138.7975  153.4218 H   0  0  0  0  0  0  0  0  0  0  0  0
  147.3687  140.6964  154.5212 H   0  0  0  0  0  0  0  0  0  0  0  0
  142.0453  138.4874  154.1669 H   0  0  0  0  0  0  0  0  0  0  0  0
  139.8220  139.5775  154.0599 H   0  0  0  0  0  0  0  0  0  0  0  0
  138.5473  140.0270  156.1487 H   0  0  0  0  0  0  0  0  0  0  0  0
  139.4967  139.3638  158.3511 H   0  0  0  0  0  0  0  0  0  0  0  0
  141.7171  138.2708  158.4711 H   0  0  0  0  0  0  0  0  0  0  0  0
  142.5455  134.1002  152.6171 H   0  0  0  0  0  0  0  0  0  0  0  0
  143.4868  133.5779  150.3852 H   0  0  0  0  0  0  0  0  0  0  0  0
  145.1163  135.1274  149.3211 H   0  0  0  0  0  0  0  0  0  0  0  0
  145.7870  137.2198  150.4895 H   0  0  0  0  0  0  0  0  0  0  0  0
  144.8499  137.7557  152.7191 H   0  0  0  0  0  0  0  0  0  0  0  0
  147.4392  134.2944  155.2073 H   0  0  0  0  0  0  0  0  0  0  0  0
  149.8631  137.6895  156.2532 H   0  0  0  0  0  0  0  0  0  0  0  0
  150.4417  136.6727  154.0006 H   0  0  0  0  0  0  0  0  0  0  0  0
  152.0555  138.6423  156.7670 H   0  0  0  0  0  0  0  0  0  0  0  0
  152.8661  141.2889  159.4524 H   0  0  0  0  0  0  0  0  0  0  0  0
  153.2537  141.5182  161.8783 H   0  0  0  0  0  0  0  0  0  0  0  0
  152.7578  143.6660  163.0324 H   0  0  0  0  0  0  0  0  0  0  0  0
  151.8667  145.5929  161.7370 H   0  0  0  0  0  0  0  0  0  0  0  0
  151.4709  145.3939  159.3190 H   0  0  0  0  0  0  0  0  0  0  0  0
  1  2  2  0  0  0  0
  2  3  1  0  0  0  0
  2 38  1  0  0  0  0
  3  4  1  0  0  0  0
  4  5  1  0  0  0  0
  4 44  1  0  0  0  0
  4 45  1  0  0  0  0
  5 36  1  0  0  0  0
  5  6  1  0  0  0  0
  5 46  1  0  0  0  0
  6  7  1  0  0  0  0
  7  8  1  0  0  0  0
  7 34  1  0  0  0  0
  7 47  1  0  0  0  0
  8 33  1  0  0  0  0
  8  9  1  0  0  0  0
  9 10  2  0  0  0  0
  9 48  1  0  0  0  0
 10 11  1  0  0  0  0
 11 33  2  0  0  0  0
 11 12  1  0  0  0  0
 12 13  1  0  0  0  0
 12 30  2  0  0  0  0
 13 14  1  0  0  0  0
 13 22  1  0  0  0  0
 14 15  2  0  0  0  0
 14 16  1  0  0  0  0
 16 21  1  0  0  0  0
 16 17  2  0  0  0  0
 17 18  1  0  0  0  0
 17 49  1  0  0  0  0
 18 19  2  0  0  0  0
 18 50  1  0  0  0  0
 19 20  1  0  0  0  0
 19 51  1  0  0  0  0
 20 21  2  0  0  0  0
 20 52  1  0  0  0  0
 21 53  1  0  0  0  0
 22 23  2  0  0  0  0
 22 24  1  0  0  0  0
 24 29  1  0  0  0  0
 24 25  2  0  0  0  0
 25 26  1  0  0  0  0
 25 54  1  0  0  0  0
 26 27  2  0  0  0  0
 26 55  1  0  0  0  0
 27 28  1  0  0  0  0
 27 56  1  0  0  0  0
 28 29  2  0  0  0  0
 28 57  1  0  0  0  0
 29 58  1  0  0  0  0
 30 31  1  0  0  0  0
 31 32  2  0  0  0  0
 31 59  1  0  0  0  0
 32 33  1  0  0  0  0
 34 35  1  0  0  0  0
 34 36  1  0  0  0  0
 34 60  1  0  0  0  0
 35 61  1  0  0  0  0
 36 37  1  0  0  0  0
 36 62  1  0  0  0  0
 38 43  1  0  0  0  0
 38 39  2  0  0  0  0
 39 40  1  0  0  0  0
 39 63  1  0  0  0  0
 40 41  2  0  0  0  0
 40 64  1  0  0  0  0
 41 42  1  0  0  0  0
 41 65  1  0  0  0  0
 42 43  2  0  0  0  0
 42 66  1  0  0  0  0
 43 67  1  0  0  0  0
M  END
> <s_m_source_file>
AV-unprocessed.smi

> <i_m_source_file_index>
33

> <i_lp_mmshare_version>
43012

> <i_f3d_flags>
0

> <s_epik_input>
W2NIXTFbY0hdW2NIXVtjSF1bY0hdYzFDKD1PKU9bQ0gyXVtDQEBIXTJPW0NASF0oW0NAQEhdKFtPSF0pW0NAQEhdMkYpbihbY0hdbjMpYyhjMzQpbltjSF1uYzROKEMoPU8pYzVbY0hdW2NIXVtjSF1bY0hdW2NIXTUpQyg9TyljNltjSF1bY0hdW2NIXVtjSF1bY0hdNg==

> <s_epik_cmdline>
J2VwaWtfcHl0aG9uJywgJy1waCcsICc3LjAnLCAnLXRuJywgJzgnLCAnLW1hJywgJzIwMCcsICctbWV0YWxfYmluZGluZycsICctaW1hZScsICc8aW5maWxlLm1hZT4nLCAnLW9tYWUnLCAnPG91dGZpbGUubWFlPic=

> <r_lp_tautomer_probability>
1

> <r_epik_Ionization_Penalty>
0.00067664

> <r_epik_Ionization_Penalty_Charging>
0

> <r_epik_Ionization_Penalty_Neutral>
0.00067664

> <r_epik_State_Penalty>
0.000428095

> <r_epik_Charging_Adjusted_Penalty>
0.000428095

> <i_epik_Tot_Q>
0

> <i_epik_Tot_abs_Q>
0

> <r_epik_Metal_State_Penalty>
-0

> <b_epik_Metal_Only>
0

> <s_epik_Chemistry_Notes>
This compound has an ester and may undergo hydrolysis at high or low pH. This compound contains an acetal/aminal-like group ( X-CH(R)-Y where X, Y are N, S, or O) that may be acid/base labile, releasing an aldehyde.

> <s_lp_Force_Field>
OPLS_2005

> <r_lp_Energy>
69.9903

> <b_lp_Chiralities_Consistent>
1

> <s_lp_Variant>
AV-unprocessed.smi:33-12

> <Gold.Version>
5.8.1

> <Gold.Id.Protein>
6NUR|6NUR_protein|mol2

> <Gold.PLP.Fitness>
54.1086

> <Gold.PLP.PLP>
-52.6573

> <Gold.PLP.part.hbond>
-2.8213

> <Gold.PLP.part.metal>
0.0000

> <Gold.PLP.part.buried>
-6.3544

> <Gold.PLP.part.nonpolar>
-46.0135

> <Gold.PLP.part.repulsive>
1.5005

> <Gold.PLP.ligand.clash>
0.0000

> <Gold.PLP.ligand.torsion>
4.0036

> <Gold.PLP.Chemscore.Hbond>
1.5303

> <Gold.PLP.Chemscore.CHOScore>
0.0000

> <Gold.PLP.Chemscore.Metal>
0.0000

> <Gold.Chemscore.Hbonds>
donor molecule, donor type, donor heavy atom, donor atom, acceptor molecule, acceptor atom, score
      P1  H  7989  7998       L1     6  0.21
      P1  H 10752 10765       L1    35  0.26

> <Gold.PLP.Chemscore.Internal.Correction>
4.8678

> <Gold.Rescore>
     Score         DG    S(hbond)    S(metal)    S(lipo)     H(rot)  DE(clash)    DE(int)     intcor
      8.70     -18.84       1.47        0.00     127.49       2.52       0.80       9.35       ----

> <Gold.Chemscore.Fitness>
8.6979

> <Gold.Chemscore.DG>
-18.8423

> <Gold.Chemscore.ZeroCoef>
-5.4800

> <Gold.Chemscore.Hbond>
1.4699

> <Gold.Chemscore.Metal>
0.0000

> <Gold.Chemscore.Lipo>
127.4873

> <Gold.Chemscore.Internal_Hbond>
0.0000

> <Gold.Chemscore.DEClash>
0.7987

> <Gold.Chemscore.DEInternal>
9.3456

> <Gold.Chemscore.Rot>
2.5247

> <Gold.Chemscore.Internal.Correction>
   9.000000E+99

> <Gold.Chemscore.Hbonds>
donor molecule, donor type, donor heavy atom, donor atom, acceptor molecule, acceptor atom, score
      P1  H  7989  7998       L1     6  0.01
      P1  H 10752 10765       L1    35  0.17

> <Gold.Chemscore.Hbond.Weighted>
-4.9095

> <Gold.Chemscore.Metal.Weighted>
-0.0000

> <Gold.Chemscore.Lipo.Weighted>
-14.9160

> <Gold.Chemscore.Internal_Hbond.Weighted>
0.0000

> <Gold.Chemscore.DEClash.Weighted>
0.7987

> <Gold.Chemscore.DEInternal.Weighted>
9.3456

> <Gold.Chemscore.Rot.Weighted>
6.4633

> <Gold.Chemscore.Internal.Correction.Weighted>
   9.000000E+99

> <Gold.Protein.RotatedTorsions>
[ 6907 6896 6895 6894 ] final   66.95 input  -60.11 | X-H torsion
[ 7974 7965 7964 7962 ] final   54.44 input  175.53 | X-H torsion
[ 8008 7997 7996 7995 ] final  143.42 input   59.86 | X-H torsion
[ 10167 10162 10161 10158 ] final  -42.19 input  -65.29 | X-H torsion
[ 10718 10713 10712 10709 ] final   25.05 input   66.30 | X-H torsion
[ 10763 10752 10751 10750 ] final -179.79 input  -60.55 | X-H torsion
[ 11005 11000 10999 10996 ] final  -33.40 input  -57.11 | X-H torsion

> <Gold.Protein.ActiveResidues>
 VAL166  LYS551  ARG553  GLY616  TRP617  ASP618  TYR619  PRO620  LYS621  CYS622 
 ASP623  PHE694  ASN695  SER759  ASP760  ASP761  ALA762  ILE779  LEU786  VAL792 
 PHE793  MET794  SER795  GLU796  ALA797  LYS798  CYS799  TRP800  GLU811  SER814 

> <Gold.Protein.RotatedAtoms>
  152.4517  134.5379  159.9830 H   0  0  0  0  0  0  0  0  0  0  0  0  # atno 6907 bound_to 6896
  151.5450  133.3421  159.2950 H   0  0  0  0  0  0  0  0  0  0  0  0  # atno 6908 bound_to 6896
  150.8448  134.7785  159.7025 H   0  0  0  0  0  0  0  0  0  0  0  0  # atno 6909 bound_to 6896
  145.9608  139.4057  143.0249 H   0  0  0  0  0  0  0  0  0  0  0  0  # atno 7974 bound_to 7965
  156.2930  140.2263  156.4887 H   0  0  0  0  0  0  0  0  0  0  0  0  # atno 8008 bound_to 7997
  154.7790  140.0461  157.1133 H   0  0  0  0  0  0  0  0  0  0  0  0  # atno 8009 bound_to 7997
  154.9782  140.3075  155.4961 H   0  0  0  0  0  0  0  0  0  0  0  0  # atno 8010 bound_to 7997
  140.6977  143.3051  151.3174 H   0  0  0  0  0  0  0  0  0  0  0  0  # atno 10167 bound_to 10162
  157.1882  130.6834  149.6139 H   0  0  0  0  0  0  0  0  0  0  0  0  # atno 10718 bound_to 10713
  154.5306  135.2799  155.1183 H   0  0  0  0  0  0  0  0  0  0  0  0  # atno 10763 bound_to 10752
  154.2705  135.6304  153.5312 H   0  0  0  0  0  0  0  0  0  0  0  0  # atno 10764 bound_to 10752
  152.9956  135.5627  154.5818 H   0  0  0  0  0  0  0  0  0  0  0  0  # atno 10765 bound_to 10752
  140.9632  133.7152  156.1402 H   0  0  0  0  0  0  0  0  0  0  0  0  # atno 11005 bound_to 11000
  145.8043  140.9756  143.0982 LP  0  0  0  0  0  0  0  0  0  0  0  0  # atno 17320 bound_to 7965
  144.6814  139.9840  143.7484 LP  0  0  0  0  0  0  0  0  0  0  0  0  # atno 17321 bound_to 7965
  139.6454  144.0461  152.2587 LP  0  0  0  0  0  0  0  0  0  0  0  0  # atno 17342 bound_to 10162
  139.9980  144.6314  150.7755 LP  0  0  0  0  0  0  0  0  0  0  0  0  # atno 17343 bound_to 10162
  155.9715  130.4623  150.6143 LP  0  0  0  0  0  0  0  0  0  0  0  0  # atno 17370 bound_to 10713
  157.3887  131.0792  151.1413 LP  0  0  0  0  0  0  0  0  0  0  0  0  # atno 17371 bound_to 10713
  140.7438  134.4121  157.5551 LP  0  0  0  0  0  0  0  0  0  0  0  0  # atno 17394 bound_to 11000
  139.8885  134.8854  156.2470 LP  0  0  0  0  0  0  0  0  0  0  0  0  # atno 17395 bound_to 11000

$$$$
