#       Name:                AV-unprocessed.smi:1017
#       Creating user name   scv26
#       Creation time:       Fri Mar 27 02:39:57 2020


#       File generated by GOLD software.
#

@<TRIPOS>MOLECULE
AV-unprocessed.smi:1017
    51    52     1
SMALL
NO_CHARGES


@<TRIPOS>ATOM
      1 ****        -6.6774   0.8140   2.9367 C.3            1 S1                 0.0000
      2 ****        -5.8553   1.2634   1.8712 O.3            1 S1                 0.0000
      3 ****        -4.4643   1.2297   2.1594 C.3            1 S1                 0.0000
      4 ****        -3.8890  -0.1956   2.0470 C.3            1 S1                 0.0000
      5 ****        -2.4353  -0.2029   2.2380 N.am           1 S1                 0.0000
      6 ****        -1.7102  -0.2124   1.0586 N.2            1 S1                 0.0000
      7 ****        -0.4163  -0.2124   1.0841 C.2            1 S1                 0.0000
      8 ****         0.3692  -0.2245  -0.1909 C.2            1 S1                 0.0000
      9 ****        -0.3070  -0.2491  -1.2262 O.2            1 S1                 0.0000
     10 ****         1.7361  -0.2083  -0.1281 N.pl3          1 S1                -1.0000
     11 ****         2.7241  -0.2182  -1.2310 C.3            1 S1                 0.0000
     12 ****         4.1288  -0.1829  -0.5494 C.3            1 S1                 0.0000
     13 ****         5.1287  -0.1865  -1.4287 F              1 S1                 0.0000
     14 ****         4.2563   0.9151   0.1994 F              1 S1                 0.0000
     15 ****         4.2890  -1.2434   0.2457 F              1 S1                 0.0000
     16 ****         2.5446  -1.5094  -2.0965 C.3            1 S1                 0.0000
     17 ****         3.3283  -1.5224  -3.4335 C.3            1 S1                 0.0000
     18 ****         3.0383  -0.2833  -4.3026 C.3            1 S1                 0.0000
     19 ****         3.2934   1.0015  -3.4909 C.3            1 S1                 0.0000
     20 ****         2.5105   1.0277  -2.1535 C.3            1 S1                 0.0000
     21 ****         0.2957  -0.2017   2.3568 C.2            1 S1                 0.0000
     22 ****        -0.4260  -0.1915   3.4985 C.2            1 S1                 0.0000
     23 ****        -1.8887  -0.1897   3.4902 C.2            1 S1                 0.0000
     24 ****        -2.5679  -0.1745   4.5168 O.2            1 S1                 0.0000
     25 ****        -7.7248   0.9204   2.6544 H              1 S1                 0.0000
     26 ****        -6.5141   1.4044   3.8392 H              1 S1                 0.0000
     27 ****        -6.5042  -0.2367   3.1689 H              1 S1                 0.0000
     28 ****        -3.9674   1.8704   1.4302 H              1 S1                 0.0000
     29 ****        -4.2651   1.6671   3.1389 H              1 S1                 0.0000
     30 ****        -4.3577  -0.8656   2.7686 H              1 S1                 0.0000
     31 ****        -4.1366  -0.6068   1.0666 H              1 S1                 0.0000
     32 ****         2.8107  -2.3909  -1.5125 H              1 S1                 0.0000
     33 ****         1.4958  -1.6446  -2.3580 H              1 S1                 0.0000
     34 ****         4.4005  -1.6058  -3.2548 H              1 S1                 0.0000
     35 ****         3.0611  -2.4197  -3.9925 H              1 S1                 0.0000
     36 ****         3.6551  -0.2951  -5.2015 H              1 S1                 0.0000
     37 ****         1.9991  -0.3052  -4.6333 H              1 S1                 0.0000
     38 ****         4.3628   1.1231  -3.3179 H              1 S1                 0.0000
     39 ****         3.0012   1.8643  -4.0901 H              1 S1                 0.0000
     40 ****         1.4589   1.1240  -2.4200 H              1 S1                 0.0000
     41 ****         2.7534   1.9410  -1.6100 H              1 S1                 0.0000
     42 ****         1.3746  -0.2023   2.4052 H              1 S1                 0.0000
     43 ****         0.0914  -0.1837   4.4464 H              1 S1                 0.0000
     44 ****        -6.1087   2.2062   1.6549 LP             1 S1                 0.0000
     45 ****        -6.0257   0.6816   1.0759 LP             1 S1                 0.0000
     46 ****        -2.1896  -0.2193   0.1810 LP             1 S1                 0.0000
     47 ****        -1.3054  -0.2594  -1.1711 LP             1 S1                 0.0000
     48 ****         0.1447  -0.2587  -2.1183 LP             1 S1                 0.0000
     49 ****         2.1228  -0.1867   0.7939 LP             1 S1                 0.0000
     50 ****        -3.5660  -0.1714   4.4560 LP             1 S1                 0.0000
     51 ****        -2.1215  -0.1653   5.4116 LP             1 S1                 0.0000
@<TRIPOS>BOND
    1    1    2 1     
    2    1   25 1     
    3    1   26 1     
    4    1   27 1     
    5    2    3 1     
    6    3    4 1     
    7    3   28 1     
    8    3   29 1     
    9    4    5 1     
   10    4   30 1     
   11    4   31 1     
   12    5   23 am    
   13    5    6 1     
   14    6    7 2     
   15    7    8 1     
   16    7   21 1     
   17    8    9 2     
   18    8   10 1     
   19   10   11 1     
   20   11   20 1     
   21   11   12 1     
   22   11   16 1     
   23   12   13 1     
   24   12   14 1     
   25   12   15 1     
   26   16   17 1     
   27   16   32 1     
   28   16   33 1     
   29   17   18 1     
   30   17   34 1     
   31   17   35 1     
   32   18   19 1     
   33   18   36 1     
   34   18   37 1     
   35   19   20 1     
   36   19   38 1     
   37   19   39 1     
   38   20   40 1     
   39   20   41 1     
   40   21   22 2     
   41   21   42 1     
   42   22   23 1     
   43   22   43 1     
   44   23   24 2     
   45    2   44 1     
   46    2   45 1     
   47    6   46 1     
   48    9   47 1     
   49    9   48 1     
   50   10   49 1     
   51   24   50 1     
   52   24   51 1     
@<TRIPOS>SUBSTRUCTURE
      1 S1             1
@<TRIPOS>SET
LONE_PAIRS      STATIC     ATOMS    <user>   **** ""
8 44 45 46 47 48 49 50 51
ATOM$BLUE        STATIC     ATOMS    COLORGROUP SYSTEM
8 44 45 46 47 48 49 50 51
