AV-unprocessed.smi:55|AV-procd|sdf|575|dock1
  -GOLD-   2262016473D 1   1.00000     0.00000
 Structure written by MMmdl.
 30 31  0  0  0  0  0  0  0  0  2 V2000
  151.2428  144.8161  158.9137 C   0  0  0  0  0  0  0  0  0  0  0  0
  151.3893  143.3201  158.6969 C   0  0  0  0  0  0  0  0  0  0  0  0
  150.5126  142.6097  157.9525 C   0  0  0  0  0  0  0  0  0  0  0  0
  150.6513  141.2455  157.7571 N   0  0  0  0  0  0  0  0  0  0  0  0
  149.6665  140.4543  156.9198 C   0  0  2  0  0  0  0  0  0  0  0  0
  150.2777  140.1041  155.5544 C   0  0  0  0  0  0  0  0  0  0  0  0
  149.1777  140.5102  154.5928 C   0  0  2  0  0  0  0  0  0  0  0  0
  149.7110  140.8775  153.3369 O   0  0  0  0  0  0  0  0  0  0  0  0
  148.5329  141.6881  155.3229 C   0  0  1  0  0  0  0  0  0  0  0  0
  147.0979  141.9866  154.8630 C   0  0  0  0  0  0  0  0  0  0  0  0
  147.0641  143.1874  154.1216 O   0  0  0  0  0  0  0  0  0  0  0  0
  148.5248  141.2243  156.6701 O   0  0  0  0  0  0  0  0  0  0  0  0
  151.7428  140.5610  158.3530 C   0  0  0  0  0  0  0  0  0  0  0  0
  151.8402  139.3489  158.1583 O   0  0  0  0  0  0  0  0  0  0  0  0
  152.6313  141.2691  159.1068 N   0  5  0  0  0  0  0  0  0  0  0  0
  152.5181  142.6124  159.3130 C   0  0  0  0  0  0  0  0  0  0  0  0
  153.3290  143.2395  159.9943 O   0  0  0  0  0  0  0  0  0  0  0  0
  149.3880  139.5884  157.5225 H   0  0  0  0  0  0  0  0  0  0  0  0
  148.4634  139.6940  154.4753 H   0  0  0  0  0  0  0  0  0  0  0  0
  149.1709  142.5699  155.2355 H   0  0  0  0  0  0  0  0  0  0  0  0
  150.3645  145.2075  158.3996 H   0  0  0  0  0  0  0  0  0  0  0  0
  152.1188  145.3431  158.5347 H   0  0  0  0  0  0  0  0  0  0  0  0
  151.1393  145.0384  159.9762 H   0  0  0  0  0  0  0  0  0  0  0  0
  149.6842  143.1352  157.5030 H   0  0  0  0  0  0  0  0  0  0  0  0
  151.1789  140.6982  155.3911 H   0  0  0  0  0  0  0  0  0  0  0  0
  150.5367  139.0464  155.4982 H   0  0  0  0  0  0  0  0  0  0  0  0
  149.4328  140.2413  152.6960 H   0  0  0  0  0  0  0  0  0  0  0  0
  146.7405  141.1903  154.2096 H   0  0  0  0  0  0  0  0  0  0  0  0
  146.4134  142.0424  155.7099 H   0  0  0  0  0  0  0  0  0  0  0  0
  147.7105  143.7779  154.4770 H   0  0  0  0  0  0  0  0  0  0  0  0
  1  2  1  0  0  0  0
  1 21  1  0  0  0  0
  1 22  1  0  0  0  0
  1 23  1  0  0  0  0
  2 16  1  0  0  0  0
  2  3  2  0  0  0  0
  3  4  1  0  0  0  0
  3 24  1  0  0  0  0
  4  5  1  0  0  0  0
  4 13  1  0  0  0  0
  5 18  1  0  0  0  0
  5 12  1  0  0  0  0
  5  6  1  0  0  0  0
  6  7  1  0  0  0  0
  6 25  1  0  0  0  0
  6 26  1  0  0  0  0
  7 19  1  0  0  0  0
  7  8  1  0  0  0  0
  7  9  1  0  0  0  0
  8 27  1  0  0  0  0
  9 20  1  0  0  0  0
  9 10  1  0  0  0  0
  9 12  1  0  0  0  0
 10 11  1  0  0  0  0
 10 28  1  0  0  0  0
 10 29  1  0  0  0  0
 11 30  1  0  0  0  0
 13 14  2  0  0  0  0
 13 15  1  0  0  0  0
 15 16  1  0  0  0  0
 16 17  2  0  0  0  0
M  CHG  1  15  -1
M  END
> <s_m_source_file>
AV-unprocessed.smi

> <i_m_source_file_index>
55

> <i_lp_mmshare_version>
43012

> <i_f3d_flags>
0

> <s_epik_input>
Tz1jMVtuSF1jKD1PKW4oW2NIXWMxW0NIM10pW0NAQEhdMltDSDJdW0NAQEhdKFtPSF0pW0NAQEhdKE8yKVtDSDJdW09IXQ==

> <s_epik_cmdline>
J2VwaWtfcHl0aG9uJywgJy1waCcsICc3LjAnLCAnLXRuJywgJzgnLCAnLW1hJywgJzIwMCcsICctbWV0YWxfYmluZGluZycsICctaW1hZScsICc8aW5maWxlLm1hZT4nLCAnLW9tYWUnLCAnPG91dGZpbGUubWFlPic=

> <r_lp_tautomer_probability>
0.999537

> <r_epik_Ionization_Penalty>
3.66603

> <r_epik_Ionization_Penalty_Charging>
1.09773e-07

> <r_epik_Ionization_Penalty_Neutral>
3.66603

> <r_epik_State_Penalty>
3.66562

> <r_epik_Charging_Adjusted_Penalty>
3.66562

> <i_epik_Tot_Q>
-1

> <i_epik_Tot_abs_Q>
1

> <r_epik_Metal_State_Penalty>
0.234536

> <b_epik_Metal_Only>
1

> <s_epik_Chemistry_Notes>
This compound contains an acetal/aminal-like group ( X-CH(R)-Y where X, Y are N, S, or O) that may be acid/base labile, releasing an aldehyde.

> <s_lp_Force_Field>
OPLS_2005

> <r_lp_Energy>
36.1714

> <b_lp_Chiralities_Consistent>
1

> <s_lp_Variant>
AV-unprocessed.smi:55-15

> <Gold.Version>
5.8.1

> <Gold.Id.Protein>
6NUR|6NUR_protein|mol2

> <Gold.PLP.Fitness>
40.3679

> <Gold.PLP.PLP>
-30.5666

> <Gold.PLP.part.hbond>
-4.0937

> <Gold.PLP.part.metal>
0.0000

> <Gold.PLP.part.buried>
-2.4531

> <Gold.PLP.part.nonpolar>
-23.7533

> <Gold.PLP.part.repulsive>
0.0826

> <Gold.PLP.ligand.clash>
0.0000

> <Gold.PLP.ligand.torsion>
0.9755

> <Gold.PLP.Chemscore.Hbond>
2.9120

> <Gold.PLP.Chemscore.CHOScore>
1.0000

> <Gold.PLP.Chemscore.Metal>
0.0000

> <Gold.Chemscore.Hbonds>
donor molecule, donor type, donor heavy atom, donor atom, acceptor molecule, acceptor atom, score
      L1  H     8    27       P1  7957  0.72
      L1  H    11    30       P1  8028  1.00
      P1  H  7989  7998       L1     8  0.24
      P1  H  8011  8017       L1     8  1.00
      L1  C     3    24       P1  8028  0.96

> <Gold.PLP.Chemscore.Internal.Correction>
0.0163

> <Gold.Rescore>
     Score         DG    S(hbond)    S(metal)    S(lipo)     H(rot)  DE(clash)    DE(int)     intcor
     10.71     -11.86       2.05        0.00      54.89       2.69       0.24       0.90       ----

> <Gold.Chemscore.Fitness>
10.7134

> <Gold.Chemscore.DG>
-11.8556

> <Gold.Chemscore.ZeroCoef>
-5.4800

> <Gold.Chemscore.Hbond>
2.0457

> <Gold.Chemscore.Metal>
0.0000

> <Gold.Chemscore.Lipo>
54.8894

> <Gold.Chemscore.Internal_Hbond>
0.0000

> <Gold.Chemscore.DEClash>
0.2430

> <Gold.Chemscore.DEInternal>
0.8991

> <Gold.Chemscore.Rot>
2.6871

> <Gold.Chemscore.Internal.Correction>
   9.000000E+99

> <Gold.Chemscore.Hbonds>
donor molecule, donor type, donor heavy atom, donor atom, acceptor molecule, acceptor atom, score
      L1  H     8    27       P1  7957  0.69
      L1  H    11    30       P1  8028  0.26
      P1  H  7989  7998       L1     8  0.13
      P1  H  8011  8017       L1     8  0.34

> <Gold.Chemscore.Hbond.Weighted>
-6.8325

> <Gold.Chemscore.Metal.Weighted>
-0.0000

> <Gold.Chemscore.Lipo.Weighted>
-6.4221

> <Gold.Chemscore.Internal_Hbond.Weighted>
0.0000

> <Gold.Chemscore.DEClash.Weighted>
0.2430

> <Gold.Chemscore.DEInternal.Weighted>
0.8991

> <Gold.Chemscore.Rot.Weighted>
6.8791

> <Gold.Chemscore.Internal.Correction.Weighted>
   9.000000E+99

> <Gold.Protein.RotatedTorsions>
[ 6907 6896 6895 6894 ] final  -89.10 input  -60.11 | X-H torsion
[ 7974 7965 7964 7962 ] final  -11.75 input  175.53 | X-H torsion
[ 8008 7997 7996 7995 ] final   14.67 input   59.86 | X-H torsion
[ 10167 10162 10161 10158 ] final  124.26 input  -65.29 | X-H torsion
[ 10718 10713 10712 10709 ] final -142.90 input   66.30 | X-H torsion
[ 10763 10752 10751 10750 ] final   43.25 input  -60.55 | X-H torsion
[ 11005 11000 10999 10996 ] final  -61.89 input  -57.11 | X-H torsion

> <Gold.Protein.ActiveResidues>
 VAL166  LYS551  ARG553  GLY616  TRP617  ASP618  TYR619  PRO620  LYS621  CYS622 
 ASP623  PHE694  ASN695  SER759  ASP760  ASP761  ALA762  ILE779  LEU786  VAL792 
 PHE793  MET794  SER795  GLU796  ALA797  LYS798  CYS799  TRP800  GLU811  SER814 

> <Gold.Protein.RotatedAtoms>
  150.6872  134.2638  159.4559 H   0  0  0  0  0  0  0  0  0  0  0  0  # atno 6907 bound_to 6896
  152.0566  134.9618  160.0584 H   0  0  0  0  0  0  0  0  0  0  0  0  # atno 6908 bound_to 6896
  152.1061  133.4241  159.4646 H   0  0  0  0  0  0  0  0  0  0  0  0  # atno 6909 bound_to 6896
  146.2176  140.2957  142.8371 H   0  0  0  0  0  0  0  0  0  0  0  0  # atno 7974 bound_to 7965
  154.8518  140.2931  155.5594 H   0  0  0  0  0  0  0  0  0  0  0  0  # atno 8008 bound_to 7997
  156.3017  140.2494  156.3410 H   0  0  0  0  0  0  0  0  0  0  0  0  # atno 8009 bound_to 7997
  154.9013  140.0391  157.1884 H   0  0  0  0  0  0  0  0  0  0  0  0  # atno 8010 bound_to 7997
  139.5752  144.6959  151.3673 H   0  0  0  0  0  0  0  0  0  0  0  0  # atno 10167 bound_to 10162
  156.3514  130.7690  151.1843 H   0  0  0  0  0  0  0  0  0  0  0  0  # atno 10718 bound_to 10713
  152.9865  135.6107  154.3081 H   0  0  0  0  0  0  0  0  0  0  0  0  # atno 10763 bound_to 10752
  154.2798  135.2777  155.2704 H   0  0  0  0  0  0  0  0  0  0  0  0  # atno 10764 bound_to 10752
  154.5048  135.5857  153.6615 H   0  0  0  0  0  0  0  0  0  0  0  0  # atno 10765 bound_to 10752
  141.1340  133.6634  156.5443 H   0  0  0  0  0  0  0  0  0  0  0  0  # atno 11005 bound_to 11000
  144.9094  140.7738  143.5817 LP  0  0  0  0  0  0  0  0  0  0  0  0  # atno 17320 bound_to 7965
  145.2887  139.1891  143.4752 LP  0  0  0  0  0  0  0  0  0  0  0  0  # atno 17321 bound_to 7965
  140.7035  143.7573  150.7442 LP  0  0  0  0  0  0  0  0  0  0  0  0  # atno 17342 bound_to 10162
  140.1091  143.4716  152.2381 LP  0  0  0  0  0  0  0  0  0  0  0  0  # atno 17343 bound_to 10162
  157.7461  131.0426  150.4704 LP  0  0  0  0  0  0  0  0  0  0  0  0  # atno 17370 bound_to 10713
  156.4899  130.4093  149.6412 LP  0  0  0  0  0  0  0  0  0  0  0  0  # atno 17371 bound_to 10713
  140.4114  134.7269  157.4838 LP  0  0  0  0  0  0  0  0  0  0  0  0  # atno 17394 bound_to 11000
  140.0424  134.6247  155.8963 LP  0  0  0  0  0  0  0  0  0  0  0  0  # atno 17395 bound_to 11000

$$$$
