#       Name:                AV-unprocessed.smi:3045
#       Creating user name   scv26
#       Creation time:       Fri Mar 27 16:59:01 2020


#       File generated by GOLD software.
#

@<TRIPOS>MOLECULE
AV-unprocessed.smi:3045
    40    41     1
SMALL
NO_CHARGES


@<TRIPOS>ATOM
      1 ****        -4.9878   0.1184  -1.7972 C.3            1 S1                 0.0000
      2 ****        -4.1483   0.4327  -0.6492 N.am           1 S1                 0.0000
      3 ****        -3.1895  -0.5298  -0.1353 C.3            1 S1                 0.0000
      4 ****        -2.3971   0.2180   0.9596 C.3            1 S1                 0.0000
      5 ****        -0.9395   0.4789   0.5488 C.2            1 S1                 0.0000
      6 ****        -0.6874   1.1243  -0.4695 O.2            1 S1                 0.0000
      7 ****         0.0091  -0.0341   1.3472 N.am           1 S1                 0.0000
      8 ****         1.4445   0.0909   1.1261 C.3            1 S1                 0.0000
      9 ****         1.9431  -0.9119   0.0730 C.3            1 S1                 0.0000
     10 ****         3.4385  -0.8079  -0.1501 C.ar           1 S1                 0.0000
     11 ****         3.9671   0.0979  -1.0927 C.ar           1 S1                 0.0000
     12 ****         5.3634   0.1611  -1.2631 C.ar           1 S1                 0.0000
     13 ****         6.1735  -0.6863  -0.4808 C.ar           1 S1                 0.0000
     14 ****         5.6783  -1.5563   0.4257 N.ar           1 S1                 0.0000
     15 ****         4.3382  -1.6110   0.5825 C.ar           1 S1                 0.0000
     16 ****        -3.1671   1.5354   1.1858 C.3            1 S1                 0.0000
     17 ****        -4.1902   1.5620   0.0627 C.2            1 S1                 0.0000
     18 ****        -4.9371   2.5184  -0.1383 O.2            1 S1                 0.0000
     19 ****        -6.0328   0.0425  -1.4953 H              1 S1                 0.0000
     20 ****        -4.6959  -0.8294  -2.2502 H              1 S1                 0.0000
     21 ****        -4.9046   0.8952  -2.5580 H              1 S1                 0.0000
     22 ****        -3.7245  -1.3814   0.2870 H              1 S1                 0.0000
     23 ****        -2.5562  -0.9055  -0.9412 H              1 S1                 0.0000
     24 ****        -2.4067  -0.3718   1.8780 H              1 S1                 0.0000
     25 ****        -0.2840  -0.5503   2.1641 H              1 S1                 0.0000
     26 ****         1.6892   1.1125   0.8297 H              1 S1                 0.0000
     27 ****         1.9492  -0.0861   2.0763 H              1 S1                 0.0000
     28 ****         1.6983  -1.9297   0.3796 H              1 S1                 0.0000
     29 ****         1.4359  -0.7477  -0.8787 H              1 S1                 0.0000
     30 ****         3.3156   0.7342  -1.6736 H              1 S1                 0.0000
     31 ****         5.8033   0.8425  -1.9761 H              1 S1                 0.0000
     32 ****         7.2481  -0.6639  -0.5855 H              1 S1                 0.0000
     33 ****         3.9743  -2.3157   1.3160 H              1 S1                 0.0000
     34 ****        -3.6824   1.5296   2.1466 H              1 S1                 0.0000
     35 ****        -2.5369   2.4256   1.1478 H              1 S1                 0.0000
     36 ****        -1.4328   1.4809  -1.0328 LP             1 S1                 0.0000
     37 ****         0.2626   1.2916  -0.7331 LP             1 S1                 0.0000
     38 ****         6.2848  -2.1416   0.9638 LP             1 S1                 0.0000
     39 ****        -5.5908   2.4920  -0.8947 LP             1 S1                 0.0000
     40 ****        -4.8907   3.3223   0.4546 LP             1 S1                 0.0000
@<TRIPOS>BOND
    1    1    2 1     
    2    1   19 1     
    3    1   20 1     
    4    1   21 1     
    5    2   17 am    
    6    2    3 1     
    7    3    4 1     
    8    3   22 1     
    9    3   23 1     
   10    4    5 1     
   11    4   16 1     
   12    4   24 1     
   13    5    6 2     
   14    5    7 am    
   15    7    8 1     
   16    7   25 1     
   17    8    9 1     
   18    8   26 1     
   19    8   27 1     
   20    9   10 1     
   21    9   28 1     
   22    9   29 1     
   23   10   15 ar    
   24   10   11 ar    
   25   11   12 ar    
   26   11   30 1     
   27   12   13 ar    
   28   12   31 1     
   29   13   14 ar    
   30   13   32 1     
   31   14   15 ar    
   32   15   33 1     
   33   16   17 1     
   34   16   34 1     
   35   16   35 1     
   36   17   18 2     
   37    6   36 1     
   38    6   37 1     
   39   14   38 1     
   40   18   39 1     
   41   18   40 1     
@<TRIPOS>SUBSTRUCTURE
      1 S1             1
@<TRIPOS>SET
LONE_PAIRS      STATIC     ATOMS    <user>   **** ""
5 36 37 38 39 40
DONOR_HYDROGENS      STATIC     ATOMS    <user>   **** ""
1 25
ATOM$BLUE        STATIC     ATOMS    COLORGROUP SYSTEM
5 36 37 38 39 40
ATOM$RED        STATIC     ATOMS    COLORGROUP SYSTEM
1 25
