#       Name:                AV-unprocessed.smi:467
#       Creating user name   scv26
#       Creation time:       Thu Mar 26 23:05:23 2020


#       File generated by GOLD software.
#

@<TRIPOS>MOLECULE
AV-unprocessed.smi:467
    50    52     1
SMALL
NO_CHARGES


@<TRIPOS>ATOM
      1 ****        -1.9421   5.3411  -3.0615 C.3            1 S1                 0.0000
      2 ****        -1.5910   4.1370  -2.2053 C.ar           1 S1                 0.0000
      3 ****        -1.4089   4.3121  -0.8150 C.ar           1 S1                 0.0000
      4 ****        -1.0788   3.2189   0.0158 C.ar           1 S1                 0.0000
      5 ****        -0.8561   3.1633   1.3811 N.2            1 S1                 0.0000
      6 ****        -0.5866   1.8728   1.5558 C.2            1 S1                 0.0000
      7 ****        -0.6094   1.0845   0.4643 N.pl3          1 S1                 0.0000
      8 ****        -0.3423  -0.3418   0.4153 C.3            1 S1                 0.0000
      9 ****         1.1656  -0.6542   0.3306 C.3            1 S1                 0.0000
     10 ****         1.6969  -0.0834  -0.8484 O.3            1 S1                 0.0000
     11 ****         1.4616  -2.1667   0.2930 C.3            1 S1                 0.0000
     12 ****         1.0678  -2.9184   1.4853 N.3            1 S1                 0.0000
     13 ****         1.8527  -2.5585   2.6650 C.3            1 S1                 0.0000
     14 ****         1.4496  -3.3849   3.8992 C.3            1 S1                 0.0000
     15 ****         1.5706  -4.7734   3.6092 O.3            1 S1                 0.0000
     16 ****         0.7773  -5.1703   2.4960 C.3            1 S1                 0.0000
     17 ****         1.1874  -4.3548   1.2579 C.3            1 S1                 0.0000
     18 ****        -0.9349   1.9349  -0.5872 C.ar           1 S1                 0.0000
     19 ****        -1.1150   1.7479  -1.9693 C.ar           1 S1                 0.0000
     20 ****        -1.4450   2.8509  -2.7845 C.ar           1 S1                 0.0000
     21 ****        -1.6364   2.6389  -4.2759 C.3            1 S1                 0.0000
     22 ****        -1.9844   6.2543  -2.4672 H              1 S1                 0.0000
     23 ****        -2.9150   5.2025  -3.5336 H              1 S1                 0.0000
     24 ****        -1.1954   5.4863  -3.8425 H              1 S1                 0.0000
     25 ****        -1.5194   5.2915  -0.3735 H              1 S1                 0.0000
     26 ****        -0.3566   1.4761   2.5340 H              1 S1                 0.0000
     27 ****        -0.7734  -0.7959   1.3085 H              1 S1                 0.0000
     28 ****        -0.8729  -0.7701  -0.4359 H              1 S1                 0.0000
     29 ****         1.6860  -0.1869   1.1661 H              1 S1                 0.0000
     30 ****         1.2428  -0.4507  -1.5911 H              1 S1                 0.0000
     31 ****         0.9500  -2.5860  -0.5747 H              1 S1                 0.0000
     32 ****         2.5267  -2.3195   0.1103 H              1 S1                 0.0000
     33 ****         2.9147  -2.7071   2.4633 H              1 S1                 0.0000
     34 ****         1.7232  -1.5028   2.9000 H              1 S1                 0.0000
     35 ****         2.0917  -3.1402   4.7454 H              1 S1                 0.0000
     36 ****         0.4252  -3.1570   4.1974 H              1 S1                 0.0000
     37 ****         0.9239  -6.2352   2.3152 H              1 S1                 0.0000
     38 ****        -0.2800  -5.0248   2.7225 H              1 S1                 0.0000
     39 ****         0.5648  -4.6492   0.4123 H              1 S1                 0.0000
     40 ****         2.2155  -4.6029   0.9893 H              1 S1                 0.0000
     41 ****        -0.9969   0.7640  -2.3985 H              1 S1                 0.0000
     42 ****        -1.4954   1.5933  -4.5507 H              1 S1                 0.0000
     43 ****        -0.9177   3.2329  -4.8407 H              1 S1                 0.0000
     44 ****        -2.6422   2.9319  -4.5779 H              1 S1                 0.0000
     45 ****        -0.8891   3.8992   2.0574 LP             1 S1                 0.0000
     46 ****         2.6729  -0.2913  -0.9134 LP             1 S1                 0.0000
     47 ****         1.5678   0.9081  -0.8308 LP             1 S1                 0.0000
     48 ****         0.1135  -2.6771   1.6612 LP             1 S1                 0.0000
     49 ****         1.2805  -5.2948   4.4117 LP             1 S1                 0.0000
     50 ****         2.5290  -4.9765   3.4084 LP             1 S1                 0.0000
@<TRIPOS>BOND
    1    1    2 1     
    2    1   22 1     
    3    1   23 1     
    4    1   24 1     
    5    2   20 ar    
    6    2    3 ar    
    7    3    4 ar    
    8    3   25 1     
    9    4   18 ar    
   10    4    5 1     
   11    5    6 2     
   12    6    7 1     
   13    6   26 1     
   14    7    8 1     
   15    7   18 1     
   16    8    9 1     
   17    8   27 1     
   18    8   28 1     
   19    9   10 1     
   20    9   11 1     
   21    9   29 1     
   22   10   30 1     
   23   11   12 1     
   24   11   31 1     
   25   11   32 1     
   26   12   17 1     
   27   12   13 1     
   28   13   14 1     
   29   13   33 1     
   30   13   34 1     
   31   14   15 1     
   32   14   35 1     
   33   14   36 1     
   34   15   16 1     
   35   16   17 1     
   36   16   37 1     
   37   16   38 1     
   38   17   39 1     
   39   17   40 1     
   40   18   19 ar    
   41   19   20 ar    
   42   19   41 1     
   43   20   21 1     
   44   21   42 1     
   45   21   43 1     
   46   21   44 1     
   47    5   45 1     
   48   10   46 1     
   49   10   47 1     
   50   12   48 1     
   51   15   49 1     
   52   15   50 1     
@<TRIPOS>SUBSTRUCTURE
      1 S1             1
@<TRIPOS>SET
LONE_PAIRS      STATIC     ATOMS    <user>   **** ""
6 45 46 47 48 49 50
DONOR_HYDROGENS      STATIC     ATOMS    <user>   **** ""
1 30
ATOM$BLUE        STATIC     ATOMS    COLORGROUP SYSTEM
6 45 46 47 48 49 50
ATOM$RED        STATIC     ATOMS    COLORGROUP SYSTEM
1 30
