#       Name:                AV-unprocessed.smi:2279
#       Creating user name   scv26
#       Creation time:       Fri Mar 27 12:40:19 2020


#       File generated by GOLD software.
#

@<TRIPOS>MOLECULE
AV-unprocessed.smi:2279
    61    63     1
SMALL
NO_CHARGES


@<TRIPOS>ATOM
      1 ****        -7.4010   3.6630   1.8249 C.3            1 S1                 0.0000
      2 ****        -6.7384   2.3183   1.6118 C.ar           1 S1                 0.0000
      3 ****        -7.5040   1.1403   1.5163 C.ar           1 S1                 0.0000
      4 ****        -6.8259  -0.0786   1.3188 C.ar           1 S1                 0.0000
      5 ****        -7.5855  -1.3841   1.2104 C.3            1 S1                 0.0000
      6 ****        -5.4823  -0.1662   1.2176 N.ar           1 S1                 0.0000
      7 ****        -4.7356   0.9622   1.3070 C.ar           1 S1                 0.0000
      8 ****        -3.3190   0.9797   1.2098 N.am           1 S1                 0.0000
      9 ****        -2.4867  -0.0603   1.0270 C.2            1 S1                 0.0000
     10 ****        -2.8281  -1.2387   0.9214 O.2            1 S1                 0.0000
     11 ****        -1.2091   0.3438   0.9687 N.am           1 S1                 0.0000
     12 ****        -0.0604  -0.5382   0.7842 C.3            1 S1                 0.0000
     13 ****         1.2190   0.1601   1.2596 C.3            1 S1                 0.0000
     14 ****         2.4641  -0.7076   1.0068 C.3            1 S1                 0.0000
     15 ****         2.5970  -1.0894  -0.4308 N.4            1 S1                 1.0000
     16 ****         3.8474  -1.8508  -0.7721 C.3            1 S1                 0.0000
     17 ****         5.1338  -1.3586  -0.0617 C.3            1 S1                 0.0000
     18 ****         5.5817   0.0278  -0.5620 C.3            1 S1                 0.0000
     19 ****         5.8051   0.0167  -2.0288 N.4            1 S1                 1.0000
     20 ****         6.3194   1.3092  -2.5309 C.3            1 S1                 0.0000
     21 ****         4.6080  -0.4447  -2.7747 C.3            1 S1                 0.0000
     22 ****         4.1523  -1.8340  -2.2904 C.3            1 S1                 0.0000
     23 ****         1.3627  -1.7881  -0.8953 C.3            1 S1                 0.0000
     24 ****         0.1061  -0.9275  -0.6925 C.3            1 S1                 0.0000
     25 ****        -5.3364   2.2254   1.5053 C.ar           1 S1                 0.0000
     26 ****        -8.4865   3.5684   1.8666 H              1 S1                 0.0000
     27 ****        -7.1484   4.3413   1.0094 H              1 S1                 0.0000
     28 ****        -7.0605   4.1071   2.7607 H              1 S1                 0.0000
     29 ****        -8.5811   1.1696   1.5926 H              1 S1                 0.0000
     30 ****        -8.6613  -1.2132   1.1663 H              1 S1                 0.0000
     31 ****        -7.3759  -2.0160   2.0737 H              1 S1                 0.0000
     32 ****        -7.2911  -1.9236   0.3095 H              1 S1                 0.0000
     33 ****        -2.8918   1.8908   1.2837 H              1 S1                 0.0000
     34 ****        -1.0189   1.3306   1.0649 H              1 S1                 0.0000
     35 ****        -0.2053  -1.4411   1.3812 H              1 S1                 0.0000
     36 ****         1.3342   1.1147   0.7435 H              1 S1                 0.0000
     37 ****         1.1440   0.3920   2.3230 H              1 S1                 0.0000
     38 ****         3.3178  -0.1193   1.3372 H              1 S1                 0.0000
     39 ****         2.4323  -1.6073   1.6236 H              1 S1                 0.0000
     40 ****         3.6840  -2.8840  -0.4612 H              1 S1                 0.0000
     41 ****         5.0404  -1.3746   1.0235 H              1 S1                 0.0000
     42 ****         5.9354  -2.0690  -0.2700 H              1 S1                 0.0000
     43 ****         4.8382   0.7854  -0.3106 H              1 S1                 0.0000
     44 ****         6.5060   0.3140  -0.0586 H              1 S1                 0.0000
     45 ****         5.5889   2.1061  -2.3846 H              1 S1                 0.0000
     46 ****         6.5474   1.2455  -3.5955 H              1 S1                 0.0000
     47 ****         7.2373   1.5866  -2.0113 H              1 S1                 0.0000
     48 ****         3.8001   0.2800  -2.6623 H              1 S1                 0.0000
     49 ****         4.8436  -0.4914  -3.8388 H              1 S1                 0.0000
     50 ****         4.9496  -2.5501  -2.4954 H              1 S1                 0.0000
     51 ****         3.3121  -2.1785  -2.8894 H              1 S1                 0.0000
     52 ****         1.4208  -2.0389  -1.9519 H              1 S1                 0.0000
     53 ****         1.2556  -2.7323  -0.3585 H              1 S1                 0.0000
     54 ****        -0.7697  -1.4777  -1.0389 H              1 S1                 0.0000
     55 ****         0.1723  -0.0314  -1.3115 H              1 S1                 0.0000
     56 ****        -4.7301   3.1171   1.5754 H              1 S1                 0.0000
     57 ****         2.6451  -0.2193  -0.9410 H              1 S1                 0.0000
     58 ****         6.5319  -0.6634  -2.2030 H              1 S1                 0.0000
     59 ****        -5.0427  -1.0535   1.0782 LP             1 S1                 0.0000
     60 ****        -3.7960  -1.4851   0.9701 LP             1 S1                 0.0000
     61 ****        -2.1374  -1.9492   0.7868 LP             1 S1                 0.0000
@<TRIPOS>BOND
    1    1    2 1     
    2    1   26 1     
    3    1   27 1     
    4    1   28 1     
    5    2   25 ar    
    6    2    3 ar    
    7    3    4 ar    
    8    3   29 1     
    9    4    5 1     
   10    4    6 ar    
   11    5   30 1     
   12    5   31 1     
   13    5   32 1     
   14    6    7 ar    
   15    7    8 1     
   16    7   25 ar    
   17    8    9 am    
   18    8   33 1     
   19    9   10 2     
   20    9   11 am    
   21   11   12 1     
   22   11   34 1     
   23   12   24 1     
   24   12   13 1     
   25   12   35 1     
   26   13   14 1     
   27   13   36 1     
   28   13   37 1     
   29   14   15 1     
   30   14   38 1     
   31   14   39 1     
   32   15   16 1     
   33   15   23 1     
   34   15   57 1     
   35   16   22 1     
   36   16   17 1     
   37   16   40 1     
   38   17   18 1     
   39   17   41 1     
   40   17   42 1     
   41   18   19 1     
   42   18   43 1     
   43   18   44 1     
   44   19   20 1     
   45   19   21 1     
   46   19   58 1     
   47   20   45 1     
   48   20   46 1     
   49   20   47 1     
   50   21   22 1     
   51   21   48 1     
   52   21   49 1     
   53   22   50 1     
   54   22   51 1     
   55   23   24 1     
   56   23   52 1     
   57   23   53 1     
   58   24   54 1     
   59   24   55 1     
   60   25   56 1     
   61    6   59 1     
   62   10   60 1     
   63   10   61 1     
@<TRIPOS>SUBSTRUCTURE
      1 S1             1
@<TRIPOS>SET
LONE_PAIRS      STATIC     ATOMS    <user>   **** ""
3 59 60 61
DONOR_HYDROGENS      STATIC     ATOMS    <user>   **** ""
4 33 34 57 58
ATOM$BLUE        STATIC     ATOMS    COLORGROUP SYSTEM
3 59 60 61
ATOM$RED        STATIC     ATOMS    COLORGROUP SYSTEM
4 33 34 57 58
