#       Name:                AV-unprocessed.smi:3112
#       Creating user name   scv26
#       Creation time:       Fri Mar 27 17:23:02 2020


#       File generated by GOLD software.
#

@<TRIPOS>MOLECULE
AV-unprocessed.smi:3112
    40    40     1
SMALL
NO_CHARGES


@<TRIPOS>ATOM
      1 ****        -2.7423   3.0672   2.1678 C.3            1 S1                 0.0000
      2 ****        -2.4042   1.6678   1.6356 C.3            1 S1                 0.0000
      3 ****        -1.6697   1.6889   0.2801 C.3            1 S1                 0.0000
      4 ****        -2.5527   2.1909  -0.7020 O.3            1 S1                 0.0000
      5 ****        -1.2147   0.2934  -0.1786 C.3            1 S1                 0.0000
      6 ****        -0.1337  -0.2153   0.6637 N.3            1 S1                 0.0000
      7 ****         0.2565  -1.6176   0.4565 C.3            1 S1                 0.0000
      8 ****         1.1617  -2.0376   1.6266 C.3            1 S1                 0.0000
      9 ****         0.9333  -1.9169  -0.9170 C.3            1 S1                 0.0000
     10 ****        -0.0536  -2.2452  -2.0569 C.3            1 S1                 0.0000
     11 ****         1.9511  -0.9384  -1.2969 N.pl3          1 S1                 0.0000
     12 ****         3.2759  -0.9005  -0.9105 C.2            1 S1                 0.0000
     13 ****         3.8418   0.2035  -1.4804 C.2            1 S1                 0.0000
     14 ****         2.7702   0.7952  -2.2036 C.2            1 S1                 0.0000
     15 ****         1.6426   0.1140  -2.0899 N.2            1 S1                 0.0000
     16 ****        -3.2273   3.0036   3.1420 H              1 S1                 0.0000
     17 ****        -3.4189   3.5975   1.4974 H              1 S1                 0.0000
     18 ****        -1.8423   3.6714   2.2845 H              1 S1                 0.0000
     19 ****        -1.7825   1.1669   2.3781 H              1 S1                 0.0000
     20 ****        -3.3164   1.0748   1.5565 H              1 S1                 0.0000
     21 ****        -0.8064   2.3543   0.3304 H              1 S1                 0.0000
     22 ****        -2.7993   3.0708  -0.4612 H              1 S1                 0.0000
     23 ****        -2.0618  -0.3936  -0.1694 H              1 S1                 0.0000
     24 ****        -0.8760   0.3684  -1.2093 H              1 S1                 0.0000
     25 ****        -0.3778  -0.0771   1.6390 H              1 S1                 0.0000
     26 ****        -0.6361  -2.2400   0.5302 H              1 S1                 0.0000
     27 ****         1.4424  -3.0888   1.5541 H              1 S1                 0.0000
     28 ****         0.6527  -1.9050   2.5820 H              1 S1                 0.0000
     29 ****         2.0786  -1.4487   1.6588 H              1 S1                 0.0000
     30 ****         1.4781  -2.8527  -0.7832 H              1 S1                 0.0000
     31 ****        -0.7334  -3.0452  -1.7631 H              1 S1                 0.0000
     32 ****         0.4828  -2.5865  -2.9427 H              1 S1                 0.0000
     33 ****        -0.6618  -1.3957  -2.3592 H              1 S1                 0.0000
     34 ****         3.7019  -1.6559  -0.2669 H              1 S1                 0.0000
     35 ****         4.8642   0.5392  -1.3908 H              1 S1                 0.0000
     36 ****         2.7769   1.6941  -2.8021 H              1 S1                 0.0000
     37 ****        -3.3676   1.6132  -0.7501 LP             1 S1                 0.0000
     38 ****        -2.0974   2.1997  -1.5923 LP             1 S1                 0.0000
     39 ****         0.6700   0.3128   0.3894 LP             1 S1                 0.0000
     40 ****         0.7563   0.3292  -2.4999 LP             1 S1                 0.0000
@<TRIPOS>BOND
    1    1    2 1     
    2    1   16 1     
    3    1   17 1     
    4    1   18 1     
    5    2    3 1     
    6    2   19 1     
    7    2   20 1     
    8    3    4 1     
    9    3    5 1     
   10    3   21 1     
   11    4   22 1     
   12    5    6 1     
   13    5   23 1     
   14    5   24 1     
   15    6    7 1     
   16    6   25 1     
   17    7    8 1     
   18    7    9 1     
   19    7   26 1     
   20    8   27 1     
   21    8   28 1     
   22    8   29 1     
   23    9   10 1     
   24    9   11 1     
   25    9   30 1     
   26   10   31 1     
   27   10   32 1     
   28   10   33 1     
   29   11   15 1     
   30   11   12 1     
   31   12   13 2     
   32   12   34 1     
   33   13   14 1     
   34   13   35 1     
   35   14   15 2     
   36   14   36 1     
   37    4   37 1     
   38    4   38 1     
   39    6   39 1     
   40   15   40 1     
@<TRIPOS>SUBSTRUCTURE
      1 S1             1
@<TRIPOS>SET
LONE_PAIRS      STATIC     ATOMS    <user>   **** ""
4 37 38 39 40
DONOR_HYDROGENS      STATIC     ATOMS    <user>   **** ""
2 22 25
ATOM$BLUE        STATIC     ATOMS    COLORGROUP SYSTEM
4 37 38 39 40
ATOM$RED        STATIC     ATOMS    COLORGROUP SYSTEM
2 22 25
