AV-unprocessed.smi:72|AV-procd|sdf|709|dock9
  -GOLD-   2262017 33D 1   1.00000     0.00000
 Structure written by MMmdl.
 30 31  0  0  0  0  0  0  0  0  2 V2000
  144.5279  134.8786  151.1996 N   0  0  0  0  0  0  0  0  0  0  0  0
  145.1652  135.7059  152.1007 C   0  0  0  0  0  0  0  0  0  0  0  0
  145.1555  137.0651  151.8430 N   0  3  0  0  0  0  0  0  0  0  0  0
  145.7214  138.0006  152.6176 C   0  0  0  0  0  0  0  0  0  0  0  0
  146.3436  137.6289  153.7180 N   0  0  0  0  0  0  0  0  0  0  0  0
  147.0137  138.6304  154.6264 C   0  0  2  0  0  0  0  0  0  0  0  0
  146.2736  139.8151  154.5994 O   0  0  0  0  0  0  0  0  0  0  0  0
  146.9845  140.8251  153.8873 C   0  0  1  0  0  0  0  0  0  0  0  0
  146.5204  142.2138  154.3516 C   0  0  0  0  0  0  0  0  0  0  0  0
  147.3439  143.2090  153.7829 O   0  0  0  0  0  0  0  0  0  0  0  0
  148.4306  140.5005  154.2582 C   0  0  2  0  0  0  0  0  0  0  0  0
  149.3799  141.1200  153.4106 O   0  0  0  0  0  0  0  0  0  0  0  0
  148.4527  138.9779  154.1800 C   0  0  2  0  0  0  0  0  0  0  0  0
  148.7632  138.5207  152.8711 O   0  0  0  0  0  0  0  0  0  0  0  0
  146.4165  136.2543  154.0605 C   0  0  0  0  0  0  0  0  0  0  0  0
  147.0129  135.8963  155.0757 O   0  0  0  0  0  0  0  0  0  0  0  0
  145.7885  135.3513  153.1903 N   0  0  0  0  0  0  0  0  0  0  0  0
  146.9521  138.2181  155.6350 H   0  0  0  0  0  0  0  0  0  0  0  0
  146.8463  140.7017  152.8115 H   0  0  0  0  0  0  0  0  0  0  0  0
  148.6198  140.8113  155.2871 H   0  0  0  0  0  0  0  0  0  0  0  0
  149.1706  138.5485  154.8799 H   0  0  0  0  0  0  0  0  0  0  0  0
  144.4837  133.8748  151.3065 H   0  0  0  0  0  0  0  0  0  0  0  0
  144.0593  135.2060  150.3671 H   0  0  0  0  0  0  0  0  0  0  0  0
  145.6561  139.0393  152.3235 H   0  0  0  0  0  0  0  0  0  0  0  0
  145.4754  142.3916  154.0959 H   0  0  0  0  0  0  0  0  0  0  0  0
  146.6080  142.2969  155.4353 H   0  0  0  0  0  0  0  0  0  0  0  0
  147.8420  143.6180  154.4744 H   0  0  0  0  0  0  0  0  0  0  0  0
  149.6321  140.5042  152.7393 H   0  0  0  0  0  0  0  0  0  0  0  0
  149.2430  139.2009  152.4227 H   0  0  0  0  0  0  0  0  0  0  0  0
  144.6848  137.3735  151.0044 H   0  0  0  0  0  0  0  0  0  0  0  0
  1  2  1  0  0  0  0
  1 22  1  0  0  0  0
  1 23  1  0  0  0  0
  2 17  2  0  0  0  0
  2  3  1  0  0  0  0
  3  4  2  0  0  0  0
  3 30  1  0  0  0  0
  4  5  1  0  0  0  0
  4 24  1  0  0  0  0
  5  6  1  0  0  0  0
  5 15  1  0  0  0  0
  6 18  1  0  0  0  0
  6 13  1  0  0  0  0
  6  7  1  0  0  0  0
  7  8  1  0  0  0  0
  8 19  1  0  0  0  0
  8  9  1  0  0  0  0
  8 11  1  0  0  0  0
  9 10  1  0  0  0  0
  9 25  1  0  0  0  0
  9 26  1  0  0  0  0
 10 27  1  0  0  0  0
 11 20  1  0  0  0  0
 11 12  1  0  0  0  0
 11 13  1  0  0  0  0
 12 28  1  0  0  0  0
 13 21  1  0  0  0  0
 13 14  1  0  0  0  0
 14 29  1  0  0  0  0
 15 16  2  0  0  0  0
 15 17  1  0  0  0  0
M  CHG  1   3   1
M  END
> <s_m_source_file>
AV-unprocessed.smi

> <i_m_source_file_index>
72

> <i_lp_mmshare_version>
43012

> <i_f3d_flags>
0

> <s_epik_input>
W05IMl1jMW5bY0hdbihjKD1PKW4xKVtDQEBIXTJPW0NASF0oW0NIMl1bT0hdKVtDQEBIXShbT0hdKVtDQEhdMltPSF0=

> <s_epik_cmdline>
J2VwaWtfcHl0aG9uJywgJy1waCcsICc3LjAnLCAnLXRuJywgJzgnLCAnLW1hJywgJzIwMCcsICctbWV0YWxfYmluZGluZycsICctaW1hZScsICc8aW5maWxlLm1hZT4nLCAnLW9tYWUnLCAnPG91dGZpbGUubWFlPic=

> <r_lp_tautomer_probability>
4.77166e-05

> <r_epik_Ionization_Penalty>
0.104979

> <r_epik_Ionization_Penalty_Charging>
0.0999619

> <r_epik_Ionization_Penalty_Neutral>
0.00501745

> <r_epik_State_Penalty>
2.51541

> <r_epik_Charging_Adjusted_Penalty>
2.61537

> <i_epik_Tot_Q>
1

> <i_epik_Tot_abs_Q>
1

> <r_epik_Metal_State_Penalty>
3.53763

> <b_epik_Metal_Only>
0

> <s_epik_Chemistry_Notes>
This compound contains an acetal/aminal-like group ( X-CH(R)-Y where X, Y are N, S, or O) that may be acid/base labile, releasing an aldehyde.

> <s_lp_Force_Field>
OPLS_2005

> <r_lp_Energy>
36.649

> <b_lp_Chiralities_Consistent>
1

> <s_lp_Variant>
AV-unprocessed.smi:72-47

> <Gold.Version>
5.8.1

> <Gold.Id.Protein>
6NUR|6NUR_protein|mol2

> <Gold.PLP.Fitness>
35.8859

> <Gold.PLP.PLP>
-21.1771

> <Gold.PLP.part.hbond>
-8.0257

> <Gold.PLP.part.metal>
0.0000

> <Gold.PLP.part.buried>
-1.4525

> <Gold.PLP.part.nonpolar>
-12.2942

> <Gold.PLP.part.repulsive>
0.2646

> <Gold.PLP.ligand.clash>
0.0000

> <Gold.PLP.ligand.torsion>
0.7335

> <Gold.PLP.Chemscore.Hbond>
4.4260

> <Gold.PLP.Chemscore.CHOScore>
0.9261

> <Gold.PLP.Chemscore.Metal>
0.0000

> <Gold.Chemscore.Hbonds>
donor molecule, donor type, donor heavy atom, donor atom, acceptor molecule, acceptor atom, score
      L1  H     3    30       P1 10171  1.00
      L1  H    10    27       P1  8028  1.00
      L1  H    12    28       P1  7957  0.98
      L1  H    14    29       P1  7957  1.00
      P1  H  8011  8017       L1    12  0.45
      L1  C     4    24       P1 10175  0.93

> <Gold.PLP.Chemscore.Internal.Correction>
0.1194

> <Gold.Rescore>
     Score         DG    S(hbond)    S(metal)    S(lipo)     H(rot)  DE(clash)    DE(int)     intcor
      9.41     -10.23       3.73        0.00      23.30       4.08       0.06       0.76       ----

> <Gold.Chemscore.Fitness>
9.4096

> <Gold.Chemscore.DG>
-10.2321

> <Gold.Chemscore.ZeroCoef>
-5.4800

> <Gold.Chemscore.Hbond>
3.7325

> <Gold.Chemscore.Metal>
0.0000

> <Gold.Chemscore.Lipo>
23.2984

> <Gold.Chemscore.Internal_Hbond>
0.0000

> <Gold.Chemscore.DEClash>
0.0595

> <Gold.Chemscore.DEInternal>
0.7631

> <Gold.Chemscore.Rot>
4.0783

> <Gold.Chemscore.Internal.Correction>
   9.000000E+99

> <Gold.Chemscore.Hbonds>
donor molecule, donor type, donor heavy atom, donor atom, acceptor molecule, acceptor atom, score
      L1  H     3    30       P1 10171  0.99
      L1  H    10    27       P1  8028  0.55
      L1  H    12    28       P1  7957  0.93
      L1  H    14    29       P1  7957  0.91
      P1  H  8011  8017       L1    12  0.02

> <Gold.Chemscore.Hbond.Weighted>
-12.4666

> <Gold.Chemscore.Metal.Weighted>
-0.0000

> <Gold.Chemscore.Lipo.Weighted>
-2.7259

> <Gold.Chemscore.Internal_Hbond.Weighted>
0.0000

> <Gold.Chemscore.DEClash.Weighted>
0.0595

> <Gold.Chemscore.DEInternal.Weighted>
0.7631

> <Gold.Chemscore.Rot.Weighted>
10.4404

> <Gold.Chemscore.Internal.Correction.Weighted>
   9.000000E+99

> <Gold.Protein.RotatedTorsions>
[ 6907 6896 6895 6894 ] final  139.52 input  -60.11 | X-H torsion
[ 7974 7965 7964 7962 ] final   59.95 input  175.53 | X-H torsion
[ 8008 7997 7996 7995 ] final  178.16 input   59.86 | X-H torsion
[ 10167 10162 10161 10158 ] final   58.37 input  -65.29 | X-H torsion
[ 10718 10713 10712 10709 ] final  -49.15 input   66.30 | X-H torsion
[ 10763 10752 10751 10750 ] final  -15.55 input  -60.55 | X-H torsion
[ 11005 11000 10999 10996 ] final   49.85 input  -57.11 | X-H torsion

> <Gold.Protein.ActiveResidues>
 VAL166  LYS551  ARG553  GLY616  TRP617  ASP618  TYR619  PRO620  LYS621  CYS622 
 ASP623  PHE694  ASN695  SER759  ASP760  ASP761  ALA762  ILE779  LEU786  VAL792 
 PHE793  MET794  SER795  GLU796  ALA797  LYS798  CYS799  TRP800  GLU811  SER814 

> <Gold.Protein.RotatedAtoms>
  152.2540  133.5239  159.5341 H   0  0  0  0  0  0  0  0  0  0  0  0  # atno 6907 bound_to 6896
  150.7103  134.0922  159.3944 H   0  0  0  0  0  0  0  0  0  0  0  0  # atno 6908 bound_to 6896
  151.8841  135.0442  160.0542 H   0  0  0  0  0  0  0  0  0  0  0  0  # atno 6909 bound_to 6896
  145.9015  139.3584  143.0590 H   0  0  0  0  0  0  0  0  0  0  0  0  # atno 7974 bound_to 7965
  156.0577  140.1340  156.9978 H   0  0  0  0  0  0  0  0  0  0  0  0  # atno 8008 bound_to 7997
  154.4466  140.0998  156.6541 H   0  0  0  0  0  0  0  0  0  0  0  0  # atno 8009 bound_to 7997
  155.5426  140.3461  155.4452 H   0  0  0  0  0  0  0  0  0  0  0  0  # atno 8010 bound_to 7997
  140.1880  144.4115  150.6584 H   0  0  0  0  0  0  0  0  0  0  0  0  # atno 10167 bound_to 10162
  156.1920  130.4153  149.9358 H   0  0  0  0  0  0  0  0  0  0  0  0  # atno 10718 bound_to 10713
  153.5451  135.7012  153.5618 H   0  0  0  0  0  0  0  0  0  0  0  0  # atno 10763 bound_to 10752
  153.3567  135.3981  155.1687 H   0  0  0  0  0  0  0  0  0  0  0  0  # atno 10764 bound_to 10752
  154.8668  135.3778  154.4958 H   0  0  0  0  0  0  0  0  0  0  0  0  # atno 10765 bound_to 10752
  140.1067  134.5008  155.8713 H   0  0  0  0  0  0  0  0  0  0  0  0  # atno 11005 bound_to 11000
  145.8785  140.9377  143.0613 LP  0  0  0  0  0  0  0  0  0  0  0  0  # atno 17320 bound_to 7965
  144.6736  140.0749  143.7471 LP  0  0  0  0  0  0  0  0  0  0  0  0  # atno 17321 bound_to 7965
  140.6475  143.2217  151.6152 LP  0  0  0  0  0  0  0  0  0  0  0  0  # atno 17342 bound_to 10162
  139.5268  144.3035  152.1053 LP  0  0  0  0  0  0  0  0  0  0  0  0  # atno 17343 bound_to 10162
  156.7095  130.8964  151.3608 LP  0  0  0  0  0  0  0  0  0  0  0  0  # atno 17370 bound_to 10713
  157.6935  130.9257  150.0579 LP  0  0  0  0  0  0  0  0  0  0  0  0  # atno 17371 bound_to 10713
  141.2120  133.6714  156.6625 LP  0  0  0  0  0  0  0  0  0  0  0  0  # atno 17394 bound_to 11000
  140.3146  134.8058  157.4203 LP  0  0  0  0  0  0  0  0  0  0  0  0  # atno 17395 bound_to 11000

$$$$
