#       Name:                AV-unprocessed.smi:262
#       Creating user name   scv26
#       Creation time:       Thu Mar 26 21:19:44 2020


#       File generated by GOLD software.
#

@<TRIPOS>MOLECULE
AV-unprocessed.smi:262
    70    74     1
SMALL
NO_CHARGES


@<TRIPOS>ATOM
      1 ****        -4.4319   2.5988   1.9828 O.3            1 S1                 0.0000
      2 ****        -5.1654   1.6958   1.1741 C.3            1 S1                 0.0000
      3 ****        -4.6435   0.2669   1.4668 C.3            1 S1                 0.0000
      4 ****        -3.2563   0.0524   1.0816 N.pl3          1 S1                 0.0000
      5 ****        -2.8035  -0.4457  -0.1177 C.2            1 S1                 0.0000
      6 ****        -1.5072  -0.5447  -0.2221 N.2            1 S1                 0.0000
      7 ****        -1.0212  -0.0870   0.9992 C.ar           1 S1                 0.0000
      8 ****         0.2788   0.0721   1.5719 C.ar           1 S1                 0.0000
      9 ****         1.4593  -0.2030   0.9563 N.3            1 S1                 0.0000
     10 ****         1.4953  -0.3826  -0.4907 C.3            1 S1                 0.0000
     11 ****         2.9406  -0.2821  -1.0119 C.3            1 S1                 0.0000
     12 ****         3.7871  -1.2792  -0.3471 N.3            1 S1                 0.0000
     13 ****         5.1613  -1.2253  -0.8466 C.3            1 S1                 0.0000
     14 ****         5.3112  -1.8473  -2.2500 C.3            1 S1                 0.0000
     15 ****         6.7286  -1.7874  -2.7820 C.3            1 S1                 0.0000
     16 ****         6.6976  -2.8473  -3.8779 C.3            1 S1                 0.0000
     17 ****         5.7870  -3.8427  -3.4217 O.3            1 S1                 0.0000
     18 ****         5.0476  -3.3538  -2.3061 C.3            1 S1                 0.0000
     19 ****         3.7975  -0.9757   1.0863 C.3            1 S1                 0.0000
     20 ****         2.3770  -1.0898   1.6684 C.3            1 S1                 0.0000
     21 ****         0.3403   0.5524   2.8418 N.ar           1 S1                 0.0000
     22 ****        -0.7740   0.8590   3.5105 C.ar           1 S1                 0.0000
     23 ****        -2.0402   0.7647   3.1057 N.ar           1 S1                 0.0000
     24 ****        -2.1173   0.2827   1.8331 C.ar           1 S1                 0.0000
     25 ****        -6.6559   1.8107   1.5520 C.3            1 S1                 0.0000
     26 ****        -7.2621   3.1583   1.1217 C.3            1 S1                 0.0000
     27 ****        -7.0679   3.3544  -0.2735 O.3            1 S1                 0.0000
     28 ****        -5.6930   3.4332  -0.6287 C.3            1 S1                 0.0000
     29 ****        -4.9844   2.1057  -0.3044 C.3            1 S1                 0.0000
     30 ****        -3.5110   2.4836   1.8029 H              1 S1                 0.0000
     31 ****        -4.7464   0.0333   2.5276 H              1 S1                 0.0000
     32 ****        -5.2530  -0.4662   0.9365 H              1 S1                 0.0000
     33 ****        -3.4688  -0.7297  -0.9203 H              1 S1                 0.0000
     34 ****         1.0702  -1.3531  -0.7499 H              1 S1                 0.0000
     35 ****         0.8906   0.3839  -0.9763 H              1 S1                 0.0000
     36 ****         2.9307  -0.4440  -2.0887 H              1 S1                 0.0000
     37 ****         3.3346   0.7215  -0.8434 H              1 S1                 0.0000
     38 ****         5.5144  -0.1930  -0.8478 H              1 S1                 0.0000
     39 ****         5.8123  -1.7716  -0.1623 H              1 S1                 0.0000
     40 ****         4.6681  -1.3454  -2.9729 H              1 S1                 0.0000
     41 ****         7.0062  -0.8009  -3.1542 H              1 S1                 0.0000
     42 ****         7.4415  -2.0735  -2.0070 H              1 S1                 0.0000
     43 ****         6.3123  -2.4229  -4.8059 H              1 S1                 0.0000
     44 ****         7.6827  -3.2681  -4.0804 H              1 S1                 0.0000
     45 ****         5.4190  -3.8472  -1.4070 H              1 S1                 0.0000
     46 ****         3.9865  -3.5856  -2.4018 H              1 S1                 0.0000
     47 ****         4.4517  -1.6765   1.6063 H              1 S1                 0.0000
     48 ****         4.1985   0.0247   1.2591 H              1 S1                 0.0000
     49 ****         2.4152  -0.8556   2.7322 H              1 S1                 0.0000
     50 ****         2.0167  -2.1159   1.5842 H              1 S1                 0.0000
     51 ****        -0.6297   1.2353   4.5123 H              1 S1                 0.0000
     52 ****        -7.2147   1.0114   1.0634 H              1 S1                 0.0000
     53 ****        -6.7911   1.6651   2.6246 H              1 S1                 0.0000
     54 ****        -8.3320   3.1683   1.3309 H              1 S1                 0.0000
     55 ****        -6.8244   3.9853   1.6829 H              1 S1                 0.0000
     56 ****        -5.6190   3.6424  -1.6960 H              1 S1                 0.0000
     57 ****        -5.2189   4.2688  -0.1113 H              1 S1                 0.0000
     58 ****        -3.9276   2.1858  -0.5610 H              1 S1                 0.0000
     59 ****        -5.3979   1.3264  -0.9459 H              1 S1                 0.0000
     60 ****        -4.6130   2.4104   2.9480 LP             1 S1                 0.0000
     61 ****        -4.7021   3.5378   1.7700 LP             1 S1                 0.0000
     62 ****        -0.9802  -0.8756  -1.0049 LP             1 S1                 0.0000
     63 ****         1.8361   0.7188   1.0471 LP             1 S1                 0.0000
     64 ****         3.4219  -2.1922  -0.5289 LP             1 S1                 0.0000
     65 ****         6.2974  -4.6581  -3.1488 LP             1 S1                 0.0000
     66 ****         5.1551  -4.0768  -4.1606 LP             1 S1                 0.0000
     67 ****         1.2302   0.6776   3.2803 LP             1 S1                 0.0000
     68 ****        -2.8315   1.0152   3.6635 LP             1 S1                 0.0000
     69 ****        -7.5176   4.2060  -0.5429 LP             1 S1                 0.0000
     70 ****        -7.4824   2.5886  -0.7653 LP             1 S1                 0.0000
@<TRIPOS>BOND
    1    1    2 1     
    2    1   30 1     
    3    2   29 1     
    4    2    3 1     
    5    2   25 1     
    6    3    4 1     
    7    3   31 1     
    8    3   32 1     
    9    4   24 1     
   10    4    5 1     
   11    5    6 2     
   12    5   33 1     
   13    6    7 1     
   14    7   24 ar    
   15    7    8 ar    
   16    8    9 1     
   17    8   21 ar    
   18    9   20 1     
   19    9   10 1     
   20   10   11 1     
   21   10   34 1     
   22   10   35 1     
   23   11   12 1     
   24   11   36 1     
   25   11   37 1     
   26   12   13 1     
   27   12   19 1     
   28   13   14 1     
   29   13   38 1     
   30   13   39 1     
   31   14   18 1     
   32   14   15 1     
   33   14   40 1     
   34   15   16 1     
   35   15   41 1     
   36   15   42 1     
   37   16   17 1     
   38   16   43 1     
   39   16   44 1     
   40   17   18 1     
   41   18   45 1     
   42   18   46 1     
   43   19   20 1     
   44   19   47 1     
   45   19   48 1     
   46   20   49 1     
   47   20   50 1     
   48   21   22 ar    
   49   22   23 ar    
   50   22   51 1     
   51   23   24 ar    
   52   25   26 1     
   53   25   52 1     
   54   25   53 1     
   55   26   27 1     
   56   26   54 1     
   57   26   55 1     
   58   27   28 1     
   59   28   29 1     
   60   28   56 1     
   61   28   57 1     
   62   29   58 1     
   63   29   59 1     
   64    1   60 1     
   65    1   61 1     
   66    6   62 1     
   67    9   63 1     
   68   12   64 1     
   69   17   65 1     
   70   17   66 1     
   71   21   67 1     
   72   23   68 1     
   73   27   69 1     
   74   27   70 1     
@<TRIPOS>SUBSTRUCTURE
      1 S1             1
@<TRIPOS>SET
LONE_PAIRS      STATIC     ATOMS    <user>   **** ""
11 60 61 62 63 64 65 66 67 68 69 70
DONOR_HYDROGENS      STATIC     ATOMS    <user>   **** ""
1 30
ATOM$BLUE        STATIC     ATOMS    COLORGROUP SYSTEM
11 60 61 62 63 64 65 66 67 68 69 70
ATOM$RED        STATIC     ATOMS    COLORGROUP SYSTEM
1 30
