AV-unprocessed.smi:3237|AV-procd|sdf|12365|dock10
  -GOLD-   2272018223D 1   1.00000     0.00000
 Structure written by MMmdl.
 37 39  0  0  0  0  0  0  0  0  2 V2000
  148.9401  124.1243  150.7274 C   0  0  0  0  0  0  0  0  0  0  0  0
  148.3726  125.4723  151.0132 C   0  0  0  0  0  0  0  0  0  0  0  0
  148.5464  126.6967  150.4324 C   0  0  0  0  0  0  0  0  0  0  0  0
  147.7001  127.5410  151.2090 C   0  0  0  0  0  0  0  0  0  0  0  0
  147.5048  128.9344  151.0254 N   0  0  0  0  0  0  0  0  0  0  0  0
  146.3794  129.6487  151.1935 C   0  0  0  0  0  0  0  0  0  0  0  0
  145.2903  129.1952  151.5441 O   0  0  0  0  0  0  0  0  0  0  0  0
  146.5832  130.9471  150.9283 N   0  0  0  0  0  0  0  0  0  0  0  0
  145.5590  131.9820  151.0202 C   0  0  2  0  0  0  0  0  0  0  0  0
  144.3465  131.7587  150.1215 C   0  0  0  0  0  0  0  0  0  0  0  0
  143.7431  133.1643  150.0243 C   0  0  0  0  0  0  0  0  0  0  0  0
  144.8629  134.1232  150.1984 N   0  3  1  0  0  0  0  0  0  0  0  0
  144.5696  135.2062  151.1622 C   0  0  0  0  0  0  0  0  0  0  0  0
  145.8049  135.8888  151.6995 C   0  0  0  0  0  0  0  0  0  0  0  0
  145.0423  134.9098  152.5654 C   0  0  0  0  0  0  0  0  0  0  0  0
  146.0708  133.3389  150.5386 C   0  0  0  0  0  0  0  0  0  0  0  0
  147.0739  126.8884  152.1708 N   0  0  0  0  0  0  0  0  0  0  0  0
  147.4993  125.5600  152.0525 O   0  0  0  0  0  0  0  0  0  0  0  0
  149.5654  124.1457  149.8347 H   0  0  0  0  0  0  0  0  0  0  0  0
  148.1449  123.3964  150.5654 H   0  0  0  0  0  0  0  0  0  0  0  0
  149.5518  123.7786  151.5608 H   0  0  0  0  0  0  0  0  0  0  0  0
  149.1796  126.9302  149.5899 H   0  0  0  0  0  0  0  0  0  0  0  0
  148.3239  129.4468  150.7336 H   0  0  0  0  0  0  0  0  0  0  0  0
  147.5085  131.2373  150.6469 H   0  0  0  0  0  0  0  0  0  0  0  0
  145.2281  132.0790  152.0565 H   0  0  0  0  0  0  0  0  0  0  0  0
  144.6627  131.4188  149.1339 H   0  0  0  0  0  0  0  0  0  0  0  0
  143.6461  131.0260  150.5238 H   0  0  0  0  0  0  0  0  0  0  0  0
  143.2326  133.3267  149.0747 H   0  0  0  0  0  0  0  0  0  0  0  0
  143.0071  133.2973  150.8192 H   0  0  0  0  0  0  0  0  0  0  0  0
  143.6540  135.7710  150.9942 H   0  0  0  0  0  0  0  0  0  0  0  0
  146.7750  135.5736  151.3188 H   0  0  0  0  0  0  0  0  0  0  0  0
  145.7258  136.9441  151.9528 H   0  0  0  0  0  0  0  0  0  0  0  0
  144.4604  135.3202  153.3882 H   0  0  0  0  0  0  0  0  0  0  0  0
  145.5061  133.9444  152.7601 H   0  0  0  0  0  0  0  0  0  0  0  0
  146.7032  133.8323  151.2783 H   0  0  0  0  0  0  0  0  0  0  0  0
  146.6607  133.2220  149.6282 H   0  0  0  0  0  0  0  0  0  0  0  0
  145.0372  134.5599  149.3044 H   0  0  0  0  0  0  0  0  0  0  0  0
  1  2  1  0  0  0  0
  1 19  1  0  0  0  0
  1 20  1  0  0  0  0
  1 21  1  0  0  0  0
  2 18  1  0  0  0  0
  2  3  2  0  0  0  0
  3  4  1  0  0  0  0
  3 22  1  0  0  0  0
  4  5  1  0  0  0  0
  4 17  2  0  0  0  0
  5  6  1  0  0  0  0
  5 23  1  0  0  0  0
  6  7  2  0  0  0  0
  6  8  1  0  0  0  0
  8  9  1  0  0  0  0
  8 24  1  0  0  0  0
  9 16  1  0  0  0  0
  9 10  1  0  0  0  0
  9 25  1  0  0  0  0
 10 11  1  0  0  0  0
 10 26  1  0  0  0  0
 10 27  1  0  0  0  0
 11 12  1  0  0  0  0
 11 28  1  0  0  0  0
 11 29  1  0  0  0  0
 12 13  1  0  0  0  0
 12 16  1  0  0  0  0
 12 37  1  0  0  0  0
 13 15  1  0  0  0  0
 13 14  1  0  0  0  0
 13 30  1  0  0  0  0
 14 15  1  0  0  0  0
 14 31  1  0  0  0  0
 14 32  1  0  0  0  0
 15 33  1  0  0  0  0
 15 34  1  0  0  0  0
 16 35  1  0  0  0  0
 16 36  1  0  0  0  0
 17 18  1  0  0  0  0
M  CHG  1  12   1
M  END
> <s_m_source_file>
AV-unprocessed.smi

> <i_m_source_file_index>
3237

> <i_lp_mmshare_version>
43012

> <i_f3d_flags>
0

> <s_epik_input>
W0NIM11jMVtjSF1jKG5vMSlbTkhdQyg9TylbTkhdW0NAQEhdMltDSDJdW0NIMl1OKFtDSDJdMilbQ0hdM1tDSDJdW0NIMl0z

> <s_epik_cmdline>
J2VwaWtfcHl0aG9uJywgJy1waCcsICc3LjAnLCAnLXRuJywgJzgnLCAnLW1hJywgJzIwMCcsICctbWV0YWxfYmluZGluZycsICctaW1hZScsICc8aW5maWxlLm1hZT4nLCAnLW9tYWUnLCAnPG91dGZpbGUubWFlPic=

> <r_epik_Ionization_Penalty>
0.000720579

> <r_epik_Ionization_Penalty_Charging>
0.000680516

> <r_epik_Ionization_Penalty_Neutral>
4.00628e-05

> <r_epik_State_Penalty>
0.000432256

> <r_epik_Charging_Adjusted_Penalty>
0.00111277

> <i_epik_Tot_Q>
1

> <i_epik_Tot_abs_Q>
1

> <r_epik_Metal_State_Penalty>
0.0255091

> <b_epik_Metal_Only>
0

> <s_lp_Force_Field>
OPLS_2005

> <r_lp_Energy>
36.5214

> <b_lp_Chiralities_Consistent>
1

> <s_lp_Variant>
AV-unprocessed.smi:3237-3

> <Gold.Version>
5.8.1

> <Gold.Id.Protein>
6NUR|6NUR_protein|mol2

> <Gold.PLP.Fitness>
42.6212

> <Gold.PLP.PLP>
-34.5898

> <Gold.PLP.part.hbond>
-4.0000

> <Gold.PLP.part.metal>
0.0000

> <Gold.PLP.part.buried>
-2.0817

> <Gold.PLP.part.nonpolar>
-28.6426

> <Gold.PLP.part.repulsive>
0.3673

> <Gold.PLP.ligand.clash>
0.0000

> <Gold.PLP.ligand.torsion>
0.9012

> <Gold.PLP.Chemscore.Hbond>
2.8564

> <Gold.PLP.Chemscore.CHOScore>
0.0000

> <Gold.PLP.Chemscore.Metal>
0.0000

> <Gold.Chemscore.Hbonds>
donor molecule, donor type, donor heavy atom, donor atom, acceptor molecule, acceptor atom, score
      L1  H     5    23       P1 10747  0.90
      L1  H     8    24       P1 10747  0.98
      L1  H    12    37       P1  7921  1.00

> <Gold.PLP.Chemscore.Internal.Correction>
1.2644

> <Gold.Rescore>
     Score         DG    S(hbond)    S(metal)    S(lipo)     H(rot)  DE(clash)    DE(int)     intcor
     16.73     -17.93       2.29        0.00      68.60       1.26       0.08       1.11       ----

> <Gold.Chemscore.Fitness>
16.7348

> <Gold.Chemscore.DG>
-17.9300

> <Gold.Chemscore.ZeroCoef>
-5.4800

> <Gold.Chemscore.Hbond>
2.2898

> <Gold.Chemscore.Metal>
0.0000

> <Gold.Chemscore.Lipo>
68.5962

> <Gold.Chemscore.Internal_Hbond>
0.0000

> <Gold.Chemscore.DEClash>
0.0845

> <Gold.Chemscore.DEInternal>
1.1107

> <Gold.Chemscore.Rot>
1.2593

> <Gold.Chemscore.Internal.Correction>
   9.000000E+99

> <Gold.Chemscore.Hbonds>
donor molecule, donor type, donor heavy atom, donor atom, acceptor molecule, acceptor atom, score
      L1  H     5    23       P1 10747  0.16
      L1  H     8    24       P1 10747  0.90
      L1  H    12    37       P1  7921  0.92

> <Gold.Chemscore.Hbond.Weighted>
-7.6480

> <Gold.Chemscore.Metal.Weighted>
-0.0000

> <Gold.Chemscore.Lipo.Weighted>
-8.0258

> <Gold.Chemscore.Internal_Hbond.Weighted>
0.0000

> <Gold.Chemscore.DEClash.Weighted>
0.0845

> <Gold.Chemscore.DEInternal.Weighted>
1.1107

> <Gold.Chemscore.Rot.Weighted>
3.2237

> <Gold.Chemscore.Internal.Correction.Weighted>
   9.000000E+99

> <Gold.Protein.RotatedTorsions>
[ 6907 6896 6895 6894 ] final  -33.95 input  -60.11 | X-H torsion
[ 7974 7965 7964 7962 ] final   10.74 input  175.53 | X-H torsion
[ 8008 7997 7996 7995 ] final  105.58 input   59.86 | X-H torsion
[ 10167 10162 10161 10158 ] final  135.42 input  -65.29 | X-H torsion
[ 10718 10713 10712 10709 ] final  126.65 input   66.30 | X-H torsion
[ 10763 10752 10751 10750 ] final  -51.98 input  -60.55 | X-H torsion
[ 11005 11000 10999 10996 ] final   93.64 input  -57.11 | X-H torsion

> <Gold.Protein.ActiveResidues>
 VAL166  LYS551  ARG553  GLY616  TRP617  ASP618  TYR619  PRO620  LYS621  CYS622 
 ASP623  PHE694  ASN695  SER759  ASP760  ASP761  ALA762  ILE779  LEU786  VAL792 
 PHE793  MET794  SER795  GLU796  ALA797  LYS798  CYS799  TRP800  GLU811  SER814 

> <Gold.Protein.RotatedAtoms>
  151.0589  134.9723  159.8249 H   0  0  0  0  0  0  0  0  0  0  0  0  # atno 6907 bound_to 6896
  152.5392  134.2443  159.8884 H   0  0  0  0  0  0  0  0  0  0  0  0  # atno 6908 bound_to 6896
  151.2462  133.4331  159.2643 H   0  0  0  0  0  0  0  0  0  0  0  0  # atno 6909 bound_to 6896
  146.2383  139.9589  142.8461 H   0  0  0  0  0  0  0  0  0  0  0  0  # atno 7974 bound_to 7965
  156.1671  140.3128  155.8908 H   0  0  0  0  0  0  0  0  0  0  0  0  # atno 8008 bound_to 7997
  155.3663  140.0479  157.3063 H   0  0  0  0  0  0  0  0  0  0  0  0  # atno 8009 bound_to 7997
  154.5203  140.2196  155.8998 H   0  0  0  0  0  0  0  0  0  0  0  0  # atno 8010 bound_to 7997
  139.5218  144.6518  151.5280 H   0  0  0  0  0  0  0  0  0  0  0  0  # atno 10167 bound_to 10162
  157.5401  131.1097  150.8872 H   0  0  0  0  0  0  0  0  0  0  0  0  # atno 10718 bound_to 10713
  154.1353  135.6513  153.4930 H   0  0  0  0  0  0  0  0  0  0  0  0  # atno 10763 bound_to 10752
  153.0182  135.5302  154.6960 H   0  0  0  0  0  0  0  0  0  0  0  0  # atno 10764 bound_to 10752
  154.6206  135.2964  155.0301 H   0  0  0  0  0  0  0  0  0  0  0  0  # atno 10765 bound_to 10752
  139.8807  134.8801  156.3747 H   0  0  0  0  0  0  0  0  0  0  0  0  # atno 11005 bound_to 11000
  145.1790  140.9758  143.4277 LP  0  0  0  0  0  0  0  0  0  0  0  0  # atno 17320 bound_to 7965
  144.9959  139.3644  143.6191 LP  0  0  0  0  0  0  0  0  0  0  0  0  # atno 17321 bound_to 7965
  140.6326  143.9047  150.6619 LP  0  0  0  0  0  0  0  0  0  0  0  0  # atno 17342 bound_to 10162
  140.2356  143.3703  152.1530 LP  0  0  0  0  0  0  0  0  0  0  0  0  # atno 17343 bound_to 10162
  156.9428  130.5391  149.5280 LP  0  0  0  0  0  0  0  0  0  0  0  0  # atno 17370 bound_to 10713
  156.0490  130.5562  150.8946 LP  0  0  0  0  0  0  0  0  0  0  0  0  # atno 17371 bound_to 10713
  140.9440  133.7495  156.0184 LP  0  0  0  0  0  0  0  0  0  0  0  0  # atno 17394 bound_to 11000
  140.8185  134.3316  157.5389 LP  0  0  0  0  0  0  0  0  0  0  0  0  # atno 17395 bound_to 11000

$$$$
