AV-unprocessed.smi:2884|AV-procd|sdf|11083|dock9
  -GOLD-   2272015553D 1   1.00000     0.00000
 Structure written by MMmdl.
 42 43  0  0  0  0  0  0  0  0  1 V2000
  150.5212  138.3589  155.2592 C   0  0  0  0  0  0  0  0  0  0  0  0
  151.9366  138.5285  155.8268 C   0  0  0  0  0  0  0  0  0  0  0  0
  152.1814  139.9287  156.4020 C   0  0  0  0  0  0  0  0  0  0  0  0
  151.1506  140.2128  157.3408 O   0  0  0  0  0  0  0  0  0  0  0  0
  151.2485  141.3815  158.1641 C   0  0  0  0  0  0  0  0  0  0  0  0
  149.9633  141.2937  159.0244 C   0  0  0  0  0  0  0  0  0  0  0  0
  148.7544  141.2995  158.2094 N   0  0  0  0  0  0  0  0  0  0  0  0
  147.4950  141.8197  158.4811 C   0  0  0  0  0  0  0  0  0  0  0  0
  147.1612  142.4996  159.7284 C   0  0  0  0  0  0  0  0  0  0  0  0
  145.9875  142.9731  159.9740 N   0  0  0  0  0  0  0  0  0  0  0  0
  145.0124  142.8341  159.0172 N   0  0  0  0  0  0  0  0  0  0  0  0
  145.1486  142.2428  157.8071 C   0  0  0  0  0  0  0  0  0  0  0  0
  144.2095  142.1748  157.0166 O   0  0  0  0  0  0  0  0  0  0  0  0
  146.4962  141.7114  157.5612 C   0  0  0  0  0  0  0  0  0  0  0  0
  146.7791  140.9185  156.0469 Cl  0  0  0  0  0  0  0  0  0  0  0  0
  152.5345  141.4176  159.0395 C   0  0  0  0  0  0  0  0  0  0  0  0
  152.6633  142.7237  159.8434 C   0  0  0  0  0  0  0  0  0  0  0  0
  152.6146  143.9498  158.9188 C   0  0  0  0  0  0  0  0  0  0  0  0
  151.3447  143.9508  158.0536 C   0  0  0  0  0  0  0  0  0  0  0  0
  151.2040  142.6391  157.2586 C   0  0  0  0  0  0  0  0  0  0  0  0
  144.1188  143.2265  159.2763 H   0  0  0  0  0  0  0  0  0  0  0  0
  150.3759  137.3495  154.8740 H   0  0  0  0  0  0  0  0  0  0  0  0
  150.3356  139.0555  154.4409 H   0  0  0  0  0  0  0  0  0  0  0  0
  149.7657  138.5345  156.0257 H   0  0  0  0  0  0  0  0  0  0  0  0
  152.0952  137.7873  156.6106 H   0  0  0  0  0  0  0  0  0  0  0  0
  152.6728  138.3166  155.0505 H   0  0  0  0  0  0  0  0  0  0  0  0
  153.1621  139.9515  156.8775 H   0  0  0  0  0  0  0  0  0  0  0  0
  152.1865  140.6570  155.5921 H   0  0  0  0  0  0  0  0  0  0  0  0
  149.9883  140.4287  159.6818 H   0  0  0  0  0  0  0  0  0  0  0  0
  149.9099  142.1609  159.6834 H   0  0  0  0  0  0  0  0  0  0  0  0
  148.8142  140.7011  157.3972 H   0  0  0  0  0  0  0  0  0  0  0  0
  147.9623  142.5946  160.4588 H   0  0  0  0  0  0  0  0  0  0  0  0
  152.5737  140.5589  159.7100 H   0  0  0  0  0  0  0  0  0  0  0  0
  153.4216  141.3488  158.4105 H   0  0  0  0  0  0  0  0  0  0  0  0
  151.8714  142.7915  160.5880 H   0  0  0  0  0  0  0  0  0  0  0  0
  153.6010  142.7210  160.3998 H   0  0  0  0  0  0  0  0  0  0  0  0
  152.6632  144.8645  159.5102 H   0  0  0  0  0  0  0  0  0  0  0  0
  153.4937  143.9533  158.2732 H   0  0  0  0  0  0  0  0  0  0  0  0
  150.4695  144.1047  158.6851 H   0  0  0  0  0  0  0  0  0  0  0  0
  151.3709  144.7960  157.3651 H   0  0  0  0  0  0  0  0  0  0  0  0
  152.0117  142.6058  156.5285 H   0  0  0  0  0  0  0  0  0  0  0  0
  150.2790  142.6544  156.6813 H   0  0  0  0  0  0  0  0  0  0  0  0
  1  2  1  0  0  0  0
  1 22  1  0  0  0  0
  1 23  1  0  0  0  0
  1 24  1  0  0  0  0
  2  3  1  0  0  0  0
  2 25  1  0  0  0  0
  2 26  1  0  0  0  0
  3  4  1  0  0  0  0
  3 27  1  0  0  0  0
  3 28  1  0  0  0  0
  4  5  1  0  0  0  0
  5 20  1  0  0  0  0
  5  6  1  0  0  0  0
  5 16  1  0  0  0  0
  6  7  1  0  0  0  0
  6 29  1  0  0  0  0
  6 30  1  0  0  0  0
  7  8  1  0  0  0  0
  7 31  1  0  0  0  0
  8 14  2  0  0  0  0
  8  9  1  0  0  0  0
  9 10  2  0  0  0  0
  9 32  1  0  0  0  0
 10 11  1  0  0  0  0
 11 21  1  0  0  0  0
 11 12  1  0  0  0  0
 12 13  2  0  0  0  0
 12 14  1  0  0  0  0
 14 15  1  0  0  0  0
 16 17  1  0  0  0  0
 16 33  1  0  0  0  0
 16 34  1  0  0  0  0
 17 18  1  0  0  0  0
 17 35  1  0  0  0  0
 17 36  1  0  0  0  0
 18 19  1  0  0  0  0
 18 37  1  0  0  0  0
 18 38  1  0  0  0  0
 19 20  1  0  0  0  0
 19 39  1  0  0  0  0
 19 40  1  0  0  0  0
 20 41  1  0  0  0  0
 20 42  1  0  0  0  0
M  END
> <s_m_source_file>
AV-unprocessed.smi

> <i_m_source_file_index>
2884

> <i_lp_mmshare_version>
43012

> <i_f3d_flags>
0

> <s_epik_input>
W0NIMl0xW0NIMl1bQ0gyXVtDSDJdW0NIMl1DMShPW0NIMl1bQ0gyXVtDSDNdKVtDSDJdW05IXWMyW2NIXW5bbkhdYyg9TyljMkNs

> <s_epik_cmdline>
J2VwaWtfcHl0aG9uJywgJy1waCcsICc3LjAnLCAnLXRuJywgJzgnLCAnLW1hJywgJzIwMCcsICctbWV0YWxfYmluZGluZycsICctaW1hZScsICc8aW5maWxlLm1hZT4nLCAnLW9tYWUnLCAnPG91dGZpbGUubWFlPic=

> <r_lp_tautomer_probability>
0.986175

> <r_epik_Ionization_Penalty>
0.00111508

> <r_epik_Ionization_Penalty_Charging>
0.00108742

> <r_epik_Ionization_Penalty_Neutral>
2.7657e-05

> <r_epik_State_Penalty>
0.00620319

> <r_epik_Charging_Adjusted_Penalty>
0.00729061

> <i_epik_Tot_Q>
0

> <i_epik_Tot_abs_Q>
0

> <r_epik_Metal_State_Penalty>
0.300009

> <b_epik_Metal_Only>
0

> <s_lp_Force_Field>
OPLS_2005

> <r_lp_Energy>
35.8934

> <b_lp_Chiralities_Consistent>
1

> <s_lp_Variant>
AV-unprocessed.smi:2884-1

> <Gold.Version>
5.8.1

> <Gold.Id.Protein>
6NUR|6NUR_protein|mol2

> <Gold.PLP.Fitness>
33.9316

> <Gold.PLP.PLP>
-34.3549

> <Gold.PLP.part.hbond>
0.0000

> <Gold.PLP.part.metal>
0.0000

> <Gold.PLP.part.buried>
-4.4539

> <Gold.PLP.part.nonpolar>
-30.3580

> <Gold.PLP.part.repulsive>
0.2920

> <Gold.PLP.ligand.clash>
0.0000

> <Gold.PLP.ligand.torsion>
0.2246

> <Gold.PLP.Chemscore.Hbond>
0.0000

> <Gold.PLP.Chemscore.CHOScore>
0.0000

> <Gold.PLP.Chemscore.Metal>
0.0000

> <Gold.PLP.Chemscore.Internal.Correction>
0.0259

> <Gold.Rescore>
     Score         DG    S(hbond)    S(metal)    S(lipo)     H(rot)  DE(clash)    DE(int)     intcor
     11.50     -11.99       0.00        0.00      94.32       1.77       0.02       0.47       ----

> <Gold.Chemscore.Fitness>
11.5012

> <Gold.Chemscore.DG>
-11.9933

> <Gold.Chemscore.ZeroCoef>
-5.4800

> <Gold.Chemscore.Hbond>
0.0000

> <Gold.Chemscore.Metal>
0.0000

> <Gold.Chemscore.Lipo>
94.3157

> <Gold.Chemscore.Internal_Hbond>
0.0000

> <Gold.Chemscore.DEClash>
0.0179

> <Gold.Chemscore.DEInternal>
0.4742

> <Gold.Chemscore.Rot>
1.7663

> <Gold.Chemscore.Internal.Correction>
   9.000000E+99

> <Gold.Chemscore.Hbond.Weighted>
-0.0000

> <Gold.Chemscore.Metal.Weighted>
-0.0000

> <Gold.Chemscore.Lipo.Weighted>
-11.0349

> <Gold.Chemscore.Internal_Hbond.Weighted>
0.0000

> <Gold.Chemscore.DEClash.Weighted>
0.0179

> <Gold.Chemscore.DEInternal.Weighted>
0.4742

> <Gold.Chemscore.Rot.Weighted>
4.5216

> <Gold.Chemscore.Internal.Correction.Weighted>
   9.000000E+99

> <Gold.Protein.RotatedTorsions>
[ 6907 6896 6895 6894 ] final  110.29 input  -60.11 | X-H torsion
[ 7974 7965 7964 7962 ] final   98.91 input  175.53 | X-H torsion
[ 8008 7997 7996 7995 ] final  -85.40 input   59.86 | X-H torsion
[ 10167 10162 10161 10158 ] final -141.08 input  -65.29 | X-H torsion
[ 10718 10713 10712 10709 ] final  -69.17 input   66.30 | X-H torsion
[ 10763 10752 10751 10750 ] final   13.95 input  -60.55 | X-H torsion
[ 11005 11000 10999 10996 ] final   88.94 input  -57.11 | X-H torsion

> <Gold.Protein.ActiveResidues>
 VAL166  LYS551  ARG553  GLY616  TRP617  ASP618  TYR619  PRO620  LYS621  CYS622 
 ASP623  PHE694  ASN695  SER759  ASP760  ASP761  ALA762  ILE779  LEU786  VAL792 
 PHE793  MET794  SER795  GLU796  ALA797  LYS798  CYS799  TRP800  GLU811  SER814 

> <Gold.Protein.RotatedAtoms>
  152.5026  133.8821  159.7351 H   0  0  0  0  0  0  0  0  0  0  0  0  # atno 6907 bound_to 6896
  150.9281  133.6791  159.2823 H   0  0  0  0  0  0  0  0  0  0  0  0  # atno 6908 bound_to 6896
  151.4145  135.0994  159.9648 H   0  0  0  0  0  0  0  0  0  0  0  0  # atno 6909 bound_to 6896
  145.4059  139.2340  143.3274 H   0  0  0  0  0  0  0  0  0  0  0  0  # atno 7974 bound_to 7965
  154.6403  140.0592  156.9838 H   0  0  0  0  0  0  0  0  0  0  0  0  # atno 8008 bound_to 7997
  155.1526  140.3275  155.4409 H   0  0  0  0  0  0  0  0  0  0  0  0  # atno 8009 bound_to 7997
  156.2528  140.1944  156.6637 H   0  0  0  0  0  0  0  0  0  0  0  0  # atno 8010 bound_to 7997
  139.8219  143.7562  152.2666 H   0  0  0  0  0  0  0  0  0  0  0  0  # atno 10167 bound_to 10162
  156.0468  130.4308  150.2109 H   0  0  0  0  0  0  0  0  0  0  0  0  # atno 10718 bound_to 10713
  153.1670  135.6806  153.8661 H   0  0  0  0  0  0  0  0  0  0  0  0  # atno 10763 bound_to 10752
  153.8038  135.3152  155.3394 H   0  0  0  0  0  0  0  0  0  0  0  0  # atno 10764 bound_to 10752
  154.7972  135.4800  154.0280 H   0  0  0  0  0  0  0  0  0  0  0  0  # atno 10765 bound_to 10752
  139.8886  134.8520  156.3071 H   0  0  0  0  0  0  0  0  0  0  0  0  # atno 11005 bound_to 11000
  146.2729  140.4764  142.8807 LP  0  0  0  0  0  0  0  0  0  0  0  0  # atno 17320 bound_to 7965
  144.8342  140.6755  143.6271 LP  0  0  0  0  0  0  0  0  0  0  0  0  # atno 17321 bound_to 7965
  139.7743  144.7466  151.0179 LP  0  0  0  0  0  0  0  0  0  0  0  0  # atno 17342 bound_to 10162
  140.7812  143.4611  151.0277 LP  0  0  0  0  0  0  0  0  0  0  0  0  # atno 17343 bound_to 10162
  157.0197  130.9976  151.3343 LP  0  0  0  0  0  0  0  0  0  0  0  0  # atno 17370 bound_to 10713
  157.5353  130.8084  149.7964 LP  0  0  0  0  0  0  0  0  0  0  0  0  # atno 17371 bound_to 10713
  140.9875  133.7229  156.0763 LP  0  0  0  0  0  0  0  0  0  0  0  0  # atno 17394 bound_to 11000
  140.7669  134.3876  157.5515 LP  0  0  0  0  0  0  0  0  0  0  0  0  # atno 17395 bound_to 11000

$$$$
