#       Name:                AV-unprocessed.smi:1986
#       Creating user name   scv26
#       Creation time:       Fri Mar 27 10:25:01 2020


#       File generated by GOLD software.
#

@<TRIPOS>MOLECULE
AV-unprocessed.smi:1986
    56    57     1
SMALL
NO_CHARGES


@<TRIPOS>ATOM
      1 ****        -2.2392  -0.2192  -3.8322 C.3            1 S1                 0.0000
      2 ****        -1.7229  -0.9591  -2.5853 C.3            1 S1                 0.0000
      3 ****        -1.2138  -0.0606  -1.4172 C.3            1 S1                 0.0000
      4 ****        -2.3336   0.9336  -1.0109 C.3            1 S1                 0.0000
      5 ****         0.0073   0.7838  -1.8952 C.3            1 S1                 0.0000
      6 ****         0.7114   1.4183  -0.7841 N.am           1 S1                 0.0000
      7 ****         0.5758   2.6915  -0.3794 C.2            1 S1                 0.0000
      8 ****        -0.1081   3.5163  -0.9841 O.2            1 S1                 0.0000
      9 ****         1.2795   3.1061   0.9235 C.3            1 S1                 0.0000
     10 ****         1.9484   2.0057   1.6381 N.am           1 S1                 0.0000
     11 ****         1.0716   1.2773   2.5527 N.pl3          1 S1                -1.0000
     12 ****         1.6020   0.3082   3.3447 C.2            1 S1                 0.0000
     13 ****         0.9391  -0.3121   4.1722 O.2            1 S1                 0.0000
     14 ****         3.0083  -0.0183   3.1770 C.2            1 S1                 0.0000
     15 ****         3.7763   0.6225   2.2736 C.2            1 S1                 0.0000
     16 ****         3.2583   1.6915   1.4283 C.2            1 S1                 0.0000
     17 ****         3.9501   2.2721   0.5923 O.2            1 S1                 0.0000
     18 ****        -0.8142  -0.8965  -0.2232 N.4            1 S1                 1.0000
     19 ****        -1.9232  -1.5127   0.5584 C.3            1 S1                 0.0000
     20 ****        -1.3777  -2.1635   1.8408 C.3            1 S1                 0.0000
     21 ****        -0.3932  -3.1331   1.5103 O.3            1 S1                 0.0000
     22 ****         0.7141  -2.5500   0.8383 C.3            1 S1                 0.0000
     23 ****         0.2412  -1.9173  -0.4793 C.3            1 S1                 0.0000
     24 ****        -2.5510  -0.9341  -4.5938 H              1 S1                 0.0000
     25 ****        -1.4714   0.4113  -4.2794 H              1 S1                 0.0000
     26 ****        -3.1037   0.4051  -3.6077 H              1 S1                 0.0000
     27 ****        -2.5237  -1.6080  -2.2313 H              1 S1                 0.0000
     28 ****        -0.9264  -1.6241  -2.9178 H              1 S1                 0.0000
     29 ****        -2.4746   1.7131  -1.7602 H              1 S1                 0.0000
     30 ****        -2.1027   1.4391  -0.0725 H              1 S1                 0.0000
     31 ****        -3.2985   0.4398  -0.8938 H              1 S1                 0.0000
     32 ****         0.7274   0.1565  -2.4201 H              1 S1                 0.0000
     33 ****        -0.2955   1.5329  -2.6281 H              1 S1                 0.0000
     34 ****         1.3060   0.8239  -0.2240 H              1 S1                 0.0000
     35 ****         1.9861   3.9058   0.6958 H              1 S1                 0.0000
     36 ****         0.5351   3.5615   1.5791 H              1 S1                 0.0000
     37 ****         3.4450  -0.7978   3.7841 H              1 S1                 0.0000
     38 ****         4.8154   0.3437   2.1792 H              1 S1                 0.0000
     39 ****        -2.6633  -0.7745   0.8615 H              1 S1                 0.0000
     40 ****        -2.4397  -2.2602  -0.0439 H              1 S1                 0.0000
     41 ****        -0.9578  -1.4107   2.5087 H              1 S1                 0.0000
     42 ****        -2.1850  -2.6535   2.3851 H              1 S1                 0.0000
     43 ****         1.1999  -1.8101   1.4732 H              1 S1                 0.0000
     44 ****         1.4520  -3.3268   0.6375 H              1 S1                 0.0000
     45 ****        -0.1432  -2.7042  -1.1284 H              1 S1                 0.0000
     46 ****         1.1041  -1.4801  -0.9784 H              1 S1                 0.0000
     47 ****        -0.3932  -0.2335   0.4138 H              1 S1                 0.0000
     48 ****        -0.5936   3.2492  -1.8165 LP             1 S1                 0.0000
     49 ****        -0.1784   4.4538  -0.6431 LP             1 S1                 0.0000
     50 ****         0.0952   1.4889   2.5953 LP             1 S1                 0.0000
     51 ****        -0.0341  -0.1119   4.2849 LP             1 S1                 0.0000
     52 ****         1.3727  -1.0172   4.7333 LP             1 S1                 0.0000
     53 ****         3.5546   3.0038   0.0371 LP             1 S1                 0.0000
     54 ****         4.9078   2.0122   0.4683 LP             1 S1                 0.0000
     55 ****        -0.8054  -3.8240   0.9165 LP             1 S1                 0.0000
     56 ****        -0.0700  -3.5665   2.3516 LP             1 S1                 0.0000
@<TRIPOS>BOND
    1    1    2 1     
    2    1   24 1     
    3    1   25 1     
    4    1   26 1     
    5    2    3 1     
    6    2   27 1     
    7    2   28 1     
    8    3    4 1     
    9    3    5 1     
   10    3   18 1     
   11    4   29 1     
   12    4   30 1     
   13    4   31 1     
   14    5    6 1     
   15    5   32 1     
   16    5   33 1     
   17    6    7 am    
   18    6   34 1     
   19    7    8 2     
   20    7    9 1     
   21    9   35 1     
   22    9   36 1     
   23    9   10 1     
   24   10   11 1     
   25   10   16 am    
   26   11   12 1     
   27   12   13 2     
   28   12   14 1     
   29   14   37 1     
   30   14   15 2     
   31   15   38 1     
   32   15   16 1     
   33   16   17 2     
   34   18   23 1     
   35   18   19 1     
   36   18   47 1     
   37   19   20 1     
   38   19   39 1     
   39   19   40 1     
   40   20   21 1     
   41   20   41 1     
   42   20   42 1     
   43   21   22 1     
   44   22   23 1     
   45   22   43 1     
   46   22   44 1     
   47   23   45 1     
   48   23   46 1     
   49    8   48 1     
   50    8   49 1     
   51   11   50 1     
   52   13   51 1     
   53   13   52 1     
   54   17   53 1     
   55   17   54 1     
   56   21   55 1     
   57   21   56 1     
@<TRIPOS>SUBSTRUCTURE
      1 S1             1
@<TRIPOS>SET
LONE_PAIRS      STATIC     ATOMS    <user>   **** ""
9 48 49 50 51 52 53 54 55 56
DONOR_HYDROGENS      STATIC     ATOMS    <user>   **** ""
2 34 47
ATOM$BLUE        STATIC     ATOMS    COLORGROUP SYSTEM
9 48 49 50 51 52 53 54 55 56
ATOM$RED        STATIC     ATOMS    COLORGROUP SYSTEM
2 34 47
