AV-unprocessed.smi:1976|AV-procd|sdf|7984|dock7
  -GOLD-   2272010163D 1   1.00000     0.00000
 Structure written by MMmdl.
 45 47  0  0  0  0  0  0  0  0  2 V2000
  150.0612  136.1153  156.2169 O   0  0  0  0  0  0  0  0  0  0  0  0
  150.4163  136.1621  155.0387 C   0  0  0  0  0  0  0  0  0  0  0  0
  151.3272  137.2917  154.5387 C   0  0  0  0  0  0  0  0  0  0  0  0
  150.7796  138.6308  154.8116 N   0  0  0  0  0  0  0  0  0  0  0  0
  149.5178  138.9341  154.2631 C   0  0  0  0  0  0  0  0  0  0  0  0
  148.9097  140.1234  154.4373 C   0  0  0  0  0  0  0  0  0  0  0  0
  147.5176  140.3989  153.8902 C   0  0  0  0  0  0  0  0  0  0  0  0
  146.5970  140.2984  154.8493 F   0  0  0  0  0  0  0  0  0  0  0  0
  147.4634  141.6329  153.3910 F   0  0  0  0  0  0  0  0  0  0  0  0
  147.2033  139.5433  152.9166 F   0  0  0  0  0  0  0  0  0  0  0  0
  149.6113  141.0926  155.2562 C   0  0  0  0  0  0  0  0  0  0  0  0
  150.8122  140.8133  155.7997 C   0  0  0  0  0  0  0  0  0  0  0  0
  151.4667  139.5201  155.5895 C   0  0  0  0  0  0  0  0  0  0  0  0
  152.5624  139.2509  156.0831 O   0  0  0  0  0  0  0  0  0  0  0  0
  150.0242  135.2659  154.1208 N   0  0  0  0  0  0  0  0  0  0  0  0
  149.1609  134.1192  154.3928 C   0  0  1  0  0  0  0  0  0  0  0  0
  148.6564  133.3999  153.1240 C   0  0  0  0  0  0  0  0  0  0  0  0
  148.7736  131.9071  153.4487 C   0  0  0  0  0  0  0  0  0  0  0  0
  149.9427  131.8531  154.3344 N   0  3  2  0  0  0  0  0  0  0  0  0
  150.2191  130.5982  155.0629 C   0  0  0  0  0  0  0  0  0  0  0  0
  151.5783  130.7391  155.7823 C   0  0  0  0  0  0  0  0  0  0  0  0
  151.6516  132.0134  156.6548 C   0  0  0  0  0  0  0  0  0  0  0  0
  151.2311  133.2726  155.8662 C   0  0  0  0  0  0  0  0  0  0  0  0
  149.8540  133.0209  155.2278 C   0  0  1  0  0  0  0  0  0  0  0  0
  152.3186  137.1924  154.9854 H   0  0  0  0  0  0  0  0  0  0  0  0
  151.4827  137.1531  153.4680 H   0  0  0  0  0  0  0  0  0  0  0  0
  149.0678  138.1289  153.7006 H   0  0  0  0  0  0  0  0  0  0  0  0
  149.1679  142.0610  155.4350 H   0  0  0  0  0  0  0  0  0  0  0  0
  151.3063  141.5605  156.4034 H   0  0  0  0  0  0  0  0  0  0  0  0
  150.3595  135.3768  153.1747 H   0  0  0  0  0  0  0  0  0  0  0  0
  148.3011  134.4756  154.9639 H   0  0  0  0  0  0  0  0  0  0  0  0
  147.6402  133.6893  152.8545 H   0  0  0  0  0  0  0  0  0  0  0  0
  149.3001  133.6342  152.2746 H   0  0  0  0  0  0  0  0  0  0  0  0
  147.8883  131.5598  153.9840 H   0  0  0  0  0  0  0  0  0  0  0  0
  148.9061  131.2910  152.5588 H   0  0  0  0  0  0  0  0  0  0  0  0
  149.4198  130.3942  155.7770 H   0  0  0  0  0  0  0  0  0  0  0  0
  150.2486  129.7634  154.3617 H   0  0  0  0  0  0  0  0  0  0  0  0
  151.7710  129.8564  156.3927 H   0  0  0  0  0  0  0  0  0  0  0  0
  152.3739  130.7744  155.0368 H   0  0  0  0  0  0  0  0  0  0  0  0
  150.9957  131.8940  157.5182 H   0  0  0  0  0  0  0  0  0  0  0  0
  152.6596  132.1385  157.0513 H   0  0  0  0  0  0  0  0  0  0  0  0
  151.1916  134.1350  156.5327 H   0  0  0  0  0  0  0  0  0  0  0  0
  151.9735  133.4956  155.0985 H   0  0  0  0  0  0  0  0  0  0  0  0
  149.1578  132.7639  156.0294 H   0  0  0  0  0  0  0  0  0  0  0  0
  150.7396  132.0186  153.7361 H   0  0  0  0  0  0  0  0  0  0  0  0
  1  2  2  0  0  0  0
  2  3  1  0  0  0  0
  2 15  1  0  0  0  0
  3  4  1  0  0  0  0
  3 25  1  0  0  0  0
  3 26  1  0  0  0  0
  4 13  1  0  0  0  0
  4  5  1  0  0  0  0
  5  6  2  0  0  0  0
  5 27  1  0  0  0  0
  6  7  1  0  0  0  0
  6 11  1  0  0  0  0
  7  8  1  0  0  0  0
  7  9  1  0  0  0  0
  7 10  1  0  0  0  0
 11 12  2  0  0  0  0
 11 28  1  0  0  0  0
 12 13  1  0  0  0  0
 12 29  1  0  0  0  0
 13 14  2  0  0  0  0
 15 16  1  0  0  0  0
 15 30  1  0  0  0  0
 16 24  1  0  0  0  0
 16 17  1  0  0  0  0
 16 31  1  0  0  0  0
 17 18  1  0  0  0  0
 17 32  1  0  0  0  0
 17 33  1  0  0  0  0
 18 19  1  0  0  0  0
 18 34  1  0  0  0  0
 18 35  1  0  0  0  0
 19 24  1  0  0  0  0
 19 20  1  0  0  0  0
 19 45  1  0  0  0  0
 20 21  1  0  0  0  0
 20 36  1  0  0  0  0
 20 37  1  0  0  0  0
 21 22  1  0  0  0  0
 21 38  1  0  0  0  0
 21 39  1  0  0  0  0
 22 23  1  0  0  0  0
 22 40  1  0  0  0  0
 22 41  1  0  0  0  0
 23 24  1  0  0  0  0
 23 42  1  0  0  0  0
 23 43  1  0  0  0  0
 24 44  1  0  0  0  0
M  CHG  1  19   1
M  END
> <s_m_source_file>
AV-unprocessed.smi

> <i_m_source_file_index>
1976

> <i_lp_mmshare_version>
43012

> <i_f3d_flags>
0

> <s_epik_input>
W0NIMl0xW0NIMl1bQ0gyXVtDSDJdW0NASF0oTjEyKVtDQEBIXShbQ0gyXVtDSDJdMilbTkhdQyg9TylbQ0gyXW4zW2NIXWMoQyhGKShGKUYpW2NIXVtjSF1jMz1P

> <s_epik_cmdline>
J2VwaWtfcHl0aG9uJywgJy1waCcsICc3LjAnLCAnLXRuJywgJzgnLCAnLW1hJywgJzIwMCcsICctbWV0YWxfYmluZGluZycsICctaW1hZScsICc8aW5maWxlLm1hZT4nLCAnLW9tYWUnLCAnPG91dGZpbGUubWFlPic=

> <r_lp_tautomer_probability>
1

> <r_epik_Ionization_Penalty>
0.00171506

> <r_epik_Ionization_Penalty_Charging>
0.00171498

> <r_epik_Ionization_Penalty_Neutral>
7.81737e-08

> <r_epik_State_Penalty>
0.00115937

> <r_epik_Charging_Adjusted_Penalty>
0.00287436

> <i_epik_Tot_Q>
1

> <i_epik_Tot_abs_Q>
1

> <r_epik_Metal_State_Penalty>
-0

> <b_epik_Metal_Only>
0

> <s_lp_Force_Field>
OPLS_2005

> <r_lp_Energy>
52.9518

> <b_lp_Chiralities_Consistent>
1

> <s_lp_Variant>
AV-unprocessed.smi:1976-2

> <Gold.Version>
5.8.1

> <Gold.Id.Protein>
6NUR|6NUR_protein|mol2

> <Gold.PLP.Fitness>
48.1778

> <Gold.PLP.PLP>
-43.9233

> <Gold.PLP.part.hbond>
-2.8270

> <Gold.PLP.part.metal>
0.0000

> <Gold.PLP.part.buried>
-2.0392

> <Gold.PLP.part.nonpolar>
-39.0228

> <Gold.PLP.part.repulsive>
0.0845

> <Gold.PLP.ligand.clash>
0.1406

> <Gold.PLP.ligand.torsion>
0.8193

> <Gold.PLP.Chemscore.Hbond>
1.0000

> <Gold.PLP.Chemscore.CHOScore>
0.9887

> <Gold.PLP.Chemscore.Metal>
0.0000

> <Gold.Chemscore.Hbonds>
donor molecule, donor type, donor heavy atom, donor atom, acceptor molecule, acceptor atom, score
      P1  H  7997  8008       L1    14  1.00
      L1  C     5    27       P1  7948  0.77

> <Gold.PLP.Chemscore.Internal.Correction>
0.0676

> <Gold.Rescore>
     Score         DG    S(hbond)    S(metal)    S(lipo)     H(rot)  DE(clash)    DE(int)     intcor
     13.74     -14.25       0.99        0.00      81.23       1.58       0.12       0.38       ----

> <Gold.Chemscore.Fitness>
13.7445

> <Gold.Chemscore.DG>
-14.2504

> <Gold.Chemscore.ZeroCoef>
-5.4800

> <Gold.Chemscore.Hbond>
0.9936

> <Gold.Chemscore.Metal>
0.0000

> <Gold.Chemscore.Lipo>
81.2324

> <Gold.Chemscore.Internal_Hbond>
0.0000

> <Gold.Chemscore.DEClash>
0.1226

> <Gold.Chemscore.DEInternal>
0.3833

> <Gold.Chemscore.Rot>
1.5830

> <Gold.Chemscore.Internal.Correction>
   9.000000E+99

> <Gold.Chemscore.Hbonds>
donor molecule, donor type, donor heavy atom, donor atom, acceptor molecule, acceptor atom, score
      P1  H  7997  8008       L1    14  0.94

> <Gold.Chemscore.Hbond.Weighted>
-3.3186

> <Gold.Chemscore.Metal.Weighted>
-0.0000

> <Gold.Chemscore.Lipo.Weighted>
-9.5042

> <Gold.Chemscore.Internal_Hbond.Weighted>
0.0000

> <Gold.Chemscore.DEClash.Weighted>
0.1226

> <Gold.Chemscore.DEInternal.Weighted>
0.3833

> <Gold.Chemscore.Rot.Weighted>
4.0524

> <Gold.Chemscore.Internal.Correction.Weighted>
   9.000000E+99

> <Gold.Protein.RotatedTorsions>
[ 6907 6896 6895 6894 ] final  115.66 input  -60.11 | X-H torsion
[ 7974 7965 7964 7962 ] final   89.89 input  175.53 | X-H torsion
[ 8008 7997 7996 7995 ] final  -29.40 input   59.86 | X-H torsion
[ 10167 10162 10161 10158 ] final  102.29 input  -65.29 | X-H torsion
[ 10718 10713 10712 10709 ] final   81.06 input   66.30 | X-H torsion
[ 10763 10752 10751 10750 ] final  141.06 input  -60.55 | X-H torsion
[ 11005 11000 10999 10996 ] final  136.90 input  -57.11 | X-H torsion

> <Gold.Protein.ActiveResidues>
 VAL166  LYS551  ARG553  GLY616  TRP617  ASP618  TYR619  PRO620  LYS621  CYS622 
 ASP623  PHE694  ASN695  SER759  ASP760  ASP761  ALA762  ILE779  LEU786  VAL792 
 PHE793  MET794  SER795  GLU796  ALA797  LYS798  CYS799  TRP800  GLU811  SER814 

> <Gold.Protein.RotatedAtoms>
  152.4728  133.8068  159.6981 H   0  0  0  0  0  0  0  0  0  0  0  0  # atno 6907 bound_to 6896
  150.8726  133.7474  159.2963 H   0  0  0  0  0  0  0  0  0  0  0  0  # atno 6908 bound_to 6896
  151.5004  135.1065  159.9879 H   0  0  0  0  0  0  0  0  0  0  0  0  # atno 6909 bound_to 6896
  145.5264  139.2281  143.2643 H   0  0  0  0  0  0  0  0  0  0  0  0  # atno 7974 bound_to 7965
  154.4291  140.1819  156.1242 H   0  0  0  0  0  0  0  0  0  0  0  0  # atno 8008 bound_to 7997
  156.0119  140.3350  155.6924 H   0  0  0  0  0  0  0  0  0  0  0  0  # atno 8009 bound_to 7997
  155.6099  140.0649  157.2700 H   0  0  0  0  0  0  0  0  0  0  0  0  # atno 8010 bound_to 7997
  139.7363  144.7023  151.0644 H   0  0  0  0  0  0  0  0  0  0  0  0  # atno 10167 bound_to 10162
  157.6823  130.9987  150.2171 H   0  0  0  0  0  0  0  0  0  0  0  0  # atno 10718 bound_to 10713
  153.9330  135.2988  155.3445 H   0  0  0  0  0  0  0  0  0  0  0  0  # atno 10763 bound_to 10752
  154.7517  135.4977  153.9304 H   0  0  0  0  0  0  0  0  0  0  0  0  # atno 10764 bound_to 10752
  153.1082  135.6752  153.9654 H   0  0  0  0  0  0  0  0  0  0  0  0  # atno 10765 bound_to 10752
  140.0077  134.9452  157.0211 H   0  0  0  0  0  0  0  0  0  0  0  0  # atno 11005 bound_to 11000
  146.2073  140.6078  142.9075 LP  0  0  0  0  0  0  0  0  0  0  0  0  # atno 17320 bound_to 7965
  144.7649  140.5507  143.6710 LP  0  0  0  0  0  0  0  0  0  0  0  0  # atno 17321 bound_to 7965
  140.7779  143.4980  150.9808 LP  0  0  0  0  0  0  0  0  0  0  0  0  # atno 17342 bound_to 10162
  139.8668  143.7243  152.3169 LP  0  0  0  0  0  0  0  0  0  0  0  0  # atno 17343 bound_to 10162
  156.2830  130.3736  149.7917 LP  0  0  0  0  0  0  0  0  0  0  0  0  # atno 17370 bound_to 10713
  156.5599  130.8379  151.3325 LP  0  0  0  0  0  0  0  0  0  0  0  0  # atno 17371 bound_to 10713
  140.4611  134.1483  155.7191 LP  0  0  0  0  0  0  0  0  0  0  0  0  # atno 17394 bound_to 11000
  141.1689  133.8648  157.1632 LP  0  0  0  0  0  0  0  0  0  0  0  0  # atno 17395 bound_to 11000

$$$$
