AV-unprocessed.smi:2697|AV-procd|sdf|10415|dock4
  -GOLD-   2272014453D 1   1.00000     0.00000
 Structure written by MMmdl.
 32 33  0  0  0  0  0  0  0  0  2 V2000
  149.1748  137.2503  157.3030 C   0  0  0  0  0  0  0  0  0  0  0  0
  150.3591  137.9843  157.6940 N   0  0  0  0  0  0  0  0  0  0  0  0
  151.4806  137.5169  158.3455 C   0  0  0  0  0  0  0  0  0  0  0  0
  152.3077  138.5944  158.4745 C   0  0  0  0  0  0  0  0  0  0  0  0
  153.6852  138.5831  159.0672 C   0  0  0  0  0  0  0  0  0  0  0  0
  154.0005  137.4939  159.7729 N   0  0  0  0  0  0  0  0  0  0  0  0
  154.4517  139.5349  158.9368 O   0  0  0  0  0  0  0  0  0  0  0  0
  151.6294  139.6953  157.8720 C   0  0  0  0  0  0  0  0  0  0  0  0
  152.0575  141.1356  157.7019 C   0  0  2  0  0  0  0  0  0  0  0  0
  152.4566  141.7867  159.0409 C   0  0  0  0  0  0  0  0  0  0  0  0
  152.8767  143.2484  158.8203 C   0  0  0  0  0  0  0  0  0  0  0  0
  151.7779  144.0318  158.0820 C   0  0  0  0  0  0  0  0  0  0  0  0
  151.4281  143.3698  156.8061 N   0  3  0  0  0  0  0  0  0  0  0  0
  150.9793  141.9711  156.9832 C   0  0  0  0  0  0  0  0  0  0  0  0
  150.4501  139.3032  157.4010 N   0  0  0  0  0  0  0  0  0  0  0  0
  149.1836  136.2577  157.7543 H   0  0  0  0  0  0  0  0  0  0  0  0
  149.1489  137.1463  156.2181 H   0  0  0  0  0  0  0  0  0  0  0  0
  148.2814  137.7810  157.6342 H   0  0  0  0  0  0  0  0  0  0  0  0
  151.5924  136.4844  158.6429 H   0  0  0  0  0  0  0  0  0  0  0  0
  154.9116  137.4149  160.2005 H   0  0  0  0  0  0  0  0  0  0  0  0
  153.3249  136.7502  159.8753 H   0  0  0  0  0  0  0  0  0  0  0  0
  152.9488  141.1636  157.0770 H   0  0  0  0  0  0  0  0  0  0  0  0
  151.6203  141.7542  159.7405 H   0  0  0  0  0  0  0  0  0  0  0  0
  153.2727  141.2304  159.5032 H   0  0  0  0  0  0  0  0  0  0  0  0
  153.0939  143.7224  159.7780 H   0  0  0  0  0  0  0  0  0  0  0  0
  153.8015  143.2807  158.2425 H   0  0  0  0  0  0  0  0  0  0  0  0
  150.8842  144.1103  158.7025 H   0  0  0  0  0  0  0  0  0  0  0  0
  152.1129  145.0482  157.8745 H   0  0  0  0  0  0  0  0  0  0  0  0
  150.6933  143.8945  156.3534 H   0  0  0  0  0  0  0  0  0  0  0  0
  150.7608  141.5458  156.0033 H   0  0  0  0  0  0  0  0  0  0  0  0
  150.0463  141.9672  157.5486 H   0  0  0  0  0  0  0  0  0  0  0  0
  152.2438  143.3704  156.2102 H   0  0  0  0  0  0  0  0  0  0  0  0
  1  2  1  0  0  0  0
  1 16  1  0  0  0  0
  1 17  1  0  0  0  0
  1 18  1  0  0  0  0
  2 15  1  0  0  0  0
  2  3  1  0  0  0  0
  3  4  2  0  0  0  0
  3 19  1  0  0  0  0
  4  5  1  0  0  0  0
  4  8  1  0  0  0  0
  5  6  1  0  0  0  0
  5  7  2  0  0  0  0
  6 20  1  0  0  0  0
  6 21  1  0  0  0  0
  8  9  1  0  0  0  0
  8 15  2  0  0  0  0
  9 14  1  0  0  0  0
  9 10  1  0  0  0  0
  9 22  1  0  0  0  0
 10 11  1  0  0  0  0
 10 23  1  0  0  0  0
 10 24  1  0  0  0  0
 11 12  1  0  0  0  0
 11 25  1  0  0  0  0
 11 26  1  0  0  0  0
 12 13  1  0  0  0  0
 12 27  1  0  0  0  0
 12 28  1  0  0  0  0
 13 14  1  0  0  0  0
 13 29  1  0  0  0  0
 13 32  1  0  0  0  0
 14 30  1  0  0  0  0
 14 31  1  0  0  0  0
M  CHG  1  13   1
M  END
> <s_m_source_file>
AV-unprocessed.smi

> <i_m_source_file_index>
2697

> <i_lp_mmshare_version>
43012

> <i_f3d_flags>
0

> <s_epik_input>
W0NIM11uMVtjSF1jKEMoPU8pW05IMl0pYyhuMSlbQ0BASF0yW0NIMl1bQ0gyXVtDSDJdW05IXVtDSDJdMg==

> <s_epik_cmdline>
J2VwaWtfcHl0aG9uJywgJy1waCcsICc3LjAnLCAnLXRuJywgJzgnLCAnLW1hJywgJzIwMCcsICctbWV0YWxfYmluZGluZycsICctaW1hZScsICc8aW5maWxlLm1hZT4nLCAnLW9tYWUnLCAnPG91dGZpbGUubWFlPic=

> <r_lp_tautomer_probability>
1

> <r_epik_Ionization_Penalty>
0.000158942

> <r_epik_Ionization_Penalty_Charging>
0.000157527

> <r_epik_Ionization_Penalty_Neutral>
1.41498e-06

> <r_epik_State_Penalty>
-0

> <r_epik_Charging_Adjusted_Penalty>
0.000157527

> <i_epik_Tot_Q>
1

> <i_epik_Tot_abs_Q>
1

> <r_epik_Metal_State_Penalty>
-0

> <b_epik_Metal_Only>
0

> <s_lp_Force_Field>
OPLS_2005

> <r_lp_Energy>
9.94433

> <b_lp_Chiralities_Consistent>
1

> <s_lp_Variant>
AV-unprocessed.smi:2697-1

> <Gold.Version>
5.8.1

> <Gold.Id.Protein>
6NUR|6NUR_protein|mol2

> <Gold.PLP.Fitness>
37.2630

> <Gold.PLP.PLP>
-28.4312

> <Gold.PLP.part.hbond>
-2.0000

> <Gold.PLP.part.metal>
0.0000

> <Gold.PLP.part.buried>
-4.3290

> <Gold.PLP.part.nonpolar>
-22.0852

> <Gold.PLP.part.repulsive>
0.0400

> <Gold.PLP.ligand.clash>
0.0000

> <Gold.PLP.ligand.torsion>
0.1011

> <Gold.PLP.Chemscore.Hbond>
3.0000

> <Gold.PLP.Chemscore.CHOScore>
0.0000

> <Gold.PLP.Chemscore.Metal>
0.0000

> <Gold.Chemscore.Hbonds>
donor molecule, donor type, donor heavy atom, donor atom, acceptor molecule, acceptor atom, score
      L1  H    13    29       P1  8028  1.72
      P1  H  7997  8009       L1     7  1.00

> <Gold.PLP.Chemscore.Internal.Correction>
0.0341

> <Gold.Rescore>
     Score         DG    S(hbond)    S(metal)    S(lipo)     H(rot)  DE(clash)    DE(int)     intcor
     17.78     -17.91       1.98        0.00      71.45       1.00       0.00       0.13       ----

> <Gold.Chemscore.Fitness>
17.7811

> <Gold.Chemscore.DG>
-17.9091

> <Gold.Chemscore.ZeroCoef>
-5.4800

> <Gold.Chemscore.Hbond>
1.9849

> <Gold.Chemscore.Metal>
0.0000

> <Gold.Chemscore.Lipo>
71.4482

> <Gold.Chemscore.Internal_Hbond>
0.0000

> <Gold.Chemscore.DEClash>
0.0000

> <Gold.Chemscore.DEInternal>
0.1280

> <Gold.Chemscore.Rot>
1.0000

> <Gold.Chemscore.Internal.Correction>
   9.000000E+99

> <Gold.Chemscore.Hbonds>
donor molecule, donor type, donor heavy atom, donor atom, acceptor molecule, acceptor atom, score
      L1  H    13    29       P1  8028  0.84
      P1  H  7997  8009       L1     7  0.98

> <Gold.Chemscore.Hbond.Weighted>
-6.6296

> <Gold.Chemscore.Metal.Weighted>
-0.0000

> <Gold.Chemscore.Lipo.Weighted>
-8.3594

> <Gold.Chemscore.Internal_Hbond.Weighted>
0.0000

> <Gold.Chemscore.DEClash.Weighted>
0.0000

> <Gold.Chemscore.DEInternal.Weighted>
0.1280

> <Gold.Chemscore.Rot.Weighted>
2.5600

> <Gold.Chemscore.Internal.Correction.Weighted>
   9.000000E+99

> <Gold.Protein.RotatedTorsions>
[ 6907 6896 6895 6894 ] final  -65.64 input  -60.11 | X-H torsion
[ 7974 7965 7964 7962 ] final  125.67 input  175.53 | X-H torsion
[ 8008 7997 7996 7995 ] final  122.56 input   59.86 | X-H torsion
[ 10167 10162 10161 10158 ] final   35.27 input  -65.29 | X-H torsion
[ 10718 10713 10712 10709 ] final -152.40 input   66.30 | X-H torsion
[ 10763 10752 10751 10750 ] final  -46.27 input  -60.55 | X-H torsion
[ 11005 11000 10999 10996 ] final  -10.86 input  -57.11 | X-H torsion

> <Gold.Protein.ActiveResidues>
 VAL166  LYS551  ARG553  GLY616  TRP617  ASP618  TYR619  PRO620  LYS621  CYS622 
 ASP623  PHE694  ASN695  SER759  ASP760  ASP761  ALA762  ILE779  LEU786  VAL792 
 PHE793  MET794  SER795  GLU796  ALA797  LYS798  CYS799  TRP800  GLU811  SER814 

> <Gold.Protein.RotatedAtoms>
  150.7512  134.6132  159.6096 H   0  0  0  0  0  0  0  0  0  0  0  0  # atno 6907 bound_to 6896
  152.3460  134.7068  160.0259 H   0  0  0  0  0  0  0  0  0  0  0  0  # atno 6908 bound_to 6896
  151.7504  133.3291  159.3426 H   0  0  0  0  0  0  0  0  0  0  0  0  # atno 6909 bound_to 6896
  145.0703  139.3735  143.4961 H   0  0  0  0  0  0  0  0  0  0  0  0  # atno 7974 bound_to 7965
  156.2732  140.2783  156.1487 H   0  0  0  0  0  0  0  0  0  0  0  0  # atno 8008 bound_to 7997
  155.0876  140.0388  157.2676 H   0  0  0  0  0  0  0  0  0  0  0  0  # atno 8009 bound_to 7997
  154.6915  140.2630  155.6814 H   0  0  0  0  0  0  0  0  0  0  0  0  # atno 8010 bound_to 7997
  140.4238  144.1422  150.6151 H   0  0  0  0  0  0  0  0  0  0  0  0  # atno 10167 bound_to 10162
  156.4720  130.8263  151.2492 H   0  0  0  0  0  0  0  0  0  0  0  0  # atno 10718 bound_to 10713
  154.0422  135.6642  153.4791 H   0  0  0  0  0  0  0  0  0  0  0  0  # atno 10763 bound_to 10752
  153.0497  135.5092  154.7831 H   0  0  0  0  0  0  0  0  0  0  0  0  # atno 10764 bound_to 10752
  154.6811  135.3045  154.9578 H   0  0  0  0  0  0  0  0  0  0  0  0  # atno 10765 bound_to 10752
  140.7491  133.8607  155.9030 H   0  0  0  0  0  0  0  0  0  0  0  0  # atno 11005 bound_to 11000
  146.3528  140.0445  142.8640 LP  0  0  0  0  0  0  0  0  0  0  0  0  # atno 17320 bound_to 7965
  145.1300  140.9512  143.4550 LP  0  0  0  0  0  0  0  0  0  0  0  0  # atno 17321 bound_to 7965
  140.4504  143.2489  151.9355 LP  0  0  0  0  0  0  0  0  0  0  0  0  # atno 17342 bound_to 10162
  139.4783  144.5567  151.8302 LP  0  0  0  0  0  0  0  0  0  0  0  0  # atno 17343 bound_to 10162
  157.7490  131.0073  150.3185 LP  0  0  0  0  0  0  0  0  0  0  0  0  # atno 17370 bound_to 10713
  156.3609  130.3847  149.7252 LP  0  0  0  0  0  0  0  0  0  0  0  0  # atno 17371 bound_to 10713
  140.9767  134.1460  157.4530 LP  0  0  0  0  0  0  0  0  0  0  0  0  # atno 17394 bound_to 11000
  139.8791  134.9997  156.5968 LP  0  0  0  0  0  0  0  0  0  0  0  0  # atno 17395 bound_to 11000

$$$$
