AV-unprocessed.smi:40|AV-procd|sdf|367|dock3
  -GOLD-   2262016203D 1   1.00000     0.00000
 Structure written by MMmdl.
 47 48  0  0  0  0  0  0  0  0  1 V2000
  152.8216  144.9435  158.1901 C   0  0  0  0  0  0  0  0  0  0  0  0
  152.0402  144.0617  159.1701 C   0  0  0  0  0  0  0  0  0  0  0  0
  150.6625  143.6569  158.6268 C   0  0  0  0  0  0  0  0  0  0  0  0
  150.7572  142.7953  157.3608 C   0  0  0  0  0  0  0  0  0  0  0  0
  149.3751  142.3733  156.8405 C   0  0  0  0  0  0  0  0  0  0  0  0
  149.4065  141.0291  156.3827 O   0  0  0  0  0  0  0  0  0  0  0  0
  148.3014  140.4364  155.8823 C   0  0  0  0  0  0  0  0  0  0  0  0
  147.1600  140.8733  156.0267 O   0  0  0  0  0  0  0  0  0  0  0  0
  148.6301  139.2390  155.1255 N   0  0  0  0  0  0  0  0  0  0  0  0
  147.8057  138.3795  154.4771 C   0  0  0  0  0  0  0  0  0  0  0  0
  146.4879  138.4334  154.5848 N   0  0  0  0  0  0  0  0  0  0  0  0
  145.6299  137.5925  153.9297 C   0  0  0  0  0  0  0  0  0  0  0  0
  144.4175  137.6665  154.1208 O   0  0  0  0  0  0  0  0  0  0  0  0
  146.1911  136.6402  153.0443 N   0  0  0  0  0  0  0  0  0  0  0  0
  145.2540  135.6747  152.3350 C   0  0  2  0  0  0  0  0  0  0  0  0
  145.6554  134.3593  152.6010 O   0  0  0  0  0  0  0  0  0  0  0  0
  146.2470  133.7462  151.4565 C   0  0  2  0  0  0  0  0  0  0  0  0
  147.7743  133.9209  151.4545 C   0  0  0  0  0  0  0  0  0  0  0  0
  145.5660  134.4389  150.2784 C   0  0  1  0  0  0  0  0  0  0  0  0
  144.3852  133.7228  149.9576 O   0  0  0  0  0  0  0  0  0  0  0  0
  145.2954  135.8508  150.7980 C   0  0  1  0  0  0  0  0  0  0  0  0
  144.0992  136.3820  150.2575 O   0  0  0  0  0  0  0  0  0  0  0  0
  147.5743  136.5539  152.9365 C   0  0  0  0  0  0  0  0  0  0  0  0
  148.3985  137.3905  153.6037 C   0  0  0  0  0  0  0  0  0  0  0  0
  149.7323  137.2972  153.4623 F   0  0  0  0  0  0  0  0  0  0  0  0
  144.2745  135.8566  152.7806 H   0  0  0  0  0  0  0  0  0  0  0  0
  146.0308  132.6769  151.4712 H   0  0  0  0  0  0  0  0  0  0  0  0
  146.1958  134.4516  149.3878 H   0  0  0  0  0  0  0  0  0  0  0  0
  146.1341  136.4950  150.5297 H   0  0  0  0  0  0  0  0  0  0  0  0
  153.7980  145.2067  158.5973 H   0  0  0  0  0  0  0  0  0  0  0  0
  152.2864  145.8704  157.9817 H   0  0  0  0  0  0  0  0  0  0  0  0
  152.9840  144.4289  157.2426 H   0  0  0  0  0  0  0  0  0  0  0  0
  152.6240  143.1671  159.3905 H   0  0  0  0  0  0  0  0  0  0  0  0
  151.9208  144.5928  160.1152 H   0  0  0  0  0  0  0  0  0  0  0  0
  150.1136  143.1115  159.3955 H   0  0  0  0  0  0  0  0  0  0  0  0
  150.0814  144.5542  158.4096 H   0  0  0  0  0  0  0  0  0  0  0  0
  151.2801  143.3504  156.5809 H   0  0  0  0  0  0  0  0  0  0  0  0
  151.3591  141.9094  157.5671 H   0  0  0  0  0  0  0  0  0  0  0  0
  148.6096  142.5132  157.6052 H   0  0  0  0  0  0  0  0  0  0  0  0
  149.0933  143.0067  155.9993 H   0  0  0  0  0  0  0  0  0  0  0  0
  149.6169  139.0263  155.1024 H   0  0  0  0  0  0  0  0  0  0  0  0
  148.2177  133.4342  150.5857 H   0  0  0  0  0  0  0  0  0  0  0  0
  148.2186  133.4730  152.3435 H   0  0  0  0  0  0  0  0  0  0  0  0
  148.0643  134.9713  151.4255 H   0  0  0  0  0  0  0  0  0  0  0  0
  144.3405  132.9592  150.5133 H   0  0  0  0  0  0  0  0  0  0  0  0
  143.3681  135.9757  150.6977 H   0  0  0  0  0  0  0  0  0  0  0  0
  148.0395  135.8092  152.3098 H   0  0  0  0  0  0  0  0  0  0  0  0
  1  2  1  0  0  0  0
  1 30  1  0  0  0  0
  1 31  1  0  0  0  0
  1 32  1  0  0  0  0
  2  3  1  0  0  0  0
  2 33  1  0  0  0  0
  2 34  1  0  0  0  0
  3  4  1  0  0  0  0
  3 35  1  0  0  0  0
  3 36  1  0  0  0  0
  4  5  1  0  0  0  0
  4 37  1  0  0  0  0
  4 38  1  0  0  0  0
  5  6  1  0  0  0  0
  5 39  1  0  0  0  0
  5 40  1  0  0  0  0
  6  7  1  0  0  0  0
  7  8  2  0  0  0  0
  7  9  1  0  0  0  0
  9 10  1  0  0  0  0
  9 41  1  0  0  0  0
 10 24  1  0  0  0  0
 10 11  2  0  0  0  0
 11 12  1  0  0  0  0
 12 13  2  0  0  0  0
 12 14  1  0  0  0  0
 14 15  1  0  0  0  0
 14 23  1  0  0  0  0
 15 26  1  0  0  0  0
 15 21  1  0  0  0  0
 15 16  1  0  0  0  0
 16 17  1  0  0  0  0
 17 27  1  0  0  0  0
 17 18  1  0  0  0  0
 17 19  1  0  0  0  0
 18 42  1  0  0  0  0
 18 43  1  0  0  0  0
 18 44  1  0  0  0  0
 19 28  1  0  0  0  0
 19 20  1  0  0  0  0
 19 21  1  0  0  0  0
 20 45  1  0  0  0  0
 21 29  1  0  0  0  0
 21 22  1  0  0  0  0
 22 46  1  0  0  0  0
 23 24  2  0  0  0  0
 23 47  1  0  0  0  0
 24 25  1  0  0  0  0
M  END
> <s_m_source_file>
AV-unprocessed.smi

> <i_m_source_file_index>
40

> <i_lp_mmshare_version>
43012

> <i_f3d_flags>
0

> <s_epik_input>
W0NIM11bQ0gyXVtDSDJdW0NIMl1bQ0gyXU9DKD1PKVtOSF1jMW5jKD1PKW4oW2NIXWMxRilbQ0BASF0yT1tDQEhdKFtDSDNdKVtDQEBIXShbT0hdKVtDQEhdMltPSF0=

> <s_epik_cmdline>
J2VwaWtfcHl0aG9uJywgJy1waCcsICc3LjAnLCAnLXRuJywgJzgnLCAnLW1hJywgJzIwMCcsICctbWV0YWxfYmluZGluZycsICctaW1hZScsICc8aW5maWxlLm1hZT4nLCAnLW9tYWUnLCAnPG91dGZpbGUubWFlPic=

> <r_lp_tautomer_probability>
1

> <r_epik_Ionization_Penalty>
2.29506e-06

> <r_epik_Ionization_Penalty_Charging>
8.26867e-09

> <r_epik_Ionization_Penalty_Neutral>
2.2868e-06

> <r_epik_State_Penalty>
-0

> <r_epik_Charging_Adjusted_Penalty>
8.26867e-09

> <i_epik_Tot_Q>
0

> <i_epik_Tot_abs_Q>
0

> <r_epik_Metal_State_Penalty>
-0

> <b_epik_Metal_Only>
0

> <s_epik_Chemistry_Notes>
This compound has an ester and may undergo hydrolysis at high or low pH. This compound contains an acetal/aminal-like group ( X-CH(R)-Y where X, Y are N, S, or O) that may be acid/base labile, releasing an aldehyde.

> <s_lp_Force_Field>
OPLS_2005

> <r_lp_Energy>
38.6642

> <b_lp_Chiralities_Consistent>
1

> <s_lp_Variant>
AV-unprocessed.smi:40-1

> <Gold.Version>
5.8.1

> <Gold.Id.Protein>
6NUR|6NUR_protein|mol2

> <Gold.PLP.Fitness>
46.5776

> <Gold.PLP.PLP>
-36.9373

> <Gold.PLP.part.hbond>
-5.0000

> <Gold.PLP.part.metal>
0.0000

> <Gold.PLP.part.buried>
-3.7906

> <Gold.PLP.part.nonpolar>
-31.9602

> <Gold.PLP.part.repulsive>
5.5702

> <Gold.PLP.ligand.clash>
0.0000

> <Gold.PLP.ligand.torsion>
0.5986

> <Gold.PLP.Chemscore.Hbond>
3.5796

> <Gold.PLP.Chemscore.CHOScore>
0.0000

> <Gold.PLP.Chemscore.Metal>
0.0000

> <Gold.PLP.Chemscore.Internal.Correction>
0.0987

> <Gold.Rescore>
     Score         DG    S(hbond)    S(metal)    S(lipo)     H(rot)  DE(clash)    DE(int)     intcor
      9.89     -15.49       3.20        0.00      75.12       3.70       2.75       2.85       ----

> <Gold.Chemscore.Fitness>
9.8879

> <Gold.Chemscore.DG>
-15.4891

> <Gold.Chemscore.ZeroCoef>
-5.4800

> <Gold.Chemscore.Hbond>
3.1979

> <Gold.Chemscore.Metal>
0.0000

> <Gold.Chemscore.Lipo>
75.1212

> <Gold.Chemscore.Internal_Hbond>
0.0000

> <Gold.Chemscore.DEClash>
2.7544

> <Gold.Chemscore.DEInternal>
2.8469

> <Gold.Chemscore.Rot>
3.6957

> <Gold.Chemscore.Internal.Correction>
   9.000000E+99

> <Gold.Chemscore.Hbond.Weighted>
-10.6809

> <Gold.Chemscore.Metal.Weighted>
-0.0000

> <Gold.Chemscore.Lipo.Weighted>
-8.7892

> <Gold.Chemscore.Internal_Hbond.Weighted>
0.0000

> <Gold.Chemscore.DEClash.Weighted>
2.7544

> <Gold.Chemscore.DEInternal.Weighted>
2.8469

> <Gold.Chemscore.Rot.Weighted>
9.4610

> <Gold.Chemscore.Internal.Correction.Weighted>
   9.000000E+99

> <Gold.Protein.RotatedTorsions>
[ 6907 6896 6895 6894 ] final  112.50 input  -60.11 | X-H torsion
[ 7974 7965 7964 7962 ] final -101.96 input  175.53 | X-H torsion
[ 8008 7997 7996 7995 ] final   64.47 input   59.86 | X-H torsion
[ 10167 10162 10161 10158 ] final -101.72 input  -65.29 | X-H torsion
[ 10718 10713 10712 10709 ] final   90.21 input   66.30 | X-H torsion
[ 10763 10752 10751 10750 ] final   97.39 input  -60.55 | X-H torsion
[ 11005 11000 10999 10996 ] final   42.93 input  -57.11 | X-H torsion

> <Gold.Protein.ActiveResidues>
 VAL166  LYS551  ARG553  GLY616  TRP617  ASP618  TYR619  PRO620  LYS621  CYS622 
 ASP623  PHE694  ASN695  SER759  ASP760  ASP761  ALA762  ILE779  LEU786  VAL792 
 PHE793  MET794  SER795  GLU796  ALA797  LYS798  CYS799  TRP800  GLU811  SER814 

> <Gold.Protein.RotatedAtoms>
  152.4913  133.8508  159.7200 H   0  0  0  0  0  0  0  0  0  0  0  0  # atno 6907 bound_to 6896
  150.9045  133.7066  159.2877 H   0  0  0  0  0  0  0  0  0  0  0  0  # atno 6908 bound_to 6896
  151.4496  135.1032  159.9746 H   0  0  0  0  0  0  0  0  0  0  0  0  # atno 6909 bound_to 6896
  145.2748  140.9309  143.2965 H   0  0  0  0  0  0  0  0  0  0  0  0  # atno 7974 bound_to 7965
  155.6465  140.3497  155.4733 H   0  0  0  0  0  0  0  0  0  0  0  0  # atno 8008 bound_to 7997
  155.9883  140.1188  157.0686 H   0  0  0  0  0  0  0  0  0  0  0  0  # atno 8009 bound_to 7997
  154.4211  140.1124  156.5516 H   0  0  0  0  0  0  0  0  0  0  0  0  # atno 8010 bound_to 7997
  140.2383  143.3557  152.0825 H   0  0  0  0  0  0  0  0  0  0  0  0  # atno 10167 bound_to 10162
  157.6958  131.0362  150.3544 H   0  0  0  0  0  0  0  0  0  0  0  0  # atno 10718 bound_to 10713
  153.2764  135.4185  155.1037 H   0  0  0  0  0  0  0  0  0  0  0  0  # atno 10763 bound_to 10752
  154.8474  135.3484  154.6173 H   0  0  0  0  0  0  0  0  0  0  0  0  # atno 10764 bound_to 10752
  153.6593  135.7049  153.5240 H   0  0  0  0  0  0  0  0  0  0  0  0  # atno 10765 bound_to 10752
  140.1693  134.4243  155.8267 H   0  0  0  0  0  0  0  0  0  0  0  0  # atno 11005 bound_to 11000
  144.9303  139.4306  143.6498 LP  0  0  0  0  0  0  0  0  0  0  0  0  # atno 17320 bound_to 7965
  146.3235  139.8211  142.8926 LP  0  0  0  0  0  0  0  0  0  0  0  0  # atno 17321 bound_to 7965
  139.5086  144.6853  151.5904 LP  0  0  0  0  0  0  0  0  0  0  0  0  # atno 17342 bound_to 10162
  140.6133  143.9395  150.6470 LP  0  0  0  0  0  0  0  0  0  0  0  0  # atno 17343 bound_to 10162
  156.3988  130.3912  149.6975 LP  0  0  0  0  0  0  0  0  0  0  0  0  # atno 17370 bound_to 10713
  156.4299  130.7810  151.2830 LP  0  0  0  0  0  0  0  0  0  0  0  0  # atno 17371 bound_to 10713
  141.2216  133.6948  156.7734 LP  0  0  0  0  0  0  0  0  0  0  0  0  # atno 17394 bound_to 11000
  140.2397  134.8623  157.3560 LP  0  0  0  0  0  0  0  0  0  0  0  0  # atno 17395 bound_to 11000

$$$$
