AV-unprocessed.smi:1812|AV-procd|sdf|7336|dock4
  -GOLD-   22720 8593D 1   1.00000     0.00000
 Structure written by MMmdl.
 34 36  0  0  0  0  0  0  0  0  1 V2000
  150.6591  135.4444  156.1307 O   0  0  0  0  0  0  0  0  0  0  0  0
  150.1167  135.6230  155.0397 C   0  0  0  0  0  0  0  0  0  0  0  0
  149.5165  134.6459  154.3453 N   0  0  0  0  0  0  0  0  0  0  0  0
  149.4046  133.2586  154.7814 C   0  0  0  0  0  0  0  0  0  0  0  0
  148.7444  132.3796  153.7064 C   0  0  2  0  0  0  0  0  0  0  0  0
  147.4473  132.9624  153.1479 C   0  0  0  0  0  0  0  0  0  0  0  0
  146.7374  131.7177  152.6668 C   0  0  0  0  0  0  0  0  0  0  0  0
  147.0975  130.7159  153.7594 C   0  0  0  0  0  0  0  0  0  0  0  0
  148.3755  131.1134  154.2500 O   0  0  0  0  0  0  0  0  0  0  0  0
  150.0404  136.7986  154.3915 N   0  0  0  0  0  0  0  0  0  0  0  0
  150.5464  138.0618  154.7979 C   0  0  0  0  0  0  0  0  0  0  0  0
  151.7337  138.5482  154.4113 N   0  0  0  0  0  0  0  0  0  0  0  0
  151.9811  139.8017  154.9531 N   0  0  0  0  0  0  0  0  0  0  0  0
  150.9776  140.2268  155.7301 C   0  0  0  0  0  0  0  0  0  0  0  0
  151.0126  141.5482  156.4230 C   0  0  0  0  0  0  0  0  0  0  0  0
  151.2166  141.6547  157.9186 C   0  0  0  0  0  0  0  0  0  0  0  0
  149.8737  141.9819  157.3172 C   0  0  0  0  0  0  0  0  0  0  0  0
  149.6258  139.1068  155.8662 S   0  0  0  0  0  0  0  0  0  0  0  0
  149.0916  134.8788  153.4597 H   0  0  0  0  0  0  0  0  0  0  0  0
  150.4043  132.8869  155.0076 H   0  0  0  0  0  0  0  0  0  0  0  0
  148.8374  133.2078  155.7124 H   0  0  0  0  0  0  0  0  0  0  0  0
  149.4333  132.2019  152.8788 H   0  0  0  0  0  0  0  0  0  0  0  0
  146.8659  133.4409  153.9376 H   0  0  0  0  0  0  0  0  0  0  0  0
  147.6161  133.6926  152.3560 H   0  0  0  0  0  0  0  0  0  0  0  0
  145.6621  131.8529  152.5477 H   0  0  0  0  0  0  0  0  0  0  0  0
  147.1515  131.3970  151.7099 H   0  0  0  0  0  0  0  0  0  0  0  0
  146.3809  130.7730  154.5798 H   0  0  0  0  0  0  0  0  0  0  0  0
  147.1119  129.6890  153.3937 H   0  0  0  0  0  0  0  0  0  0  0  0
  149.5607  136.7897  153.5036 H   0  0  0  0  0  0  0  0  0  0  0  0
  151.4797  142.3010  155.7911 H   0  0  0  0  0  0  0  0  0  0  0  0
  151.2904  140.7358  158.4966 H   0  0  0  0  0  0  0  0  0  0  0  0
  151.8182  142.4842  158.2846 H   0  0  0  0  0  0  0  0  0  0  0  0
  149.5796  143.0290  157.2825 H   0  0  0  0  0  0  0  0  0  0  0  0
  149.0638  141.2745  157.4838 H   0  0  0  0  0  0  0  0  0  0  0  0
  1  2  2  0  0  0  0
  2  3  1  0  0  0  0
  2 10  1  0  0  0  0
  3  4  1  0  0  0  0
  3 19  1  0  0  0  0
  4  5  1  0  0  0  0
  4 20  1  0  0  0  0
  4 21  1  0  0  0  0
  5  9  1  0  0  0  0
  5  6  1  0  0  0  0
  5 22  1  0  0  0  0
  6  7  1  0  0  0  0
  6 23  1  0  0  0  0
  6 24  1  0  0  0  0
  7  8  1  0  0  0  0
  7 25  1  0  0  0  0
  7 26  1  0  0  0  0
  8  9  1  0  0  0  0
  8 27  1  0  0  0  0
  8 28  1  0  0  0  0
 10 11  1  0  0  0  0
 10 29  1  0  0  0  0
 11 18  1  0  0  0  0
 11 12  2  0  0  0  0
 12 13  1  0  0  0  0
 13 14  2  0  0  0  0
 14 15  1  0  0  0  0
 14 18  1  0  0  0  0
 15 17  1  0  0  0  0
 15 16  1  0  0  0  0
 15 30  1  0  0  0  0
 16 17  1  0  0  0  0
 16 31  1  0  0  0  0
 16 32  1  0  0  0  0
 17 33  1  0  0  0  0
 17 34  1  0  0  0  0
M  END
> <s_m_source_file>
AV-unprocessed.smi

> <i_m_source_file_index>
1812

> <i_lp_mmshare_version>
43012

> <i_f3d_flags>
0

> <s_epik_input>
TzFbQ0gyXVtDSDJdW0NIMl1bQ0BIXTFbQ0gyXVtOSF1DKD1PKVtOSF1jMm5uYyhzMilbQ0hdM1tDSDJdW0NIMl0z

> <s_epik_cmdline>
J2VwaWtfcHl0aG9uJywgJy1waCcsICc3LjAnLCAnLXRuJywgJzgnLCAnLW1hJywgJzIwMCcsICctbWV0YWxfYmluZGluZycsICctaW1hZScsICc8aW5maWxlLm1hZT4nLCAnLW9tYWUnLCAnPG91dGZpbGUubWFlPic=

> <r_lp_tautomer_probability>
1

> <r_epik_Ionization_Penalty>
0.000281817

> <r_epik_Ionization_Penalty_Charging>
0

> <r_epik_Ionization_Penalty_Neutral>
0.000281817

> <r_epik_State_Penalty>
-0

> <r_epik_Charging_Adjusted_Penalty>
0

> <i_epik_Tot_Q>
0

> <i_epik_Tot_abs_Q>
0

> <r_epik_Metal_State_Penalty>
0.157535

> <b_epik_Metal_Only>
0

> <s_lp_Force_Field>
OPLS_2005

> <r_lp_Energy>
14.57

> <b_lp_Chiralities_Consistent>
1

> <s_lp_Variant>
AV-unprocessed.smi:1812-1

> <Gold.Version>
5.8.1

> <Gold.Id.Protein>
6NUR|6NUR_protein|mol2

> <Gold.PLP.Fitness>
35.3095

> <Gold.PLP.PLP>
-29.1032

> <Gold.PLP.part.hbond>
-3.6584

> <Gold.PLP.part.metal>
0.0000

> <Gold.PLP.part.buried>
-4.3765

> <Gold.PLP.part.nonpolar>
-22.1982

> <Gold.PLP.part.repulsive>
0.3589

> <Gold.PLP.ligand.clash>
0.0000

> <Gold.PLP.ligand.torsion>
0.9604

> <Gold.PLP.Chemscore.Hbond>
2.6640

> <Gold.PLP.Chemscore.CHOScore>
0.0000

> <Gold.PLP.Chemscore.Metal>
0.0000

> <Gold.Chemscore.Hbonds>
donor molecule, donor type, donor heavy atom, donor atom, acceptor molecule, acceptor atom, score
      L1  H     3    19       P1  7948  0.80
      L1  H    10    29       P1  7948  1.00
      P1  H  7989  7998       L1    13  0.85

> <Gold.PLP.Chemscore.Internal.Correction>
0.1352

> <Gold.Rescore>
     Score         DG    S(hbond)    S(metal)    S(lipo)     H(rot)  DE(clash)    DE(int)     intcor
     12.19     -13.16       1.44        0.00      56.63       1.47       0.03       0.94       ----

> <Gold.Chemscore.Fitness>
12.1946

> <Gold.Chemscore.DG>
-13.1609

> <Gold.Chemscore.ZeroCoef>
-5.4800

> <Gold.Chemscore.Hbond>
1.4443

> <Gold.Chemscore.Metal>
0.0000

> <Gold.Chemscore.Lipo>
56.6349

> <Gold.Chemscore.Internal_Hbond>
0.0000

> <Gold.Chemscore.DEClash>
0.0308

> <Gold.Chemscore.DEInternal>
0.9355

> <Gold.Chemscore.Rot>
1.4725

> <Gold.Chemscore.Internal.Correction>
   9.000000E+99

> <Gold.Chemscore.Hbonds>
donor molecule, donor type, donor heavy atom, donor atom, acceptor molecule, acceptor atom, score
      L1  H     3    19       P1  7948  0.15
      L1  H    10    29       P1  7948  0.74
      P1  H  7989  7998       L1    13  0.06

> <Gold.Chemscore.Hbond.Weighted>
-4.8241

> <Gold.Chemscore.Metal.Weighted>
-0.0000

> <Gold.Chemscore.Lipo.Weighted>
-6.6263

> <Gold.Chemscore.Internal_Hbond.Weighted>
0.0000

> <Gold.Chemscore.DEClash.Weighted>
0.0308

> <Gold.Chemscore.DEInternal.Weighted>
0.9355

> <Gold.Chemscore.Rot.Weighted>
3.7695

> <Gold.Chemscore.Internal.Correction.Weighted>
   9.000000E+99

> <Gold.Protein.RotatedTorsions>
[ 6907 6896 6895 6894 ] final  163.20 input  -60.11 | X-H torsion
[ 7974 7965 7964 7962 ] final  148.56 input  175.53 | X-H torsion
[ 8008 7997 7996 7995 ] final   40.57 input   59.86 | X-H torsion
[ 10167 10162 10161 10158 ] final  136.49 input  -65.29 | X-H torsion
[ 10718 10713 10712 10709 ] final   55.34 input   66.30 | X-H torsion
[ 10763 10752 10751 10750 ] final  -19.56 input  -60.55 | X-H torsion
[ 11005 11000 10999 10996 ] final   54.91 input  -57.11 | X-H torsion

> <Gold.Protein.ActiveResidues>
 VAL166  LYS551  ARG553  GLY616  TRP617  ASP618  TYR619  PRO620  LYS621  CYS622 
 ASP623  PHE694  ASN695  SER759  ASP760  ASP761  ALA762  ILE779  LEU786  VAL792 
 PHE793  MET794  SER795  GLU796  ALA797  LYS798  CYS799  TRP800  GLU811  SER814 

> <Gold.Protein.RotatedAtoms>
  151.9288  133.3605  159.3923 H   0  0  0  0  0  0  0  0  0  0  0  0  # atno 6907 bound_to 6896
  150.7021  134.4559  159.5367 H   0  0  0  0  0  0  0  0  0  0  0  0  # atno 6908 bound_to 6896
  152.2196  134.8426  160.0538 H   0  0  0  0  0  0  0  0  0  0  0  0  # atno 6909 bound_to 6896
  144.8505  139.6169  143.5976 H   0  0  0  0  0  0  0  0  0  0  0  0  # atno 7974 bound_to 7965
  155.2552  140.3355  155.4278 H   0  0  0  0  0  0  0  0  0  0  0  0  # atno 8008 bound_to 7997
  156.2198  140.1804  156.7546 H   0  0  0  0  0  0  0  0  0  0  0  0  # atno 8009 bound_to 7997
  154.5808  140.0654  156.9086 H   0  0  0  0  0  0  0  0  0  0  0  0  # atno 8010 bound_to 7997
  139.5178  144.6461  151.5434 H   0  0  0  0  0  0  0  0  0  0  0  0  # atno 10167 bound_to 10162
  157.5336  130.8647  149.8722 H   0  0  0  0  0  0  0  0  0  0  0  0  # atno 10718 bound_to 10713
  153.6067  135.6997  153.5363 H   0  0  0  0  0  0  0  0  0  0  0  0  # atno 10763 bound_to 10752
  153.3051  135.4117  155.1287 H   0  0  0  0  0  0  0  0  0  0  0  0  # atno 10764 bound_to 10752
  154.8572  135.3658  154.5604 H   0  0  0  0  0  0  0  0  0  0  0  0  # atno 10765 bound_to 10752
  140.0648  134.5551  155.9111 H   0  0  0  0  0  0  0  0  0  0  0  0  # atno 11005 bound_to 11000
  146.2780  139.6804  142.9249 LP  0  0  0  0  0  0  0  0  0  0  0  0  # atno 17320 bound_to 7965
  145.4510  141.0428  143.2804 LP  0  0  0  0  0  0  0  0  0  0  0  0  # atno 17321 bound_to 7965
  140.6247  143.9191  150.6555 LP  0  0  0  0  0  0  0  0  0  0  0  0  # atno 17342 bound_to 10162
  140.2476  143.3617  152.1433 LP  0  0  0  0  0  0  0  0  0  0  0  0  # atno 17343 bound_to 10162
  156.0441  130.3732  150.1361 LP  0  0  0  0  0  0  0  0  0  0  0  0  # atno 17370 bound_to 10713
  156.9544  130.9785  151.3492 LP  0  0  0  0  0  0  0  0  0  0  0  0  # atno 17371 bound_to 10713
  141.1988  133.6603  156.5812 LP  0  0  0  0  0  0  0  0  0  0  0  0  # atno 17394 bound_to 11000
  140.3715  134.7602  157.4601 LP  0  0  0  0  0  0  0  0  0  0  0  0  # atno 17395 bound_to 11000

$$$$
