AV-unprocessed.smi:107|AV-procd|sdf|1024|dock10
  -GOLD-   2262018 23D 1   1.00000     0.00000
 Structure written by MMmdl.
 30 31  0  0  0  0  0  0  0  0  2 V2000
  151.9455  141.0830  159.4929 C   0  0  0  0  0  0  0  0  0  0  0  0
  152.1083  139.8902  158.5672 C   0  0  0  0  0  0  0  0  0  0  0  0
  151.7478  139.9331  157.2654 C   0  0  0  0  0  0  0  0  0  0  0  0
  151.8971  138.8436  156.4245 N   0  0  0  0  0  0  0  0  0  0  0  0
  151.4771  138.9109  154.9706 C   0  0  1  0  0  0  0  0  0  0  0  0
  150.4759  137.7971  154.6541 C   0  0  0  0  0  0  0  0  0  0  0  0
  149.1539  138.5219  154.7968 C   0  0  2  0  0  0  0  0  0  0  0  0
  148.1461  137.8878  154.0360 O   0  0  0  0  0  0  0  0  0  0  0  0
  149.5028  139.9138  154.2640 C   0  0  1  0  0  0  0  0  0  0  0  0
  148.5734  141.0230  154.7808 C   0  0  0  0  0  0  0  0  0  0  0  0
  148.9506  142.2655  154.2275 O   0  0  0  0  0  0  0  0  0  0  0  0
  150.8361  140.1311  154.7263 O   0  0  0  0  0  0  0  0  0  0  0  0
  152.4237  137.6296  156.9393 C   0  0  0  0  0  0  0  0  0  0  0  0
  152.5138  136.6675  156.1762 O   0  0  0  0  0  0  0  0  0  0  0  0
  152.7967  137.5788  158.2498 N   0  5  0  0  0  0  0  0  0  0  0  0
  152.6735  138.6424  159.0945 C   0  0  0  0  0  0  0  0  0  0  0  0
  153.0184  138.5841  160.2743 O   0  0  0  0  0  0  0  0  0  0  0  0
  151.5071  141.9339  158.9707 H   0  0  0  0  0  0  0  0  0  0  0  0
  152.9134  141.3919  159.8889 H   0  0  0  0  0  0  0  0  0  0  0  0
  151.2953  140.8294  160.3307 H   0  0  0  0  0  0  0  0  0  0  0  0
  151.3271  140.8484  156.8804 H   0  0  0  0  0  0  0  0  0  0  0  0
  152.3965  138.8601  154.3854 H   0  0  0  0  0  0  0  0  0  0  0  0
  150.6389  137.4774  153.6237 H   0  0  0  0  0  0  0  0  0  0  0  0
  150.5859  136.9342  155.3122 H   0  0  0  0  0  0  0  0  0  0  0  0
  148.8609  138.5690  155.8467 H   0  0  0  0  0  0  0  0  0  0  0  0
  148.5552  137.4450  153.3080 H   0  0  0  0  0  0  0  0  0  0  0  0
  149.5149  139.8888  153.1722 H   0  0  0  0  0  0  0  0  0  0  0  0
  147.5468  140.8260  154.4713 H   0  0  0  0  0  0  0  0  0  0  0  0
  148.5777  141.0764  155.8693 H   0  0  0  0  0  0  0  0  0  0  0  0
  148.7993  142.9371  154.8752 H   0  0  0  0  0  0  0  0  0  0  0  0
  1  2  1  0  0  0  0
  1 18  1  0  0  0  0
  1 19  1  0  0  0  0
  1 20  1  0  0  0  0
  2 16  1  0  0  0  0
  2  3  2  0  0  0  0
  3  4  1  0  0  0  0
  3 21  1  0  0  0  0
  4  5  1  0  0  0  0
  4 13  1  0  0  0  0
  5 12  1  0  0  0  0
  5  6  1  0  0  0  0
  5 22  1  0  0  0  0
  6  7  1  0  0  0  0
  6 23  1  0  0  0  0
  6 24  1  0  0  0  0
  7  8  1  0  0  0  0
  7  9  1  0  0  0  0
  7 25  1  0  0  0  0
  8 26  1  0  0  0  0
  9 10  1  0  0  0  0
  9 12  1  0  0  0  0
  9 27  1  0  0  0  0
 10 11  1  0  0  0  0
 10 28  1  0  0  0  0
 10 29  1  0  0  0  0
 11 30  1  0  0  0  0
 13 14  2  0  0  0  0
 13 15  1  0  0  0  0
 15 16  1  0  0  0  0
 16 17  2  0  0  0  0
M  CHG  1  15  -1
M  END
> <s_m_source_file>
AV-unprocessed.smi

> <i_m_source_file_index>
107

> <i_lp_mmshare_version>
43012

> <i_f3d_flags>
0

> <s_epik_input>
Tz1jMVtuSF1jKD1PKW4oW2NIXWMxW0NIM10pW0NAQEhdMltDSDJdW0NAQEhdKFtPSF0pW0NASF0oTzIpW0NIMl1bT0hd

> <s_epik_cmdline>
J2VwaWtfcHl0aG9uJywgJy1waCcsICc3LjAnLCAnLXRuJywgJzgnLCAnLW1hJywgJzIwMCcsICctbWV0YWxfYmluZGluZycsICctaW1hZScsICc8aW5maWxlLm1hZT4nLCAnLW9tYWUnLCAnPG91dGZpbGUubWFlPic=

> <r_lp_tautomer_probability>
0.999537

> <r_epik_Ionization_Penalty>
3.66603

> <r_epik_Ionization_Penalty_Charging>
1.09773e-07

> <r_epik_Ionization_Penalty_Neutral>
3.66603

> <r_epik_State_Penalty>
3.66562

> <r_epik_Charging_Adjusted_Penalty>
3.66562

> <i_epik_Tot_Q>
-1

> <i_epik_Tot_abs_Q>
1

> <r_epik_Metal_State_Penalty>
0.234536

> <b_epik_Metal_Only>
1

> <s_epik_Chemistry_Notes>
This compound contains an acetal/aminal-like group ( X-CH(R)-Y where X, Y are N, S, or O) that may be acid/base labile, releasing an aldehyde.

> <s_lp_Force_Field>
OPLS_2005

> <r_lp_Energy>
34.1834

> <b_lp_Chiralities_Consistent>
1

> <s_lp_Variant>
AV-unprocessed.smi:107-12

> <Gold.Version>
5.8.1

> <Gold.Id.Protein>
6NUR|6NUR_protein|mol2

> <Gold.PLP.Fitness>
39.6989

> <Gold.PLP.PLP>
-27.4089

> <Gold.PLP.part.hbond>
-4.9466

> <Gold.PLP.part.metal>
0.0000

> <Gold.PLP.part.buried>
-3.0851

> <Gold.PLP.part.nonpolar>
-19.5907

> <Gold.PLP.part.repulsive>
0.0886

> <Gold.PLP.ligand.clash>
0.0000

> <Gold.PLP.ligand.torsion>
0.0717

> <Gold.PLP.Chemscore.Hbond>
4.1409

> <Gold.PLP.Chemscore.CHOScore>
0.0000

> <Gold.PLP.Chemscore.Metal>
0.0000

> <Gold.Chemscore.Hbonds>
donor molecule, donor type, donor heavy atom, donor atom, acceptor molecule, acceptor atom, score
      L1  H     8    26       P1  7948  1.00
      L1  H    11    30       P1  8028  1.00
      P1  H  7989  7998       L1    12  1.00
      P1  H  8011  8017       L1    11  0.23
      P1  H 10752 10765       L1    14  1.00

> <Gold.PLP.Chemscore.Internal.Correction>
0.0107

> <Gold.Rescore>
     Score         DG    S(hbond)    S(metal)    S(lipo)     H(rot)  DE(clash)    DE(int)     intcor
     14.75     -16.62       3.85        0.00      44.26       2.69       0.36       1.52       ----

> <Gold.Chemscore.Fitness>
14.7490

> <Gold.Chemscore.DG>
-16.6229

> <Gold.Chemscore.ZeroCoef>
-5.4800

> <Gold.Chemscore.Hbond>
3.8453

> <Gold.Chemscore.Metal>
0.0000

> <Gold.Chemscore.Lipo>
44.2624

> <Gold.Chemscore.Internal_Hbond>
0.0000

> <Gold.Chemscore.DEClash>
0.3588

> <Gold.Chemscore.DEInternal>
1.5151

> <Gold.Chemscore.Rot>
2.6871

> <Gold.Chemscore.Internal.Correction>
   9.000000E+99

> <Gold.Chemscore.Hbonds>
donor molecule, donor type, donor heavy atom, donor atom, acceptor molecule, acceptor atom, score
      L1  H     8    26       P1  7948  1.00
      L1  H    11    30       P1  8028  0.98
      P1  H  7989  7998       L1    12  0.36
      P1  H  8011  8017       L1    11  0.23
      P1  H 10752 10765       L1    14  0.96

> <Gold.Chemscore.Hbond.Weighted>
-12.8432

> <Gold.Chemscore.Metal.Weighted>
-0.0000

> <Gold.Chemscore.Lipo.Weighted>
-5.1787

> <Gold.Chemscore.Internal_Hbond.Weighted>
0.0000

> <Gold.Chemscore.DEClash.Weighted>
0.3588

> <Gold.Chemscore.DEInternal.Weighted>
1.5151

> <Gold.Chemscore.Rot.Weighted>
6.8791

> <Gold.Chemscore.Internal.Correction.Weighted>
   9.000000E+99

> <Gold.Protein.RotatedTorsions>
[ 6907 6896 6895 6894 ] final   97.25 input  -60.11 | X-H torsion
[ 7974 7965 7964 7962 ] final  143.14 input  175.53 | X-H torsion
[ 8008 7997 7996 7995 ] final   -0.25 input   59.86 | X-H torsion
[ 10167 10162 10161 10158 ] final  -79.77 input  -65.29 | X-H torsion
[ 10718 10713 10712 10709 ] final  -23.81 input   66.30 | X-H torsion
[ 10763 10752 10751 10750 ] final -146.42 input  -60.55 | X-H torsion
[ 11005 11000 10999 10996 ] final  -17.41 input  -57.11 | X-H torsion

> <Gold.Protein.ActiveResidues>
 VAL166  LYS551  ARG553  GLY616  TRP617  ASP618  TYR619  PRO620  LYS621  CYS622 
 ASP623  PHE694  ASN695  SER759  ASP760  ASP761  ALA762  ILE779  LEU786  VAL792 
 PHE793  MET794  SER795  GLU796  ALA797  LYS798  CYS799  TRP800  GLU811  SER814 

> <Gold.Protein.RotatedAtoms>
  152.5425  134.0761  159.8214 H   0  0  0  0  0  0  0  0  0  0  0  0  # atno 6907 bound_to 6896
  151.0869  133.5338  159.2624 H   0  0  0  0  0  0  0  0  0  0  0  0  # atno 6908 bound_to 6896
  151.2144  135.0503  159.8978 H   0  0  0  0  0  0  0  0  0  0  0  0  # atno 6909 bound_to 6896
  144.8946  139.5508  143.5782 H   0  0  0  0  0  0  0  0  0  0  0  0  # atno 7974 bound_to 7965
  154.6602  140.2588  155.7118 H   0  0  0  0  0  0  0  0  0  0  0  0  # atno 8008 bound_to 7997
  156.2615  140.2850  156.0992 H   0  0  0  0  0  0  0  0  0  0  0  0  # atno 8009 bound_to 7997
  155.1320  140.0379  157.2767 H   0  0  0  0  0  0  0  0  0  0  0  0  # atno 8010 bound_to 7997
  140.4563  143.2467  151.8415 H   0  0  0  0  0  0  0  0  0  0  0  0  # atno 10167 bound_to 10162
  156.4860  130.4556  149.6783 H   0  0  0  0  0  0  0  0  0  0  0  0  # atno 10718 bound_to 10713
  154.8336  135.3387  154.6659 H   0  0  0  0  0  0  0  0  0  0  0  0  # atno 10763 bound_to 10752
  153.7276  135.6954  153.5001 H   0  0  0  0  0  0  0  0  0  0  0  0  # atno 10764 bound_to 10752
  153.2335  135.4408  155.0574 H   0  0  0  0  0  0  0  0  0  0  0  0  # atno 10765 bound_to 10752
  140.8166  133.8100  155.9616 H   0  0  0  0  0  0  0  0  0  0  0  0  # atno 11005 bound_to 11000
  146.3074  139.7627  142.9046 LP  0  0  0  0  0  0  0  0  0  0  0  0  # atno 17320 bound_to 7965
  145.3722  141.0344  143.3225 LP  0  0  0  0  0  0  0  0  0  0  0  0  # atno 17321 bound_to 7965
  139.4801  144.5061  151.8996 LP  0  0  0  0  0  0  0  0  0  0  0  0  # atno 17342 bound_to 10162
  140.4147  144.2322  150.5888 LP  0  0  0  0  0  0  0  0  0  0  0  0  # atno 17343 bound_to 10162
  156.3474  130.7414  151.2368 LP  0  0  0  0  0  0  0  0  0  0  0  0  # atno 17370 bound_to 10713
  157.7478  131.0387  150.4514 LP  0  0  0  0  0  0  0  0  0  0  0  0  # atno 17371 bound_to 10713
  140.9143  134.2221  157.4966 LP  0  0  0  0  0  0  0  0  0  0  0  0  # atno 17394 bound_to 11000
  139.8711  134.9764  156.4920 LP  0  0  0  0  0  0  0  0  0  0  0  0  # atno 17395 bound_to 11000

$$$$
