AV-unprocessed.smi:2083|AV-procd|sdf|8509|dock6
  -GOLD-   2272011223D 1   1.00000     0.00000
 Structure written by MMmdl.
 44 45  0  0  0  0  0  0  0  0  3 V2000
  152.8594  137.5194  157.1274 C   0  0  0  0  0  0  0  0  0  0  0  0
  152.0008  138.3342  156.2217 C   0  0  0  0  0  0  0  0  0  0  0  0
  150.8586  138.0561  155.5254 C   0  0  0  0  0  0  0  0  0  0  0  0
  150.5723  139.2853  154.8738 C   0  0  0  0  0  0  0  0  0  0  0  0
  149.4332  139.4116  154.0357 N   0  0  0  0  0  0  0  0  0  0  0  0
  148.1652  139.0299  154.2740 C   0  0  0  0  0  0  0  0  0  0  0  0
  147.8628  138.5015  155.3508 O   0  0  0  0  0  0  0  0  0  0  0  0
  147.3384  139.3042  153.2272 N   0  5  0  0  0  0  0  0  0  0  0  0
  146.5659  138.3039  152.4885 C   0  0  0  0  0  0  0  0  0  0  0  0
  146.0867  137.1612  153.4263 C   0  0  1  0  0  0  0  0  0  0  0  0
  144.7141  137.4211  154.0966 C   0  0  0  0  0  0  0  0  0  0  0  0
  146.1490  135.8429  152.7210 N   0  3  2  0  0  0  0  0  0  0  0  0
  145.3129  135.7131  151.4910 C   0  0  0  0  0  0  0  0  0  0  0  0
  145.6669  134.4297  150.7250 C   0  0  0  0  0  0  0  0  0  0  0  0
  145.5091  133.1954  151.6244 C   0  0  0  0  0  0  0  0  0  0  0  0
  146.3077  133.3488  152.9325 C   0  0  1  0  0  0  0  0  0  0  0  0
  147.8237  133.1826  152.7267 C   0  0  0  0  0  0  0  0  0  0  0  0
  145.9600  134.6801  153.6312 C   0  0  0  0  0  0  0  0  0  0  0  0
  151.4622  140.2282  155.1472 N   0  0  0  0  0  0  0  0  0  0  0  0
  152.3813  139.6236  156.0129 O   0  0  0  0  0  0  0  0  0  0  0  0
  152.7286  136.4548  156.9325 H   0  0  0  0  0  0  0  0  0  0  0  0
  152.6046  137.7066  158.1704 H   0  0  0  0  0  0  0  0  0  0  0  0
  153.9131  137.7609  156.9869 H   0  0  0  0  0  0  0  0  0  0  0  0
  150.3148  137.1237  155.4908 H   0  0  0  0  0  0  0  0  0  0  0  0
  149.5996  139.8372  153.1359 H   0  0  0  0  0  0  0  0  0  0  0  0
  145.6981  138.7523  152.0047 H   0  0  0  0  0  0  0  0  0  0  0  0
  147.1496  137.8706  151.6748 H   0  0  0  0  0  0  0  0  0  0  0  0
  146.8194  137.1147  154.2334 H   0  0  0  0  0  0  0  0  0  0  0  0
  144.7365  138.3061  154.7352 H   0  0  0  0  0  0  0  0  0  0  0  0
  144.4312  136.5859  154.7375 H   0  0  0  0  0  0  0  0  0  0  0  0
  143.9100  137.5654  153.3730 H   0  0  0  0  0  0  0  0  0  0  0  0
  144.2554  135.6969  151.7574 H   0  0  0  0  0  0  0  0  0  0  0  0
  145.4597  136.5691  150.8321 H   0  0  0  0  0  0  0  0  0  0  0  0
  145.0260  134.3327  149.8482 H   0  0  0  0  0  0  0  0  0  0  0  0
  146.6891  134.4936  150.3507 H   0  0  0  0  0  0  0  0  0  0  0  0
  144.4528  133.0627  151.8624 H   0  0  0  0  0  0  0  0  0  0  0  0
  145.8165  132.2953  151.0908 H   0  0  0  0  0  0  0  0  0  0  0  0
  145.9986  132.5413  153.5974 H   0  0  0  0  0  0  0  0  0  0  0  0
  148.2381  133.9664  152.0924 H   0  0  0  0  0  0  0  0  0  0  0  0
  148.0533  132.2236  152.2618 H   0  0  0  0  0  0  0  0  0  0  0  0
  148.3532  133.2184  153.6792 H   0  0  0  0  0  0  0  0  0  0  0  0
  146.5824  134.7870  154.5204 H   0  0  0  0  0  0  0  0  0  0  0  0
  144.9250  134.6621  153.9759 H   0  0  0  0  0  0  0  0  0  0  0  0
  147.1083  135.7747  152.4118 H   0  0  0  0  0  0  0  0  0  0  0  0
  1  2  1  0  0  0  0
  1 21  1  0  0  0  0
  1 22  1  0  0  0  0
  1 23  1  0  0  0  0
  2 20  1  0  0  0  0
  2  3  2  0  0  0  0
  3  4  1  0  0  0  0
  3 24  1  0  0  0  0
  4  5  1  0  0  0  0
  4 19  2  0  0  0  0
  5  6  1  0  0  0  0
  5 25  1  0  0  0  0
  6  7  2  0  0  0  0
  6  8  1  0  0  0  0
  8  9  1  0  0  0  0
  9 10  1  0  0  0  0
  9 26  1  0  0  0  0
  9 27  1  0  0  0  0
 10 11  1  0  0  0  0
 10 12  1  0  0  0  0
 10 28  1  0  0  0  0
 11 29  1  0  0  0  0
 11 30  1  0  0  0  0
 11 31  1  0  0  0  0
 12 18  1  0  0  0  0
 12 13  1  0  0  0  0
 12 44  1  0  0  0  0
 13 14  1  0  0  0  0
 13 32  1  0  0  0  0
 13 33  1  0  0  0  0
 14 15  1  0  0  0  0
 14 34  1  0  0  0  0
 14 35  1  0  0  0  0
 15 16  1  0  0  0  0
 15 36  1  0  0  0  0
 15 37  1  0  0  0  0
 16 17  1  0  0  0  0
 16 18  1  0  0  0  0
 16 38  1  0  0  0  0
 17 39  1  0  0  0  0
 17 40  1  0  0  0  0
 17 41  1  0  0  0  0
 18 42  1  0  0  0  0
 18 43  1  0  0  0  0
 19 20  1  0  0  0  0
M  CHG  1   8  -1
M  CHG  1  12   1
M  END
> <s_m_source_file>
AV-unprocessed.smi

> <i_m_source_file_index>
2083

> <i_lp_mmshare_version>
43012

> <i_f3d_flags>
0

> <s_epik_input>
W0NIM11jMVtjSF1jKG5vMSlbTkhdQyg9TylbTkhdW0NIMl1bQ0BIXShbQ0gzXSlOMltDSDJdW0NIMl1bQ0gyXVtDQEBIXShbQ0gzXSlbQ0gyXTI=

> <s_epik_cmdline>
J2VwaWtfcHl0aG9uJywgJy1waCcsICc3LjAnLCAnLXRuJywgJzgnLCAnLW1hJywgJzIwMCcsICctbWV0YWxfYmluZGluZycsICctaW1hZScsICc8aW5maWxlLm1hZT4nLCAnLW9tYWUnLCAnPG91dGZpbGUubWFlPic=

> <r_epik_Ionization_Penalty>
6.76934

> <r_epik_Ionization_Penalty_Charging>
6.76934

> <r_epik_Ionization_Penalty_Neutral>
5.77849e-06

> <r_epik_State_Penalty>
6.79457

> <r_epik_Charging_Adjusted_Penalty>
13.5639

> <i_epik_Tot_Q>
0

> <i_epik_Tot_abs_Q>
2

> <r_epik_Metal_State_Penalty>
2.72837

> <b_epik_Metal_Only>
1

> <s_lp_Force_Field>
OPLS_2005

> <r_lp_Energy>
19.7061

> <b_lp_Chiralities_Consistent>
1

> <s_lp_Variant>
AV-unprocessed.smi:2083-20

> <Gold.Version>
5.8.1

> <Gold.Id.Protein>
6NUR|6NUR_protein|mol2

> <Gold.PLP.Fitness>
40.3056

> <Gold.PLP.PLP>
-28.4178

> <Gold.PLP.part.hbond>
-3.8487

> <Gold.PLP.part.metal>
0.0000

> <Gold.PLP.part.buried>
-4.1443

> <Gold.PLP.part.nonpolar>
-21.8205

> <Gold.PLP.part.repulsive>
0.7993

> <Gold.PLP.ligand.clash>
0.0000

> <Gold.PLP.ligand.torsion>
1.6333

> <Gold.PLP.Chemscore.Hbond>
5.0000

> <Gold.PLP.Chemscore.CHOScore>
0.0000

> <Gold.PLP.Chemscore.Metal>
0.0000

> <Gold.Chemscore.Hbonds>
donor molecule, donor type, donor heavy atom, donor atom, acceptor molecule, acceptor atom, score
      L1  H     5    25       P1  7957  1.00
      L1  H    12    44       P1  7948  2.00
      P1  H  7989  7998       L1    19  0.90
      P1  H  7997  8010       L1    20  0.98

> <Gold.PLP.Chemscore.Internal.Correction>
0.1544

> <Gold.Rescore>
     Score         DG    S(hbond)    S(metal)    S(lipo)     H(rot)  DE(clash)    DE(int)     intcor
     17.42     -20.03       3.51        0.00      57.47       1.52       0.00       2.61       ----

> <Gold.Chemscore.Fitness>
17.4230

> <Gold.Chemscore.DG>
-20.0344

> <Gold.Chemscore.ZeroCoef>
-5.4800

> <Gold.Chemscore.Hbond>
3.5088

> <Gold.Chemscore.Metal>
0.0000

> <Gold.Chemscore.Lipo>
57.4681

> <Gold.Chemscore.Internal_Hbond>
0.0000

> <Gold.Chemscore.DEClash>
0.0048

> <Gold.Chemscore.DEInternal>
2.6066

> <Gold.Chemscore.Rot>
1.5190

> <Gold.Chemscore.Internal.Correction>
   9.000000E+99

> <Gold.Chemscore.Hbonds>
donor molecule, donor type, donor heavy atom, donor atom, acceptor molecule, acceptor atom, score
      L1  H     5    25       P1  7957  0.97
      L1  H    12    44       P1  7948  0.99
      P1  H  7989  7998       L1    19  0.17
      P1  H  7997  8010       L1    20  0.87

> <Gold.Chemscore.Hbond.Weighted>
-11.7192

> <Gold.Chemscore.Metal.Weighted>
-0.0000

> <Gold.Chemscore.Lipo.Weighted>
-6.7238

> <Gold.Chemscore.Internal_Hbond.Weighted>
0.0000

> <Gold.Chemscore.DEClash.Weighted>
0.0048

> <Gold.Chemscore.DEInternal.Weighted>
2.6066

> <Gold.Chemscore.Rot.Weighted>
3.8886

> <Gold.Chemscore.Internal.Correction.Weighted>
   9.000000E+99

> <Gold.Protein.RotatedTorsions>
[ 6907 6896 6895 6894 ] final   63.45 input  -60.11 | X-H torsion
[ 7974 7965 7964 7962 ] final  -20.51 input  175.53 | X-H torsion
[ 8008 7997 7996 7995 ] final   76.24 input   59.86 | X-H torsion
[ 10167 10162 10161 10158 ] final   69.33 input  -65.29 | X-H torsion
[ 10718 10713 10712 10709 ] final  130.18 input   66.30 | X-H torsion
[ 10763 10752 10751 10750 ] final   80.32 input  -60.55 | X-H torsion
[ 11005 11000 10999 10996 ] final  153.32 input  -57.11 | X-H torsion

> <Gold.Protein.ActiveResidues>
 VAL166  LYS551  ARG553  GLY616  TRP617  ASP618  TYR619  PRO620  LYS621  CYS622 
 ASP623  PHE694  ASN695  SER759  ASP760  ASP761  ALA762  ILE779  LEU786  VAL792 
 PHE793  MET794  SER795  GLU796  ALA797  LYS798  CYS799  TRP800  GLU811  SER814 

> <Gold.Protein.RotatedAtoms>
  152.4254  134.5879  159.9965 H   0  0  0  0  0  0  0  0  0  0  0  0  # atno 6907 bound_to 6896
  151.6017  133.3350  159.3056 H   0  0  0  0  0  0  0  0  0  0  0  0  # atno 6908 bound_to 6896
  150.8143  134.7353  159.6781 H   0  0  0  0  0  0  0  0  0  0  0  0  # atno 6909 bound_to 6896
  146.1784  140.4212  142.8504 H   0  0  0  0  0  0  0  0  0  0  0  0  # atno 7974 bound_to 7965
  155.8245  140.3468  155.5534 H   0  0  0  0  0  0  0  0  0  0  0  0  # atno 8008 bound_to 7997
  155.8307  140.0926  157.1814 H   0  0  0  0  0  0  0  0  0  0  0  0  # atno 8009 bound_to 7997
  154.4004  140.1413  156.3598 H   0  0  0  0  0  0  0  0  0  0  0  0  # atno 8010 bound_to 7997
  140.0689  144.5169  150.7241 H   0  0  0  0  0  0  0  0  0  0  0  0  # atno 10167 bound_to 10162
  157.5086  131.1096  150.9325 H   0  0  0  0  0  0  0  0  0  0  0  0  # atno 10718 bound_to 10713
  153.1024  135.4807  154.8890 H   0  0  0  0  0  0  0  0  0  0  0  0  # atno 10763 bound_to 10752
  154.7393  135.3078  154.8759 H   0  0  0  0  0  0  0  0  0  0  0  0  # atno 10764 bound_to 10752
  153.9372  135.6838  153.4798 H   0  0  0  0  0  0  0  0  0  0  0  0  # atno 10765 bound_to 10752
  140.1387  134.8753  157.2302 H   0  0  0  0  0  0  0  0  0  0  0  0  # atno 11005 bound_to 11000
  144.8274  140.6651  143.6313 LP  0  0  0  0  0  0  0  0  0  0  0  0  # atno 17320 bound_to 7965
  145.4146  139.1574  143.4107 LP  0  0  0  0  0  0  0  0  0  0  0  0  # atno 17321 bound_to 7965
  140.7135  143.2525  151.4507 LP  0  0  0  0  0  0  0  0  0  0  0  0  # atno 17342 bound_to 10162
  139.5848  144.1629  152.2014 LP  0  0  0  0  0  0  0  0  0  0  0  0  # atno 17343 bound_to 10162
  156.9973  130.5586  149.5308 LP  0  0  0  0  0  0  0  0  0  0  0  0  # atno 17370 bound_to 10713
  156.0274  130.5367  150.8444 LP  0  0  0  0  0  0  0  0  0  0  0  0  # atno 17371 bound_to 10713
  140.2750  134.3416  155.7361 LP  0  0  0  0  0  0  0  0  0  0  0  0  # atno 17394 bound_to 11000
  141.2182  133.7445  156.9279 LP  0  0  0  0  0  0  0  0  0  0  0  0  # atno 17395 bound_to 11000

$$$$
