AV-unprocessed.smi:1987|AV-procd|sdf|8054|dock7
  -GOLD-   2272010253D 1   1.00000     0.00000
 Structure written by MMmdl.
 37 39  0  0  0  0  0  0  0  0  2 V2000
  150.1439  135.3508  156.6308 O   0  0  0  0  0  0  0  0  0  0  0  0
  149.7617  135.7239  155.5224 C   0  0  0  0  0  0  0  0  0  0  0  0
  149.5031  137.2058  155.2570 C   0  0  0  0  0  0  0  0  0  0  0  0
  150.7603  137.8906  155.0186 N   0  0  0  0  0  0  0  0  0  0  0  0
  151.0660  139.1897  155.0289 C   0  0  0  0  0  0  0  0  0  0  0  0
  152.3315  139.3960  154.6970 N   0  0  0  0  0  0  0  0  0  0  0  0
  152.8137  138.1161  154.4797 N   0  0  0  0  0  0  0  0  0  0  0  0
  151.8862  137.2186  154.6690 N   0  0  0  0  0  0  0  0  0  0  0  0
  149.4931  134.8864  154.5093 N   0  0  0  0  0  0  0  0  0  0  0  0
  149.4421  133.4333  154.6113 C   0  0  0  0  0  0  0  0  0  0  0  0
  148.7520  132.8075  153.3821 C   0  0  2  0  0  0  0  0  0  0  0  0
  147.3662  133.3731  153.0792 C   0  0  0  0  0  0  0  0  0  0  0  0
  146.6829  132.2770  152.2496 C   0  0  0  0  0  0  0  0  0  0  0  0
  147.4489  131.0280  152.4724 N   0  3  2  0  0  0  0  0  0  0  0  0
  146.6155  129.8431  152.7655 C   0  0  0  0  0  0  0  0  0  0  0  0
  146.7434  128.7480  151.7333 C   0  0  0  0  0  0  0  0  0  0  0  0
  145.5069  129.6207  151.7653 C   0  0  0  0  0  0  0  0  0  0  0  0
  148.4702  131.3084  153.4997 C   0  0  0  0  0  0  0  0  0  0  0  0
  148.8620  137.3274  154.3829 H   0  0  0  0  0  0  0  0  0  0  0  0
  148.9918  137.6632  156.1054 H   0  0  0  0  0  0  0  0  0  0  0  0
  150.3637  139.9773  155.2589 H   0  0  0  0  0  0  0  0  0  0  0  0
  149.2049  135.2900  153.6292 H   0  0  0  0  0  0  0  0  0  0  0  0
  150.4667  133.0695  154.6934 H   0  0  0  0  0  0  0  0  0  0  0  0
  148.9319  133.1379  155.5298 H   0  0  0  0  0  0  0  0  0  0  0  0
  149.3780  132.9654  152.5020 H   0  0  0  0  0  0  0  0  0  0  0  0
  146.8124  133.5234  154.0072 H   0  0  0  0  0  0  0  0  0  0  0  0
  147.4072  134.3303  152.5582 H   0  0  0  0  0  0  0  0  0  0  0  0
  145.6339  132.1735  152.5315 H   0  0  0  0  0  0  0  0  0  0  0  0
  146.7164  132.5158  151.1862 H   0  0  0  0  0  0  0  0  0  0  0  0
  146.4721  129.5972  153.8165 H   0  0  0  0  0  0  0  0  0  0  0  0
  147.4422  128.8938  150.9110 H   0  0  0  0  0  0  0  0  0  0  0  0
  146.6373  127.7205  152.0757 H   0  0  0  0  0  0  0  0  0  0  0  0
  144.5867  129.1675  152.1290 H   0  0  0  0  0  0  0  0  0  0  0  0
  145.3824  130.3472  150.9642 H   0  0  0  0  0  0  0  0  0  0  0  0
  149.3611  130.6985  153.3458 H   0  0  0  0  0  0  0  0  0  0  0  0
  148.0713  131.0804  154.4899 H   0  0  0  0  0  0  0  0  0  0  0  0
  147.9480  130.8444  151.6136 H   0  0  0  0  0  0  0  0  0  0  0  0
  1  2  2  0  0  0  0
  2  3  1  0  0  0  0
  2  9  1  0  0  0  0
  3  4  1  0  0  0  0
  3 19  1  0  0  0  0
  3 20  1  0  0  0  0
  4  8  1  0  0  0  0
  4  5  1  0  0  0  0
  5  6  2  0  0  0  0
  5 21  1  0  0  0  0
  6  7  1  0  0  0  0
  7  8  2  0  0  0  0
  9 10  1  0  0  0  0
  9 22  1  0  0  0  0
 10 11  1  0  0  0  0
 10 23  1  0  0  0  0
 10 24  1  0  0  0  0
 11 18  1  0  0  0  0
 11 12  1  0  0  0  0
 11 25  1  0  0  0  0
 12 13  1  0  0  0  0
 12 26  1  0  0  0  0
 12 27  1  0  0  0  0
 13 14  1  0  0  0  0
 13 28  1  0  0  0  0
 13 29  1  0  0  0  0
 14 15  1  0  0  0  0
 14 18  1  0  0  0  0
 14 37  1  0  0  0  0
 15 17  1  0  0  0  0
 15 16  1  0  0  0  0
 15 30  1  0  0  0  0
 16 17  1  0  0  0  0
 16 31  1  0  0  0  0
 16 32  1  0  0  0  0
 17 33  1  0  0  0  0
 17 34  1  0  0  0  0
 18 35  1  0  0  0  0
 18 36  1  0  0  0  0
M  CHG  1  14   1
M  END
> <s_m_source_file>
AV-unprocessed.smi

> <i_m_source_file_index>
1987

> <i_lp_mmshare_version>
43012

> <i_f3d_flags>
0

> <s_epik_input>
bjFubltjSF1uMVtDSDJdQyg9TylbTkhdW0NIMl1bQ0BASF0yW0NIMl1bQ0gyXU4oW0NIMl0yKVtDSF0zW0NIMl1bQ0gyXTM=

> <s_epik_cmdline>
J2VwaWtfcHl0aG9uJywgJy1waCcsICc3LjAnLCAnLXRuJywgJzgnLCAnLW1hJywgJzIwMCcsICctbWV0YWxfYmluZGluZycsICctaW1hZScsICc8aW5maWxlLm1hZT4nLCAnLW9tYWUnLCAnPG91dGZpbGUubWFlPic=

> <r_lp_tautomer_probability>
1

> <r_epik_Ionization_Penalty>
0.000242849

> <r_epik_Ionization_Penalty_Charging>
0.000241326

> <r_epik_Ionization_Penalty_Neutral>
1.52322e-06

> <r_epik_State_Penalty>
-0

> <r_epik_Charging_Adjusted_Penalty>
0.000241326

> <i_epik_Tot_Q>
1

> <i_epik_Tot_abs_Q>
1

> <r_epik_Metal_State_Penalty>
-0

> <b_epik_Metal_Only>
0

> <s_lp_Force_Field>
OPLS_2005

> <r_lp_Energy>
37.5939

> <b_lp_Chiralities_Consistent>
1

> <s_lp_Variant>
AV-unprocessed.smi:1987-1

> <Gold.Version>
5.8.1

> <Gold.Id.Protein>
6NUR|6NUR_protein|mol2

> <Gold.PLP.Fitness>
43.1637

> <Gold.PLP.PLP>
-34.6907

> <Gold.PLP.part.hbond>
-4.8195

> <Gold.PLP.part.metal>
0.0000

> <Gold.PLP.part.buried>
-6.0010

> <Gold.PLP.part.nonpolar>
-25.0342

> <Gold.PLP.part.repulsive>
0.2697

> <Gold.PLP.ligand.clash>
0.0000

> <Gold.PLP.ligand.torsion>
1.3770

> <Gold.PLP.Chemscore.Hbond>
3.3144

> <Gold.PLP.Chemscore.CHOScore>
0.0000

> <Gold.PLP.Chemscore.Metal>
0.0000

> <Gold.Chemscore.Hbonds>
donor molecule, donor type, donor heavy atom, donor atom, acceptor molecule, acceptor atom, score
      L1  H     9    22       P1  7948  1.00
      L1  H    14    37       P1 10747  1.00
      P1  H  7989  7998       L1     6  0.29
      P1  H 10752 10764       L1     8  0.93

> <Gold.PLP.Chemscore.Internal.Correction>
1.2839

> <Gold.Rescore>
     Score         DG    S(hbond)    S(metal)    S(lipo)     H(rot)  DE(clash)    DE(int)     intcor
     12.51     -14.06       2.52        0.00      58.76       2.62       0.05       1.49       ----

> <Gold.Chemscore.Fitness>
12.5107

> <Gold.Chemscore.DG>
-14.0570

> <Gold.Chemscore.ZeroCoef>
-5.4800

> <Gold.Chemscore.Hbond>
2.5210

> <Gold.Chemscore.Metal>
0.0000

> <Gold.Chemscore.Lipo>
58.7649

> <Gold.Chemscore.Internal_Hbond>
0.0000

> <Gold.Chemscore.DEClash>
0.0515

> <Gold.Chemscore.DEInternal>
1.4948

> <Gold.Chemscore.Rot>
2.6244

> <Gold.Chemscore.Internal.Correction>
   9.000000E+99

> <Gold.Chemscore.Hbonds>
donor molecule, donor type, donor heavy atom, donor atom, acceptor molecule, acceptor atom, score
      L1  H     9    22       P1  7948  0.39
      L1  H    14    37       P1 10747  1.00
      P1  H  7989  7998       L1     6  0.01
      P1  H 10752 10764       L1     8  0.20

> <Gold.Chemscore.Hbond.Weighted>
-8.4201

> <Gold.Chemscore.Metal.Weighted>
-0.0000

> <Gold.Chemscore.Lipo.Weighted>
-6.8755

> <Gold.Chemscore.Internal_Hbond.Weighted>
0.0000

> <Gold.Chemscore.DEClash.Weighted>
0.0515

> <Gold.Chemscore.DEInternal.Weighted>
1.4948

> <Gold.Chemscore.Rot.Weighted>
6.7186

> <Gold.Chemscore.Internal.Correction.Weighted>
   9.000000E+99

> <Gold.Protein.RotatedTorsions>
[ 6907 6896 6895 6894 ] final  -47.14 input  -60.11 | X-H torsion
[ 7974 7965 7964 7962 ] final   93.20 input  175.53 | X-H torsion
[ 8008 7997 7996 7995 ] final -119.83 input   59.86 | X-H torsion
[ 10167 10162 10161 10158 ] final  -82.20 input  -65.29 | X-H torsion
[ 10718 10713 10712 10709 ] final   17.04 input   66.30 | X-H torsion
[ 10763 10752 10751 10750 ] final  -66.33 input  -60.55 | X-H torsion
[ 11005 11000 10999 10996 ] final  -89.16 input  -57.11 | X-H torsion

> <Gold.Protein.ActiveResidues>
 VAL166  LYS551  ARG553  GLY616  TRP617  ASP618  TYR619  PRO620  LYS621  CYS622 
 ASP623  PHE694  ASN695  SER759  ASP760  ASP761  ALA762  ILE779  LEU786  VAL792 
 PHE793  MET794  SER795  GLU796  ALA797  LYS798  CYS799  TRP800  GLU811  SER814 

> <Gold.Protein.RotatedAtoms>
  150.9039  134.8452  159.7378 H   0  0  0  0  0  0  0  0  0  0  0  0  # atno 6907 bound_to 6896
  152.4907  134.4461  159.9569 H   0  0  0  0  0  0  0  0  0  0  0  0  # atno 6908 bound_to 6896
  151.4510  133.3578  159.2830 H   0  0  0  0  0  0  0  0  0  0  0  0  # atno 6909 bound_to 6896
  145.4821  139.2278  143.2876 H   0  0  0  0  0  0  0  0  0  0  0  0  # atno 7974 bound_to 7965
  155.1220  140.0399  157.2752 H   0  0  0  0  0  0  0  0  0  0  0  0  # atno 8008 bound_to 7997
  154.6607  140.2590  155.7086 H   0  0  0  0  0  0  0  0  0  0  0  0  # atno 8009 bound_to 7997
  156.2617  140.2817  156.1077 H   0  0  0  0  0  0  0  0  0  0  0  0  # atno 8010 bound_to 7997
  140.4342  143.2537  151.8717 H   0  0  0  0  0  0  0  0  0  0  0  0  # atno 10167 bound_to 10162
  157.0765  130.6370  149.5817 H   0  0  0  0  0  0  0  0  0  0  0  0  # atno 10718 bound_to 10713
  154.3582  135.6122  153.5677 H   0  0  0  0  0  0  0  0  0  0  0  0  # atno 10763 bound_to 10752
  152.9795  135.5809  154.4664 H   0  0  0  0  0  0  0  0  0  0  0  0  # atno 10764 bound_to 10752
  154.4397  135.2850  155.1833 H   0  0  0  0  0  0  0  0  0  0  0  0  # atno 10765 bound_to 10752
  141.1589  133.7613  156.9555 H   0  0  0  0  0  0  0  0  0  0  0  0  # atno 11005 bound_to 11000
  146.2335  140.5608  142.8965 LP  0  0  0  0  0  0  0  0  0  0  0  0  # atno 17320 bound_to 7965
  144.7883  140.5980  143.6559 LP  0  0  0  0  0  0  0  0  0  0  0  0  # atno 17321 bound_to 7965
  139.4786  144.5301  151.8679 LP  0  0  0  0  0  0  0  0  0  0  0  0  # atno 17342 bound_to 10162
  140.4393  144.2009  150.5890 LP  0  0  0  0  0  0  0  0  0  0  0  0  # atno 17343 bound_to 10162
  155.9935  130.4997  150.7385 LP  0  0  0  0  0  0  0  0  0  0  0  0  # atno 17370 bound_to 10713
  157.4835  131.0904  151.0509 LP  0  0  0  0  0  0  0  0  0  0  0  0  # atno 17371 bound_to 10713
  140.1228  134.9406  157.2227 LP  0  0  0  0  0  0  0  0  0  0  0  0  # atno 17394 bound_to 11000
  140.3050  134.3088  155.7280 LP  0  0  0  0  0  0  0  0  0  0  0  0  # atno 17395 bound_to 11000

$$$$
