AV-unprocessed.smi:1047|AV-procd|sdf|4584|dock7
  -GOLD-   22720 3 53D 1   1.00000     0.00000
 Structure written by MMmdl.
 58 60  0  0  0  0  0  0  0  0  4 V2000
  146.5519  133.5754  152.4633 C   0  0  0  0  0  0  0  0  0  0  0  0
  147.5321  132.4005  152.5904 C   0  0  0  0  0  0  0  0  0  0  0  0
  148.4042  132.5130  153.7867 N   0  3  1  0  0  0  0  0  0  0  0  0
  149.3517  131.3789  153.9001 C   0  0  0  0  0  0  0  0  0  0  0  0
  150.1925  131.5029  155.1816 C   0  0  0  0  0  0  0  0  0  0  0  0
  150.8833  132.7466  155.1836 O   0  0  0  0  0  0  0  0  0  0  0  0
  149.9935  133.8575  155.1525 C   0  0  1  0  0  0  0  0  0  0  0  0
  150.8128  135.1529  155.2862 C   0  0  0  0  0  0  0  0  0  0  0  0
  150.1590  136.2963  154.6160 N   0  3  0  0  0  0  0  0  0  0  0  0
  151.0578  137.4379  154.3516 C   0  0  0  0  0  0  0  0  0  0  0  0
  150.5116  138.7351  154.9714 C   0  0  1  0  0  0  0  0  0  0  0  0
  149.4965  138.3997  155.8977 O   0  0  0  0  0  0  0  0  0  0  0  0
  151.6182  139.5404  155.6812 C   0  0  0  0  0  0  0  0  0  0  0  0
  151.1299  140.7975  156.2675 N   0  0  0  0  0  0  0  0  0  0  0  0
  150.1901  141.6651  155.8016 C   0  0  0  0  0  0  0  0  0  0  0  0
  150.0969  142.6893  156.6940 N   0  3  0  0  0  0  0  0  0  0  0  0
  150.9910  142.4750  157.7448 C   0  0  0  0  0  0  0  0  0  0  0  0
  151.2581  143.2310  158.8798 C   0  0  0  0  0  0  0  0  0  0  0  0
  152.2348  142.7331  159.7714 C   0  0  0  0  0  0  0  0  0  0  0  0
  152.5487  143.5334  161.0240 C   0  0  0  0  0  0  0  0  0  0  0  0
  152.9092  141.5128  159.5078 C   0  0  0  0  0  0  0  0  0  0  0  0
  153.9538  140.9847  160.4762 C   0  0  0  0  0  0  0  0  0  0  0  0
  152.6261  140.7606  158.3454 C   0  0  0  0  0  0  0  0  0  0  0  0
  151.6592  141.2639  157.4776 C   0  0  0  0  0  0  0  0  0  0  0  0
  149.1312  133.8042  153.8730 C   0  0  0  0  0  0  0  0  0  0  0  0
  145.8689  133.4145  151.6287 H   0  0  0  0  0  0  0  0  0  0  0  0
  147.0646  134.5195  152.2813 H   0  0  0  0  0  0  0  0  0  0  0  0
  145.9489  133.6858  153.3651 H   0  0  0  0  0  0  0  0  0  0  0  0
  146.9452  131.4837  152.6630 H   0  0  0  0  0  0  0  0  0  0  0  0
  148.1396  132.3076  151.6890 H   0  0  0  0  0  0  0  0  0  0  0  0
  148.8022  130.4367  153.9147 H   0  0  0  0  0  0  0  0  0  0  0  0
  150.0037  131.3561  153.0254 H   0  0  0  0  0  0  0  0  0  0  0  0
  149.5644  131.4192  156.0699 H   0  0  0  0  0  0  0  0  0  0  0  0
  150.9222  130.6949  155.2316 H   0  0  0  0  0  0  0  0  0  0  0  0
  149.3345  133.7948  156.0206 H   0  0  0  0  0  0  0  0  0  0  0  0
  150.9609  135.3890  156.3407 H   0  0  0  0  0  0  0  0  0  0  0  0
  151.8025  135.0077  154.8513 H   0  0  0  0  0  0  0  0  0  0  0  0
  149.7744  135.9789  153.7376 H   0  0  0  0  0  0  0  0  0  0  0  0
  152.0540  137.2209  154.7402 H   0  0  0  0  0  0  0  0  0  0  0  0
  151.1554  137.5576  153.2717 H   0  0  0  0  0  0  0  0  0  0  0  0
  150.0691  139.3536  154.1890 H   0  0  0  0  0  0  0  0  0  0  0  0
  149.9011  138.2034  156.7295 H   0  0  0  0  0  0  0  0  0  0  0  0
  152.1074  138.9486  156.4554 H   0  0  0  0  0  0  0  0  0  0  0  0
  152.3977  139.8066  154.9659 H   0  0  0  0  0  0  0  0  0  0  0  0
  149.6228  141.5632  154.8874 H   0  0  0  0  0  0  0  0  0  0  0  0
  150.7404  144.1593  159.0741 H   0  0  0  0  0  0  0  0  0  0  0  0
  153.6015  143.8160  161.0446 H   0  0  0  0  0  0  0  0  0  0  0  0
  152.3291  142.9482  161.9175 H   0  0  0  0  0  0  0  0  0  0  0  0
  151.9574  144.4486  161.0714 H   0  0  0  0  0  0  0  0  0  0  0  0
  154.3723  140.0370  160.1357 H   0  0  0  0  0  0  0  0  0  0  0  0
  153.5142  140.8193  161.4602 H   0  0  0  0  0  0  0  0  0  0  0  0
  154.7755  141.6937  160.5783 H   0  0  0  0  0  0  0  0  0  0  0  0
  153.1393  139.8309  158.1492 H   0  0  0  0  0  0  0  0  0  0  0  0
  149.7544  133.9234  152.9855 H   0  0  0  0  0  0  0  0  0  0  0  0
  148.4255  134.6345  153.8815 H   0  0  0  0  0  0  0  0  0  0  0  0
  149.4022  136.6256  155.1986 H   0  0  0  0  0  0  0  0  0  0  0  0
  147.7969  132.4565  154.5923 H   0  0  0  0  0  0  0  0  0  0  0  0
  149.4704  143.4776  156.5896 H   0  0  0  0  0  0  0  0  0  0  0  0
  1  2  1  0  0  0  0
  1 26  1  0  0  0  0
  1 27  1  0  0  0  0
  1 28  1  0  0  0  0
  2  3  1  0  0  0  0
  2 29  1  0  0  0  0
  2 30  1  0  0  0  0
  3 25  1  0  0  0  0
  3  4  1  0  0  0  0
  3 57  1  0  0  0  0
  4  5  1  0  0  0  0
  4 31  1  0  0  0  0
  4 32  1  0  0  0  0
  5  6  1  0  0  0  0
  5 33  1  0  0  0  0
  5 34  1  0  0  0  0
  6  7  1  0  0  0  0
  7  8  1  0  0  0  0
  7 25  1  0  0  0  0
  7 35  1  0  0  0  0
  8  9  1  0  0  0  0
  8 36  1  0  0  0  0
  8 37  1  0  0  0  0
  9 10  1  0  0  0  0
  9 38  1  0  0  0  0
  9 56  1  0  0  0  0
 10 11  1  0  0  0  0
 10 39  1  0  0  0  0
 10 40  1  0  0  0  0
 11 12  1  0  0  0  0
 11 13  1  0  0  0  0
 11 41  1  0  0  0  0
 12 42  1  0  0  0  0
 13 14  1  0  0  0  0
 13 43  1  0  0  0  0
 13 44  1  0  0  0  0
 14 24  1  0  0  0  0
 14 15  1  0  0  0  0
 15 16  2  0  0  0  0
 15 45  1  0  0  0  0
 16 17  1  0  0  0  0
 16 58  1  0  0  0  0
 17 24  2  0  0  0  0
 17 18  1  0  0  0  0
 18 19  2  0  0  0  0
 18 46  1  0  0  0  0
 19 20  1  0  0  0  0
 19 21  1  0  0  0  0
 20 47  1  0  0  0  0
 20 48  1  0  0  0  0
 20 49  1  0  0  0  0
 21 22  1  0  0  0  0
 21 23  2  0  0  0  0
 22 50  1  0  0  0  0
 22 51  1  0  0  0  0
 22 52  1  0  0  0  0
 23 24  1  0  0  0  0
 23 53  1  0  0  0  0
 25 54  1  0  0  0  0
 25 55  1  0  0  0  0
M  CHG  1   3   1
M  CHG  1   9   1
M  CHG  1  16   1
M  END
> <s_m_source_file>
AV-unprocessed.smi

> <i_m_source_file_index>
1047

> <i_lp_mmshare_version>
43012

> <i_f3d_flags>
0

> <s_epik_input>
W0NIM11bQ0gyXU4xW0NIMl1bQ0gyXU9bQ0BIXShbQ0gyXTEpW0NIMl1bTkhdW0NIMl1bQ0BIXShbT0hdKVtDSDJdbihbY0hdbjIpYyhjMjMpW2NIXWMoW0NIM10pYyhbY0hdMylbQ0gzXQ==

> <s_epik_cmdline>
J2VwaWtfcHl0aG9uJywgJy1waCcsICc3LjAnLCAnLXRuJywgJzgnLCAnLW1hJywgJzIwMCcsICctbWV0YWxfYmluZGluZycsICctaW1hZScsICc8aW5maWxlLm1hZT4nLCAnLW9tYWUnLCAnPG91dGZpbGUubWFlPic=

> <r_epik_Ionization_Penalty>
1.6114

> <r_epik_Ionization_Penalty_Charging>
1.61139

> <r_epik_Ionization_Penalty_Neutral>
5.04732e-06

> <r_epik_State_Penalty>
1.63724

> <r_epik_Charging_Adjusted_Penalty>
3.24864

> <i_epik_Tot_Q>
3

> <i_epik_Tot_abs_Q>
3

> <r_epik_Metal_State_Penalty>
5.64594

> <b_epik_Metal_Only>
0

> <s_lp_Force_Field>
OPLS_2005

> <r_lp_Energy>
40.2566

> <b_lp_Chiralities_Consistent>
1

> <s_lp_Variant>
AV-unprocessed.smi:1047-25

> <Gold.Version>
5.8.1

> <Gold.Id.Protein>
6NUR|6NUR_protein|mol2

> <Gold.PLP.Fitness>
60.3793

> <Gold.PLP.PLP>
-51.8165

> <Gold.PLP.part.hbond>
-1.9336

> <Gold.PLP.part.metal>
0.0000

> <Gold.PLP.part.buried>
-4.1195

> <Gold.PLP.part.nonpolar>
-45.2653

> <Gold.PLP.part.repulsive>
0.1195

> <Gold.PLP.ligand.clash>
0.0000

> <Gold.PLP.ligand.torsion>
1.8042

> <Gold.PLP.Chemscore.Hbond>
4.0000

> <Gold.PLP.Chemscore.CHOScore>
0.0000

> <Gold.PLP.Chemscore.Metal>
0.0000

> <Gold.Chemscore.Hbonds>
donor molecule, donor type, donor heavy atom, donor atom, acceptor molecule, acceptor atom, score
      L1  H     9    38       P1  7948  1.90
      L1  H    16    58       P1  8028  1.98

> <Gold.PLP.Chemscore.Internal.Correction>
0.1712

> <Gold.Rescore>
     Score         DG    S(hbond)    S(metal)    S(lipo)     H(rot)  DE(clash)    DE(int)     intcor
     17.01     -19.11       1.81        0.00     125.72       2.78       0.14       1.96       ----

> <Gold.Chemscore.Fitness>
17.0130

> <Gold.Chemscore.DG>
-19.1096

> <Gold.Chemscore.ZeroCoef>
-5.4800

> <Gold.Chemscore.Hbond>
1.8113

> <Gold.Chemscore.Metal>
0.0000

> <Gold.Chemscore.Lipo>
125.7172

> <Gold.Chemscore.Internal_Hbond>
0.0000

> <Gold.Chemscore.DEClash>
0.1390

> <Gold.Chemscore.DEInternal>
1.9577

> <Gold.Chemscore.Rot>
2.7848

> <Gold.Chemscore.Internal.Correction>
   9.000000E+99

> <Gold.Chemscore.Hbonds>
donor molecule, donor type, donor heavy atom, donor atom, acceptor molecule, acceptor atom, score
      L1  H     9    38       P1  7948  0.20
      L1  H    16    58       P1  8028  0.94

> <Gold.Chemscore.Hbond.Weighted>
-6.0498

> <Gold.Chemscore.Metal.Weighted>
-0.0000

> <Gold.Chemscore.Lipo.Weighted>
-14.7089

> <Gold.Chemscore.Internal_Hbond.Weighted>
0.0000

> <Gold.Chemscore.DEClash.Weighted>
0.1390

> <Gold.Chemscore.DEInternal.Weighted>
1.9577

> <Gold.Chemscore.Rot.Weighted>
7.1291

> <Gold.Chemscore.Internal.Correction.Weighted>
   9.000000E+99

> <Gold.Protein.RotatedTorsions>
[ 6907 6896 6895 6894 ] final   66.23 input  -60.11 | X-H torsion
[ 7974 7965 7964 7962 ] final  -30.95 input  175.53 | X-H torsion
[ 8008 7997 7996 7995 ] final -141.05 input   59.86 | X-H torsion
[ 10167 10162 10161 10158 ] final  -68.88 input  -65.29 | X-H torsion
[ 10718 10713 10712 10709 ] final -119.08 input   66.30 | X-H torsion
[ 10763 10752 10751 10750 ] final -167.62 input  -60.55 | X-H torsion
[ 11005 11000 10999 10996 ] final  100.33 input  -57.11 | X-H torsion

> <Gold.Protein.ActiveResidues>
 VAL166  LYS551  ARG553  GLY616  TRP617  ASP618  TYR619  PRO620  LYS621  CYS622 
 ASP623  PHE694  ASN695  SER759  ASP760  ASP761  ALA762  ILE779  LEU786  VAL792 
 PHE793  MET794  SER795  GLU796  ALA797  LYS798  CYS799  TRP800  GLU811  SER814 

> <Gold.Protein.RotatedAtoms>
  152.4465  134.5483  159.9858 H   0  0  0  0  0  0  0  0  0  0  0  0  # atno 6907 bound_to 6896
  151.5566  133.3403  159.2971 H   0  0  0  0  0  0  0  0  0  0  0  0  # atno 6908 bound_to 6896
  150.8383  134.7698  159.6975 H   0  0  0  0  0  0  0  0  0  0  0  0  # atno 6909 bound_to 6896
  146.1104  140.5605  142.8780 H   0  0  0  0  0  0  0  0  0  0  0  0  # atno 7974 bound_to 7965
  155.4714  140.0553  157.2979 H   0  0  0  0  0  0  0  0  0  0  0  0  # atno 8008 bound_to 7997
  154.4697  140.2034  155.9980 H   0  0  0  0  0  0  0  0  0  0  0  0  # atno 8009 bound_to 7997
  156.1035  140.3215  155.7978 H   0  0  0  0  0  0  0  0  0  0  0  0  # atno 8010 bound_to 7997
  140.5473  143.2312  151.6977 H   0  0  0  0  0  0  0  0  0  0  0  0  # atno 10167 bound_to 10162
  156.1154  130.6281  150.9371 H   0  0  0  0  0  0  0  0  0  0  0  0  # atno 10718 bound_to 10713
  154.6714  135.2940  154.9737 H   0  0  0  0  0  0  0  0  0  0  0  0  # atno 10763 bound_to 10752
  154.0763  135.6611  153.4835 H   0  0  0  0  0  0  0  0  0  0  0  0  # atno 10764 bound_to 10752
  153.0489  135.5187  154.7711 H   0  0  0  0  0  0  0  0  0  0  0  0  # atno 10765 bound_to 10752
  139.8771  134.9135  156.4739 H   0  0  0  0  0  0  0  0  0  0  0  0  # atno 11005 bound_to 11000
  144.7507  140.5183  143.6804 LP  0  0  0  0  0  0  0  0  0  0  0  0  # atno 17320 bound_to 7965
  145.5674  139.1482  143.3307 LP  0  0  0  0  0  0  0  0  0  0  0  0  # atno 17321 bound_to 7965
  139.5013  144.3873  152.0315 LP  0  0  0  0  0  0  0  0  0  0  0  0  # atno 17342 bound_to 10162
  140.2987  144.3671  150.6066 LP  0  0  0  0  0  0  0  0  0  0  0  0  # atno 17343 bound_to 10162
  157.6337  131.0918  150.8391 LP  0  0  0  0  0  0  0  0  0  0  0  0  # atno 17370 bound_to 10713
  156.8495  130.5075  149.5313 LP  0  0  0  0  0  0  0  0  0  0  0  0  # atno 17371 bound_to 10713
  140.8776  133.7942  155.9431 LP  0  0  0  0  0  0  0  0  0  0  0  0  # atno 17394 bound_to 11000
  140.8888  134.2521  157.5105 LP  0  0  0  0  0  0  0  0  0  0  0  0  # atno 17395 bound_to 11000

$$$$
