#       Name:                AV-unprocessed.smi:246
#       Creating user name   scv26
#       Creation time:       Thu Mar 26 20:53:52 2020


#       File generated by GOLD software.
#

@<TRIPOS>MOLECULE
AV-unprocessed.smi:246
    68    71     1
SMALL
NO_CHARGES


@<TRIPOS>ATOM
      1 ****        -5.6446   4.6116  -4.1251 C.3            1 S1                 0.0000
      2 ****        -5.7121   3.7704  -2.8433 C.3            1 S1                 0.0000
      3 ****        -4.4171   3.4388  -2.3620 O.3            1 S1                 0.0000
      4 ****        -3.7674   4.4913  -1.6641 C.3            1 S1                 0.0000
      5 ****        -2.4019   3.9970  -1.1787 C.3            1 S1                 0.0000
      6 ****        -1.5132   3.9352  -2.2841 O.3            1 S1                 0.0000
      7 ****        -0.2045   3.5067  -1.9379 C.3            1 S1                 0.0000
      8 ****         0.7479   3.6492  -3.1244 C.3            1 S1                 0.0000
      9 ****         1.8487   2.6428  -2.7953 C.3            1 S1                 0.0000
     10 ****         1.1646   1.5587  -2.1035 N.pl3          1 S1                 0.0000
     11 ****         1.8446   0.5449  -1.5079 C.ar           1 S1                 0.0000
     12 ****         3.1989   0.5103  -1.6240 N.ar           1 S1                 0.0000
     13 ****         3.9059  -0.4651  -1.0466 C.ar           1 S1                 0.0000
     14 ****         3.4680  -1.4951  -0.3215 N.ar           1 S1                 0.0000
     15 ****         2.1094  -1.4791  -0.2126 C.ar           1 S1                 0.0000
     16 ****         1.2274  -0.5084  -0.7697 C.ar           1 S1                 0.0000
     17 ****        -0.0865  -0.8371  -0.4516 N.2            1 S1                 0.0000
     18 ****         0.0140  -1.9262   0.2594 C.2            1 S1                 0.0000
     19 ****         1.2977  -2.3786   0.4558 N.pl3          1 S1                 0.0000
     20 ****         1.6929  -3.5544   1.2112 C.3            1 S1                 0.0000
     21 ****         1.7674  -3.2765   2.7251 C.3            1 S1                 0.0000
     22 ****         2.7510  -2.2891   2.9695 O.3            1 S1                 0.0000
     23 ****         2.1159  -4.5391   3.5342 C.3            1 S1                 0.0000
     24 ****         2.1521  -4.3325   5.0496 C.3            1 S1                 0.0000
     25 ****         1.8572  -5.7153   5.6094 C.3            1 S1                 0.0000
     26 ****         1.2972  -6.4902   4.4138 C.3            1 S1                 0.0000
     27 ****         1.0931  -5.5145   3.4018 O.3            1 S1                 0.0000
     28 ****        -0.1248   2.0113  -1.5982 C.3            1 S1                 0.0000
     29 ****         0.1881   4.0965  -1.1074 H              1 S1                 0.0000
     30 ****        -6.6434   4.7792  -4.5280 H              1 S1                 0.0000
     31 ****        -5.0577   4.1065  -4.8923 H              1 S1                 0.0000
     32 ****        -5.1967   5.5889  -3.9480 H              1 S1                 0.0000
     33 ****        -6.2999   4.2728  -2.0737 H              1 S1                 0.0000
     34 ****        -6.2279   2.8360  -3.0648 H              1 S1                 0.0000
     35 ****        -3.6460   5.3777  -2.2867 H              1 S1                 0.0000
     36 ****        -4.3743   4.7760  -0.8036 H              1 S1                 0.0000
     37 ****        -2.0060   4.6957  -0.4403 H              1 S1                 0.0000
     38 ****        -2.5021   3.0267  -0.6907 H              1 S1                 0.0000
     39 ****         0.2433   3.3533  -4.0454 H              1 S1                 0.0000
     40 ****         1.1222   4.6649  -3.2543 H              1 S1                 0.0000
     41 ****         2.3558   2.2911  -3.6944 H              1 S1                 0.0000
     42 ****         2.5897   3.0932  -2.1332 H              1 S1                 0.0000
     43 ****         4.9759  -0.4109  -1.1836 H              1 S1                 0.0000
     44 ****        -0.8503  -2.4312   0.6660 H              1 S1                 0.0000
     45 ****         0.9686  -4.3438   1.0072 H              1 S1                 0.0000
     46 ****         2.6536  -3.9105   0.8367 H              1 S1                 0.0000
     47 ****         0.8075  -2.8857   3.0660 H              1 S1                 0.0000
     48 ****         2.5421  -1.5240   2.4555 H              1 S1                 0.0000
     49 ****         3.0608  -4.9670   3.1925 H              1 S1                 0.0000
     50 ****         3.1046  -3.9302   5.3957 H              1 S1                 0.0000
     51 ****         1.3653  -3.6412   5.3550 H              1 S1                 0.0000
     52 ****         2.7605  -6.1944   5.9886 H              1 S1                 0.0000
     53 ****         1.1383  -5.6583   6.4272 H              1 S1                 0.0000
     54 ****         2.0200  -7.2273   4.0613 H              1 S1                 0.0000
     55 ****         0.3685  -7.0098   4.6500 H              1 S1                 0.0000
     56 ****        -0.2328   1.8518  -0.5250 H              1 S1                 0.0000
     57 ****        -0.9104   1.4549  -2.1104 H              1 S1                 0.0000
     58 ****        -3.8482   3.1830  -3.1436 LP             1 S1                 0.0000
     59 ****        -4.5032   2.6584  -1.7427 LP             1 S1                 0.0000
     60 ****        -1.4503   4.8468  -2.6905 LP             1 S1                 0.0000
     61 ****        -1.8879   3.2960  -2.9556 LP             1 S1                 0.0000
     62 ****         3.6699   1.2213  -2.1462 LP             1 S1                 0.0000
     63 ****         4.0595  -2.1890   0.0890 LP             1 S1                 0.0000
     64 ****        -0.9200  -0.3486  -0.7098 LP             1 S1                 0.0000
     65 ****         3.6509  -2.6369   2.7063 LP             1 S1                 0.0000
     66 ****         2.7566  -2.0516   3.9409 LP             1 S1                 0.0000
     67 ****         1.1450  -5.9428   2.4997 LP             1 S1                 0.0000
     68 ****         0.1967  -5.0864   3.5165 LP             1 S1                 0.0000
@<TRIPOS>BOND
    1    1    2 1     
    2    1   30 1     
    3    1   31 1     
    4    1   32 1     
    5    2    3 1     
    6    2   33 1     
    7    2   34 1     
    8    3    4 1     
    9    4    5 1     
   10    4   35 1     
   11    4   36 1     
   12    5    6 1     
   13    5   37 1     
   14    5   38 1     
   15    6    7 1     
   16    7   29 1     
   17    7   28 1     
   18    7    8 1     
   19    8    9 1     
   20    8   39 1     
   21    8   40 1     
   22    9   10 1     
   23    9   41 1     
   24    9   42 1     
   25   10   11 1     
   26   10   28 1     
   27   11   16 ar    
   28   11   12 ar    
   29   12   13 ar    
   30   13   14 ar    
   31   13   43 1     
   32   14   15 ar    
   33   15   19 1     
   34   15   16 ar    
   35   16   17 1     
   36   17   18 2     
   37   18   19 1     
   38   18   44 1     
   39   19   20 1     
   40   20   21 1     
   41   20   45 1     
   42   20   46 1     
   43   21   22 1     
   44   21   23 1     
   45   21   47 1     
   46   22   48 1     
   47   23   27 1     
   48   23   24 1     
   49   23   49 1     
   50   24   25 1     
   51   24   50 1     
   52   24   51 1     
   53   25   26 1     
   54   25   52 1     
   55   25   53 1     
   56   26   27 1     
   57   26   54 1     
   58   26   55 1     
   59   28   56 1     
   60   28   57 1     
   61    3   58 1     
   62    3   59 1     
   63    6   60 1     
   64    6   61 1     
   65   12   62 1     
   66   14   63 1     
   67   17   64 1     
   68   22   65 1     
   69   22   66 1     
   70   27   67 1     
   71   27   68 1     
@<TRIPOS>SUBSTRUCTURE
      1 S1             1
@<TRIPOS>SET
LONE_PAIRS      STATIC     ATOMS    <user>   **** ""
11 58 59 60 61 62 63 64 65 66 67 68
DONOR_HYDROGENS      STATIC     ATOMS    <user>   **** ""
1 48
ATOM$BLUE        STATIC     ATOMS    COLORGROUP SYSTEM
11 58 59 60 61 62 63 64 65 66 67 68
ATOM$RED        STATIC     ATOMS    COLORGROUP SYSTEM
1 48
