AV-unprocessed.smi:2324|AV-procd|sdf|9291|dock8
  -GOLD-   2272012513D 1   1.00000     0.00000
 Structure written by MMmdl.
 37 39  0  0  0  0  0  0  0  0  1 V2000
  150.3482  135.5091  156.0876 O   0  0  0  0  0  0  0  0  0  0  0  0
  149.8286  135.6961  154.9885 C   0  0  0  0  0  0  0  0  0  0  0  0
  149.4785  134.6568  154.2013 N   0  0  0  0  0  0  0  0  0  0  0  0
  149.5901  133.2479  154.3884 C   0  0  0  0  0  0  0  0  0  0  0  0
  148.8788  132.4701  153.4497 C   0  0  0  0  0  0  0  0  0  0  0  0
  148.9348  131.0703  153.5593 C   0  0  0  0  0  0  0  0  0  0  0  0
  149.7039  130.5375  154.6075 C   0  0  0  0  0  0  0  0  0  0  0  0
  150.3702  131.3178  155.4852 N   0  0  0  0  0  0  0  0  0  0  0  0
  150.3112  132.6488  155.3734 N   0  0  0  0  0  0  0  0  0  0  0  0
  149.5807  136.9240  154.5033 N   0  0  0  0  0  0  0  0  0  0  0  0
  149.8799  138.1799  155.1837 C   0  0  2  0  0  0  0  0  0  0  0  0
  149.3414  139.3586  154.3623 C   0  0  0  0  0  0  0  0  0  0  0  0
  149.7452  140.6948  155.0035 C   0  0  0  0  0  0  0  0  0  0  0  0
  151.1621  140.7710  155.1485 O   0  0  0  0  0  0  0  0  0  0  0  0
  151.7520  139.7396  155.9423 C   0  0  1  0  0  0  0  0  0  0  0  0
  151.4108  139.8918  157.4187 C   0  0  0  0  0  0  0  0  0  0  0  0
  151.4791  141.2436  158.0894 C   0  0  0  0  0  0  0  0  0  0  0  0
  152.4927  140.1784  158.4333 C   0  0  0  0  0  0  0  0  0  0  0  0
  151.3968  138.3511  155.3756 C   0  0  0  0  0  0  0  0  0  0  0  0
  149.0630  134.9262  153.3214 H   0  0  0  0  0  0  0  0  0  0  0  0
  148.3026  132.9326  152.6614 H   0  0  0  0  0  0  0  0  0  0  0  0
  148.4092  130.4300  152.8665 H   0  0  0  0  0  0  0  0  0  0  0  0
  149.7881  129.4696  154.7448 H   0  0  0  0  0  0  0  0  0  0  0  0
  149.1529  136.9916  153.5904 H   0  0  0  0  0  0  0  0  0  0  0  0
  149.3851  138.1824  156.1564 H   0  0  0  0  0  0  0  0  0  0  0  0
  149.7355  139.3150  153.3459 H   0  0  0  0  0  0  0  0  0  0  0  0
  148.2556  139.2982  154.2789 H   0  0  0  0  0  0  0  0  0  0  0  0
  149.4182  141.5212  154.3725 H   0  0  0  0  0  0  0  0  0  0  0  0
  149.2518  140.8285  155.9662 H   0  0  0  0  0  0  0  0  0  0  0  0
  152.8310  139.8676  155.8485 H   0  0  0  0  0  0  0  0  0  0  0  0
  150.6163  139.2358  157.7671 H   0  0  0  0  0  0  0  0  0  0  0  0
  151.8208  142.0885  157.4949 H   0  0  0  0  0  0  0  0  0  0  0  0
  150.7180  141.4737  158.8322 H   0  0  0  0  0  0  0  0  0  0  0  0
  152.4077  139.6962  159.4048 H   0  0  0  0  0  0  0  0  0  0  0  0
  153.5086  140.3139  158.0675 H   0  0  0  0  0  0  0  0  0  0  0  0
  151.7940  137.5695  156.0243 H   0  0  0  0  0  0  0  0  0  0  0  0
  151.8949  138.2306  154.4123 H   0  0  0  0  0  0  0  0  0  0  0  0
  1  2  2  0  0  0  0
  2  3  1  0  0  0  0
  2 10  1  0  0  0  0
  3  4  1  0  0  0  0
  3 20  1  0  0  0  0
  4  9  1  0  0  0  0
  4  5  2  0  0  0  0
  5  6  1  0  0  0  0
  5 21  1  0  0  0  0
  6  7  2  0  0  0  0
  6 22  1  0  0  0  0
  7  8  1  0  0  0  0
  7 23  1  0  0  0  0
  8  9  2  0  0  0  0
 10 11  1  0  0  0  0
 10 24  1  0  0  0  0
 11 19  1  0  0  0  0
 11 12  1  0  0  0  0
 11 25  1  0  0  0  0
 12 13  1  0  0  0  0
 12 26  1  0  0  0  0
 12 27  1  0  0  0  0
 13 14  1  0  0  0  0
 13 28  1  0  0  0  0
 13 29  1  0  0  0  0
 14 15  1  0  0  0  0
 15 16  1  0  0  0  0
 15 19  1  0  0  0  0
 15 30  1  0  0  0  0
 16 18  1  0  0  0  0
 16 17  1  0  0  0  0
 16 31  1  0  0  0  0
 17 18  1  0  0  0  0
 17 32  1  0  0  0  0
 17 33  1  0  0  0  0
 18 34  1  0  0  0  0
 18 35  1  0  0  0  0
 19 36  1  0  0  0  0
 19 37  1  0  0  0  0
M  END
> <s_m_source_file>
AV-unprocessed.smi

> <i_m_source_file_index>
2324

> <i_lp_mmshare_version>
43012

> <i_f3d_flags>
0

> <s_epik_input>
bjFuW2NIXVtjSF1bY0hdYzFbTkhdQyg9TylbTkhdW0NAQEhdMltDSDJdW0NIMl1PW0NASF0oW0NIMl0yKVtDSF0zW0NIMl1bQ0gyXTM=

> <s_epik_cmdline>
J2VwaWtfcHl0aG9uJywgJy1waCcsICc3LjAnLCAnLXRuJywgJzgnLCAnLW1hJywgJzIwMCcsICctbWV0YWxfYmluZGluZycsICctaW1hZScsICc8aW5maWxlLm1hZT4nLCAnLW9tYWUnLCAnPG91dGZpbGUubWFlPic=

> <r_lp_tautomer_probability>
1

> <r_epik_Ionization_Penalty>
0.00521499

> <r_epik_Ionization_Penalty_Charging>
0

> <r_epik_Ionization_Penalty_Neutral>
0.00521499

> <r_epik_State_Penalty>
-0

> <r_epik_Charging_Adjusted_Penalty>
0

> <i_epik_Tot_Q>
0

> <i_epik_Tot_abs_Q>
0

> <r_epik_Metal_State_Penalty>
-0

> <b_epik_Metal_Only>
0

> <s_lp_Force_Field>
OPLS_2005

> <r_lp_Energy>
28.1305

> <b_lp_Chiralities_Consistent>
1

> <s_lp_Variant>
AV-unprocessed.smi:2324-1

> <Gold.Version>
5.8.1

> <Gold.Id.Protein>
6NUR|6NUR_protein|mol2

> <Gold.PLP.Fitness>
38.5225

> <Gold.PLP.PLP>
-31.2352

> <Gold.PLP.part.hbond>
-3.0000

> <Gold.PLP.part.metal>
0.0000

> <Gold.PLP.part.buried>
-2.4646

> <Gold.PLP.part.nonpolar>
-25.5382

> <Gold.PLP.part.repulsive>
0.1441

> <Gold.PLP.ligand.clash>
0.0000

> <Gold.PLP.ligand.torsion>
0.8794

> <Gold.PLP.Chemscore.Hbond>
2.6560

> <Gold.PLP.Chemscore.CHOScore>
0.0000

> <Gold.PLP.Chemscore.Metal>
0.0000

> <Gold.Chemscore.Hbonds>
donor molecule, donor type, donor heavy atom, donor atom, acceptor molecule, acceptor atom, score
      L1  H     3    20       P1  7948  0.86
      L1  H    10    24       P1  7948  0.93
      P1  H  7989  7998       L1    14  0.80

> <Gold.PLP.Chemscore.Internal.Correction>
1.0781

> <Gold.Rescore>
     Score         DG    S(hbond)    S(metal)    S(lipo)     H(rot)  DE(clash)    DE(int)     intcor
     13.74     -15.95       1.94        0.00      61.52       1.25       0.05       2.17       ----

> <Gold.Chemscore.Fitness>
13.7358

> <Gold.Chemscore.DG>
-15.9545

> <Gold.Chemscore.ZeroCoef>
-5.4800

> <Gold.Chemscore.Hbond>
1.9374

> <Gold.Chemscore.Metal>
0.0000

> <Gold.Chemscore.Lipo>
61.5165

> <Gold.Chemscore.Internal_Hbond>
0.0000

> <Gold.Chemscore.DEClash>
0.0523

> <Gold.Chemscore.DEInternal>
2.1664

> <Gold.Chemscore.Rot>
1.2476

> <Gold.Chemscore.Internal.Correction>
   9.000000E+99

> <Gold.Chemscore.Hbonds>
donor molecule, donor type, donor heavy atom, donor atom, acceptor molecule, acceptor atom, score
      L1  H     3    20       P1  7948  0.16
      L1  H    10    24       P1  7948  0.89
      P1  H  7989  7998       L1    14  0.23

> <Gold.Chemscore.Hbond.Weighted>
-6.4709

> <Gold.Chemscore.Metal.Weighted>
-0.0000

> <Gold.Chemscore.Lipo.Weighted>
-7.1974

> <Gold.Chemscore.Internal_Hbond.Weighted>
0.0000

> <Gold.Chemscore.DEClash.Weighted>
0.0523

> <Gold.Chemscore.DEInternal.Weighted>
2.1664

> <Gold.Chemscore.Rot.Weighted>
3.1938

> <Gold.Chemscore.Internal.Correction.Weighted>
   9.000000E+99

> <Gold.Protein.RotatedTorsions>
[ 6907 6896 6895 6894 ] final  -91.32 input  -60.11 | X-H torsion
[ 7974 7965 7964 7962 ] final  -94.57 input  175.53 | X-H torsion
[ 8008 7997 7996 7995 ] final  145.14 input   59.86 | X-H torsion
[ 10167 10162 10161 10158 ] final  -24.04 input  -65.29 | X-H torsion
[ 10718 10713 10712 10709 ] final  -10.06 input   66.30 | X-H torsion
[ 10763 10752 10751 10750 ] final  155.12 input  -60.55 | X-H torsion
[ 11005 11000 10999 10996 ] final -118.38 input  -57.11 | X-H torsion

> <Gold.Protein.ActiveResidues>
 VAL166  LYS551  ARG553  GLY616  TRP617  ASP618  TYR619  PRO620  LYS621  CYS622 
 ASP623  PHE694  ASN695  SER759  ASP760  ASP761  ALA762  ILE779  LEU786  VAL792 
 PHE793  MET794  SER795  GLU796  ALA797  LYS798  CYS799  TRP800  GLU811  SER814 

> <Gold.Protein.RotatedAtoms>
  150.6891  134.2295  159.4428 H   0  0  0  0  0  0  0  0  0  0  0  0  # atno 6907 bound_to 6896
  152.0246  134.9800  160.0580 H   0  0  0  0  0  0  0  0  0  0  0  0  # atno 6908 bound_to 6896
  152.1364  133.4403  159.4782 H   0  0  0  0  0  0  0  0  0  0  0  0  # atno 6909 bound_to 6896
  145.3716  140.9506  143.2444 H   0  0  0  0  0  0  0  0  0  0  0  0  # atno 7974 bound_to 7965
  156.2891  140.2217  156.5167 H   0  0  0  0  0  0  0  0  0  0  0  0  # atno 8008 bound_to 7997
  154.7563  140.0476  157.0958 H   0  0  0  0  0  0  0  0  0  0  0  0  # atno 8009 bound_to 7997
  155.0046  140.3106  155.4857 H   0  0  0  0  0  0  0  0  0  0  0  0  # atno 8010 bound_to 7997
  140.7288  143.4388  151.0688 H   0  0  0  0  0  0  0  0  0  0  0  0  # atno 10167 bound_to 10162
  156.6790  130.5031  149.5977 H   0  0  0  0  0  0  0  0  0  0  0  0  # atno 10718 bound_to 10713
  154.1632  135.2808  155.3102 H   0  0  0  0  0  0  0  0  0  0  0  0  # atno 10763 bound_to 10752
  154.6131  135.5492  153.7498 H   0  0  0  0  0  0  0  0  0  0  0  0  # atno 10764 bound_to 10752
  153.0186  135.6420  154.1773 H   0  0  0  0  0  0  0  0  0  0  0  0  # atno 10765 bound_to 10752
  141.0290  134.0010  157.3172 H   0  0  0  0  0  0  0  0  0  0  0  0  # atno 11005 bound_to 11000
  144.8572  139.5231  143.6829 LP  0  0  0  0  0  0  0  0  0  0  0  0  # atno 17320 bound_to 7965
  146.2883  139.7066  142.9179 LP  0  0  0  0  0  0  0  0  0  0  0  0  # atno 17321 bound_to 7965
  139.8053  143.8026  152.3167 LP  0  0  0  0  0  0  0  0  0  0  0  0  # atno 17342 bound_to 10162
  139.8057  144.7356  150.9765 LP  0  0  0  0  0  0  0  0  0  0  0  0  # atno 17343 bound_to 10162
  156.1882  130.6542  151.1030 LP  0  0  0  0  0  0  0  0  0  0  0  0  # atno 17370 bound_to 10713
  157.7050  131.0760  150.6696 LP  0  0  0  0  0  0  0  0  0  0  0  0  # atno 17371 bound_to 10713
  139.9195  135.0199  156.8010 LP  0  0  0  0  0  0  0  0  0  0  0  0  # atno 17394 bound_to 11000
  140.6441  133.9792  155.7722 LP  0  0  0  0  0  0  0  0  0  0  0  0  # atno 17395 bound_to 11000

$$$$
