AV-unprocessed.smi:77|AV-procd|sdf|772|dock10
  -GOLD-   2262017123D 1   1.00000     0.00000
 Structure written by MMmdl.
 57 61  0  0  0  0  0  0  0  0  1 V2000
  146.6742  134.8570  158.7466 O   0  0  0  0  0  0  0  0  0  0  0  0
  147.2993  135.9178  158.7253 C   0  0  0  0  0  0  0  0  0  0  0  0
  147.2790  136.8027  157.4733 C   0  0  0  0  0  0  0  0  0  0  0  0
  148.5663  136.8106  156.7703 N   0  0  0  0  0  0  0  0  0  0  0  0
  149.5046  137.5802  157.3673 C   0  0  0  0  0  0  0  0  0  0  0  0
  150.2002  137.0966  158.4301 N   0  0  0  0  0  0  0  0  0  0  0  0
  151.0962  137.8731  159.0474 C   0  0  0  0  0  0  0  0  0  0  0  0
  151.4334  139.1366  158.7778 N   0  0  0  0  0  0  0  0  0  0  0  0
  150.7376  139.6181  157.7079 C   0  0  0  0  0  0  0  0  0  0  0  0
  149.7731  138.9072  156.9427 C   0  0  0  0  0  0  0  0  0  0  0  0
  149.2855  139.7107  155.9203 N   0  0  0  0  0  0  0  0  0  0  0  0
  149.9110  140.8440  156.0845 C   0  0  0  0  0  0  0  0  0  0  0  0
  150.7771  140.8857  157.1547 N   0  0  0  0  0  0  0  0  0  0  0  0
  151.5743  142.0201  157.5819 C   0  0  0  0  0  0  0  0  0  0  0  0
  152.2474  141.8523  158.9738 C   0  0  1  0  0  0  0  0  0  0  0  0
  153.5817  141.0868  158.7994 C   0  0  0  0  0  0  0  0  0  0  0  0
  154.1151  140.6890  160.0456 O   0  0  0  0  0  0  0  0  0  0  0  0
  152.4534  143.2025  159.7276 C   0  0  2  0  0  0  0  0  0  0  0  0
  152.7195  143.0749  161.2211 C   0  0  0  0  0  0  0  0  0  0  0  0
  152.4018  144.4720  161.7307 C   0  0  0  0  0  0  0  0  0  0  0  0
  151.2611  144.8567  160.9836 O   0  0  0  0  0  0  0  0  0  0  0  0
  151.2426  144.1556  159.7441 C   0  0  0  0  0  0  0  0  0  0  0  0
  149.0715  135.5187  156.3256 C   0  0  0  0  0  0  0  0  0  0  0  0
  150.1067  135.4738  155.2251 C   0  0  0  0  0  0  0  0  0  0  0  0
  148.6863  135.0355  154.9487 C   0  0  0  0  0  0  0  0  0  0  0  0
  148.0404  136.3605  159.7515 N   0  0  0  0  0  0  0  0  0  0  0  0
  148.1942  135.7017  161.0080 C   0  0  0  0  0  0  0  0  0  0  0  0
  146.9394  135.3744  161.7877 C   0  0  0  0  0  0  0  0  0  0  0  0
  147.8425  136.4811  162.2568 C   0  0  0  0  0  0  0  0  0  0  0  0
  146.4763  136.4933  156.8008 H   0  0  0  0  0  0  0  0  0  0  0  0
  147.0352  137.8174  157.7912 H   0  0  0  0  0  0  0  0  0  0  0  0
  151.6093  137.4211  159.8835 H   0  0  0  0  0  0  0  0  0  0  0  0
  149.7383  141.6929  155.4394 H   0  0  0  0  0  0  0  0  0  0  0  0
  152.3255  142.1867  156.8093 H   0  0  0  0  0  0  0  0  0  0  0  0
  150.9382  142.9062  157.5836 H   0  0  0  0  0  0  0  0  0  0  0  0
  151.6042  141.2277  159.5949 H   0  0  0  0  0  0  0  0  0  0  0  0
  153.4452  140.2084  158.1678 H   0  0  0  0  0  0  0  0  0  0  0  0
  154.3413  141.7073  158.3261 H   0  0  0  0  0  0  0  0  0  0  0  0
  153.8209  139.8105  160.2320 H   0  0  0  0  0  0  0  0  0  0  0  0
  153.3018  143.7287  159.2866 H   0  0  0  0  0  0  0  0  0  0  0  0
  152.0385  142.3514  161.6718 H   0  0  0  0  0  0  0  0  0  0  0  0
  153.7426  142.7777  161.4533 H   0  0  0  0  0  0  0  0  0  0  0  0
  152.2077  144.4989  162.8031 H   0  0  0  0  0  0  0  0  0  0  0  0
  153.2219  145.1573  161.5115 H   0  0  0  0  0  0  0  0  0  0  0  0
  151.2712  144.8689  158.9213 H   0  0  0  0  0  0  0  0  0  0  0  0
  150.3009  143.6093  159.6856 H   0  0  0  0  0  0  0  0  0  0  0  0
  149.1548  134.7510  157.0933 H   0  0  0  0  0  0  0  0  0  0  0  0
  150.4322  136.4179  154.7919 H   0  0  0  0  0  0  0  0  0  0  0  0
  150.8698  134.7007  155.2858 H   0  0  0  0  0  0  0  0  0  0  0  0
  148.5035  133.9702  154.8234 H   0  0  0  0  0  0  0  0  0  0  0  0
  148.0690  135.6905  154.3367 H   0  0  0  0  0  0  0  0  0  0  0  0
  148.5268  137.2382  159.6375 H   0  0  0  0  0  0  0  0  0  0  0  0
  149.0129  134.9896  161.1028 H   0  0  0  0  0  0  0  0  0  0  0  0
  145.9821  135.6550  161.3522 H   0  0  0  0  0  0  0  0  0  0  0  0
  146.9350  134.4518  162.3648 H   0  0  0  0  0  0  0  0  0  0  0  0
  148.4401  136.2975  163.1475 H   0  0  0  0  0  0  0  0  0  0  0  0
  147.4867  137.5028  162.1374 H   0  0  0  0  0  0  0  0  0  0  0  0
  1  2  2  0  0  0  0
  2  3  1  0  0  0  0
  2 26  1  0  0  0  0
  3  4  1  0  0  0  0
  3 30  1  0  0  0  0
  3 31  1  0  0  0  0
  4  5  1  0  0  0  0
  4 23  1  0  0  0  0
  5 10  1  0  0  0  0
  5  6  2  0  0  0  0
  6  7  1  0  0  0  0
  7  8  2  0  0  0  0
  7 32  1  0  0  0  0
  8  9  1  0  0  0  0
  9 13  1  0  0  0  0
  9 10  2  0  0  0  0
 10 11  1  0  0  0  0
 11 12  2  0  0  0  0
 12 13  1  0  0  0  0
 12 33  1  0  0  0  0
 13 14  1  0  0  0  0
 14 15  1  0  0  0  0
 14 34  1  0  0  0  0
 14 35  1  0  0  0  0
 15 16  1  0  0  0  0
 15 18  1  0  0  0  0
 15 36  1  0  0  0  0
 16 17  1  0  0  0  0
 16 37  1  0  0  0  0
 16 38  1  0  0  0  0
 17 39  1  0  0  0  0
 18 22  1  0  0  0  0
 18 19  1  0  0  0  0
 18 40  1  0  0  0  0
 19 20  1  0  0  0  0
 19 41  1  0  0  0  0
 19 42  1  0  0  0  0
 20 21  1  0  0  0  0
 20 43  1  0  0  0  0
 20 44  1  0  0  0  0
 21 22  1  0  0  0  0
 22 45  1  0  0  0  0
 22 46  1  0  0  0  0
 23 25  1  0  0  0  0
 23 24  1  0  0  0  0
 23 47  1  0  0  0  0
 24 25  1  0  0  0  0
 24 48  1  0  0  0  0
 24 49  1  0  0  0  0
 25 50  1  0  0  0  0
 25 51  1  0  0  0  0
 26 27  1  0  0  0  0
 26 52  1  0  0  0  0
 27 29  1  0  0  0  0
 27 28  1  0  0  0  0
 27 53  1  0  0  0  0
 28 29  1  0  0  0  0
 28 54  1  0  0  0  0
 28 55  1  0  0  0  0
 29 56  1  0  0  0  0
 29 57  1  0  0  0  0
M  END
> <s_m_source_file>
AV-unprocessed.smi

> <i_m_source_file_index>
77

> <i_lp_mmshare_version>
43012

> <i_f3d_flags>
0

> <s_epik_input>
W0NIMl0xW0NIMl1bQ0hdMVtOSF1DKD1PKVtDSDJdTihbQ0hdMltDSDJdW0NIMl0yKWMobltjSF1uMyljKGMzNCluW2NIXW40W0NIMl1bQ0BIXShbQ0gyXVtPSF0pW0NAQEhdNVtDSDJdW0NIMl1PW0NIMl01

> <s_epik_cmdline>
J2VwaWtfcHl0aG9uJywgJy1waCcsICc3LjAnLCAnLXRuJywgJzgnLCAnLW1hJywgJzIwMCcsICctbWV0YWxfYmluZGluZycsICctaW1hZScsICc8aW5maWxlLm1hZT4nLCAnLW9tYWUnLCAnPG91dGZpbGUubWFlPic=

> <r_lp_tautomer_probability>
1

> <r_epik_Ionization_Penalty>
0.000703847

> <r_epik_Ionization_Penalty_Charging>
0

> <r_epik_Ionization_Penalty_Neutral>
0.000703847

> <r_epik_State_Penalty>
0.00034025

> <r_epik_Charging_Adjusted_Penalty>
0.00034025

> <i_epik_Tot_Q>
0

> <i_epik_Tot_abs_Q>
0

> <r_epik_Metal_State_Penalty>
-0

> <b_epik_Metal_Only>
0

> <s_lp_Force_Field>
OPLS_2005

> <r_lp_Energy>
54.5586

> <b_lp_Chiralities_Consistent>
1

> <s_lp_Variant>
AV-unprocessed.smi:77-2

> <Gold.Version>
5.8.1

> <Gold.Id.Protein>
6NUR|6NUR_protein|mol2

> <Gold.PLP.Fitness>
42.5207

> <Gold.PLP.PLP>
-41.1726

> <Gold.PLP.part.hbond>
-1.0000

> <Gold.PLP.part.metal>
0.0000

> <Gold.PLP.part.buried>
-6.6483

> <Gold.PLP.part.nonpolar>
-33.6106

> <Gold.PLP.part.repulsive>
0.3366

> <Gold.PLP.ligand.clash>
0.0000

> <Gold.PLP.ligand.torsion>
1.7976

> <Gold.PLP.Chemscore.Hbond>
1.0000

> <Gold.PLP.Chemscore.CHOScore>
0.0000

> <Gold.PLP.Chemscore.Metal>
0.0000

> <Gold.PLP.Chemscore.Internal.Correction>
1.9432

> <Gold.Rescore>
     Score         DG    S(hbond)    S(metal)    S(lipo)     H(rot)  DE(clash)    DE(int)     intcor
      5.59      -9.07       0.09        0.00     110.53       3.77       0.15       3.33       ----

> <Gold.Chemscore.Fitness>
5.5875

> <Gold.Chemscore.DG>
-9.0694

> <Gold.Chemscore.ZeroCoef>
-5.4800

> <Gold.Chemscore.Hbond>
0.0936

> <Gold.Chemscore.Metal>
0.0000

> <Gold.Chemscore.Lipo>
110.5273

> <Gold.Chemscore.Internal_Hbond>
0.0000

> <Gold.Chemscore.DEClash>
0.1549

> <Gold.Chemscore.DEInternal>
3.3269

> <Gold.Chemscore.Rot>
3.7714

> <Gold.Chemscore.Internal.Correction>
   9.000000E+99

> <Gold.Chemscore.Hbond.Weighted>
-0.3125

> <Gold.Chemscore.Metal.Weighted>
-0.0000

> <Gold.Chemscore.Lipo.Weighted>
-12.9317

> <Gold.Chemscore.Internal_Hbond.Weighted>
0.0000

> <Gold.Chemscore.DEClash.Weighted>
0.1549

> <Gold.Chemscore.DEInternal.Weighted>
3.3269

> <Gold.Chemscore.Rot.Weighted>
9.6548

> <Gold.Chemscore.Internal.Correction.Weighted>
   9.000000E+99

> <Gold.Protein.RotatedTorsions>
[ 6907 6896 6895 6894 ] final   65.51 input  -60.11 | X-H torsion
[ 7974 7965 7964 7962 ] final    8.79 input  175.53 | X-H torsion
[ 8008 7997 7996 7995 ] final  -86.67 input   59.86 | X-H torsion
[ 10167 10162 10161 10158 ] final   38.90 input  -65.29 | X-H torsion
[ 10718 10713 10712 10709 ] final    3.10 input   66.30 | X-H torsion
[ 10763 10752 10751 10750 ] final  161.04 input  -60.55 | X-H torsion
[ 11005 11000 10999 10996 ] final -103.09 input  -57.11 | X-H torsion

> <Gold.Protein.ActiveResidues>
 VAL166  LYS551  ARG553  GLY616  TRP617  ASP618  TYR619  PRO620  LYS621  CYS622 
 ASP623  PHE694  ASN695  SER759  ASP760  ASP761  ALA762  ILE779  LEU786  VAL792 
 PHE793  MET794  SER795  GLU796  ALA797  LYS798  CYS799  TRP800  GLU811  SER814 

> <Gold.Protein.RotatedAtoms>
  152.4413  134.5585  159.9887 H   0  0  0  0  0  0  0  0  0  0  0  0  # atno 6907 bound_to 6896
  151.5682  133.3388  159.2992 H   0  0  0  0  0  0  0  0  0  0  0  0  # atno 6908 bound_to 6896
  150.8320  134.7610  159.6925 H   0  0  0  0  0  0  0  0  0  0  0  0  # atno 6909 bound_to 6896
  146.2412  139.9880  142.8429 H   0  0  0  0  0  0  0  0  0  0  0  0  # atno 7974 bound_to 7965
  154.6545  140.0575  156.9993 H   0  0  0  0  0  0  0  0  0  0  0  0  # atno 8008 bound_to 7997
  155.1321  140.3257  155.4453 H   0  0  0  0  0  0  0  0  0  0  0  0  # atno 8009 bound_to 7997
  156.2591  140.1979  156.6439 H   0  0  0  0  0  0  0  0  0  0  0  0  # atno 8010 bound_to 7997
  140.3891  144.1876  150.6130 H   0  0  0  0  0  0  0  0  0  0  0  0  # atno 10167 bound_to 10162
  156.8729  130.5626  149.5656 H   0  0  0  0  0  0  0  0  0  0  0  0  # atno 10718 bound_to 10713
  154.2568  135.2769  155.2794 H   0  0  0  0  0  0  0  0  0  0  0  0  # atno 10763 bound_to 10752
  154.5418  135.5700  153.6849 H   0  0  0  0  0  0  0  0  0  0  0  0  # atno 10764 bound_to 10752
  152.9970  135.6253  154.2717 H   0  0  0  0  0  0  0  0  0  0  0  0  # atno 10765 bound_to 10752
  141.1161  133.8611  157.1442 H   0  0  0  0  0  0  0  0  0  0  0  0  # atno 11005 bound_to 11000
  145.1529  140.9633  143.4422 LP  0  0  0  0  0  0  0  0  0  0  0  0  # atno 17320 bound_to 7965
  145.0188  139.3443  143.6083 LP  0  0  0  0  0  0  0  0  0  0  0  0  # atno 17321 bound_to 7965
  140.4858  143.2364  151.8890 LP  0  0  0  0  0  0  0  0  0  0  0  0  # atno 17342 bound_to 10162
  139.4790  144.5220  151.8788 LP  0  0  0  0  0  0  0  0  0  0  0  0  # atno 17343 bound_to 10162
  156.0717  130.5748  150.9396 LP  0  0  0  0  0  0  0  0  0  0  0  0  # atno 17370 bound_to 10713
  157.6185  131.0931  150.8665 LP  0  0  0  0  0  0  0  0  0  0  0  0  # atno 17371 bound_to 10713
  140.0084  134.9998  157.0343 LP  0  0  0  0  0  0  0  0  0  0  0  0  # atno 17394 bound_to 11000
  140.4641  134.1453  155.7195 LP  0  0  0  0  0  0  0  0  0  0  0  0  # atno 17395 bound_to 11000

$$$$
