AV-unprocessed.smi:2209|AV-procd|sdf|8947|dock6
  -GOLD-   2272012163D 1   1.00000     0.00000
 Structure written by MMmdl.
 26 27  0  0  0  0  0  0  0  0  2 V2000
  151.8415  140.7407  158.8443 C   0  0  0  0  0  0  0  0  0  0  0  0
  151.4919  140.4972  157.4156 C   0  0  0  0  0  0  0  0  0  0  0  0
  152.4079  140.1139  156.5348 N   0  0  0  0  0  0  0  0  0  0  0  0
  151.6819  140.0008  155.3404 O   0  0  0  0  0  0  0  0  0  0  0  0
  150.4056  140.3333  155.6500 C   0  0  0  0  0  0  0  0  0  0  0  0
  149.3683  140.3067  154.5714 C   0  0  2  0  0  0  0  0  0  0  0  0
  148.0080  140.8369  155.0629 C   0  0  0  0  0  0  0  0  0  0  0  0
  146.9679  140.7807  153.9333 C   0  0  0  0  0  0  0  0  0  0  0  0
  146.8748  139.3648  153.3408 C   0  0  0  0  0  0  0  0  0  0  0  0
  148.2010  138.9060  152.8729 N   0  3  0  0  0  0  0  0  0  0  0  0
  149.2246  138.9060  153.9419 C   0  0  0  0  0  0  0  0  0  0  0  0
  150.2285  140.6486  156.9316 N   0  0  0  0  0  0  0  0  0  0  0  0
  152.9034  140.5669  159.0226 H   0  0  0  0  0  0  0  0  0  0  0  0
  151.2704  140.0738  159.4905 H   0  0  0  0  0  0  0  0  0  0  0  0
  151.6109  141.7704  159.1177 H   0  0  0  0  0  0  0  0  0  0  0  0
  149.7138  140.9812  153.7859 H   0  0  0  0  0  0  0  0  0  0  0  0
  147.6590  140.2404  155.9069 H   0  0  0  0  0  0  0  0  0  0  0  0
  148.1093  141.8605  155.4256 H   0  0  0  0  0  0  0  0  0  0  0  0
  145.9929  141.0937  154.3083 H   0  0  0  0  0  0  0  0  0  0  0  0
  147.2395  141.4885  153.1489 H   0  0  0  0  0  0  0  0  0  0  0  0
  146.4931  138.6651  154.0856 H   0  0  0  0  0  0  0  0  0  0  0  0
  146.1775  139.3506  152.5028 H   0  0  0  0  0  0  0  0  0  0  0  0
  148.1123  137.9698  152.5041 H   0  0  0  0  0  0  0  0  0  0  0  0
  150.1750  138.5800  153.5182 H   0  0  0  0  0  0  0  0  0  0  0  0
  148.9454  138.1722  154.6995 H   0  0  0  0  0  0  0  0  0  0  0  0
  148.5088  139.5195  152.1317 H   0  0  0  0  0  0  0  0  0  0  0  0
  1  2  1  0  0  0  0
  1 13  1  0  0  0  0
  1 14  1  0  0  0  0
  1 15  1  0  0  0  0
  2 12  1  0  0  0  0
  2  3  2  0  0  0  0
  3  4  1  0  0  0  0
  4  5  1  0  0  0  0
  5  6  1  0  0  0  0
  5 12  2  0  0  0  0
  6 11  1  0  0  0  0
  6  7  1  0  0  0  0
  6 16  1  0  0  0  0
  7  8  1  0  0  0  0
  7 17  1  0  0  0  0
  7 18  1  0  0  0  0
  8  9  1  0  0  0  0
  8 19  1  0  0  0  0
  8 20  1  0  0  0  0
  9 10  1  0  0  0  0
  9 21  1  0  0  0  0
  9 22  1  0  0  0  0
 10 11  1  0  0  0  0
 10 23  1  0  0  0  0
 10 26  1  0  0  0  0
 11 24  1  0  0  0  0
 11 25  1  0  0  0  0
M  CHG  1  10   1
M  END
> <s_m_source_file>
AV-unprocessed.smi

> <i_m_source_file_index>
2209

> <i_lp_mmshare_version>
43012

> <i_f3d_flags>
0

> <s_epik_input>
W0NIM11jMW5vYyhuMSlbQ0BASF0yW0NIMl1bQ0gyXVtDSDJdW05IXVtDSDJdMg==

> <s_epik_cmdline>
J2VwaWtfcHl0aG9uJywgJy1waCcsICc3LjAnLCAnLXRuJywgJzgnLCAnLW1hJywgJzIwMCcsICctbWV0YWxfYmluZGluZycsICctaW1hZScsICc8aW5maWxlLm1hZT4nLCAnLW9tYWUnLCAnPG91dGZpbGUubWFlPic=

> <r_lp_tautomer_probability>
1

> <r_epik_Ionization_Penalty>
0.000532935

> <r_epik_Ionization_Penalty_Charging>
0.000532935

> <r_epik_Ionization_Penalty_Neutral>
4.97553e-13

> <r_epik_State_Penalty>
0.000332992

> <r_epik_Charging_Adjusted_Penalty>
0.000865928

> <i_epik_Tot_Q>
1

> <i_epik_Tot_abs_Q>
1

> <r_epik_Metal_State_Penalty>
-0

> <b_epik_Metal_Only>
0

> <s_lp_Force_Field>
OPLS_2005

> <r_lp_Energy>
10.4199

> <b_lp_Chiralities_Consistent>
1

> <s_lp_Variant>
AV-unprocessed.smi:2209-1

> <Gold.Version>
5.8.1

> <Gold.Id.Protein>
6NUR|6NUR_protein|mol2

> <Gold.PLP.Fitness>
34.0072

> <Gold.PLP.PLP>
-19.7804

> <Gold.PLP.part.hbond>
-3.8131

> <Gold.PLP.part.metal>
0.0000

> <Gold.PLP.part.buried>
-1.3683

> <Gold.PLP.part.nonpolar>
-15.0453

> <Gold.PLP.part.repulsive>
0.1202

> <Gold.PLP.ligand.clash>
0.0000

> <Gold.PLP.ligand.torsion>
0.0313

> <Gold.PLP.Chemscore.Hbond>
4.7520

> <Gold.PLP.Chemscore.CHOScore>
0.0000

> <Gold.PLP.Chemscore.Metal>
0.0000

> <Gold.Chemscore.Hbonds>
donor molecule, donor type, donor heavy atom, donor atom, acceptor molecule, acceptor atom, score
      L1  H    10    23       P1  7948  1.98
      L1  H    10    26       P1  7957  1.00
      P1  H  7989  7998       L1     4  0.72
      P1  H  7997  8008       L1     3  1.00

> <Gold.PLP.Chemscore.Internal.Correction>
0.0335

> <Gold.Rescore>
     Score         DG    S(hbond)    S(metal)    S(lipo)     H(rot)  DE(clash)    DE(int)     intcor
     16.98     -17.15       2.99        0.00      36.35       1.00       0.11       0.06       ----

> <Gold.Chemscore.Fitness>
16.9800

> <Gold.Chemscore.DG>
-17.1485

> <Gold.Chemscore.ZeroCoef>
-5.4800

> <Gold.Chemscore.Hbond>
2.9866

> <Gold.Chemscore.Metal>
0.0000

> <Gold.Chemscore.Lipo>
36.3533

> <Gold.Chemscore.Internal_Hbond>
0.0000

> <Gold.Chemscore.DEClash>
0.1087

> <Gold.Chemscore.DEInternal>
0.0598

> <Gold.Chemscore.Rot>
1.0000

> <Gold.Chemscore.Internal.Correction>
   9.000000E+99

> <Gold.Chemscore.Hbonds>
donor molecule, donor type, donor heavy atom, donor atom, acceptor molecule, acceptor atom, score
      L1  H    10    23       P1  7948  0.90
      L1  H    10    26       P1  7957  0.91
      P1  H  7989  7998       L1     4  0.08
      P1  H  7997  8008       L1     3  0.82

> <Gold.Chemscore.Hbond.Weighted>
-9.9752

> <Gold.Chemscore.Metal.Weighted>
-0.0000

> <Gold.Chemscore.Lipo.Weighted>
-4.2533

> <Gold.Chemscore.Internal_Hbond.Weighted>
0.0000

> <Gold.Chemscore.DEClash.Weighted>
0.1087

> <Gold.Chemscore.DEInternal.Weighted>
0.0598

> <Gold.Chemscore.Rot.Weighted>
2.5600

> <Gold.Chemscore.Internal.Correction.Weighted>
   9.000000E+99

> <Gold.Protein.RotatedTorsions>
[ 6907 6896 6895 6894 ] final   37.48 input  -60.11 | X-H torsion
[ 7974 7965 7964 7962 ] final   73.69 input  175.53 | X-H torsion
[ 8008 7997 7996 7995 ] final  -37.18 input   59.86 | X-H torsion
[ 10167 10162 10161 10158 ] final   90.69 input  -65.29 | X-H torsion
[ 10718 10713 10712 10709 ] final -174.31 input   66.30 | X-H torsion
[ 10763 10752 10751 10750 ] final   33.56 input  -60.55 | X-H torsion
[ 11005 11000 10999 10996 ] final -172.34 input  -57.11 | X-H torsion

> <Gold.Protein.ActiveResidues>
 VAL166  LYS551  ARG553  GLY616  TRP617  ASP618  TYR619  PRO620  LYS621  CYS622 
 ASP623  PHE694  ASN695  SER759  ASP760  ASP761  ALA762  ILE779  LEU786  VAL792 
 PHE793  MET794  SER795  GLU796  ALA797  LYS798  CYS799  TRP800  GLU811  SER814 

> <Gold.Protein.RotatedAtoms>
  152.1437  134.9043  160.0552 H   0  0  0  0  0  0  0  0  0  0  0  0  # atno 6907 bound_to 6896
  152.0101  133.3853  159.4224 H   0  0  0  0  0  0  0  0  0  0  0  0  # atno 6908 bound_to 6896
  150.6868  134.3661  159.5015 H   0  0  0  0  0  0  0  0  0  0  0  0  # atno 6909 bound_to 6896
  145.7376  139.2708  143.1505 H   0  0  0  0  0  0  0  0  0  0  0  0  # atno 7974 bound_to 7965
  154.4058  140.1611  156.2494 H   0  0  0  0  0  0  0  0  0  0  0  0  # atno 8008 bound_to 7997
  155.9132  140.3426  155.6092 H   0  0  0  0  0  0  0  0  0  0  0  0  # atno 8009 bound_to 7997
  155.7311  140.0780  157.2279 H   0  0  0  0  0  0  0  0  0  0  0  0  # atno 8010 bound_to 7997
  139.8448  144.6623  150.9240 H   0  0  0  0  0  0  0  0  0  0  0  0  # atno 10167 bound_to 10162
  156.7832  130.9491  151.3120 H   0  0  0  0  0  0  0  0  0  0  0  0  # atno 10718 bound_to 10713
  153.0206  135.6384  154.1530 H   0  0  0  0  0  0  0  0  0  0  0  0  # atno 10763 bound_to 10752
  154.1265  135.2843  155.3197 H   0  0  0  0  0  0  0  0  0  0  0  0  # atno 10764 bound_to 10752
  154.6225  135.5520  153.7653 H   0  0  0  0  0  0  0  0  0  0  0  0  # atno 10765 bound_to 10752
  140.4981  134.5920  157.4978 H   0  0  0  0  0  0  0  0  0  0  0  0  # atno 11005 bound_to 11000
  146.0478  140.8100  142.9797 LP  0  0  0  0  0  0  0  0  0  0  0  0  # atno 17320 bound_to 7965
  144.6878  140.3007  143.7264 LP  0  0  0  0  0  0  0  0  0  0  0  0  # atno 17321 bound_to 7965
  140.7794  143.3880  151.1359 LP  0  0  0  0  0  0  0  0  0  0  0  0  # atno 17342 bound_to 10162
  139.7523  143.8759  152.3080 LP  0  0  0  0  0  0  0  0  0  0  0  0  # atno 17343 bound_to 10162
  157.6636  130.8988  149.9884 LP  0  0  0  0  0  0  0  0  0  0  0  0  # atno 17370 bound_to 10713
  156.1205  130.3646  149.9895 LP  0  0  0  0  0  0  0  0  0  0  0  0  # atno 17371 bound_to 10713
  139.9730  134.7262  156.0005 LP  0  0  0  0  0  0  0  0  0  0  0  0  # atno 17394 bound_to 11000
  141.1450  133.6557  156.3840 LP  0  0  0  0  0  0  0  0  0  0  0  0  # atno 17395 bound_to 11000

$$$$
