AV-unprocessed.smi:1956|AV-procd|sdf|7902|dock5
  -GOLD-   2272010 53D 1   1.00000     0.00000
 Structure written by MMmdl.
 46 47  0  0  0  0  0  0  0  0  2 V2000
  135.9058  137.2031  154.5679 C   0  0  0  0  0  0  0  0  0  0  0  0
  136.6619  138.3971  154.3981 O   0  0  0  0  0  0  0  0  0  0  0  0
  137.9950  138.2853  154.0601 C   0  0  0  0  0  0  0  0  0  0  0  0
  138.6292  137.0377  154.2199 C   0  0  0  0  0  0  0  0  0  0  0  0
  139.9891  136.9137  153.8767 C   0  0  0  0  0  0  0  0  0  0  0  0
  140.6775  138.0487  153.3823 C   0  0  0  0  0  0  0  0  0  0  0  0
  142.0458  138.0710  152.9922 N   0  0  0  0  0  0  0  0  0  0  0  0
  142.9403  137.0685  152.9447 C   0  0  0  0  0  0  0  0  0  0  0  0
  142.7258  135.8966  153.2518 O   0  0  0  0  0  0  0  0  0  0  0  0
  144.1319  137.5044  152.5114 N   0  0  0  0  0  0  0  0  0  0  0  0
  145.3184  136.6705  152.3554 C   0  0  0  0  0  0  0  0  0  0  0  0
  145.5999  136.3568  150.8728 C   0  0  0  0  0  0  0  0  0  0  0  0
  145.5098  134.9051  150.5756 N   0  3  1  0  0  0  0  0  0  0  0  0
  146.6212  134.1343  151.1909 C   0  0  0  0  0  0  0  0  0  0  0  0
  146.5977  132.6669  150.7347 C   0  0  0  0  0  0  0  0  0  0  0  0
  145.2406  132.0168  151.0386 C   0  0  0  0  0  0  0  0  0  0  0  0
  144.0804  132.8458  150.4570 C   0  0  2  0  0  0  0  0  0  0  0  0
  143.9630  132.7181  148.9280 C   0  0  0  0  0  0  0  0  0  0  0  0
  144.1849  134.3161  150.9120 C   0  0  0  0  0  0  0  0  0  0  0  0
  139.9486  139.2502  153.2584 C   0  0  0  0  0  0  0  0  0  0  0  0
  138.6456  139.3758  153.5857 N   0  0  0  0  0  0  0  0  0  0  0  0
  134.8804  137.4605  154.8330 H   0  0  0  0  0  0  0  0  0  0  0  0
  136.3098  136.5847  155.3709 H   0  0  0  0  0  0  0  0  0  0  0  0
  135.8726  136.6183  153.6475 H   0  0  0  0  0  0  0  0  0  0  0  0
  138.0810  136.1878  154.5993 H   0  0  0  0  0  0  0  0  0  0  0  0
  140.4607  135.9525  153.9996 H   0  0  0  0  0  0  0  0  0  0  0  0
  142.3929  138.9791  152.7199 H   0  0  0  0  0  0  0  0  0  0  0  0
  144.2273  138.4835  152.2832 H   0  0  0  0  0  0  0  0  0  0  0  0
  146.1513  137.2091  152.8055 H   0  0  0  0  0  0  0  0  0  0  0  0
  145.2020  135.7474  152.9260 H   0  0  0  0  0  0  0  0  0  0  0  0
  144.8649  136.8867  150.2655 H   0  0  0  0  0  0  0  0  0  0  0  0
  146.5772  136.7379  150.5723 H   0  0  0  0  0  0  0  0  0  0  0  0
  147.5786  134.5759  150.9120 H   0  0  0  0  0  0  0  0  0  0  0  0
  146.5489  134.1935  152.2781 H   0  0  0  0  0  0  0  0  0  0  0  0
  146.8087  132.6097  149.6663 H   0  0  0  0  0  0  0  0  0  0  0  0
  147.3935  132.1116  151.2318 H   0  0  0  0  0  0  0  0  0  0  0  0
  145.2144  130.9964  150.6544 H   0  0  0  0  0  0  0  0  0  0  0  0
  145.1181  131.9383  152.1197 H   0  0  0  0  0  0  0  0  0  0  0  0
  143.1551  132.4414  150.8697 H   0  0  0  0  0  0  0  0  0  0  0  0
  144.8358  133.1233  148.4159 H   0  0  0  0  0  0  0  0  0  0  0  0
  143.0879  133.2529  148.5578 H   0  0  0  0  0  0  0  0  0  0  0  0
  143.8582  131.6747  148.6290 H   0  0  0  0  0  0  0  0  0  0  0  0
  144.0325  134.3796  151.9908 H   0  0  0  0  0  0  0  0  0  0  0  0
  143.3799  134.8896  150.4540 H   0  0  0  0  0  0  0  0  0  0  0  0
  140.4260  140.1437  152.8835 H   0  0  0  0  0  0  0  0  0  0  0  0
  145.6276  134.8142  149.5765 H   0  0  0  0  0  0  0  0  0  0  0  0
  1  2  1  0  0  0  0
  1 22  1  0  0  0  0
  1 23  1  0  0  0  0
  1 24  1  0  0  0  0
  2  3  1  0  0  0  0
  3 21  1  0  0  0  0
  3  4  2  0  0  0  0
  4  5  1  0  0  0  0
  4 25  1  0  0  0  0
  5  6  2  0  0  0  0
  5 26  1  0  0  0  0
  6  7  1  0  0  0  0
  6 20  1  0  0  0  0
  7  8  1  0  0  0  0
  7 27  1  0  0  0  0
  8  9  2  0  0  0  0
  8 10  1  0  0  0  0
 10 11  1  0  0  0  0
 10 28  1  0  0  0  0
 11 12  1  0  0  0  0
 11 29  1  0  0  0  0
 11 30  1  0  0  0  0
 12 13  1  0  0  0  0
 12 31  1  0  0  0  0
 12 32  1  0  0  0  0
 13 19  1  0  0  0  0
 13 14  1  0  0  0  0
 13 46  1  0  0  0  0
 14 15  1  0  0  0  0
 14 33  1  0  0  0  0
 14 34  1  0  0  0  0
 15 16  1  0  0  0  0
 15 35  1  0  0  0  0
 15 36  1  0  0  0  0
 16 17  1  0  0  0  0
 16 37  1  0  0  0  0
 16 38  1  0  0  0  0
 17 18  1  0  0  0  0
 17 19  1  0  0  0  0
 17 39  1  0  0  0  0
 18 40  1  0  0  0  0
 18 41  1  0  0  0  0
 18 42  1  0  0  0  0
 19 43  1  0  0  0  0
 19 44  1  0  0  0  0
 20 21  2  0  0  0  0
 20 45  1  0  0  0  0
M  CHG  1  13   1
M  END
> <s_m_source_file>
AV-unprocessed.smi

> <i_m_source_file_index>
1956

> <i_lp_mmshare_version>
43012

> <i_f3d_flags>
0

> <s_epik_input>
W0NIM11PYzFbY0hdW2NIXWMoW2NIXW4xKVtOSF1DKD1PKVtOSF1bQ0gyXVtDSDJdTjJbQ0gyXVtDSDJdW0NIMl1bQ0BASF0oW0NIM10pW0NIMl0y

> <s_epik_cmdline>
J2VwaWtfcHl0aG9uJywgJy1waCcsICc3LjAnLCAnLXRuJywgJzgnLCAnLW1hJywgJzIwMCcsICctbWV0YWxfYmluZGluZycsICctaW1hZScsICc8aW5maWxlLm1hZT4nLCAnLW9tYWUnLCAnPG91dGZpbGUubWFlPic=

> <r_lp_tautomer_probability>
1

> <r_epik_Ionization_Penalty>
0.00179545

> <r_epik_Ionization_Penalty_Charging>
0.00171832

> <r_epik_Ionization_Penalty_Neutral>
7.7124e-05

> <r_epik_State_Penalty>
0.0011618

> <r_epik_Charging_Adjusted_Penalty>
0.00288012

> <i_epik_Tot_Q>
1

> <i_epik_Tot_abs_Q>
1

> <r_epik_Metal_State_Penalty>
-0

> <b_epik_Metal_Only>
0

> <s_lp_Force_Field>
OPLS_2005

> <r_lp_Energy>
22.555

> <b_lp_Chiralities_Consistent>
1

> <s_lp_Variant>
AV-unprocessed.smi:1956-3

> <Gold.Version>
5.8.1

> <Gold.Id.Protein>
6NUR|6NUR_protein|mol2

> <Gold.PLP.Fitness>
51.6933

> <Gold.PLP.PLP>
-41.6495

> <Gold.PLP.part.hbond>
-4.0000

> <Gold.PLP.part.metal>
0.0000

> <Gold.PLP.part.buried>
-2.6051

> <Gold.PLP.part.nonpolar>
-35.4753

> <Gold.PLP.part.repulsive>
0.3566

> <Gold.PLP.ligand.clash>
0.0000

> <Gold.PLP.ligand.torsion>
0.6898

> <Gold.PLP.Chemscore.Hbond>
2.9913

> <Gold.PLP.Chemscore.CHOScore>
0.8010

> <Gold.PLP.Chemscore.Metal>
0.0000

> <Gold.Chemscore.Hbonds>
donor molecule, donor type, donor heavy atom, donor atom, acceptor molecule, acceptor atom, score
      L1  H     7    27       P1 10175  1.00
      L1  H    10    28       P1 10175  0.98
      L1  H    13    46       P1  7921  1.00
      L1  C    20    45       P1 10160  0.81

> <Gold.PLP.Chemscore.Internal.Correction>
0.0468

> <Gold.Rescore>
     Score         DG    S(hbond)    S(metal)    S(lipo)     H(rot)  DE(clash)    DE(int)     intcor
     19.56     -21.68       2.61        0.00     101.22       1.71       0.53       1.60       ----

> <Gold.Chemscore.Fitness>
19.5553

> <Gold.Chemscore.DG>
-21.6773

> <Gold.Chemscore.ZeroCoef>
-5.4800

> <Gold.Chemscore.Hbond>
2.6150

> <Gold.Chemscore.Metal>
0.0000

> <Gold.Chemscore.Lipo>
101.2207

> <Gold.Chemscore.Internal_Hbond>
0.0000

> <Gold.Chemscore.DEClash>
0.5261

> <Gold.Chemscore.DEInternal>
1.5959

> <Gold.Chemscore.Rot>
1.7107

> <Gold.Chemscore.Internal.Correction>
   9.000000E+99

> <Gold.Chemscore.Hbonds>
donor molecule, donor type, donor heavy atom, donor atom, acceptor molecule, acceptor atom, score
      L1  H     7    27       P1 10175  0.98
      L1  H    10    28       P1 10175  0.88
      L1  H    13    46       P1  7921  0.93

> <Gold.Chemscore.Hbond.Weighted>
-8.7339

> <Gold.Chemscore.Metal.Weighted>
-0.0000

> <Gold.Chemscore.Lipo.Weighted>
-11.8428

> <Gold.Chemscore.Internal_Hbond.Weighted>
0.0000

> <Gold.Chemscore.DEClash.Weighted>
0.5261

> <Gold.Chemscore.DEInternal.Weighted>
1.5959

> <Gold.Chemscore.Rot.Weighted>
4.3794

> <Gold.Chemscore.Internal.Correction.Weighted>
   9.000000E+99

> <Gold.Protein.RotatedTorsions>
[ 6907 6896 6895 6894 ] final    4.85 input  -60.11 | X-H torsion
[ 7974 7965 7964 7962 ] final  -12.60 input  175.53 | X-H torsion
[ 8008 7997 7996 7995 ] final   40.06 input   59.86 | X-H torsion
[ 10167 10162 10161 10158 ] final  147.57 input  -65.29 | X-H torsion
[ 10718 10713 10712 10709 ] final   81.71 input   66.30 | X-H torsion
[ 10763 10752 10751 10750 ] final   20.12 input  -60.55 | X-H torsion
[ 11005 11000 10999 10996 ] final -128.97 input  -57.11 | X-H torsion

> <Gold.Protein.ActiveResidues>
 VAL166  LYS551  ARG553  GLY616  TRP617  ASP618  TYR619  PRO620  LYS621  CYS622 
 ASP623  PHE694  ASN695  SER759  ASP760  ASP761  ALA762  ILE779  LEU786  VAL792 
 PHE793  MET794  SER795  GLU796  ALA797  LYS798  CYS799  TRP800  GLU811  SER814 

> <Gold.Protein.RotatedAtoms>
  151.6480  135.1005  160.0154 H   0  0  0  0  0  0  0  0  0  0  0  0  # atno 6907 bound_to 6896
  152.4017  133.6823  159.6330 H   0  0  0  0  0  0  0  0  0  0  0  0  # atno 6908 bound_to 6896
  150.7916  133.8697  159.3296 H   0  0  0  0  0  0  0  0  0  0  0  0  # atno 6909 bound_to 6896
  146.2146  140.3081  142.8380 H   0  0  0  0  0  0  0  0  0  0  0  0  # atno 7974 bound_to 7965
  155.2469  140.3349  155.4286 H   0  0  0  0  0  0  0  0  0  0  0  0  # atno 8008 bound_to 7997
  156.2232  140.1818  156.7471 H   0  0  0  0  0  0  0  0  0  0  0  0  # atno 8009 bound_to 7997
  154.5857  140.0646  156.9153 H   0  0  0  0  0  0  0  0  0  0  0  0  # atno 8010 bound_to 7997
  139.4888  144.5745  151.6992 H   0  0  0  0  0  0  0  0  0  0  0  0  # atno 10167 bound_to 10162
  157.6840  131.0016  150.2267 H   0  0  0  0  0  0  0  0  0  0  0  0  # atno 10718 bound_to 10713
  153.1104  135.6695  153.9510 H   0  0  0  0  0  0  0  0  0  0  0  0  # atno 10763 bound_to 10752
  153.9055  135.3031  155.3450 H   0  0  0  0  0  0  0  0  0  0  0  0  # atno 10764 bound_to 10752
  154.7524  135.5028  153.9390 H   0  0  0  0  0  0  0  0  0  0  0  0  # atno 10765 bound_to 10752
  140.9471  134.1116  157.4097 H   0  0  0  0  0  0  0  0  0  0  0  0  # atno 11005 bound_to 11000
  144.9008  140.7640  143.5868 LP  0  0  0  0  0  0  0  0  0  0  0  0  # atno 17320 bound_to 7965
  145.3007  139.1851  143.4691 LP  0  0  0  0  0  0  0  0  0  0  0  0  # atno 17321 bound_to 7965
  140.5339  144.0687  150.6063 LP  0  0  0  0  0  0  0  0  0  0  0  0  # atno 17342 bound_to 10162
  140.3687  143.2867  152.0303 LP  0  0  0  0  0  0  0  0  0  0  0  0  # atno 17343 bound_to 10162
  156.2908  130.3745  149.7843 LP  0  0  0  0  0  0  0  0  0  0  0  0  # atno 17370 bound_to 10713
  156.5503  130.8339  151.3297 LP  0  0  0  0  0  0  0  0  0  0  0  0  # atno 17371 bound_to 10713
  139.8836  135.0054  156.6315 LP  0  0  0  0  0  0  0  0  0  0  0  0  # atno 17394 bound_to 11000
  140.7654  133.8782  155.8450 LP  0  0  0  0  0  0  0  0  0  0  0  0  # atno 17395 bound_to 11000

$$$$
