#       Name:                AV-unprocessed.smi:1632
#       Creating user name   scv26
#       Creation time:       Fri Mar 27 07:21:01 2020


#       File generated by GOLD software.
#

@<TRIPOS>MOLECULE
AV-unprocessed.smi:1632
    47    49     1
SMALL
NO_CHARGES


@<TRIPOS>ATOM
      1 ****        -2.2815   3.9784  -1.8427 O.3            1 S1                 0.0000
      2 ****        -1.7864   2.8688  -1.1268 C.3            1 S1                 0.0000
      3 ****        -1.9988   3.0886   0.3793 C.3            1 S1                 0.0000
      4 ****        -1.5154   1.9172   1.2502 C.3            1 S1                 0.0000
      5 ****        -0.0385   1.7019   1.1465 C.2            1 S1                 0.0000
      6 ****         0.9192   2.4769   1.7292 N.pl3          1 S1                 1.0000
      7 ****         2.1852   1.9876   1.4065 C.ar           1 S1                 0.0000
      8 ****         3.4528   2.4368   1.7638 C.ar           1 S1                 0.0000
      9 ****         4.5483   1.7036   1.2628 C.ar           1 S1                 0.0000
     10 ****         4.3608   0.5720   0.4428 C.ar           1 S1                 0.0000
     11 ****         3.0707   0.1266   0.0874 C.ar           1 S1                 0.0000
     12 ****         1.9922   0.8586   0.5846 C.ar           1 S1                 0.0000
     13 ****         0.6050   0.7216   0.4485 N.pl3          1 S1                 0.0000
     14 ****         0.0614  -0.3774  -0.3662 C.3            1 S1                 0.0000
     15 ****        -0.3021  -1.6215   0.4700 C.3            1 S1                 0.0000
     16 ****         0.8310  -2.0969   1.1704 O.3            1 S1                 0.0000
     17 ****        -0.9464  -2.7021  -0.3869 C.ar           1 S1                 0.0000
     18 ****        -2.3266  -2.9674  -0.2513 C.ar           1 S1                 0.0000
     19 ****        -2.9428  -3.9586  -1.0392 C.ar           1 S1                 0.0000
     20 ****        -2.1830  -4.6911  -1.9703 C.ar           1 S1                 0.0000
     21 ****        -0.8071  -4.4305  -2.1138 C.ar           1 S1                 0.0000
     22 ****        -0.1882  -3.4392  -1.3272 C.ar           1 S1                 0.0000
     23 ****         1.1359  -3.1988  -1.4846 F              1 S1                 0.0000
     24 ****        -2.1559   3.8222  -2.7664 H              1 S1                 0.0000
     25 ****        -2.3048   1.9704  -1.4620 H              1 S1                 0.0000
     26 ****        -0.7291   2.7456  -1.3624 H              1 S1                 0.0000
     27 ****        -1.4957   4.0050   0.6906 H              1 S1                 0.0000
     28 ****        -3.0614   3.2468   0.5678 H              1 S1                 0.0000
     29 ****        -1.7628   2.1115   2.2941 H              1 S1                 0.0000
     30 ****        -2.0421   1.0026   0.9774 H              1 S1                 0.0000
     31 ****         3.5986   3.3021   2.3938 H              1 S1                 0.0000
     32 ****         5.5523   2.0141   1.5137 H              1 S1                 0.0000
     33 ****         5.2238   0.0329   0.0797 H              1 S1                 0.0000
     34 ****         2.9399  -0.7461  -0.5355 H              1 S1                 0.0000
     35 ****        -0.8288   0.0014  -0.8685 H              1 S1                 0.0000
     36 ****         0.7681  -0.6186  -1.1598 H              1 S1                 0.0000
     37 ****        -1.0213  -1.3203   1.2326 H              1 S1                 0.0000
     38 ****         0.5574  -2.7985   1.7417 H              1 S1                 0.0000
     39 ****        -2.9212  -2.4107   0.4582 H              1 S1                 0.0000
     40 ****        -3.9990  -4.1564  -0.9292 H              1 S1                 0.0000
     41 ****        -2.6554  -5.4513  -2.5749 H              1 S1                 0.0000
     42 ****        -0.2249  -4.9914  -2.8301 H              1 S1                 0.0000
     43 ****         0.7179   3.2838   2.3056 H              1 S1                 0.0000
     44 ****        -1.7862   4.8033  -1.5702 LP             1 S1                 0.0000
     45 ****        -3.2558   4.0958  -1.6504 LP             1 S1                 0.0000
     46 ****         1.2281  -1.3561   1.7121 LP             1 S1                 0.0000
     47 ****         1.5112  -2.4365   0.5208 LP             1 S1                 0.0000
@<TRIPOS>BOND
    1    1    2 1     
    2    1   24 1     
    3    2    3 1     
    4    2   25 1     
    5    2   26 1     
    6    3    4 1     
    7    3   27 1     
    8    3   28 1     
    9    4    5 1     
   10    4   29 1     
   11    4   30 1     
   12    5   13 1     
   13    5    6 2     
   14    6    7 1     
   15    6   43 1     
   16    7   12 ar    
   17    7    8 ar    
   18    8    9 ar    
   19    8   31 1     
   20    9   10 ar    
   21    9   32 1     
   22   10   11 ar    
   23   10   33 1     
   24   11   12 ar    
   25   11   34 1     
   26   12   13 1     
   27   13   14 1     
   28   14   15 1     
   29   14   35 1     
   30   14   36 1     
   31   15   16 1     
   32   15   17 1     
   33   15   37 1     
   34   16   38 1     
   35   17   22 ar    
   36   17   18 ar    
   37   18   19 ar    
   38   18   39 1     
   39   19   20 ar    
   40   19   40 1     
   41   20   21 ar    
   42   20   41 1     
   43   21   22 ar    
   44   21   42 1     
   45   22   23 1     
   46    1   44 1     
   47    1   45 1     
   48   16   46 1     
   49   16   47 1     
@<TRIPOS>SUBSTRUCTURE
      1 S1             1
@<TRIPOS>SET
LONE_PAIRS      STATIC     ATOMS    <user>   **** ""
4 44 45 46 47
DONOR_HYDROGENS      STATIC     ATOMS    <user>   **** ""
3 24 43 38
ATOM$BLUE        STATIC     ATOMS    COLORGROUP SYSTEM
4 44 45 46 47
ATOM$RED        STATIC     ATOMS    COLORGROUP SYSTEM
3 24 43 38
