AV-unprocessed.smi:3254|AV-procd|sdf|12456|dock7
  -GOLD-   2272018353D 1   1.00000     0.00000
 Structure written by MMmdl.
 36 37  0  0  0  0  0  0  0  0  1 V2000
  150.7868  141.7244  157.7543 C   0  0  0  0  0  0  0  0  0  0  0  0
  150.7361  141.9307  156.2342 C   0  0  0  0  0  0  0  0  0  0  0  0
  150.6285  140.6614  155.5193 N   0  0  0  0  0  0  0  0  0  0  0  0
  149.4969  140.3949  154.6473 C   0  0  0  0  0  0  0  0  0  0  0  0
  149.6225  138.9101  154.2414 C   0  0  2  0  0  0  0  0  0  0  0  0
  148.5236  138.0395  154.8708 C   0  0  0  0  0  0  0  0  0  0  0  0
  148.3109  138.0892  156.0829 O   0  0  0  0  0  0  0  0  0  0  0  0
  147.8300  137.2516  154.0350 N   0  0  0  0  0  0  0  0  0  0  0  0
  146.7472  136.3605  154.4333 C   0  0  0  0  0  0  0  0  0  0  0  0
  145.3885  136.8481  153.9036 C   0  0  0  0  0  0  0  0  0  0  0  0
  144.9745  136.0979  152.7357 N   0  0  0  0  0  0  0  0  0  0  0  0
  145.6116  136.0503  151.5029 C   0  0  0  0  0  0  0  0  0  0  0  0
  144.8606  135.2165  150.7050 C   0  0  0  0  0  0  0  0  0  0  0  0
  143.7635  134.7444  151.4218 N   0  0  0  0  0  0  0  0  0  0  0  0
  143.8983  135.3086  152.6151 C   0  0  0  0  0  0  0  0  0  0  0  0
  151.0259  138.4815  154.7145 C   0  0  0  0  0  0  0  0  0  0  0  0
  151.4976  139.6459  155.5691 C   0  0  0  0  0  0  0  0  0  0  0  0
  152.5431  139.6165  156.2167 O   0  0  0  0  0  0  0  0  0  0  0  0
  150.8918  142.6789  158.2703 H   0  0  0  0  0  0  0  0  0  0  0  0
  151.6332  141.0984  158.0381 H   0  0  0  0  0  0  0  0  0  0  0  0
  149.8780  141.2484  158.1235 H   0  0  0  0  0  0  0  0  0  0  0  0
  149.8909  142.5684  155.9713 H   0  0  0  0  0  0  0  0  0  0  0  0
  151.6321  142.4591  155.9067 H   0  0  0  0  0  0  0  0  0  0  0  0
  148.5580  140.6197  155.1567 H   0  0  0  0  0  0  0  0  0  0  0  0
  149.5581  141.0421  153.7715 H   0  0  0  0  0  0  0  0  0  0  0  0
  149.5628  138.8260  153.1549 H   0  0  0  0  0  0  0  0  0  0  0  0
  148.0692  137.2707  153.0540 H   0  0  0  0  0  0  0  0  0  0  0  0
  146.9652  135.3671  154.0402 H   0  0  0  0  0  0  0  0  0  0  0  0
  146.7243  136.2661  155.5205 H   0  0  0  0  0  0  0  0  0  0  0  0
  144.6153  136.7463  154.6661 H   0  0  0  0  0  0  0  0  0  0  0  0
  145.4378  137.9057  153.6408 H   0  0  0  0  0  0  0  0  0  0  0  0
  146.5199  136.5990  151.3008 H   0  0  0  0  0  0  0  0  0  0  0  0
  145.0239  134.9235  149.6783 H   0  0  0  0  0  0  0  0  0  0  0  0
  143.1966  135.1451  153.4198 H   0  0  0  0  0  0  0  0  0  0  0  0
  151.0328  137.5562  155.2930 H   0  0  0  0  0  0  0  0  0  0  0  0
  151.7030  138.3545  153.8694 H   0  0  0  0  0  0  0  0  0  0  0  0
  1  2  1  0  0  0  0
  1 19  1  0  0  0  0
  1 20  1  0  0  0  0
  1 21  1  0  0  0  0
  2  3  1  0  0  0  0
  2 22  1  0  0  0  0
  2 23  1  0  0  0  0
  3 17  1  0  0  0  0
  3  4  1  0  0  0  0
  4  5  1  0  0  0  0
  4 24  1  0  0  0  0
  4 25  1  0  0  0  0
  5  6  1  0  0  0  0
  5 16  1  0  0  0  0
  5 26  1  0  0  0  0
  6  7  2  0  0  0  0
  6  8  1  0  0  0  0
  8  9  1  0  0  0  0
  8 27  1  0  0  0  0
  9 10  1  0  0  0  0
  9 28  1  0  0  0  0
  9 29  1  0  0  0  0
 10 11  1  0  0  0  0
 10 30  1  0  0  0  0
 10 31  1  0  0  0  0
 11 15  1  0  0  0  0
 11 12  1  0  0  0  0
 12 13  2  0  0  0  0
 12 32  1  0  0  0  0
 13 14  1  0  0  0  0
 13 33  1  0  0  0  0
 14 15  2  0  0  0  0
 15 34  1  0  0  0  0
 16 17  1  0  0  0  0
 16 35  1  0  0  0  0
 16 36  1  0  0  0  0
 17 18  2  0  0  0  0
M  END
> <s_m_source_file>
AV-unprocessed.smi

> <i_m_source_file_index>
3254

> <i_lp_mmshare_version>
43012

> <i_f3d_flags>
0

> <s_epik_input>
W0NIM11bQ0gyXU4xW0NIMl1bQ0BIXShbQ0gyXUMxPU8pQyg9TylbTkhdW0NIMl1bQ0gyXW4yW2NIXVtjSF1uW2NIXTI=

> <s_epik_cmdline>
J2VwaWtfcHl0aG9uJywgJy1waCcsICc3LjAnLCAnLXRuJywgJzgnLCAnLW1hJywgJzIwMCcsICctbWV0YWxfYmluZGluZycsICctaW1hZScsICc8aW5maWxlLm1hZT4nLCAnLW9tYWUnLCAnPG91dGZpbGUubWFlPic=

> <r_lp_tautomer_probability>
1

> <r_epik_Ionization_Penalty>
0.587394

> <r_epik_Ionization_Penalty_Charging>
0.587394

> <r_epik_Ionization_Penalty_Neutral>
3.11583e-08

> <r_epik_State_Penalty>
0.600671

> <r_epik_Charging_Adjusted_Penalty>
1.18807

> <i_epik_Tot_Q>
0

> <i_epik_Tot_abs_Q>
0

> <r_epik_Metal_State_Penalty>
0.297665

> <b_epik_Metal_Only>
0

> <s_lp_Force_Field>
OPLS_2005

> <r_lp_Energy>
13.3235

> <b_lp_Chiralities_Consistent>
1

> <s_lp_Variant>
AV-unprocessed.smi:3254-4

> <Gold.Version>
5.8.1

> <Gold.Id.Protein>
6NUR|6NUR_protein|mol2

> <Gold.PLP.Fitness>
41.2655

> <Gold.PLP.PLP>
-30.9191

> <Gold.PLP.part.hbond>
-2.0000

> <Gold.PLP.part.metal>
0.0000

> <Gold.PLP.part.buried>
-4.0231

> <Gold.PLP.part.nonpolar>
-25.9864

> <Gold.PLP.part.repulsive>
0.2177

> <Gold.PLP.ligand.clash>
0.0000

> <Gold.PLP.ligand.torsion>
0.4622

> <Gold.PLP.Chemscore.Hbond>
1.7520

> <Gold.PLP.Chemscore.CHOScore>
2.0000

> <Gold.PLP.Chemscore.Metal>
0.0000

> <Gold.Chemscore.Hbonds>
donor molecule, donor type, donor heavy atom, donor atom, acceptor molecule, acceptor atom, score
      L1  H     8    27       P1  7948  0.77
      P1  H  7997  8008       L1    18  1.00
      L1  C    12    32       P1  7948  1.00
      L1  C    13    33       P1  7921  1.00

> <Gold.PLP.Chemscore.Internal.Correction>
0.0149

> <Gold.Rescore>
     Score         DG    S(hbond)    S(metal)    S(lipo)     H(rot)  DE(clash)    DE(int)     intcor
     11.65     -12.12       1.86        0.00      51.63       2.20       0.04       0.42       ----

> <Gold.Chemscore.Fitness>
11.6477

> <Gold.Chemscore.DG>
-12.1150

> <Gold.Chemscore.ZeroCoef>
-5.4800

> <Gold.Chemscore.Hbond>
1.8604

> <Gold.Chemscore.Metal>
0.0000

> <Gold.Chemscore.Lipo>
51.6329

> <Gold.Chemscore.Internal_Hbond>
0.0000

> <Gold.Chemscore.DEClash>
0.0431

> <Gold.Chemscore.DEInternal>
0.4242

> <Gold.Chemscore.Rot>
2.1952

> <Gold.Chemscore.Internal.Correction>
   9.000000E+99

> <Gold.Chemscore.Hbonds>
donor molecule, donor type, donor heavy atom, donor atom, acceptor molecule, acceptor atom, score
      L1  H     8    27       P1  7948  0.78
      P1  H  7997  8008       L1    18  0.96

> <Gold.Chemscore.Hbond.Weighted>
-6.2137

> <Gold.Chemscore.Metal.Weighted>
-0.0000

> <Gold.Chemscore.Lipo.Weighted>
-6.0411

> <Gold.Chemscore.Internal_Hbond.Weighted>
0.0000

> <Gold.Chemscore.DEClash.Weighted>
0.0431

> <Gold.Chemscore.DEInternal.Weighted>
0.4242

> <Gold.Chemscore.Rot.Weighted>
5.6197

> <Gold.Chemscore.Internal.Correction.Weighted>
   9.000000E+99

> <Gold.Protein.RotatedTorsions>
[ 6907 6896 6895 6894 ] final   48.87 input  -60.11 | X-H torsion
[ 7974 7965 7964 7962 ] final  168.86 input  175.53 | X-H torsion
[ 8008 7997 7996 7995 ] final  -24.30 input   59.86 | X-H torsion
[ 10167 10162 10161 10158 ] final -125.79 input  -65.29 | X-H torsion
[ 10718 10713 10712 10709 ] final  -71.95 input   66.30 | X-H torsion
[ 10763 10752 10751 10750 ] final -173.32 input  -60.55 | X-H torsion
[ 11005 11000 10999 10996 ] final   75.25 input  -57.11 | X-H torsion

> <Gold.Protein.ActiveResidues>
 VAL166  LYS551  ARG553  GLY616  TRP617  ASP618  TYR619  PRO620  LYS621  CYS622 
 ASP623  PHE694  ASN695  SER759  ASP760  ASP761  ALA762  ILE779  LEU786  VAL792 
 PHE793  MET794  SER795  GLU796  ALA797  LYS798  CYS799  TRP800  GLU811  SER814 

> <Gold.Protein.RotatedAtoms>
  152.2844  134.7792  160.0389 H   0  0  0  0  0  0  0  0  0  0  0  0  # atno 6907 bound_to 6896
  151.8360  133.3411  159.3636 H   0  0  0  0  0  0  0  0  0  0  0  0  # atno 6908 bound_to 6896
  150.7203  134.5366  159.5771 H   0  0  0  0  0  0  0  0  0  0  0  0  # atno 6909 bound_to 6896
  144.7374  139.8969  143.6407 H   0  0  0  0  0  0  0  0  0  0  0  0  # atno 7974 bound_to 7965
  154.4537  140.1957  156.0444 H   0  0  0  0  0  0  0  0  0  0  0  0  # atno 8008 bound_to 7997
  156.0701  140.3285  155.7538 H   0  0  0  0  0  0  0  0  0  0  0  0  # atno 8009 bound_to 7997
  155.5277  140.0575  157.2886 H   0  0  0  0  0  0  0  0  0  0  0  0  # atno 8010 bound_to 7997
  139.9783  143.5770  152.2387 H   0  0  0  0  0  0  0  0  0  0  0  0  # atno 10167 bound_to 10162
  156.0341  130.4362  150.2520 H   0  0  0  0  0  0  0  0  0  0  0  0  # atno 10718 bound_to 10713
  154.6092  135.2862  155.0451 H   0  0  0  0  0  0  0  0  0  0  0  0  # atno 10763 bound_to 10752
  154.1687  135.6476  153.5008 H   0  0  0  0  0  0  0  0  0  0  0  0  # atno 10764 bound_to 10752
  153.0188  135.5395  154.6839 H   0  0  0  0  0  0  0  0  0  0  0  0  # atno 10765 bound_to 10752
  139.9353  134.7501  156.1247 H   0  0  0  0  0  0  0  0  0  0  0  0  # atno 11005 bound_to 11000
  146.1100  139.4104  143.0293 LP  0  0  0  0  0  0  0  0  0  0  0  0  # atno 17320 bound_to 7965
  145.7456  140.9992  143.1277 LP  0  0  0  0  0  0  0  0  0  0  0  0  # atno 17321 bound_to 7965
  139.6429  144.7656  151.2303 LP  0  0  0  0  0  0  0  0  0  0  0  0  # atno 17342 bound_to 10162
  140.7498  143.6288  150.8443 LP  0  0  0  0  0  0  0  0  0  0  0  0  # atno 17343 bound_to 10162
  157.0621  131.0093  151.3219 LP  0  0  0  0  0  0  0  0  0  0  0  0  # atno 17370 bound_to 10713
  157.5063  130.7910  149.7657 LP  0  0  0  0  0  0  0  0  0  0  0  0  # atno 17371 bound_to 10713
  141.0963  133.6694  156.2652 LP  0  0  0  0  0  0  0  0  0  0  0  0  # atno 17394 bound_to 11000
  140.6093  134.5475  157.5531 LP  0  0  0  0  0  0  0  0  0  0  0  0  # atno 17395 bound_to 11000

$$$$
