AV-unprocessed.smi:383|AV-procd|sdf|2464|dock9
  -GOLD-   2262022403D 1   1.00000     0.00000
 Structure written by MMmdl.
 40 41  0  0  0  0  0  0  0  0  1 V2000
  152.1441  144.9179  159.1570 C   0  0  0  0  0  0  0  0  0  0  0  0
  150.8250  144.2848  158.6845 C   0  0  0  0  0  0  0  0  0  0  0  0
  149.8025  144.2041  159.8300 C   0  0  0  0  0  0  0  0  0  0  0  0
  151.0716  142.8947  158.0847 C   0  0  0  0  0  0  0  0  0  0  0  0
  151.7189  142.0557  158.7122 O   0  0  0  0  0  0  0  0  0  0  0  0
  150.5471  142.6645  156.8708 N   0  0  0  0  0  0  0  0  0  0  0  0
  150.6390  141.4037  156.1451 C   0  0  0  0  0  0  0  0  0  0  0  0
  149.4067  141.1333  155.2876 C   0  0  0  0  0  0  0  0  0  0  0  0
  148.5668  142.2135  154.9426 C   0  0  0  0  0  0  0  0  0  0  0  0
  147.4109  141.9726  154.1788 C   0  0  0  0  0  0  0  0  0  0  0  0
  147.1354  140.6498  153.7891 C   0  0  0  0  0  0  0  0  0  0  0  0
  147.9252  139.6053  154.1125 N   0  0  0  0  0  0  0  0  0  0  0  0
  149.0405  139.8319  154.8492 C   0  0  0  0  0  0  0  0  0  0  0  0
  149.8397  138.7193  155.1628 N   0  0  0  0  0  0  0  0  0  0  0  0
  151.2086  138.8282  154.6779 C   0  0  0  0  0  0  0  0  0  0  0  0
  152.0657  137.7038  155.2846 C   0  0  0  0  0  0  0  0  0  0  0  0
  151.4770  136.4393  154.9921 O   0  0  0  0  0  0  0  0  0  0  0  0
  150.1639  136.3193  155.5336 C   0  0  0  0  0  0  0  0  0  0  0  0
  149.2565  137.4033  154.9281 C   0  0  0  0  0  0  0  0  0  0  0  0
  152.8694  144.9768  158.3445 H   0  0  0  0  0  0  0  0  0  0  0  0
  152.5974  144.3462  159.9679 H   0  0  0  0  0  0  0  0  0  0  0  0
  151.9799  145.9322  159.5216 H   0  0  0  0  0  0  0  0  0  0  0  0
  150.4069  144.9256  157.9063 H   0  0  0  0  0  0  0  0  0  0  0  0
  148.8689  143.7489  159.4963 H   0  0  0  0  0  0  0  0  0  0  0  0
  149.5635  145.1978  160.2095 H   0  0  0  0  0  0  0  0  0  0  0  0
  150.1809  143.6136  160.6657 H   0  0  0  0  0  0  0  0  0  0  0  0
  150.0352  143.4119  156.4252 H   0  0  0  0  0  0  0  0  0  0  0  0
  151.5064  141.4596  155.4871 H   0  0  0  0  0  0  0  0  0  0  0  0
  150.8519  140.5908  156.8392 H   0  0  0  0  0  0  0  0  0  0  0  0
  148.8032  143.2172  155.2645 H   0  0  0  0  0  0  0  0  0  0  0  0
  146.7506  142.7807  153.9015 H   0  0  0  0  0  0  0  0  0  0  0  0
  146.2569  140.4232  153.2034 H   0  0  0  0  0  0  0  0  0  0  0  0
  151.2106  138.7559  153.5895 H   0  0  0  0  0  0  0  0  0  0  0  0
  151.6303  139.8005  154.9349 H   0  0  0  0  0  0  0  0  0  0  0  0
  153.0730  137.7320  154.8690 H   0  0  0  0  0  0  0  0  0  0  0  0
  152.1620  137.8298  156.3644 H   0  0  0  0  0  0  0  0  0  0  0  0
  149.7724  135.3288  155.3024 H   0  0  0  0  0  0  0  0  0  0  0  0
  150.1975  136.4042  156.6211 H   0  0  0  0  0  0  0  0  0  0  0  0
  148.2620  137.3538  155.3737 H   0  0  0  0  0  0  0  0  0  0  0  0
  149.1442  137.2328  153.8564 H   0  0  0  0  0  0  0  0  0  0  0  0
  1  2  1  0  0  0  0
  1 20  1  0  0  0  0
  1 21  1  0  0  0  0
  1 22  1  0  0  0  0
  2  3  1  0  0  0  0
  2  4  1  0  0  0  0
  2 23  1  0  0  0  0
  3 24  1  0  0  0  0
  3 25  1  0  0  0  0
  3 26  1  0  0  0  0
  4  5  2  0  0  0  0
  4  6  1  0  0  0  0
  6  7  1  0  0  0  0
  6 27  1  0  0  0  0
  7  8  1  0  0  0  0
  7 28  1  0  0  0  0
  7 29  1  0  0  0  0
  8 13  1  0  0  0  0
  8  9  2  0  0  0  0
  9 10  1  0  0  0  0
  9 30  1  0  0  0  0
 10 11  2  0  0  0  0
 10 31  1  0  0  0  0
 11 12  1  0  0  0  0
 11 32  1  0  0  0  0
 12 13  2  0  0  0  0
 13 14  1  0  0  0  0
 14 19  1  0  0  0  0
 14 15  1  0  0  0  0
 15 16  1  0  0  0  0
 15 33  1  0  0  0  0
 15 34  1  0  0  0  0
 16 17  1  0  0  0  0
 16 35  1  0  0  0  0
 16 36  1  0  0  0  0
 17 18  1  0  0  0  0
 18 19  1  0  0  0  0
 18 37  1  0  0  0  0
 18 38  1  0  0  0  0
 19 39  1  0  0  0  0
 19 40  1  0  0  0  0
M  END
> <s_m_source_file>
AV-unprocessed.smi

> <i_m_source_file_index>
383

> <i_lp_mmshare_version>
43012

> <i_f3d_flags>
0

> <s_epik_input>
W0NIM11bQ0hdKFtDSDNdKUMoPU8pW05IXVtDSDJdYzFbY0hdW2NIXVtjSF1uYzFOMltDSDJdW0NIMl1PW0NIMl1bQ0gyXTI=

> <s_epik_cmdline>
J2VwaWtfcHl0aG9uJywgJy1waCcsICc3LjAnLCAnLXRuJywgJzgnLCAnLW1hJywgJzIwMCcsICctbWV0YWxfYmluZGluZycsICctaW1hZScsICc8aW5maWxlLm1hZT4nLCAnLW9tYWUnLCAnPG91dGZpbGUubWFlPic=

> <r_lp_tautomer_probability>
1

> <r_epik_Ionization_Penalty>
0.00505534

> <r_epik_Ionization_Penalty_Charging>
0

> <r_epik_Ionization_Penalty_Neutral>
0.00505534

> <r_epik_State_Penalty>
0.00367784

> <r_epik_Charging_Adjusted_Penalty>
0.00367784

> <i_epik_Tot_Q>
0

> <i_epik_Tot_abs_Q>
0

> <r_epik_Metal_State_Penalty>
-0

> <b_epik_Metal_Only>
0

> <s_lp_Force_Field>
OPLS_2005

> <r_lp_Energy>
19.0793

> <b_lp_Chiralities_Consistent>
1

> <s_lp_Variant>
AV-unprocessed.smi:383-1

> <Gold.Version>
5.8.1

> <Gold.Id.Protein>
6NUR|6NUR_protein|mol2

> <Gold.PLP.Fitness>
42.3558

> <Gold.PLP.PLP>
-34.8617

> <Gold.PLP.part.hbond>
-2.0000

> <Gold.PLP.part.metal>
0.0000

> <Gold.PLP.part.buried>
-1.9062

> <Gold.PLP.part.nonpolar>
-32.2397

> <Gold.PLP.part.repulsive>
0.4736

> <Gold.PLP.ligand.clash>
0.0000

> <Gold.PLP.ligand.torsion>
0.8399

> <Gold.PLP.Chemscore.Hbond>
2.0000

> <Gold.PLP.Chemscore.CHOScore>
0.9822

> <Gold.PLP.Chemscore.Metal>
0.0000

> <Gold.Chemscore.Hbonds>
donor molecule, donor type, donor heavy atom, donor atom, acceptor molecule, acceptor atom, score
      L1  H     6    27       P1  8028  1.00
      P1  H 10752 10765       L1    17  0.85
      L1  C    11    32       P1 10175  0.65

> <Gold.PLP.Chemscore.Internal.Correction>
0.2275

> <Gold.Rescore>
     Score         DG    S(hbond)    S(metal)    S(lipo)     H(rot)  DE(clash)    DE(int)     intcor
     15.57     -18.81       1.92        0.00      93.28       1.56       1.58       1.67       ----

> <Gold.Chemscore.Fitness>
15.5662

> <Gold.Chemscore.DG>
-18.8122

> <Gold.Chemscore.ZeroCoef>
-5.4800

> <Gold.Chemscore.Hbond>
1.9185

> <Gold.Chemscore.Metal>
0.0000

> <Gold.Chemscore.Lipo>
93.2813

> <Gold.Chemscore.Internal_Hbond>
0.0000

> <Gold.Chemscore.DEClash>
1.5772

> <Gold.Chemscore.DEInternal>
1.6688

> <Gold.Chemscore.Rot>
1.5584

> <Gold.Chemscore.Internal.Correction>
   9.000000E+99

> <Gold.Chemscore.Hbonds>
donor molecule, donor type, donor heavy atom, donor atom, acceptor molecule, acceptor atom, score
      L1  H     6    27       P1  8028  1.00
      P1  H 10752 10765       L1    17  0.15

> <Gold.Chemscore.Hbond.Weighted>
-6.4078

> <Gold.Chemscore.Metal.Weighted>
-0.0000

> <Gold.Chemscore.Lipo.Weighted>
-10.9139

> <Gold.Chemscore.Internal_Hbond.Weighted>
0.0000

> <Gold.Chemscore.DEClash.Weighted>
1.5772

> <Gold.Chemscore.DEInternal.Weighted>
1.6688

> <Gold.Chemscore.Rot.Weighted>
3.9895

> <Gold.Chemscore.Internal.Correction.Weighted>
   9.000000E+99

> <Gold.Protein.RotatedTorsions>
[ 6907 6896 6895 6894 ] final   71.32 input  -60.11 | X-H torsion
[ 7974 7965 7964 7962 ] final  179.27 input  175.53 | X-H torsion
[ 8008 7997 7996 7995 ] final  104.15 input   59.86 | X-H torsion
[ 10167 10162 10161 10158 ] final -171.74 input  -65.29 | X-H torsion
[ 10718 10713 10712 10709 ] final -151.07 input   66.30 | X-H torsion
[ 10763 10752 10751 10750 ] final -174.92 input  -60.55 | X-H torsion
[ 11005 11000 10999 10996 ] final   67.98 input  -57.11 | X-H torsion

> <Gold.Protein.ActiveResidues>
 VAL166  LYS551  ARG553  GLY616  TRP617  ASP618  TYR619  PRO620  LYS621  CYS622 
 ASP623  PHE694  ASN695  SER759  ASP760  ASP761  ALA762  ILE779  LEU786  VAL792 
 PHE793  MET794  SER795  GLU796  ALA797  LYS798  CYS799  TRP800  GLU811  SER814 

> <Gold.Protein.RotatedAtoms>
  152.4803  134.4738  159.9643 H   0  0  0  0  0  0  0  0  0  0  0  0  # atno 6907 bound_to 6896
  151.4745  133.3555  159.2836 H   0  0  0  0  0  0  0  0  0  0  0  0  # atno 6908 bound_to 6896
  150.8870  134.8295  159.7327 H   0  0  0  0  0  0  0  0  0  0  0  0  # atno 6909 bound_to 6896
  144.7147  140.0522  143.6435 H   0  0  0  0  0  0  0  0  0  0  0  0  # atno 7974 bound_to 7965
  156.1548  140.3152  155.8707 H   0  0  0  0  0  0  0  0  0  0  0  0  # atno 8008 bound_to 7997
  155.3901  140.0493  157.3058 H   0  0  0  0  0  0  0  0  0  0  0  0  # atno 8009 bound_to 7997
  154.5091  140.2158  155.9204 H   0  0  0  0  0  0  0  0  0  0  0  0  # atno 8010 bound_to 7997
  139.5785  144.1478  152.1483 H   0  0  0  0  0  0  0  0  0  0  0  0  # atno 10167 bound_to 10162
  156.4544  130.8183  151.2414 H   0  0  0  0  0  0  0  0  0  0  0  0  # atno 10718 bound_to 10713
  154.5906  135.2844  155.0640 H   0  0  0  0  0  0  0  0  0  0  0  0  # atno 10763 bound_to 10752
  154.1942  135.6435  153.5072 H   0  0  0  0  0  0  0  0  0  0  0  0  # atno 10764 bound_to 10752
  153.0120  135.5453  154.6590 H   0  0  0  0  0  0  0  0  0  0  0  0  # atno 10765 bound_to 10752
  139.9738  134.6856  156.0393 H   0  0  0  0  0  0  0  0  0  0  0  0  # atno 11005 bound_to 11000
  145.9934  139.3033  143.0971 LP  0  0  0  0  0  0  0  0  0  0  0  0  # atno 17320 bound_to 7965
  145.8876  140.9324  143.0568 LP  0  0  0  0  0  0  0  0  0  0  0  0  # atno 17321 bound_to 7965
  140.1026  144.5526  150.6979 LP  0  0  0  0  0  0  0  0  0  0  0  0  # atno 17342 bound_to 10162
  140.7065  143.2472  151.4710 LP  0  0  0  0  0  0  0  0  0  0  0  0  # atno 17343 bound_to 10162
  157.7501  131.0127  150.3396 LP  0  0  0  0  0  0  0  0  0  0  0  0  # atno 17370 bound_to 10713
  156.3782  130.3875  149.7122 LP  0  0  0  0  0  0  0  0  0  0  0  0  # atno 17371 bound_to 10713
  141.1417  133.6563  156.3748 LP  0  0  0  0  0  0  0  0  0  0  0  0  # atno 17394 bound_to 11000
  140.5237  134.6280  157.5327 LP  0  0  0  0  0  0  0  0  0  0  0  0  # atno 17395 bound_to 11000

$$$$
