AV-unprocessed.smi:1107|AV-procd|sdf|4781|dock1
  -GOLD-   22720 3323D 1   1.00000     0.00000
 Structure written by MMmdl.
 49 50  0  0  0  0  0  0  0  0  2 V2000
  150.7463  143.2012  157.1891 C   0  0  0  0  0  0  0  0  0  0  0  0
  150.6641  141.8824  156.4502 C   0  0  0  0  0  0  0  0  0  0  0  0
  151.5833  140.9746  156.4906 N   0  0  0  0  0  0  0  0  0  0  0  0
  151.3935  139.7891  155.7667 C   0  0  0  0  0  0  0  0  0  0  0  0
  152.5166  138.7717  155.8728 C   0  0  0  0  0  0  0  0  0  0  0  0
  150.2652  139.5762  155.0276 C   0  0  0  0  0  0  0  0  0  0  0  0
  150.0151  138.3015  154.2249 C   0  0  0  0  0  0  0  0  0  0  0  0
  150.0458  137.0006  155.0298 C   0  0  0  0  0  0  0  0  0  0  0  0
  150.4005  137.0080  156.2081 O   0  0  0  0  0  0  0  0  0  0  0  0
  149.6667  135.8883  154.3807 N   0  0  0  0  0  0  0  0  0  0  0  0
  149.6474  134.5335  154.9333 C   0  0  2  0  0  0  0  0  0  0  0  0
  151.0365  134.2034  155.4959 C   0  0  0  0  0  0  0  0  0  0  0  0
  149.2114  133.4989  153.8706 C   0  0  0  0  0  0  0  0  0  0  0  0
  147.9827  133.8981  153.1369 N   0  3  0  0  0  0  0  0  0  0  0  0
  147.5239  132.8632  152.1751 C   0  0  0  0  0  0  0  0  0  0  0  0
  146.3533  133.3833  151.3235 C   0  0  0  0  0  0  0  0  0  0  0  0
  145.1954  133.8606  152.2102 C   0  0  0  0  0  0  0  0  0  0  0  0
  145.7019  134.8972  153.2219 C   0  0  0  0  0  0  0  0  0  0  0  0
  146.8821  134.3394  154.0342 C   0  0  0  0  0  0  0  0  0  0  0  0
  149.2268  140.6232  154.9811 C   0  0  0  0  0  0  0  0  0  0  0  0
  148.1840  140.5386  154.3339 O   0  0  0  0  0  0  0  0  0  0  0  0
  149.4924  141.7294  155.7109 N   0  0  0  0  0  0  0  0  0  0  0  0
  148.8112  142.4747  155.7129 H   0  0  0  0  0  0  0  0  0  0  0  0
  150.8609  143.0249  158.2588 H   0  0  0  0  0  0  0  0  0  0  0  0
  149.8505  143.8051  157.0376 H   0  0  0  0  0  0  0  0  0  0  0  0
  151.6068  143.7732  156.8416 H   0  0  0  0  0  0  0  0  0  0  0  0
  152.8823  138.4914  154.8855 H   0  0  0  0  0  0  0  0  0  0  0  0
  152.1694  137.8733  156.3835 H   0  0  0  0  0  0  0  0  0  0  0  0
  153.3599  139.1711  156.4370 H   0  0  0  0  0  0  0  0  0  0  0  0
  149.0418  138.3600  153.7387 H   0  0  0  0  0  0  0  0  0  0  0  0
  150.7292  138.2453  153.4014 H   0  0  0  0  0  0  0  0  0  0  0  0
  149.3995  135.9831  153.4110 H   0  0  0  0  0  0  0  0  0  0  0  0
  148.9534  134.4992  155.7742 H   0  0  0  0  0  0  0  0  0  0  0  0
  151.0497  133.2126  155.9509 H   0  0  0  0  0  0  0  0  0  0  0  0
  151.3303  134.9205  156.2633 H   0  0  0  0  0  0  0  0  0  0  0  0
  151.7979  134.2210  154.7152 H   0  0  0  0  0  0  0  0  0  0  0  0
  150.0315  133.3839  153.1600 H   0  0  0  0  0  0  0  0  0  0  0  0
  149.0653  132.5170  154.3230 H   0  0  0  0  0  0  0  0  0  0  0  0
  148.3453  132.5821  151.5150 H   0  0  0  0  0  0  0  0  0  0  0  0
  147.2288  131.9640  152.7184 H   0  0  0  0  0  0  0  0  0  0  0  0
  146.6963  134.2071  150.6958 H   0  0  0  0  0  0  0  0  0  0  0  0
  146.0073  132.6015  150.6466 H   0  0  0  0  0  0  0  0  0  0  0  0
  144.4013  134.2879  151.5974 H   0  0  0  0  0  0  0  0  0  0  0  0
  144.7607  133.0110  152.7385 H   0  0  0  0  0  0  0  0  0  0  0  0
  146.0137  135.8017  152.6972 H   0  0  0  0  0  0  0  0  0  0  0  0
  144.8931  135.1910  153.8914 H   0  0  0  0  0  0  0  0  0  0  0  0
  146.5520  133.5004  154.6486 H   0  0  0  0  0  0  0  0  0  0  0  0
  147.2374  135.1093  154.7186 H   0  0  0  0  0  0  0  0  0  0  0  0
  148.2410  134.7004  152.5795 H   0  0  0  0  0  0  0  0  0  0  0  0
  1  2  1  0  0  0  0
  1 24  1  0  0  0  0
  1 25  1  0  0  0  0
  1 26  1  0  0  0  0
  2 22  1  0  0  0  0
  2  3  2  0  0  0  0
  3  4  1  0  0  0  0
  4  5  1  0  0  0  0
  4  6  2  0  0  0  0
  5 27  1  0  0  0  0
  5 28  1  0  0  0  0
  5 29  1  0  0  0  0
  6  7  1  0  0  0  0
  6 20  1  0  0  0  0
  7  8  1  0  0  0  0
  7 30  1  0  0  0  0
  7 31  1  0  0  0  0
  8  9  2  0  0  0  0
  8 10  1  0  0  0  0
 10 11  1  0  0  0  0
 10 32  1  0  0  0  0
 11 12  1  0  0  0  0
 11 13  1  0  0  0  0
 11 33  1  0  0  0  0
 12 34  1  0  0  0  0
 12 35  1  0  0  0  0
 12 36  1  0  0  0  0
 13 14  1  0  0  0  0
 13 37  1  0  0  0  0
 13 38  1  0  0  0  0
 14 19  1  0  0  0  0
 14 15  1  0  0  0  0
 14 49  1  0  0  0  0
 15 16  1  0  0  0  0
 15 39  1  0  0  0  0
 15 40  1  0  0  0  0
 16 17  1  0  0  0  0
 16 41  1  0  0  0  0
 16 42  1  0  0  0  0
 17 18  1  0  0  0  0
 17 43  1  0  0  0  0
 17 44  1  0  0  0  0
 18 19  1  0  0  0  0
 18 45  1  0  0  0  0
 18 46  1  0  0  0  0
 19 47  1  0  0  0  0
 19 48  1  0  0  0  0
 20 21  2  0  0  0  0
 20 22  1  0  0  0  0
 22 23  1  0  0  0  0
M  CHG  1  14   1
M  END
> <s_m_source_file>
AV-unprocessed.smi

> <i_m_source_file_index>
1107

> <i_lp_mmshare_version>
43012

> <i_f3d_flags>
0

> <s_epik_input>
W0NIM11jMW5jKFtDSDNdKWMoYyg9TylbbkhdMSlbQ0gyXUMoPU8pW05IXVtDQEhdKFtDSDNdKVtDSDJdTjJbQ0gyXVtDSDJdW0NIMl1bQ0gyXVtDSDJdMg==

> <s_epik_cmdline>
J2VwaWtfcHl0aG9uJywgJy1waCcsICc3LjAnLCAnLXRuJywgJzgnLCAnLW1hJywgJzIwMCcsICctbWV0YWxfYmluZGluZycsICctaW1hZScsICc8aW5maWxlLm1hZT4nLCAnLW9tYWUnLCAnPG91dGZpbGUubWFlPic=

> <r_lp_tautomer_probability>
0.839158

> <r_epik_Ionization_Penalty>
0.00280224

> <r_epik_Ionization_Penalty_Charging>
0.00277925

> <r_epik_Ionization_Penalty_Neutral>
2.29856e-05

> <r_epik_State_Penalty>
0.09125

> <r_epik_Charging_Adjusted_Penalty>
0.0940293

> <i_epik_Tot_Q>
1

> <i_epik_Tot_abs_Q>
1

> <r_epik_Metal_State_Penalty>
0.283823

> <b_epik_Metal_Only>
0

> <s_lp_Force_Field>
OPLS_2005

> <r_lp_Energy>
24.1286

> <b_lp_Chiralities_Consistent>
1

> <s_lp_Variant>
AV-unprocessed.smi:1107-1

> <Gold.Version>
5.8.1

> <Gold.Id.Protein>
6NUR|6NUR_protein|mol2

> <Gold.PLP.Fitness>
46.9329

> <Gold.PLP.PLP>
-35.2357

> <Gold.PLP.part.hbond>
-3.0881

> <Gold.PLP.part.metal>
0.0000

> <Gold.PLP.part.buried>
0.1515

> <Gold.PLP.part.nonpolar>
-31.9524

> <Gold.PLP.part.repulsive>
0.3439

> <Gold.PLP.ligand.clash>
0.0000

> <Gold.PLP.ligand.torsion>
0.1762

> <Gold.PLP.Chemscore.Hbond>
3.9913

> <Gold.PLP.Chemscore.CHOScore>
0.0000

> <Gold.PLP.Chemscore.Metal>
0.0000

> <Gold.Chemscore.Hbonds>
donor molecule, donor type, donor heavy atom, donor atom, acceptor molecule, acceptor atom, score
      L1  H    10    32       P1  7948  1.00
      L1  H    14    49       P1  7948  2.00
      L1  H    22    23       P1  8028  0.34

> <Gold.PLP.Chemscore.Internal.Correction>
0.0758

> <Gold.Rescore>
     Score         DG    S(hbond)    S(metal)    S(lipo)     H(rot)  DE(clash)    DE(int)     intcor
     15.79     -17.32       2.73        0.00      66.69       1.98       0.15       1.38       ----

> <Gold.Chemscore.Fitness>
15.7926

> <Gold.Chemscore.DG>
-17.3227

> <Gold.Chemscore.ZeroCoef>
-5.4800

> <Gold.Chemscore.Hbond>
2.7300

> <Gold.Chemscore.Metal>
0.0000

> <Gold.Chemscore.Lipo>
66.6921

> <Gold.Chemscore.Internal_Hbond>
0.0000

> <Gold.Chemscore.DEClash>
0.1461

> <Gold.Chemscore.DEInternal>
1.3840

> <Gold.Chemscore.Rot>
1.9837

> <Gold.Chemscore.Internal.Correction>
   9.000000E+99

> <Gold.Chemscore.Hbonds>
donor molecule, donor type, donor heavy atom, donor atom, acceptor molecule, acceptor atom, score
      L1  H    10    32       P1  7948  0.49
      L1  H    14    49       P1  7948  0.40
      L1  H    22    23       P1  8028  0.34

> <Gold.Chemscore.Hbond.Weighted>
-9.1181

> <Gold.Chemscore.Metal.Weighted>
-0.0000

> <Gold.Chemscore.Lipo.Weighted>
-7.8030

> <Gold.Chemscore.Internal_Hbond.Weighted>
0.0000

> <Gold.Chemscore.DEClash.Weighted>
0.1461

> <Gold.Chemscore.DEInternal.Weighted>
1.3840

> <Gold.Chemscore.Rot.Weighted>
5.0783

> <Gold.Chemscore.Internal.Correction.Weighted>
   9.000000E+99

> <Gold.Protein.RotatedTorsions>
[ 6907 6896 6895 6894 ] final   45.13 input  -60.11 | X-H torsion
[ 7974 7965 7964 7962 ] final -141.67 input  175.53 | X-H torsion
[ 8008 7997 7996 7995 ] final   75.07 input   59.86 | X-H torsion
[ 10167 10162 10161 10158 ] final    6.83 input  -65.29 | X-H torsion
[ 10718 10713 10712 10709 ] final   86.53 input   66.30 | X-H torsion
[ 10763 10752 10751 10750 ] final  -54.22 input  -60.55 | X-H torsion
[ 11005 11000 10999 10996 ] final  -66.49 input  -57.11 | X-H torsion

> <Gold.Protein.ActiveResidues>
 VAL166  LYS551  ARG553  GLY616  TRP617  ASP618  TYR619  PRO620  LYS621  CYS622 
 ASP623  PHE694  ASN695  SER759  ASP760  ASP761  ALA762  ILE779  LEU786  VAL792 
 PHE793  MET794  SER795  GLU796  ALA797  LYS798  CYS799  TRP800  GLU811  SER814 

> <Gold.Protein.RotatedAtoms>
  152.2408  134.8230  160.0460 H   0  0  0  0  0  0  0  0  0  0  0  0  # atno 6907 bound_to 6896
  151.8945  133.3518  159.3818 H   0  0  0  0  0  0  0  0  0  0  0  0  # atno 6908 bound_to 6896
  150.7053  134.4816  159.5517 H   0  0  0  0  0  0  0  0  0  0  0  0  # atno 6909 bound_to 6896
  144.8502  140.6052  143.5395 H   0  0  0  0  0  0  0  0  0  0  0  0  # atno 7974 bound_to 7965
  155.8075  140.3474  155.5438 H   0  0  0  0  0  0  0  0  0  0  0  0  # atno 8008 bound_to 7997
  155.8474  140.0951  157.1716 H   0  0  0  0  0  0  0  0  0  0  0  0  # atno 8009 bound_to 7997
  154.4006  140.1383  156.3790 H   0  0  0  0  0  0  0  0  0  0  0  0  # atno 8010 bound_to 7997
  140.6406  143.7783  150.7422 H   0  0  0  0  0  0  0  0  0  0  0  0  # atno 10167 bound_to 10162
  157.6930  131.0219  150.2986 H   0  0  0  0  0  0  0  0  0  0  0  0  # atno 10718 bound_to 10713
  154.1714  135.6458  153.5010 H   0  0  0  0  0  0  0  0  0  0  0  0  # atno 10763 bound_to 10752
  153.0083  135.5384  154.6609 H   0  0  0  0  0  0  0  0  0  0  0  0  # atno 10764 bound_to 10752
  154.5949  135.2938  155.0569 H   0  0  0  0  0  0  0  0  0  0  0  0  # atno 10765 bound_to 10752
  141.1483  133.6700  156.6148 H   0  0  0  0  0  0  0  0  0  0  0  0  # atno 11005 bound_to 11000
  145.4516  139.1523  143.3915 LP  0  0  0  0  0  0  0  0  0  0  0  0  # atno 17320 bound_to 7965
  146.2778  140.4642  142.8788 LP  0  0  0  0  0  0  0  0  0  0  0  0  # atno 17321 bound_to 7965
  140.1414  143.4438  152.2191 LP  0  0  0  0  0  0  0  0  0  0  0  0  # atno 17342 bound_to 10162
  139.5615  144.7408  151.4141 LP  0  0  0  0  0  0  0  0  0  0  0  0  # atno 17343 bound_to 10162
  156.3505  130.3830  149.7333 LP  0  0  0  0  0  0  0  0  0  0  0  0  # atno 17370 bound_to 10713
  156.4812  130.8042  151.3056 LP  0  0  0  0  0  0  0  0  0  0  0  0  # atno 17371 bound_to 10713
  140.3586  134.7707  157.4518 LP  0  0  0  0  0  0  0  0  0  0  0  0  # atno 17394 bound_to 11000
  140.0803  134.5740  155.8548 LP  0  0  0  0  0  0  0  0  0  0  0  0  # atno 17395 bound_to 11000

$$$$
