AV-unprocessed.smi:2520|AV-procd|sdf|9913|dock8
  -GOLD-   2272013553D 1   1.00000     0.00000
 Structure written by MMmdl.
 41 44  0  0  0  0  0  0  0  0  1 V2000
  146.0297  138.5944  151.8069 O   0  0  0  0  0  0  0  0  0  0  0  0
  146.7677  137.6960  152.2073 C   0  0  0  0  0  0  0  0  0  0  0  0
  147.8209  137.9614  153.0095 N   0  0  0  0  0  0  0  0  0  0  0  0
  148.3082  139.1895  153.5465 C   0  0  0  0  0  0  0  0  0  0  0  0
  149.4559  139.0663  154.3588 C   0  0  0  0  0  0  0  0  0  0  0  0
  150.0061  140.2304  154.9220 C   0  0  0  0  0  0  0  0  0  0  0  0
  149.3695  141.4489  154.6316 C   0  0  0  0  0  0  0  0  0  0  0  0
  148.2733  141.5237  153.8468 N   0  0  0  0  0  0  0  0  0  0  0  0
  147.7572  140.4111  153.3148 N   0  0  0  0  0  0  0  0  0  0  0  0
  146.5830  136.4083  151.8803 N   0  0  0  0  0  0  0  0  0  0  0  0
  145.4901  135.8955  151.0492 C   0  0  2  0  0  0  0  0  0  0  0  0
  144.0951  136.2543  151.5702 C   0  0  2  0  0  0  0  0  0  0  0  0
  143.5362  137.2882  152.4802 C   0  0  0  0  0  0  0  0  0  0  0  0
  142.5550  136.3646  153.2489 C   0  0  0  0  0  0  0  0  0  0  0  0
  142.8814  135.0109  152.8435 O   0  0  0  0  0  0  0  0  0  0  0  0
  144.2536  135.0727  152.5048 C   0  0  1  0  0  0  0  0  0  0  0  0
  145.0739  134.4088  151.3730 C   0  0  0  0  0  0  0  0  0  0  0  0
  144.2820  133.6282  150.3039 C   0  0  0  0  0  0  0  0  0  0  0  0
  144.9940  132.2979  150.0535 C   0  0  0  0  0  0  0  0  0  0  0  0
  145.7732  132.0392  151.3344 C   0  0  0  0  0  0  0  0  0  0  0  0
  146.1817  133.4350  151.7955 C   0  0  0  0  0  0  0  0  0  0  0  0
  148.3826  137.1548  153.2397 H   0  0  0  0  0  0  0  0  0  0  0  0
  149.9071  138.1032  154.5485 H   0  0  0  0  0  0  0  0  0  0  0  0
  150.8825  140.1907  155.5515 H   0  0  0  0  0  0  0  0  0  0  0  0
  149.7438  142.3786  155.0339 H   0  0  0  0  0  0  0  0  0  0  0  0
  147.2355  135.7295  152.2466 H   0  0  0  0  0  0  0  0  0  0  0  0
  145.6226  136.0827  149.9826 H   0  0  0  0  0  0  0  0  0  0  0  0
  143.3733  136.0555  150.7713 H   0  0  0  0  0  0  0  0  0  0  0  0
  144.2949  137.7142  153.1378 H   0  0  0  0  0  0  0  0  0  0  0  0
  143.0289  138.0931  151.9481 H   0  0  0  0  0  0  0  0  0  0  0  0
  142.6788  136.4790  154.3264 H   0  0  0  0  0  0  0  0  0  0  0  0
  141.5149  136.5794  153.0025 H   0  0  0  0  0  0  0  0  0  0  0  0
  144.8559  135.2788  153.3959 H   0  0  0  0  0  0  0  0  0  0  0  0
  143.2702  133.4274  150.6587 H   0  0  0  0  0  0  0  0  0  0  0  0
  144.1794  134.1876  149.3735 H   0  0  0  0  0  0  0  0  0  0  0  0
  144.3047  131.4895  149.8081 H   0  0  0  0  0  0  0  0  0  0  0  0
  145.6897  132.4071  149.2206 H   0  0  0  0  0  0  0  0  0  0  0  0
  145.1183  131.5824  152.0776 H   0  0  0  0  0  0  0  0  0  0  0  0
  146.6262  131.3766  151.1846 H   0  0  0  0  0  0  0  0  0  0  0  0
  147.1205  133.7062  151.3106 H   0  0  0  0  0  0  0  0  0  0  0  0
  146.3671  133.4543  152.8701 H   0  0  0  0  0  0  0  0  0  0  0  0
  1  2  2  0  0  0  0
  2  3  1  0  0  0  0
  2 10  1  0  0  0  0
  3  4  1  0  0  0  0
  3 22  1  0  0  0  0
  4  9  1  0  0  0  0
  4  5  2  0  0  0  0
  5  6  1  0  0  0  0
  5 23  1  0  0  0  0
  6  7  2  0  0  0  0
  6 24  1  0  0  0  0
  7  8  1  0  0  0  0
  7 25  1  0  0  0  0
  8  9  2  0  0  0  0
 10 11  1  0  0  0  0
 10 26  1  0  0  0  0
 11 17  1  0  0  0  0
 11 12  1  0  0  0  0
 11 27  1  0  0  0  0
 12 16  1  0  0  0  0
 12 13  1  0  0  0  0
 12 28  1  0  0  0  0
 13 14  1  0  0  0  0
 13 29  1  0  0  0  0
 13 30  1  0  0  0  0
 14 15  1  0  0  0  0
 14 31  1  0  0  0  0
 14 32  1  0  0  0  0
 15 16  1  0  0  0  0
 16 17  1  0  0  0  0
 16 33  1  0  0  0  0
 17 21  1  0  0  0  0
 17 18  1  0  0  0  0
 18 19  1  0  0  0  0
 18 34  1  0  0  0  0
 18 35  1  0  0  0  0
 19 20  1  0  0  0  0
 19 36  1  0  0  0  0
 19 37  1  0  0  0  0
 20 21  1  0  0  0  0
 20 38  1  0  0  0  0
 20 39  1  0  0  0  0
 21 40  1  0  0  0  0
 21 41  1  0  0  0  0
M  END
> <s_m_source_file>
AV-unprocessed.smi

> <i_m_source_file_index>
2520

> <i_lp_mmshare_version>
43012

> <i_f3d_flags>
0

> <s_epik_input>
bjFuW2NIXVtjSF1bY0hdYzFbTkhdQyg9TylbTkhdW0NAQEhdMltDQEBIXShbQ0gyXVtDSDJdTzMpW0NASF0zQzI0W0NIMl1bQ0gyXVtDSDJdW0NIMl00

> <s_epik_cmdline>
J2VwaWtfcHl0aG9uJywgJy1waCcsICc3LjAnLCAnLXRuJywgJzgnLCAnLW1hJywgJzIwMCcsICctbWV0YWxfYmluZGluZycsICctaW1hZScsICc8aW5maWxlLm1hZT4nLCAnLW9tYWUnLCAnPG91dGZpbGUubWFlPic=

> <r_lp_tautomer_probability>
1

> <r_epik_Ionization_Penalty>
0.00552561

> <r_epik_Ionization_Penalty_Charging>
0

> <r_epik_Ionization_Penalty_Neutral>
0.00552561

> <r_epik_State_Penalty>
-0

> <r_epik_Charging_Adjusted_Penalty>
0

> <i_epik_Tot_Q>
0

> <i_epik_Tot_abs_Q>
0

> <r_epik_Metal_State_Penalty>
-0

> <b_epik_Metal_Only>
0

> <s_lp_Force_Field>
OPLS_2005

> <r_lp_Energy>
86.2541

> <b_lp_Chiralities_Consistent>
1

> <s_lp_Variant>
AV-unprocessed.smi:2520-7

> <Gold.Version>
5.8.1

> <Gold.Id.Protein>
6NUR|6NUR_protein|mol2

> <Gold.PLP.Fitness>
37.2622

> <Gold.PLP.PLP>
-32.2651

> <Gold.PLP.part.hbond>
-1.6356

> <Gold.PLP.part.metal>
0.0000

> <Gold.PLP.part.buried>
-3.9913

> <Gold.PLP.part.nonpolar>
-30.3606

> <Gold.PLP.part.repulsive>
3.2779

> <Gold.PLP.ligand.clash>
0.0000

> <Gold.PLP.ligand.torsion>
0.1940

> <Gold.PLP.Chemscore.Hbond>
0.7040

> <Gold.PLP.Chemscore.CHOScore>
1.0000

> <Gold.PLP.Chemscore.Metal>
0.0000

> <Gold.Chemscore.Hbonds>
donor molecule, donor type, donor heavy atom, donor atom, acceptor molecule, acceptor atom, score
      L1  H     3    22       P1  7948  0.30
      L1  H    10    26       P1  7948  0.21
      P1  H  8011  8017       L1     8  0.03
      L1  C     7    25       P1  8028  0.92

> <Gold.PLP.Chemscore.Internal.Correction>
0.2731

> <Gold.Rescore>
     Score         DG    S(hbond)    S(metal)    S(lipo)     H(rot)  DE(clash)    DE(int)     intcor
     10.06     -13.86       0.50        0.00      79.07       1.00       1.53       2.26       ----

> <Gold.Chemscore.Fitness>
10.0624

> <Gold.Chemscore.DG>
-13.8572

> <Gold.Chemscore.ZeroCoef>
-5.4800

> <Gold.Chemscore.Hbond>
0.5049

> <Gold.Chemscore.Metal>
0.0000

> <Gold.Chemscore.Lipo>
79.0667

> <Gold.Chemscore.Internal_Hbond>
0.0000

> <Gold.Chemscore.DEClash>
1.5350

> <Gold.Chemscore.DEInternal>
2.2598

> <Gold.Chemscore.Rot>
1.0000

> <Gold.Chemscore.Internal.Correction>
   9.000000E+99

> <Gold.Chemscore.Hbonds>
donor molecule, donor type, donor heavy atom, donor atom, acceptor molecule, acceptor atom, score
      L1  H     3    22       P1  7948  0.30
      L1  H    10    26       P1  7948  0.20

> <Gold.Chemscore.Hbond.Weighted>
-1.6864

> <Gold.Chemscore.Metal.Weighted>
-0.0000

> <Gold.Chemscore.Lipo.Weighted>
-9.2508

> <Gold.Chemscore.Internal_Hbond.Weighted>
0.0000

> <Gold.Chemscore.DEClash.Weighted>
1.5350

> <Gold.Chemscore.DEInternal.Weighted>
2.2598

> <Gold.Chemscore.Rot.Weighted>
2.5600

> <Gold.Chemscore.Internal.Correction.Weighted>
   9.000000E+99

> <Gold.Protein.RotatedTorsions>
[ 6907 6896 6895 6894 ] final   41.63 input  -60.11 | X-H torsion
[ 7974 7965 7964 7962 ] final   52.21 input  175.53 | X-H torsion
[ 8008 7997 7996 7995 ] final -100.11 input   59.86 | X-H torsion
[ 10167 10162 10161 10158 ] final -157.78 input  -65.29 | X-H torsion
[ 10718 10713 10712 10709 ] final  163.63 input   66.30 | X-H torsion
[ 10763 10752 10751 10750 ] final   54.74 input  -60.55 | X-H torsion
[ 11005 11000 10999 10996 ] final  -17.57 input  -57.11 | X-H torsion

> <Gold.Protein.ActiveResidues>
 VAL166  LYS551  ARG553  GLY616  TRP617  ASP618  TYR619  PRO620  LYS621  CYS622 
 ASP623  PHE694  ASN695  SER759  ASP760  ASP761  ALA762  ILE779  LEU786  VAL792 
 PHE793  MET794  SER795  GLU796  ALA797  LYS798  CYS799  TRP800  GLU811  SER814 

> <Gold.Protein.RotatedAtoms>
  152.1977  134.8616  160.0510 H   0  0  0  0  0  0  0  0  0  0  0  0  # atno 6907 bound_to 6896
  151.9481  133.3652  159.3998 H   0  0  0  0  0  0  0  0  0  0  0  0  # atno 6908 bound_to 6896
  150.6948  134.4293  159.5285 H   0  0  0  0  0  0  0  0  0  0  0  0  # atno 6909 bound_to 6896
  145.9836  139.4267  143.0117 H   0  0  0  0  0  0  0  0  0  0  0  0  # atno 7974 bound_to 7965
  154.8241  140.0443  157.1431 H   0  0  0  0  0  0  0  0  0  0  0  0  # atno 8008 bound_to 7997
  154.9226  140.3029  155.5188 H   0  0  0  0  0  0  0  0  0  0  0  0  # atno 8009 bound_to 7997
  156.2982  140.2337  156.4278 H   0  0  0  0  0  0  0  0  0  0  0  0  # atno 8010 bound_to 7997
  139.6743  143.9690  152.2302 H   0  0  0  0  0  0  0  0  0  0  0  0  # atno 10167 bound_to 10162
  157.1058  131.0455  151.2478 H   0  0  0  0  0  0  0  0  0  0  0  0  # atno 10718 bound_to 10713
  152.9808  135.5734  154.4953 H   0  0  0  0  0  0  0  0  0  0  0  0  # atno 10763 bound_to 10752
  154.4481  135.2777  155.1802 H   0  0  0  0  0  0  0  0  0  0  0  0  # atno 10764 bound_to 10752
  154.3442  135.6223  153.5664 H   0  0  0  0  0  0  0  0  0  0  0  0  # atno 10765 bound_to 10752
  140.8182  133.8089  155.9632 H   0  0  0  0  0  0  0  0  0  0  0  0  # atno 11005 bound_to 11000
  145.7733  140.9887  143.1138 LP  0  0  0  0  0  0  0  0  0  0  0  0  # atno 17320 bound_to 7965
  144.6868  139.9474  143.7477 LP  0  0  0  0  0  0  0  0  0  0  0  0  # atno 17321 bound_to 7965
  139.9463  144.6649  150.8216 LP  0  0  0  0  0  0  0  0  0  0  0  0  # atno 17342 bound_to 10162
  140.7630  143.3211  151.2619 LP  0  0  0  0  0  0  0  0  0  0  0  0  # atno 17343 bound_to 10162
  157.4602  130.7648  149.7229 LP  0  0  0  0  0  0  0  0  0  0  0  0  # atno 17370 bound_to 10713
  155.9862  130.3976  150.3222 LP  0  0  0  0  0  0  0  0  0  0  0  0  # atno 17371 bound_to 10713
  140.9127  134.2240  157.4976 LP  0  0  0  0  0  0  0  0  0  0  0  0  # atno 17394 bound_to 11000
  139.8710  134.9757  156.4894 LP  0  0  0  0  0  0  0  0  0  0  0  0  # atno 17395 bound_to 11000

$$$$
