#       Name:                AV-unprocessed.smi:255
#       Creating user name   scv26
#       Creation time:       Thu Mar 26 21:09:36 2020


#       File generated by GOLD software.
#

@<TRIPOS>MOLECULE
AV-unprocessed.smi:255
    54    57     1
SMALL
NO_CHARGES


@<TRIPOS>ATOM
      1 ****        -2.3020  -2.4515   2.7194 O.3            1 S1                 0.0000
      2 ****        -3.4318  -1.7574   2.2339 C.3            1 S1                 0.0000
      3 ****        -3.2759  -0.2421   2.4635 C.3            1 S1                 0.0000
      4 ****        -4.6136   0.4920   2.5531 C.3            1 S1                 0.0000
      5 ****        -4.2131   1.9412   2.2859 C.3            1 S1                 0.0000
      6 ****        -3.8240   2.5134   3.4260 F              1 S1                 0.0000
      7 ****        -3.0078   1.8287   1.3424 C.3            1 S1                 0.0000
      8 ****        -2.5962   0.4283   1.3592 N.3            1 S1                 0.0000
      9 ****        -1.2619   0.2357   1.2702 C.ar           1 S1                 0.0000
     10 ****        -0.4535   0.5491   2.3169 N.ar           1 S1                 0.0000
     11 ****         0.8646   0.3487   2.2230 C.ar           1 S1                 0.0000
     12 ****         1.5646  -0.1386   1.1956 N.ar           1 S1                 0.0000
     13 ****         0.7527  -0.4465   0.1431 C.ar           1 S1                 0.0000
     14 ****        -0.6607  -0.2919   0.0988 C.ar           1 S1                 0.0000
     15 ****        -1.1508  -0.7156  -1.1294 N.2            1 S1                 0.0000
     16 ****        -0.0845  -1.1003  -1.7770 C.2            1 S1                 0.0000
     17 ****         1.1028  -0.9659  -1.0912 N.pl3          1 S1                 0.0000
     18 ****         2.4310  -1.3184  -1.5699 C.3            1 S1                 0.0000
     19 ****         3.0587  -0.2540  -2.5007 C.3            1 S1                 0.0000
     20 ****         2.2741  -0.1521  -3.6770 O.3            1 S1                 0.0000
     21 ****         4.4875  -0.5914  -2.9069 C.3            1 S1                 0.0000
     22 ****         5.1026   0.7812  -3.1433 C.3            1 S1                 0.0000
     23 ****         4.5457   1.5624  -2.1001 O.3            1 S1                 0.0000
     24 ****         3.1989   1.1521  -1.8805 C.3            1 S1                 0.0000
     25 ****        -2.7396  -0.0656   3.3978 H              1 S1                 0.0000
     26 ****        -5.0251   2.5435   1.8774 H              1 S1                 0.0000
     27 ****        -2.4325  -3.3764   2.5758 H              1 S1                 0.0000
     28 ****        -3.6005  -1.9900   1.1817 H              1 S1                 0.0000
     29 ****        -4.2948  -2.1303   2.7860 H              1 S1                 0.0000
     30 ****        -5.2872   0.1455   1.7678 H              1 S1                 0.0000
     31 ****        -5.1138   0.3551   3.5125 H              1 S1                 0.0000
     32 ****        -3.3026   2.0812   0.3236 H              1 S1                 0.0000
     33 ****        -2.2076   2.5124   1.6310 H              1 S1                 0.0000
     34 ****         1.4408   0.6169   3.0963 H              1 S1                 0.0000
     35 ****        -0.1344  -1.4928  -2.7822 H              1 S1                 0.0000
     36 ****         3.0726  -1.4817  -0.7033 H              1 S1                 0.0000
     37 ****         2.3647  -2.2782  -2.0840 H              1 S1                 0.0000
     38 ****         2.6640   0.4981  -4.2412 H              1 S1                 0.0000
     39 ****         5.0114  -1.0758  -2.0819 H              1 S1                 0.0000
     40 ****         4.5553  -1.2487  -3.7746 H              1 S1                 0.0000
     41 ****         6.1918   0.7705  -3.1006 H              1 S1                 0.0000
     42 ****         4.7980   1.1870  -4.1091 H              1 S1                 0.0000
     43 ****         2.5083   1.8715  -2.3235 H              1 S1                 0.0000
     44 ****         3.0222   1.1505  -0.8056 H              1 S1                 0.0000
     45 ****        -2.1922  -2.2744   3.6975 LP             1 S1                 0.0000
     46 ****        -1.4839  -2.1468   2.2317 LP             1 S1                 0.0000
     47 ****        -2.8946  -0.0163   0.5147 LP             1 S1                 0.0000
     48 ****        -0.8441   0.9288   3.1555 LP             1 S1                 0.0000
     49 ****         2.5570  -0.2621   1.1974 LP             1 S1                 0.0000
     50 ****        -2.0998  -0.7241  -1.4445 LP             1 S1                 0.0000
     51 ****         1.3427   0.1227  -3.4386 LP             1 S1                 0.0000
     52 ****         2.2515  -1.0354  -4.1452 LP             1 S1                 0.0000
     53 ****         4.5639   2.5283  -2.3584 LP             1 S1                 0.0000
     54 ****         5.0768   1.4312  -1.2630 LP             1 S1                 0.0000
@<TRIPOS>BOND
    1    1    2 1     
    2    1   27 1     
    3    2    3 1     
    4    2   28 1     
    5    2   29 1     
    6    3   25 1     
    7    3    8 1     
    8    3    4 1     
    9    4    5 1     
   10    4   30 1     
   11    4   31 1     
   12    5   26 1     
   13    5    6 1     
   14    5    7 1     
   15    7    8 1     
   16    7   32 1     
   17    7   33 1     
   18    8    9 1     
   19    9   14 ar    
   20    9   10 ar    
   21   10   11 ar    
   22   11   12 ar    
   23   11   34 1     
   24   12   13 ar    
   25   13   17 1     
   26   13   14 ar    
   27   14   15 1     
   28   15   16 2     
   29   16   17 1     
   30   16   35 1     
   31   17   18 1     
   32   18   19 1     
   33   18   36 1     
   34   18   37 1     
   35   19   24 1     
   36   19   20 1     
   37   19   21 1     
   38   20   38 1     
   39   21   22 1     
   40   21   39 1     
   41   21   40 1     
   42   22   23 1     
   43   22   41 1     
   44   22   42 1     
   45   23   24 1     
   46   24   43 1     
   47   24   44 1     
   48    1   45 1     
   49    1   46 1     
   50    8   47 1     
   51   10   48 1     
   52   12   49 1     
   53   15   50 1     
   54   20   51 1     
   55   20   52 1     
   56   23   53 1     
   57   23   54 1     
@<TRIPOS>SUBSTRUCTURE
      1 S1             1
@<TRIPOS>SET
LONE_PAIRS      STATIC     ATOMS    <user>   **** ""
10 45 46 47 48 49 50 51 52 53 54
DONOR_HYDROGENS      STATIC     ATOMS    <user>   **** ""
2 27 38
ATOM$BLUE        STATIC     ATOMS    COLORGROUP SYSTEM
10 45 46 47 48 49 50 51 52 53 54
ATOM$RED        STATIC     ATOMS    COLORGROUP SYSTEM
2 27 38
