AV-unprocessed.smi:2123|AV-procd|sdf|8647|dock1
  -GOLD-   2272011393D 1   1.00000     0.00000
 Structure written by MMmdl.
 47 48  0  0  0  0  0  0  0  0  1 V2000
  148.7481  131.4766  154.7643 C   0  0  0  0  0  0  0  0  0  0  0  0
  148.2184  132.9627  153.8745 S   0  0  0  0  0  0  0  0  0  0  0  0
  149.7399  133.9468  154.0007 C   0  0  0  0  0  0  0  0  0  0  0  0
  149.7617  134.8462  155.2512 C   0  0  0  0  0  0  0  0  0  0  0  0
  150.8253  135.9502  155.2048 C   0  0  0  0  0  0  0  0  0  0  0  0
  151.7219  135.9964  156.0472 O   0  0  0  0  0  0  0  0  0  0  0  0
  150.7076  136.8419  154.2084 N   0  0  0  0  0  0  0  0  0  0  0  0
  151.5942  137.9782  153.9721 C   0  0  0  0  0  0  0  0  0  0  0  0
  151.6345  138.9765  155.1199 C   0  0  0  0  0  0  0  0  0  0  0  0
  150.6184  139.9355  155.3131 C   0  0  0  0  0  0  0  0  0  0  0  0
  150.7131  140.8243  156.4006 C   0  0  0  0  0  0  0  0  0  0  0  0
  151.8237  140.7343  157.2730 C   0  0  0  0  0  0  0  0  0  0  0  0
  151.9434  141.6197  158.3669 N   0  0  0  0  0  0  0  0  0  0  0  0
  152.8969  141.2814  159.4218 C   0  0  0  0  0  0  0  0  0  0  0  0
  152.6810  142.1791  160.6544 C   0  0  1  0  0  0  0  0  0  0  0  0
  153.7424  141.9387  161.7331 C   0  0  0  0  0  0  0  0  0  0  0  0
  152.7488  143.5457  160.2567 O   0  0  0  0  0  0  0  0  0  0  0  0
  151.7392  143.8879  159.3111 C   0  0  1  0  0  0  0  0  0  0  0  0
  151.8374  145.3898  159.0250 C   0  0  0  0  0  0  0  0  0  0  0  0
  151.9306  143.0428  158.0375 C   0  0  0  0  0  0  0  0  0  0  0  0
  152.7908  139.8010  157.0919 N   0  0  0  0  0  0  0  0  0  0  0  0
  152.6939  138.9502  156.0489 C   0  0  0  0  0  0  0  0  0  0  0  0
  147.9389  130.7472  154.7941 H   0  0  0  0  0  0  0  0  0  0  0  0
  149.0285  131.7253  155.7878 H   0  0  0  0  0  0  0  0  0  0  0  0
  149.6060  131.0219  154.2686 H   0  0  0  0  0  0  0  0  0  0  0  0
  150.5816  133.2550  154.0394 H   0  0  0  0  0  0  0  0  0  0  0  0
  149.8658  134.5375  153.0920 H   0  0  0  0  0  0  0  0  0  0  0  0
  148.7818  135.2945  155.4187 H   0  0  0  0  0  0  0  0  0  0  0  0
  149.9615  134.2187  156.1212 H   0  0  0  0  0  0  0  0  0  0  0  0
  149.9408  136.7254  153.5615 H   0  0  0  0  0  0  0  0  0  0  0  0
  152.6114  137.6455  153.7596 H   0  0  0  0  0  0  0  0  0  0  0  0
  151.2469  138.4822  153.0695 H   0  0  0  0  0  0  0  0  0  0  0  0
  149.7707  139.9928  154.6472 H   0  0  0  0  0  0  0  0  0  0  0  0
  149.9287  141.5488  156.5592 H   0  0  0  0  0  0  0  0  0  0  0  0
  152.7804  140.2365  159.7126 H   0  0  0  0  0  0  0  0  0  0  0  0
  153.9116  141.4029  159.0400 H   0  0  0  0  0  0  0  0  0  0  0  0
  151.6980  141.9806  161.0854 H   0  0  0  0  0  0  0  0  0  0  0  0
  153.7219  140.9055  162.0802 H   0  0  0  0  0  0  0  0  0  0  0  0
  153.5737  142.5830  162.5964 H   0  0  0  0  0  0  0  0  0  0  0  0
  154.7439  142.1447  161.3542 H   0  0  0  0  0  0  0  0  0  0  0  0
  150.7585  143.6823  159.7440 H   0  0  0  0  0  0  0  0  0  0  0  0
  151.0760  145.7041  158.3108 H   0  0  0  0  0  0  0  0  0  0  0  0
  152.8124  145.6499  158.6118 H   0  0  0  0  0  0  0  0  0  0  0  0
  151.6967  145.9699  159.9373 H   0  0  0  0  0  0  0  0  0  0  0  0
  152.8755  143.2977  157.5554 H   0  0  0  0  0  0  0  0  0  0  0  0
  151.1399  143.2864  157.3297 H   0  0  0  0  0  0  0  0  0  0  0  0
  153.4916  138.2283  155.9536 H   0  0  0  0  0  0  0  0  0  0  0  0
  1  2  1  0  0  0  0
  1 23  1  0  0  0  0
  1 24  1  0  0  0  0
  1 25  1  0  0  0  0
  2  3  1  0  0  0  0
  3  4  1  0  0  0  0
  3 26  1  0  0  0  0
  3 27  1  0  0  0  0
  4  5  1  0  0  0  0
  4 28  1  0  0  0  0
  4 29  1  0  0  0  0
  5  6  2  0  0  0  0
  5  7  1  0  0  0  0
  7  8  1  0  0  0  0
  7 30  1  0  0  0  0
  8  9  1  0  0  0  0
  8 31  1  0  0  0  0
  8 32  1  0  0  0  0
  9 22  1  0  0  0  0
  9 10  2  0  0  0  0
 10 11  1  0  0  0  0
 10 33  1  0  0  0  0
 11 12  2  0  0  0  0
 11 34  1  0  0  0  0
 12 13  1  0  0  0  0
 12 21  1  0  0  0  0
 13 20  1  0  0  0  0
 13 14  1  0  0  0  0
 14 15  1  0  0  0  0
 14 35  1  0  0  0  0
 14 36  1  0  0  0  0
 15 16  1  0  0  0  0
 15 17  1  0  0  0  0
 15 37  1  0  0  0  0
 16 38  1  0  0  0  0
 16 39  1  0  0  0  0
 16 40  1  0  0  0  0
 17 18  1  0  0  0  0
 18 19  1  0  0  0  0
 18 20  1  0  0  0  0
 18 41  1  0  0  0  0
 19 42  1  0  0  0  0
 19 43  1  0  0  0  0
 19 44  1  0  0  0  0
 20 45  1  0  0  0  0
 20 46  1  0  0  0  0
 21 22  2  0  0  0  0
 22 47  1  0  0  0  0
M  END
> <s_m_source_file>
AV-unprocessed.smi

> <i_m_source_file_index>
2123

> <i_lp_mmshare_version>
43012

> <i_f3d_flags>
0

> <s_epik_input>
W0NIM11TW0NIMl1bQ0gyXUMoPU8pW05IXVtDSDJdYzFbY0hdW2NIXWMobltjSF0xKU4yW0NIMl1bQ0BASF0oW0NIM10pT1tDQEBIXShbQ0gzXSlbQ0gyXTI=

> <s_epik_cmdline>
J2VwaWtfcHl0aG9uJywgJy1waCcsICc3LjAnLCAnLXRuJywgJzgnLCAnLW1hJywgJzIwMCcsICctbWV0YWxfYmluZGluZycsICctaW1hZScsICc8aW5maWxlLm1hZT4nLCAnLW9tYWUnLCAnPG91dGZpbGUubWFlPic=

> <r_lp_tautomer_probability>
1

> <r_epik_Ionization_Penalty>
0.00642497

> <r_epik_Ionization_Penalty_Charging>
0

> <r_epik_Ionization_Penalty_Neutral>
0.00642497

> <r_epik_State_Penalty>
0.0047515

> <r_epik_Charging_Adjusted_Penalty>
0.0047515

> <i_epik_Tot_Q>
0

> <i_epik_Tot_abs_Q>
0

> <r_epik_Metal_State_Penalty>
-0

> <b_epik_Metal_Only>
0

> <s_lp_Force_Field>
OPLS_2005

> <r_lp_Energy>
15.9329

> <b_lp_Chiralities_Consistent>
1

> <s_lp_Variant>
AV-unprocessed.smi:2123-1

> <Gold.Version>
5.8.1

> <Gold.Id.Protein>
6NUR|6NUR_protein|mol2

> <Gold.PLP.Fitness>
54.3723

> <Gold.PLP.PLP>
-47.1485

> <Gold.PLP.part.hbond>
-4.0000

> <Gold.PLP.part.metal>
0.0000

> <Gold.PLP.part.buried>
-3.7104

> <Gold.PLP.part.nonpolar>
-39.5547

> <Gold.PLP.part.repulsive>
0.1010

> <Gold.PLP.ligand.clash>
0.0000

> <Gold.PLP.ligand.torsion>
0.7390

> <Gold.PLP.Chemscore.Hbond>
2.7552

> <Gold.PLP.Chemscore.CHOScore>
0.0000

> <Gold.PLP.Chemscore.Metal>
0.0000

> <Gold.Chemscore.Hbonds>
donor molecule, donor type, donor heavy atom, donor atom, acceptor molecule, acceptor atom, score
      L1  H     7    30       P1  7948  1.00
      P1  H  7997  8008       L1    21  0.72
      P1  H 10752 10763       L1     6  1.00

> <Gold.PLP.Chemscore.Internal.Correction>
0.4361

> <Gold.Rescore>
     Score         DG    S(hbond)    S(metal)    S(lipo)     H(rot)  DE(clash)    DE(int)     intcor
     20.95     -21.94       2.06        0.00     119.16       1.70       0.25       0.75       ----

> <Gold.Chemscore.Fitness>
20.9469

> <Gold.Chemscore.DG>
-21.9414

> <Gold.Chemscore.ZeroCoef>
-5.4800

> <Gold.Chemscore.Hbond>
2.0613

> <Gold.Chemscore.Metal>
0.0000

> <Gold.Chemscore.Lipo>
119.1559

> <Gold.Chemscore.Internal_Hbond>
0.0000

> <Gold.Chemscore.DEClash>
0.2457

> <Gold.Chemscore.DEInternal>
0.7488

> <Gold.Chemscore.Rot>
1.7049

> <Gold.Chemscore.Internal.Correction>
   9.000000E+99

> <Gold.Chemscore.Hbonds>
donor molecule, donor type, donor heavy atom, donor atom, acceptor molecule, acceptor atom, score
      L1  H     7    30       P1  7948  0.25
      P1  H  7997  8008       L1    21  0.10
      P1  H 10752 10763       L1     6  0.50

> <Gold.Chemscore.Hbond.Weighted>
-6.8848

> <Gold.Chemscore.Metal.Weighted>
-0.0000

> <Gold.Chemscore.Lipo.Weighted>
-13.9412

> <Gold.Chemscore.Internal_Hbond.Weighted>
0.0000

> <Gold.Chemscore.DEClash.Weighted>
0.2457

> <Gold.Chemscore.DEInternal.Weighted>
0.7488

> <Gold.Chemscore.Rot.Weighted>
4.3647

> <Gold.Chemscore.Internal.Correction.Weighted>
   9.000000E+99

> <Gold.Protein.RotatedTorsions>
[ 6907 6896 6895 6894 ] final  -23.86 input  -60.11 | X-H torsion
[ 7974 7965 7964 7962 ] final  -44.94 input  175.53 | X-H torsion
[ 8008 7997 7996 7995 ] final  -82.09 input   59.86 | X-H torsion
[ 10167 10162 10161 10158 ] final   73.82 input  -65.29 | X-H torsion
[ 10718 10713 10712 10709 ] final   18.31 input   66.30 | X-H torsion
[ 10763 10752 10751 10750 ] final   99.05 input  -60.55 | X-H torsion
[ 11005 11000 10999 10996 ] final   47.80 input  -57.11 | X-H torsion

> <Gold.Protein.ActiveResidues>
 VAL166  LYS551  ARG553  GLY616  TRP617  ASP618  TYR619  PRO620  LYS621  CYS622 
 ASP623  PHE694  ASN695  SER759  ASP760  ASP761  ALA762  ILE779  LEU786  VAL792 
 PHE793  MET794  SER795  GLU796  ALA797  LYS798  CYS799  TRP800  GLU811  SER814 

> <Gold.Protein.RotatedAtoms>
  151.1979  135.0430  159.8859 H   0  0  0  0  0  0  0  0  0  0  0  0  # atno 6907 bound_to 6896
  152.5435  134.0883  159.8276 H   0  0  0  0  0  0  0  0  0  0  0  0  # atno 6908 bound_to 6896
  151.1020  133.5189  159.2641 H   0  0  0  0  0  0  0  0  0  0  0  0  # atno 6909 bound_to 6896
  145.9870  140.7222  142.9335 H   0  0  0  0  0  0  0  0  0  0  0  0  # atno 7974 bound_to 7965
  154.6050  140.0638  156.9419 H   0  0  0  0  0  0  0  0  0  0  0  0  # atno 8008 bound_to 7997
  155.2069  140.3319  155.4316 H   0  0  0  0  0  0  0  0  0  0  0  0  # atno 8009 bound_to 7997
  156.2342  140.1855  156.7148 H   0  0  0  0  0  0  0  0  0  0  0  0  # atno 8010 bound_to 7997
  140.0204  144.5545  150.7586 H   0  0  0  0  0  0  0  0  0  0  0  0  # atno 10167 bound_to 10162
  157.0946  130.6442  149.5857 H   0  0  0  0  0  0  0  0  0  0  0  0  # atno 10718 bound_to 10713
  153.2966  135.4127  155.1215 H   0  0  0  0  0  0  0  0  0  0  0  0  # atno 10763 bound_to 10752
  154.8536  135.3531  154.5909 H   0  0  0  0  0  0  0  0  0  0  0  0  # atno 10764 bound_to 10752
  153.6333  135.7060  153.5326 H   0  0  0  0  0  0  0  0  0  0  0  0  # atno 10765 bound_to 10752
  140.1247  134.4783  155.8569 H   0  0  0  0  0  0  0  0  0  0  0  0  # atno 11005 bound_to 11000
  144.6877  140.3005  143.7264 LP  0  0  0  0  0  0  0  0  0  0  0  0  # atno 17320 bound_to 7965
  145.7686  139.1849  143.2225 LP  0  0  0  0  0  0  0  0  0  0  0  0  # atno 17321 bound_to 7965
  140.7345  143.2729  151.3831 LP  0  0  0  0  0  0  0  0  0  0  0  0  # atno 17342 bound_to 10162
  139.6144  144.1033  152.2331 LP  0  0  0  0  0  0  0  0  0  0  0  0  # atno 17343 bound_to 10162
  155.9889  130.4934  150.7191 LP  0  0  0  0  0  0  0  0  0  0  0  0  # atno 17370 bound_to 10713
  157.4692  131.0891  151.0661 LP  0  0  0  0  0  0  0  0  0  0  0  0  # atno 17371 bound_to 10713
  141.2159  133.6773  156.6956 LP  0  0  0  0  0  0  0  0  0  0  0  0  # atno 17394 bound_to 11000
  140.2919  134.8233  157.4024 LP  0  0  0  0  0  0  0  0  0  0  0  0  # atno 17395 bound_to 11000

$$$$
