#       Name:                AV-unprocessed.smi:2855
#       Creating user name   scv26
#       Creation time:       Fri Mar 27 15:44:36 2020


#       File generated by GOLD software.
#

@<TRIPOS>MOLECULE
AV-unprocessed.smi:2855
    53    54     1
SMALL
NO_CHARGES


@<TRIPOS>ATOM
      1 ****        -0.6102  -4.6583  -1.6164 C.3            1 S1                 0.0000
      2 ****        -0.9392  -3.1602  -1.5553 C.3            1 S1                 0.0000
      3 ****        -0.5456  -2.4421  -2.8623 C.3            1 S1                 0.0000
      4 ****        -0.7982  -0.9246  -2.7806 C.3            1 S1                 0.0000
      5 ****        -0.0436  -0.2700  -1.5956 C.3            1 S1                 0.0000
      6 ****         1.5136  -0.2458  -1.7935 C.3            1 S1                 0.0000
      7 ****         2.2772   0.5138  -0.6904 C.3            1 S1                 0.0000
      8 ****         1.9226   0.3551  -3.1538 C.3            1 S1                 0.0000
      9 ****        -0.5768  -0.9746  -0.3097 C.3            1 S1                 0.0000
     10 ****        -0.1323  -0.3768   0.9457 N.am           1 S1                 0.0000
     11 ****        -0.5623   0.7893   1.4517 C.2            1 S1                 0.0000
     12 ****        -1.4045   1.4956   0.8953 O.2            1 S1                 0.0000
     13 ****         0.0877   1.2158   2.7756 C.3            1 S1                 0.0000
     14 ****        -0.4794   2.4515   3.3391 N.am           1 S1                 0.0000
     15 ****         0.1570   3.6636   3.0184 C.2            1 S1                 0.0000
     16 ****        -0.2905   4.8457   3.4828 C.2            1 S1                 0.0000
     17 ****        -1.4690   4.8486   4.3406 C.2            1 S1                 0.0000
     18 ****        -1.8875   5.9180   4.7797 O.2            1 S1                 0.0000
     19 ****        -2.0558   3.6471   4.6171 N.pl3          1 S1                -1.0000
     20 ****        -1.5918   2.4527   4.1341 C.2            1 S1                 0.0000
     21 ****        -2.1396   1.3803   4.3920 O.2            1 S1                 0.0000
     22 ****        -0.2853  -2.4871  -0.3313 C.3            1 S1                 0.0000
     23 ****         0.4608  -4.8240  -1.7382 H              1 S1                 0.0000
     24 ****        -1.1184  -5.1381  -2.4531 H              1 S1                 0.0000
     25 ****        -0.9240  -5.1667  -0.7045 H              1 S1                 0.0000
     26 ****        -2.0205  -3.0678  -1.4422 H              1 S1                 0.0000
     27 ****         0.5035  -2.6308  -3.0907 H              1 S1                 0.0000
     28 ****        -1.1142  -2.8584  -3.6944 H              1 S1                 0.0000
     29 ****        -0.5574  -0.4472  -3.7288 H              1 S1                 0.0000
     30 ****        -1.8690  -0.7572  -2.6559 H              1 S1                 0.0000
     31 ****        -0.3692   0.7705  -1.5616 H              1 S1                 0.0000
     32 ****         1.8881  -1.2687  -1.7843 H              1 S1                 0.0000
     33 ****         1.8445   1.4985  -0.5109 H              1 S1                 0.0000
     34 ****         3.3239   0.6598  -0.9586 H              1 S1                 0.0000
     35 ****         2.2882  -0.0348   0.2497 H              1 S1                 0.0000
     36 ****         1.4911   1.3464  -3.2961 H              1 S1                 0.0000
     37 ****         1.6144  -0.2736  -3.9882 H              1 S1                 0.0000
     38 ****         3.0055   0.4521  -3.2359 H              1 S1                 0.0000
     39 ****        -1.6644  -0.8734  -0.3068 H              1 S1                 0.0000
     40 ****         0.5604  -0.8895   1.4716 H              1 S1                 0.0000
     41 ****         0.0067   0.3966   3.4922 H              1 S1                 0.0000
     42 ****         1.1582   1.3412   2.6061 H              1 S1                 0.0000
     43 ****         1.0179   3.5733   2.3722 H              1 S1                 0.0000
     44 ****         0.2076   5.7685   3.2238 H              1 S1                 0.0000
     45 ****        -0.6716  -2.9472   0.5793 H              1 S1                 0.0000
     46 ****         0.7899  -2.6672  -0.3281 H              1 S1                 0.0000
     47 ****        -1.8016   1.2077   0.0239 LP             1 S1                 0.0000
     48 ****        -1.6910   2.3568   1.3151 LP             1 S1                 0.0000
     49 ****        -1.4204   6.7711   4.5472 LP             1 S1                 0.0000
     50 ****        -2.6950   5.9347   5.3693 LP             1 S1                 0.0000
     51 ****        -2.8664   3.6390   5.2027 LP             1 S1                 0.0000
     52 ****        -1.7698   0.5282   4.0217 LP             1 S1                 0.0000
     53 ****        -2.9542   1.3616   4.9717 LP             1 S1                 0.0000
@<TRIPOS>BOND
    1    1    2 1     
    2    1   23 1     
    3    1   24 1     
    4    1   25 1     
    5    2   22 1     
    6    2    3 1     
    7    2   26 1     
    8    3    4 1     
    9    3   27 1     
   10    3   28 1     
   11    4    5 1     
   12    4   29 1     
   13    4   30 1     
   14    5    6 1     
   15    5    9 1     
   16    5   31 1     
   17    6    7 1     
   18    6    8 1     
   19    6   32 1     
   20    7   33 1     
   21    7   34 1     
   22    7   35 1     
   23    8   36 1     
   24    8   37 1     
   25    8   38 1     
   26    9   10 1     
   27    9   22 1     
   28    9   39 1     
   29   10   11 am    
   30   10   40 1     
   31   11   12 2     
   32   11   13 1     
   33   13   14 1     
   34   13   41 1     
   35   13   42 1     
   36   14   20 am    
   37   14   15 1     
   38   15   16 2     
   39   15   43 1     
   40   16   17 1     
   41   16   44 1     
   42   17   18 2     
   43   17   19 1     
   44   19   20 1     
   45   20   21 2     
   46   22   45 1     
   47   22   46 1     
   48   12   47 1     
   49   12   48 1     
   50   18   49 1     
   51   18   50 1     
   52   19   51 1     
   53   21   52 1     
   54   21   53 1     
@<TRIPOS>SUBSTRUCTURE
      1 S1             1
@<TRIPOS>SET
LONE_PAIRS      STATIC     ATOMS    <user>   **** ""
7 47 48 49 50 51 52 53
DONOR_HYDROGENS      STATIC     ATOMS    <user>   **** ""
1 40
ATOM$BLUE        STATIC     ATOMS    COLORGROUP SYSTEM
7 47 48 49 50 51 52 53
ATOM$RED        STATIC     ATOMS    COLORGROUP SYSTEM
1 40
