AV-unprocessed.smi:1752|AV-procd|sdf|7059|dock2
  -GOLD-   22720 8273D 1   1.00000     0.00000
 Structure written by MMmdl.
 43 44  0  0  0  0  0  0  0  0  2 V2000
  151.4762  143.9701  157.0921 C   0  0  0  0  0  0  0  0  0  0  0  0
  151.1050  142.4843  157.1915 C   0  0  1  0  0  0  0  0  0  0  0  0
  150.6373  142.1157  158.6159 C   0  0  0  0  0  0  0  0  0  0  0  0
  151.6979  142.2257  159.6020 N   0  0  0  0  0  0  0  0  0  0  0  0
  152.9286  141.6032  159.6096 C   0  0  0  0  0  0  0  0  0  0  0  0
  153.5903  142.0254  160.7266 C   0  0  0  0  0  0  0  0  0  0  0  0
  152.6684  142.9120  161.3503 C   0  0  0  0  0  0  0  0  0  0  0  0
  151.5359  143.0282  160.6757 N   0  0  0  0  0  0  0  0  0  0  0  0
  150.0587  142.1895  156.2130 N   0  0  0  0  0  0  0  0  0  0  0  0
  150.0857  141.1994  155.3023 C   0  0  0  0  0  0  0  0  0  0  0  0
  151.0372  140.4253  155.1913 O   0  0  0  0  0  0  0  0  0  0  0  0
  148.9449  141.0727  154.5797 N   0  0  0  0  0  0  0  0  0  0  0  0
  148.5081  139.8081  153.9471 C   0  0  0  0  0  0  0  0  0  0  0  0
  146.9727  139.6481  153.8391 C   0  0  0  0  0  0  0  0  0  0  0  0
  146.2082  139.7135  155.1794 C   0  0  0  0  0  0  0  0  0  0  0  0
  146.6831  140.7586  156.1261 N   0  3  2  0  0  0  0  0  0  0  0  0
  145.8709  140.7881  157.3625 C   0  0  0  0  0  0  0  0  0  0  0  0
  146.8675  142.1149  155.5432 C   0  0  0  0  0  0  0  0  0  0  0  0
  147.9964  142.1959  154.4890 C   0  0  0  0  0  0  0  0  0  0  0  0
  152.2773  144.2203  157.7882 H   0  0  0  0  0  0  0  0  0  0  0  0
  150.6240  144.6102  157.3232 H   0  0  0  0  0  0  0  0  0  0  0  0
  151.8222  144.2231  156.0893 H   0  0  0  0  0  0  0  0  0  0  0  0
  152.0056  141.9130  156.9593 H   0  0  0  0  0  0  0  0  0  0  0  0
  149.8206  142.7701  158.9245 H   0  0  0  0  0  0  0  0  0  0  0  0
  150.2444  141.0982  158.6387 H   0  0  0  0  0  0  0  0  0  0  0  0
  153.2298  140.9252  158.8248 H   0  0  0  0  0  0  0  0  0  0  0  0
  154.5815  141.7440  161.0496 H   0  0  0  0  0  0  0  0  0  0  0  0
  152.7879  143.4706  162.2670 H   0  0  0  0  0  0  0  0  0  0  0  0
  149.2294  142.7637  156.2557 H   0  0  0  0  0  0  0  0  0  0  0  0
  148.9524  139.7480  152.9528 H   0  0  0  0  0  0  0  0  0  0  0  0
  148.8815  138.9490  154.5069 H   0  0  0  0  0  0  0  0  0  0  0  0
  146.5570  140.3760  153.1432 H   0  0  0  0  0  0  0  0  0  0  0  0
  146.7577  138.6863  153.3724 H   0  0  0  0  0  0  0  0  0  0  0  0
  145.1456  139.8574  154.9783 H   0  0  0  0  0  0  0  0  0  0  0  0
  146.2996  138.7490  155.6805 H   0  0  0  0  0  0  0  0  0  0  0  0
  144.8562  141.1300  157.1548 H   0  0  0  0  0  0  0  0  0  0  0  0
  146.3132  141.4567  158.1019 H   0  0  0  0  0  0  0  0  0  0  0  0
  145.8129  139.7955  157.8107 H   0  0  0  0  0  0  0  0  0  0  0  0
  145.9270  142.4803  155.1287 H   0  0  0  0  0  0  0  0  0  0  0  0
  147.1278  142.7947  156.3560 H   0  0  0  0  0  0  0  0  0  0  0  0
  148.5083  143.1560  154.5808 H   0  0  0  0  0  0  0  0  0  0  0  0
  147.5784  142.2370  153.4838 H   0  0  0  0  0  0  0  0  0  0  0  0
  147.6067  140.4672  156.4135 H   0  0  0  0  0  0  0  0  0  0  0  0
  1  2  1  0  0  0  0
  1 20  1  0  0  0  0
  1 21  1  0  0  0  0
  1 22  1  0  0  0  0
  2  3  1  0  0  0  0
  2  9  1  0  0  0  0
  2 23  1  0  0  0  0
  3  4  1  0  0  0  0
  3 24  1  0  0  0  0
  3 25  1  0  0  0  0
  4  8  1  0  0  0  0
  4  5  1  0  0  0  0
  5  6  2  0  0  0  0
  5 26  1  0  0  0  0
  6  7  1  0  0  0  0
  6 27  1  0  0  0  0
  7  8  2  0  0  0  0
  7 28  1  0  0  0  0
  9 10  1  0  0  0  0
  9 29  1  0  0  0  0
 10 11  2  0  0  0  0
 10 12  1  0  0  0  0
 12 19  1  0  0  0  0
 12 13  1  0  0  0  0
 13 14  1  0  0  0  0
 13 30  1  0  0  0  0
 13 31  1  0  0  0  0
 14 15  1  0  0  0  0
 14 32  1  0  0  0  0
 14 33  1  0  0  0  0
 15 16  1  0  0  0  0
 15 34  1  0  0  0  0
 15 35  1  0  0  0  0
 16 17  1  0  0  0  0
 16 18  1  0  0  0  0
 16 43  1  0  0  0  0
 17 36  1  0  0  0  0
 17 37  1  0  0  0  0
 17 38  1  0  0  0  0
 18 19  1  0  0  0  0
 18 39  1  0  0  0  0
 18 40  1  0  0  0  0
 19 41  1  0  0  0  0
 19 42  1  0  0  0  0
M  CHG  1  16   1
M  END
> <s_m_source_file>
AV-unprocessed.smi

> <i_m_source_file_index>
1752

> <i_lp_mmshare_version>
43012

> <i_f3d_flags>
0

> <s_epik_input>
bjFbY0hdW2NIXVtjSF1uMVtDSDJdW0NAQEhdKFtDSDNdKVtOSF1DKD1PKU4yW0NIMl1bQ0gyXVtDSDJdTihbQ0gzXSlbQ0gyXVtDSDJdMg==

> <s_epik_cmdline>
J2VwaWtfcHl0aG9uJywgJy1waCcsICc3LjAnLCAnLXRuJywgJzgnLCAnLW1hJywgJzIwMCcsICctbWV0YWxfYmluZGluZycsICctaW1hZScsICc8aW5maWxlLm1hZT4nLCAnLW9tYWUnLCAnPG91dGZpbGUubWFlPic=

> <r_lp_tautomer_probability>
1

> <r_epik_Ionization_Penalty>
0.00208423

> <r_epik_Ionization_Penalty_Charging>
0.00203643

> <r_epik_Ionization_Penalty_Neutral>
4.77939e-05

> <r_epik_State_Penalty>
0.00139278

> <r_epik_Charging_Adjusted_Penalty>
0.00342922

> <i_epik_Tot_Q>
1

> <i_epik_Tot_abs_Q>
1

> <r_epik_Metal_State_Penalty>
-0

> <b_epik_Metal_Only>
0

> <s_lp_Force_Field>
OPLS_2005

> <r_lp_Energy>
45.8522

> <b_lp_Chiralities_Consistent>
1

> <s_lp_Variant>
AV-unprocessed.smi:1752-2

> <Gold.Version>
5.8.1

> <Gold.Id.Protein>
6NUR|6NUR_protein|mol2

> <Gold.PLP.Fitness>
37.4773

> <Gold.PLP.PLP>
-35.2091

> <Gold.PLP.part.hbond>
-2.7908

> <Gold.PLP.part.metal>
0.0000

> <Gold.PLP.part.buried>
1.0553

> <Gold.PLP.part.nonpolar>
-32.7707

> <Gold.PLP.part.repulsive>
0.2202

> <Gold.PLP.ligand.clash>
2.2301

> <Gold.PLP.ligand.torsion>
0.3124

> <Gold.PLP.Chemscore.Hbond>
1.6560

> <Gold.PLP.Chemscore.CHOScore>
0.0000

> <Gold.PLP.Chemscore.Metal>
0.0000

> <Gold.Chemscore.Hbonds>
donor molecule, donor type, donor heavy atom, donor atom, acceptor molecule, acceptor atom, score
      L1  H     9    29       P1  8028  0.57
      P1  H  7989  7998       L1    11  1.00

> <Gold.PLP.Chemscore.Internal.Correction>
0.1551

> <Gold.Rescore>
     Score         DG    S(hbond)    S(metal)    S(lipo)     H(rot)  DE(clash)    DE(int)     intcor
     13.73     -15.79       1.30        0.00      81.87       1.41       1.84       0.22       ----

> <Gold.Chemscore.Fitness>
13.7333

> <Gold.Chemscore.DG>
-15.7891

> <Gold.Chemscore.ZeroCoef>
-5.4800

> <Gold.Chemscore.Hbond>
1.3011

> <Gold.Chemscore.Metal>
0.0000

> <Gold.Chemscore.Lipo>
81.8749

> <Gold.Chemscore.Internal_Hbond>
0.0000

> <Gold.Chemscore.DEClash>
1.8390

> <Gold.Chemscore.DEInternal>
0.2168

> <Gold.Chemscore.Rot>
1.4125

> <Gold.Chemscore.Internal.Correction>
   9.000000E+99

> <Gold.Chemscore.Hbonds>
donor molecule, donor type, donor heavy atom, donor atom, acceptor molecule, acceptor atom, score
      L1  H     9    29       P1  8028  0.56
      P1  H  7989  7998       L1    11  0.24

> <Gold.Chemscore.Hbond.Weighted>
-4.3457

> <Gold.Chemscore.Metal.Weighted>
-0.0000

> <Gold.Chemscore.Lipo.Weighted>
-9.5794

> <Gold.Chemscore.Internal_Hbond.Weighted>
0.0000

> <Gold.Chemscore.DEClash.Weighted>
1.8390

> <Gold.Chemscore.DEInternal.Weighted>
0.2168

> <Gold.Chemscore.Rot.Weighted>
3.6160

> <Gold.Chemscore.Internal.Correction.Weighted>
   9.000000E+99

> <Gold.Protein.RotatedTorsions>
[ 6907 6896 6895 6894 ] final   34.65 input  -60.11 | X-H torsion
[ 7974 7965 7964 7962 ] final   51.49 input  175.53 | X-H torsion
[ 8008 7997 7996 7995 ] final -177.51 input   59.86 | X-H torsion
[ 10167 10162 10161 10158 ] final   67.60 input  -65.29 | X-H torsion
[ 10718 10713 10712 10709 ] final  157.10 input   66.30 | X-H torsion
[ 10763 10752 10751 10750 ] final   50.10 input  -60.55 | X-H torsion
[ 11005 11000 10999 10996 ] final -136.08 input  -57.11 | X-H torsion

> <Gold.Protein.ActiveResidues>
 VAL166  LYS551  ARG553  GLY616  TRP617  ASP618  TYR619  PRO620  LYS621  CYS622 
 ASP623  PHE694  ASN695  SER759  ASP760  ASP761  ALA762  ILE779  LEU786  VAL792 
 PHE793  MET794  SER795  GLU796  ALA797  LYS798  CYS799  TRP800  GLU811  SER814 

> <Gold.Protein.RotatedAtoms>
  152.1053  134.9313  160.0568 H   0  0  0  0  0  0  0  0  0  0  0  0  # atno 6907 bound_to 6896
  152.0512  133.4015  159.4386 H   0  0  0  0  0  0  0  0  0  0  0  0  # atno 6908 bound_to 6896
  150.6841  134.3226  159.4837 H   0  0  0  0  0  0  0  0  0  0  0  0  # atno 6909 bound_to 6896
  145.9908  139.4337  143.0075 H   0  0  0  0  0  0  0  0  0  0  0  0  # atno 7974 bound_to 7965
  156.0078  140.1234  157.0484 H   0  0  0  0  0  0  0  0  0  0  0  0  # atno 8008 bound_to 7997
  154.4265  140.1094  156.5856 H   0  0  0  0  0  0  0  0  0  0  0  0  # atno 8009 bound_to 7997
  155.6122  140.3471  155.4628 H   0  0  0  0  0  0  0  0  0  0  0  0  # atno 8010 bound_to 7997
  140.0878  144.5015  150.7119 H   0  0  0  0  0  0  0  0  0  0  0  0  # atno 10167 bound_to 10162
  157.1960  131.0665  151.2052 H   0  0  0  0  0  0  0  0  0  0  0  0  # atno 10718 bound_to 10713
  152.9785  135.5890  154.4197 H   0  0  0  0  0  0  0  0  0  0  0  0  # atno 10763 bound_to 10752
  154.3822  135.2767  155.2206 H   0  0  0  0  0  0  0  0  0  0  0  0  # atno 10764 bound_to 10752
  154.4115  135.6080  153.6010 H   0  0  0  0  0  0  0  0  0  0  0  0  # atno 10765 bound_to 10752
  140.8838  134.1898  157.4574 H   0  0  0  0  0  0  0  0  0  0  0  0  # atno 11005 bound_to 11000
  145.7633  140.9926  143.1188 LP  0  0  0  0  0  0  0  0  0  0  0  0  # atno 17320 bound_to 7965
  144.6888  139.9357  143.7473 LP  0  0  0  0  0  0  0  0  0  0  0  0  # atno 17321 bound_to 7965
  140.7044  143.2457  151.4769 LP  0  0  0  0  0  0  0  0  0  0  0  0  # atno 17342 bound_to 10162
  139.5742  144.1857  152.1880 LP  0  0  0  0  0  0  0  0  0  0  0  0  # atno 17343 bound_to 10162
  157.3814  130.7233  149.6632 LP  0  0  0  0  0  0  0  0  0  0  0  0  # atno 17370 bound_to 10713
  155.9706  130.4171  150.4265 LP  0  0  0  0  0  0  0  0  0  0  0  0  # atno 17371 bound_to 10713
  139.8722  134.9829  156.5175 LP  0  0  0  0  0  0  0  0  0  0  0  0  # atno 17394 bound_to 11000
  140.8429  133.8191  155.9093 LP  0  0  0  0  0  0  0  0  0  0  0  0  # atno 17395 bound_to 11000

$$$$
