AV-unprocessed.smi:2822|AV-procd|sdf|10883|dock8
  -GOLD-   2272015323D 1   1.00000     0.00000
 Structure written by MMmdl.
 39 41  0  0  0  0  0  0  0  0  1 V2000
  146.8228  142.8383  154.2549 Cl  0  0  0  0  0  0  0  0  0  0  0  0
  147.6334  141.3133  154.1674 C   0  0  0  0  0  0  0  0  0  0  0  0
  147.0516  140.2538  153.4414 C   0  0  0  0  0  0  0  0  0  0  0  0
  147.6163  139.0338  153.3228 N   0  0  0  0  0  0  0  0  0  0  0  0
  148.8009  138.8290  153.9354 C   0  0  0  0  0  0  0  0  0  0  0  0
  149.4689  139.8180  154.6846 C   0  0  0  0  0  0  0  0  0  0  0  0
  148.8753  141.0967  154.8081 C   0  0  0  0  0  0  0  0  0  0  0  0
  149.4699  142.1377  155.5376 N   0  0  0  0  0  0  0  0  0  0  0  0
  150.7895  141.9784  156.1289 C   0  0  0  0  0  0  0  0  0  0  0  0
  150.7648  142.2294  157.6427 C   0  0  1  0  0  0  0  0  0  0  0  0
  152.0477  141.7161  158.3230 C   0  0  0  0  0  0  0  0  0  0  0  0
  152.0714  142.0240  159.7475 N   0  0  0  0  0  0  0  0  0  0  0  0
  153.3004  141.5408  160.3750 C   0  0  0  0  0  0  0  0  0  0  0  0
  153.3368  141.8217  161.8858 C   0  0  0  0  0  0  0  0  0  0  0  0
  153.1578  143.3228  162.1531 C   0  0  0  0  0  0  0  0  0  0  0  0
  151.8944  143.8376  161.4463 C   0  0  0  0  0  0  0  0  0  0  0  0
  151.9097  143.4671  159.9488 C   0  0  2  0  0  0  0  0  0  0  0  0
  150.6359  143.9798  159.2469 C   0  0  0  0  0  0  0  0  0  0  0  0
  150.6711  143.6343  157.8659 O   0  0  0  0  0  0  0  0  0  0  0  0
  146.1042  140.3894  152.9406 H   0  0  0  0  0  0  0  0  0  0  0  0
  149.2311  137.8444  153.8264 H   0  0  0  0  0  0  0  0  0  0  0  0
  150.4144  139.5797  155.1478 H   0  0  0  0  0  0  0  0  0  0  0  0
  149.0791  143.0674  155.4778 H   0  0  0  0  0  0  0  0  0  0  0  0
  151.1310  140.9605  155.9382 H   0  0  0  0  0  0  0  0  0  0  0  0
  151.4968  142.6551  155.6473 H   0  0  0  0  0  0  0  0  0  0  0  0
  149.8984  141.7302  158.0815 H   0  0  0  0  0  0  0  0  0  0  0  0
  152.1268  140.6377  158.1805 H   0  0  0  0  0  0  0  0  0  0  0  0
  152.9177  142.1591  157.8355 H   0  0  0  0  0  0  0  0  0  0  0  0
  153.3973  140.4670  160.2107 H   0  0  0  0  0  0  0  0  0  0  0  0
  154.1661  142.0047  159.8998 H   0  0  0  0  0  0  0  0  0  0  0  0
  152.5430  141.2617  162.3817 H   0  0  0  0  0  0  0  0  0  0  0  0
  154.2782  141.4732  162.3112 H   0  0  0  0  0  0  0  0  0  0  0  0
  153.0980  143.5135  163.2250 H   0  0  0  0  0  0  0  0  0  0  0  0
  154.0295  143.8661  161.7863 H   0  0  0  0  0  0  0  0  0  0  0  0
  151.0114  143.4093  161.9231 H   0  0  0  0  0  0  0  0  0  0  0  0
  151.8193  144.9188  161.5678 H   0  0  0  0  0  0  0  0  0  0  0  0
  152.7599  143.9761  159.4914 H   0  0  0  0  0  0  0  0  0  0  0  0
  149.7395  143.5613  159.7080 H   0  0  0  0  0  0  0  0  0  0  0  0
  150.5630  145.0641  159.3341 H   0  0  0  0  0  0  0  0  0  0  0  0
  1  2  1  0  0  0  0
  2  7  1  0  0  0  0
  2  3  2  0  0  0  0
  3  4  1  0  0  0  0
  3 20  1  0  0  0  0
  4  5  2  0  0  0  0
  5  6  1  0  0  0  0
  5 21  1  0  0  0  0
  6  7  2  0  0  0  0
  6 22  1  0  0  0  0
  7  8  1  0  0  0  0
  8  9  1  0  0  0  0
  8 23  1  0  0  0  0
  9 10  1  0  0  0  0
  9 24  1  0  0  0  0
  9 25  1  0  0  0  0
 10 19  1  0  0  0  0
 10 11  1  0  0  0  0
 10 26  1  0  0  0  0
 11 12  1  0  0  0  0
 11 27  1  0  0  0  0
 11 28  1  0  0  0  0
 12 17  1  0  0  0  0
 12 13  1  0  0  0  0
 13 14  1  0  0  0  0
 13 29  1  0  0  0  0
 13 30  1  0  0  0  0
 14 15  1  0  0  0  0
 14 31  1  0  0  0  0
 14 32  1  0  0  0  0
 15 16  1  0  0  0  0
 15 33  1  0  0  0  0
 15 34  1  0  0  0  0
 16 17  1  0  0  0  0
 16 35  1  0  0  0  0
 16 36  1  0  0  0  0
 17 18  1  0  0  0  0
 17 37  1  0  0  0  0
 18 19  1  0  0  0  0
 18 38  1  0  0  0  0
 18 39  1  0  0  0  0
M  END
> <s_m_source_file>
AV-unprocessed.smi

> <i_m_source_file_index>
2822

> <i_lp_mmshare_version>
43012

> <i_f3d_flags>
0

> <s_epik_input>
Q2xjMVtjSF1uW2NIXVtjSF1jMVtOSF1bQ0gyXVtDQEhdKFtDSDJdMilPW0NIMl1bQ0BASF0oTjIzKVtDSDJdW0NIMl1bQ0gyXVtDSDJdMw==

> <s_epik_cmdline>
J2VwaWtfcHl0aG9uJywgJy1waCcsICc3LjAnLCAnLXRuJywgJzgnLCAnLW1hJywgJzIwMCcsICctbWV0YWxfYmluZGluZycsICctaW1hZScsICc8aW5maWxlLm1hZT4nLCAnLW9tYWUnLCAnPG91dGZpbGUubWFlPic=

> <r_lp_tautomer_probability>
0.999999

> <r_epik_Ionization_Penalty>
2.10064

> <r_epik_Ionization_Penalty_Charging>
0

> <r_epik_Ionization_Penalty_Neutral>
2.10064

> <r_epik_State_Penalty>
2.1757

> <r_epik_Charging_Adjusted_Penalty>
2.1757

> <i_epik_Tot_Q>
0

> <i_epik_Tot_abs_Q>
0

> <r_epik_Metal_State_Penalty>
1.25425

> <b_epik_Metal_Only>
0

> <s_lp_Force_Field>
OPLS_2005

> <r_lp_Energy>
37.6932

> <b_lp_Chiralities_Consistent>
1

> <s_lp_Variant>
AV-unprocessed.smi:2822-24

> <Gold.Version>
5.8.1

> <Gold.Id.Protein>
6NUR|6NUR_protein|mol2

> <Gold.PLP.Fitness>
49.5929

> <Gold.PLP.PLP>
-40.8693

> <Gold.PLP.part.hbond>
-1.0000

> <Gold.PLP.part.metal>
0.0000

> <Gold.PLP.part.buried>
-4.7715

> <Gold.PLP.part.nonpolar>
-36.4506

> <Gold.PLP.part.repulsive>
2.2559

> <Gold.PLP.ligand.clash>
0.0000

> <Gold.PLP.ligand.torsion>
0.1215

> <Gold.PLP.Chemscore.Hbond>
1.0000

> <Gold.PLP.Chemscore.CHOScore>
1.9886

> <Gold.PLP.Chemscore.Metal>
0.0000

> <Gold.Chemscore.Hbonds>
donor molecule, donor type, donor heavy atom, donor atom, acceptor molecule, acceptor atom, score
      L1  H     8    23       P1  8028  1.00
      L1  C     3    20       P1 10175  1.00
      L1  C     5    21       P1  7948  0.95

> <Gold.PLP.Chemscore.Internal.Correction>
0.0007

> <Gold.Rescore>
     Score         DG    S(hbond)    S(metal)    S(lipo)     H(rot)  DE(clash)    DE(int)     intcor
     19.92     -20.33       1.00        0.00     123.74       1.15       0.31       0.10       ----

> <Gold.Chemscore.Fitness>
19.9245

> <Gold.Chemscore.DG>
-20.3334

> <Gold.Chemscore.ZeroCoef>
-5.4800

> <Gold.Chemscore.Hbond>
0.9954

> <Gold.Chemscore.Metal>
0.0000

> <Gold.Chemscore.Lipo>
123.7398

> <Gold.Chemscore.Internal_Hbond>
0.0000

> <Gold.Chemscore.DEClash>
0.3052

> <Gold.Chemscore.DEInternal>
0.1037

> <Gold.Chemscore.Rot>
1.1519

> <Gold.Chemscore.Internal.Correction>
   9.000000E+99

> <Gold.Chemscore.Hbonds>
donor molecule, donor type, donor heavy atom, donor atom, acceptor molecule, acceptor atom, score
      L1  H     8    23       P1  8028  1.00

> <Gold.Chemscore.Hbond.Weighted>
-3.3245

> <Gold.Chemscore.Metal.Weighted>
-0.0000

> <Gold.Chemscore.Lipo.Weighted>
-14.4776

> <Gold.Chemscore.Internal_Hbond.Weighted>
0.0000

> <Gold.Chemscore.DEClash.Weighted>
0.3052

> <Gold.Chemscore.DEInternal.Weighted>
0.1037

> <Gold.Chemscore.Rot.Weighted>
2.9487

> <Gold.Chemscore.Internal.Correction.Weighted>
   9.000000E+99

> <Gold.Protein.RotatedTorsions>
[ 6907 6896 6895 6894 ] final -145.48 input  -60.11 | X-H torsion
[ 7974 7965 7964 7962 ] final  111.78 input  175.53 | X-H torsion
[ 8008 7997 7996 7995 ] final -150.79 input   59.86 | X-H torsion
[ 10167 10162 10161 10158 ] final -149.57 input  -65.29 | X-H torsion
[ 10718 10713 10712 10709 ] final  -98.65 input   66.30 | X-H torsion
[ 10763 10752 10751 10750 ] final   89.83 input  -60.55 | X-H torsion
[ 11005 11000 10999 10996 ] final  -43.42 input  -57.11 | X-H torsion

> <Gold.Protein.ActiveResidues>
 VAL166  LYS551  ARG553  GLY616  TRP617  ASP618  TYR619  PRO620  LYS621  CYS622 
 ASP623  PHE694  ASN695  SER759  ASP760  ASP761  ALA762  ILE779  LEU786  VAL792 
 PHE793  MET794  SER795  GLU796  ALA797  LYS798  CYS799  TRP800  GLU811  SER814 

> <Gold.Protein.RotatedAtoms>
  151.1284  133.5054  159.2599 H   0  0  0  0  0  0  0  0  0  0  0  0  # atno 6907 bound_to 6896
  151.1784  135.0349  159.8792 H   0  0  0  0  0  0  0  0  0  0  0  0  # atno 6908 bound_to 6896
  152.5459  134.1139  159.8423 H   0  0  0  0  0  0  0  0  0  0  0  0  # atno 6909 bound_to 6896
  145.2379  139.2791  143.4133 H   0  0  0  0  0  0  0  0  0  0  0  0  # atno 7974 bound_to 7965
  155.6291  140.0689  157.2654 H   0  0  0  0  0  0  0  0  0  0  0  0  # atno 8008 bound_to 7997
  154.4210  140.1770  156.1502 H   0  0  0  0  0  0  0  0  0  0  0  0  # atno 8009 bound_to 7997
  155.9947  140.3342  155.6790 H   0  0  0  0  0  0  0  0  0  0  0  0  # atno 8010 bound_to 7997
  139.7431  143.8632  152.2567 H   0  0  0  0  0  0  0  0  0  0  0  0  # atno 10167 bound_to 10162
  156.0113  130.5247  150.6554 H   0  0  0  0  0  0  0  0  0  0  0  0  # atno 10718 bound_to 10713
  153.1912  135.4456  155.0151 H   0  0  0  0  0  0  0  0  0  0  0  0  # atno 10763 bound_to 10752
  154.8091  135.3287  154.7355 H   0  0  0  0  0  0  0  0  0  0  0  0  # atno 10764 bound_to 10752
  153.7809  135.6977  153.4944 H   0  0  0  0  0  0  0  0  0  0  0  0  # atno 10765 bound_to 10752
  141.0382  133.6791  156.2730 H   0  0  0  0  0  0  0  0  0  0  0  0  # atno 11005 bound_to 11000
  146.3336  140.2733  142.8607 LP  0  0  0  0  0  0  0  0  0  0  0  0  # atno 17320 bound_to 7965
  144.9616  140.8281  143.5510 LP  0  0  0  0  0  0  0  0  0  0  0  0  # atno 17321 bound_to 7965
  139.8588  144.7127  150.9125 LP  0  0  0  0  0  0  0  0  0  0  0  0  # atno 17342 bound_to 10162
  140.7788  143.3835  151.1434 LP  0  0  0  0  0  0  0  0  0  0  0  0  # atno 17343 bound_to 10162
  157.4307  131.0849  151.1041 LP  0  0  0  0  0  0  0  0  0  0  0  0  # atno 17370 bound_to 10713
  157.1615  130.6228  149.5612 LP  0  0  0  0  0  0  0  0  0  0  0  0  # atno 17371 bound_to 10713
  140.6283  134.5291  157.5556 LP  0  0  0  0  0  0  0  0  0  0  0  0  # atno 17394 bound_to 11000
  139.9256  134.8062  156.1078 LP  0  0  0  0  0  0  0  0  0  0  0  0  # atno 17395 bound_to 11000

$$$$
