AV-unprocessed.smi:203|AV-procd|sdf|1582|dock4
  -GOLD-   2262019473D 1   1.00000     0.00000
 Structure written by MMmdl.
 57 61  0  0  0  0  0  0  0  0  1 V2000
  157.5578  132.6045  160.1028 O   0  0  0  0  0  0  0  0  0  0  0  0
  156.7878  133.4526  160.5472 C   0  0  0  0  0  0  0  0  0  0  0  0
  155.3134  133.1938  160.8047 C   0  0  0  0  0  0  0  0  0  0  0  0
  154.8509  134.4539  161.5650 C   0  0  1  0  0  0  0  0  0  0  0  0
  154.4914  134.2102  163.0652 C   0  0  2  0  0  0  0  0  0  0  0  0
  153.9148  132.7926  163.3228 C   0  0  0  0  0  0  0  0  0  0  0  0
  153.5766  132.5772  164.8037 C   0  0  0  0  0  0  0  0  0  0  0  0
  152.6152  133.6700  165.2824 C   0  0  0  0  0  0  0  0  0  0  0  0
  153.2120  135.0586  165.0193 C   0  0  0  0  0  0  0  0  0  0  0  0
  153.5738  135.2261  163.6118 N   0  0  0  0  0  0  0  0  0  0  0  0
  153.8858  136.5173  163.3619 C   0  0  0  0  0  0  0  0  0  0  0  0
  154.4913  137.2114  164.3564 N   0  0  0  0  0  0  0  0  0  0  0  0
  154.8226  138.4926  164.1688 C   0  0  0  0  0  0  0  0  0  0  0  0
  154.6474  139.2507  163.0839 N   0  0  0  0  0  0  0  0  0  0  0  0
  154.0468  138.5497  162.0797 C   0  0  0  0  0  0  0  0  0  0  0  0
  153.6321  137.1899  162.1335 C   0  0  0  0  0  0  0  0  0  0  0  0
  153.0541  136.8208  160.9250 N   0  0  0  0  0  0  0  0  0  0  0  0
  153.1266  137.9006  160.1961 C   0  0  0  0  0  0  0  0  0  0  0  0
  153.7255  138.9808  160.8045 N   0  0  0  0  0  0  0  0  0  0  0  0
  153.9491  140.2929  160.2228 C   0  0  0  0  0  0  0  0  0  0  0  0
  152.9621  140.6406  159.0840 C   0  0  2  0  0  0  0  0  0  0  0  0
  153.3120  139.8871  157.9415 O   0  0  0  0  0  0  0  0  0  0  0  0
  152.8476  142.1303  158.6814 C   0  0  2  0  0  0  0  0  0  0  0  0
  152.5887  143.1313  159.8100 C   0  0  0  0  0  0  0  0  0  0  0  0
  152.0234  144.3040  159.0405 C   0  0  0  0  0  0  0  0  0  0  0  0
  151.1850  143.6102  157.9689 C   0  0  0  0  0  0  0  0  0  0  0  0
  151.8080  142.3502  157.7315 O   0  0  0  0  0  0  0  0  0  0  0  0
  155.9901  135.4773  161.3685 C   0  0  0  0  0  0  0  0  0  0  0  0
  157.1092  134.7048  160.8656 N   0  0  0  0  0  0  0  0  0  0  0  0
  154.7940  133.0990  159.8507 H   0  0  0  0  0  0  0  0  0  0  0  0
  155.1623  132.2700  161.3635 H   0  0  0  0  0  0  0  0  0  0  0  0
  153.9792  134.8640  161.0547 H   0  0  0  0  0  0  0  0  0  0  0  0
  155.4182  134.2819  163.6353 H   0  0  0  0  0  0  0  0  0  0  0  0
  153.0109  132.6389  162.7332 H   0  0  0  0  0  0  0  0  0  0  0  0
  154.6177  132.0224  163.0076 H   0  0  0  0  0  0  0  0  0  0  0  0
  153.1307  131.5930  164.9494 H   0  0  0  0  0  0  0  0  0  0  0  0
  154.4901  132.5999  165.3992 H   0  0  0  0  0  0  0  0  0  0  0  0
  151.6608  133.5760  164.7628 H   0  0  0  0  0  0  0  0  0  0  0  0
  152.4062  133.5474  166.3453 H   0  0  0  0  0  0  0  0  0  0  0  0
  152.4924  135.8243  165.3133 H   0  0  0  0  0  0  0  0  0  0  0  0
  154.0977  135.2010  165.6404 H   0  0  0  0  0  0  0  0  0  0  0  0
  155.2983  138.9794  165.0075 H   0  0  0  0  0  0  0  0  0  0  0  0
  152.7548  137.9326  159.1823 H   0  0  0  0  0  0  0  0  0  0  0  0
  153.8899  141.0365  161.0185 H   0  0  0  0  0  0  0  0  0  0  0  0
  154.9740  140.3265  159.8508 H   0  0  0  0  0  0  0  0  0  0  0  0
  151.9681  140.3018  159.3764 H   0  0  0  0  0  0  0  0  0  0  0  0
  152.8610  140.2485  157.1943 H   0  0  0  0  0  0  0  0  0  0  0  0
  153.7681  142.4247  158.1736 H   0  0  0  0  0  0  0  0  0  0  0  0
  151.8424  142.7640  160.5134 H   0  0  0  0  0  0  0  0  0  0  0  0
  153.4900  143.3824  160.3695 H   0  0  0  0  0  0  0  0  0  0  0  0
  151.4417  144.9862  159.6609 H   0  0  0  0  0  0  0  0  0  0  0  0
  152.8323  144.8696  158.5757 H   0  0  0  0  0  0  0  0  0  0  0  0
  150.1723  143.4321  158.3314 H   0  0  0  0  0  0  0  0  0  0  0  0
  151.1161  144.1974  157.0530 H   0  0  0  0  0  0  0  0  0  0  0  0
  155.7168  136.2226  160.6202 H   0  0  0  0  0  0  0  0  0  0  0  0
  156.2534  136.0120  162.2812 H   0  0  0  0  0  0  0  0  0  0  0  0
  158.0377  135.0906  160.7725 H   0  0  0  0  0  0  0  0  0  0  0  0
  1  2  2  0  0  0  0
  2 29  1  0  0  0  0
  2  3  1  0  0  0  0
  3  4  1  0  0  0  0
  3 30  1  0  0  0  0
  3 31  1  0  0  0  0
  4  5  1  0  0  0  0
  4 28  1  0  0  0  0
  4 32  1  0  0  0  0
  5 10  1  0  0  0  0
  5  6  1  0  0  0  0
  5 33  1  0  0  0  0
  6  7  1  0  0  0  0
  6 34  1  0  0  0  0
  6 35  1  0  0  0  0
  7  8  1  0  0  0  0
  7 36  1  0  0  0  0
  7 37  1  0  0  0  0
  8  9  1  0  0  0  0
  8 38  1  0  0  0  0
  8 39  1  0  0  0  0
  9 10  1  0  0  0  0
  9 40  1  0  0  0  0
  9 41  1  0  0  0  0
 10 11  1  0  0  0  0
 11 16  1  0  0  0  0
 11 12  2  0  0  0  0
 12 13  1  0  0  0  0
 13 14  2  0  0  0  0
 13 42  1  0  0  0  0
 14 15  1  0  0  0  0
 15 19  1  0  0  0  0
 15 16  2  0  0  0  0
 16 17  1  0  0  0  0
 17 18  2  0  0  0  0
 18 19  1  0  0  0  0
 18 43  1  0  0  0  0
 19 20  1  0  0  0  0
 20 21  1  0  0  0  0
 20 44  1  0  0  0  0
 20 45  1  0  0  0  0
 21 22  1  0  0  0  0
 21 23  1  0  0  0  0
 21 46  1  0  0  0  0
 22 47  1  0  0  0  0
 23 27  1  0  0  0  0
 23 24  1  0  0  0  0
 23 48  1  0  0  0  0
 24 25  1  0  0  0  0
 24 49  1  0  0  0  0
 24 50  1  0  0  0  0
 25 26  1  0  0  0  0
 25 51  1  0  0  0  0
 25 52  1  0  0  0  0
 26 27  1  0  0  0  0
 26 53  1  0  0  0  0
 26 54  1  0  0  0  0
 28 29  1  0  0  0  0
 28 55  1  0  0  0  0
 28 56  1  0  0  0  0
 29 57  1  0  0  0  0
M  END
> <s_m_source_file>
AV-unprocessed.smi

> <i_m_source_file_index>
203

> <i_lp_mmshare_version>
43012

> <i_f3d_flags>
0

> <s_epik_input>
Tz1DMVtDSDJdW0NASF0oW0NIMl1bTkhdMSlbQ0BASF0yW0NIMl1bQ0gyXVtDSDJdW0NIMl1OMmMobltjSF1uMyljKGMzNCluW2NIXW40W0NIMl1bQ0BIXShbT0hdKVtDQEBIXTVbQ0gyXVtDSDJdW0NIMl1PNQ==

> <s_epik_cmdline>
J2VwaWtfcHl0aG9uJywgJy1waCcsICc3LjAnLCAnLXRuJywgJzgnLCAnLW1hJywgJzIwMCcsICctbWV0YWxfYmluZGluZycsICctaW1hZScsICc8aW5maWxlLm1hZT4nLCAnLW9tYWUnLCAnPG91dGZpbGUubWFlPic=

> <r_lp_tautomer_probability>
1

> <r_epik_Ionization_Penalty>
0.00175146

> <r_epik_Ionization_Penalty_Charging>
0

> <r_epik_Ionization_Penalty_Neutral>
0.00175146

> <r_epik_State_Penalty>
0.00109045

> <r_epik_Charging_Adjusted_Penalty>
0.00109045

> <i_epik_Tot_Q>
0

> <i_epik_Tot_abs_Q>
0

> <r_epik_Metal_State_Penalty>
-0

> <b_epik_Metal_Only>
0

> <s_lp_Force_Field>
OPLS_2005

> <r_lp_Energy>
56.5802

> <b_lp_Chiralities_Consistent>
1

> <s_lp_Variant>
AV-unprocessed.smi:203-1

> <Gold.Version>
5.8.1

> <Gold.Id.Protein>
6NUR|6NUR_protein|mol2

> <Gold.PLP.Fitness>
43.9462

> <Gold.PLP.PLP>
-43.0667

> <Gold.PLP.part.hbond>
-1.1628

> <Gold.PLP.part.metal>
0.0000

> <Gold.PLP.part.buried>
-3.8374

> <Gold.PLP.part.nonpolar>
-38.6200

> <Gold.PLP.part.repulsive>
0.1094

> <Gold.PLP.ligand.clash>
0.0000

> <Gold.PLP.ligand.torsion>
1.7199

> <Gold.PLP.Chemscore.Hbond>
1.3413

> <Gold.PLP.Chemscore.CHOScore>
0.0000

> <Gold.PLP.Chemscore.Metal>
0.0000

> <Gold.Chemscore.Hbonds>
donor molecule, donor type, donor heavy atom, donor atom, acceptor molecule, acceptor atom, score
      P1  H  6896  6909       L1    17  0.55
      P1  H  7997  8009       L1    22  0.05

> <Gold.PLP.Chemscore.Internal.Correction>
0.2955

> <Gold.Rescore>
     Score         DG    S(hbond)    S(metal)    S(lipo)     H(rot)  DE(clash)    DE(int)     intcor
     12.85     -15.55       1.65        0.00      98.43       2.72       0.00       2.70       ----

> <Gold.Chemscore.Fitness>
12.8531

> <Gold.Chemscore.DG>
-15.5516

> <Gold.Chemscore.ZeroCoef>
-5.4800

> <Gold.Chemscore.Hbond>
1.6500

> <Gold.Chemscore.Metal>
0.0000

> <Gold.Chemscore.Lipo>
98.4310

> <Gold.Chemscore.Internal_Hbond>
0.0000

> <Gold.Chemscore.DEClash>
0.0000

> <Gold.Chemscore.DEInternal>
2.6985

> <Gold.Chemscore.Rot>
2.7171

> <Gold.Chemscore.Internal.Correction>
   9.000000E+99

> <Gold.Chemscore.Hbonds>
donor molecule, donor type, donor heavy atom, donor atom, acceptor molecule, acceptor atom, score
      P1  H  6896  6909       L1    17  0.54

> <Gold.Chemscore.Hbond.Weighted>
-5.5109

> <Gold.Chemscore.Metal.Weighted>
-0.0000

> <Gold.Chemscore.Lipo.Weighted>
-11.5164

> <Gold.Chemscore.Internal_Hbond.Weighted>
0.0000

> <Gold.Chemscore.DEClash.Weighted>
0.0000

> <Gold.Chemscore.DEInternal.Weighted>
2.6985

> <Gold.Chemscore.Rot.Weighted>
6.9557

> <Gold.Chemscore.Internal.Correction.Weighted>
   9.000000E+99

> <Gold.Protein.RotatedTorsions>
[ 6907 6896 6895 6894 ] final  150.24 input  -60.11 | X-H torsion
[ 7974 7965 7964 7962 ] final   64.49 input  175.53 | X-H torsion
[ 8008 7997 7996 7995 ] final  159.66 input   59.86 | X-H torsion
[ 10167 10162 10161 10158 ] final  129.37 input  -65.29 | X-H torsion
[ 10718 10713 10712 10709 ] final   62.80 input   66.30 | X-H torsion
[ 10763 10752 10751 10750 ] final -139.48 input  -60.55 | X-H torsion
[ 11005 11000 10999 10996 ] final  117.50 input  -57.11 | X-H torsion

> <Gold.Protein.ActiveResidues>
 VAL166  LYS551  ARG553  GLY616  TRP617  ASP618  TYR619  PRO620  LYS621  CYS622 
 ASP623  PHE694  ASN695  SER759  ASP760  ASP761  ALA762  ILE779  LEU786  VAL792 
 PHE793  MET794  SER795  GLU796  ALA797  LYS798  CYS799  TRP800  GLU811  SER814 

> <Gold.Protein.RotatedAtoms>
  152.1171  133.4332  159.4657 H   0  0  0  0  0  0  0  0  0  0  0  0  # atno 6907 bound_to 6896
  150.6870  134.2579  159.4546 H   0  0  0  0  0  0  0  0  0  0  0  0  # atno 6908 bound_to 6896
  152.0453  134.9686  160.0625 H   0  0  0  0  0  0  0  0  0  0  0  0  # atno 6909 bound_to 6896
  145.8496  139.3246  143.0883 H   0  0  0  0  0  0  0  0  0  0  0  0  # atno 7974 bound_to 7965
  156.2224  140.1825  156.7444 H   0  0  0  0  0  0  0  0  0  0  0  0  # atno 8008 bound_to 7997
  154.5887  140.0654  156.9236 H   0  0  0  0  0  0  0  0  0  0  0  0  # atno 8009 bound_to 7997
  155.2375  140.3319  155.4298 H   0  0  0  0  0  0  0  0  0  0  0  0  # atno 8010 bound_to 7997
  139.5481  144.6790  151.4409 H   0  0  0  0  0  0  0  0  0  0  0  0  # atno 10167 bound_to 10162
  157.5926  130.9070  149.9633 H   0  0  0  0  0  0  0  0  0  0  0  0  # atno 10718 bound_to 10713
  154.8608  135.3581  154.5553 H   0  0  0  0  0  0  0  0  0  0  0  0  # atno 10763 bound_to 10752
  153.6170  135.7007  153.5330 H   0  0  0  0  0  0  0  0  0  0  0  0  # atno 10764 bound_to 10752
  153.3161  135.4164  155.1337 H   0  0  0  0  0  0  0  0  0  0  0  0  # atno 10765 bound_to 10752
  139.9076  134.9610  156.7359 H   0  0  0  0  0  0  0  0  0  0  0  0  # atno 11005 bound_to 11000
  145.9373  140.9005  143.0326 LP  0  0  0  0  0  0  0  0  0  0  0  0  # atno 17320 bound_to 7965
  144.6729  140.1500  143.7430 LP  0  0  0  0  0  0  0  0  0  0  0  0  # atno 17321 bound_to 7965
  140.6736  143.8240  150.7030 LP  0  0  0  0  0  0  0  0  0  0  0  0  # atno 17342 bound_to 10162
  140.1672  143.4225  152.2026 LP  0  0  0  0  0  0  0  0  0  0  0  0  # atno 17343 bound_to 10162
  156.0983  130.3657  150.0265 LP  0  0  0  0  0  0  0  0  0  0  0  0  # atno 17370 bound_to 10713
  156.8385  130.9417  151.3633 LP  0  0  0  0  0  0  0  0  0  0  0  0  # atno 17371 bound_to 10713
  140.6888  133.9409  155.7953 LP  0  0  0  0  0  0  0  0  0  0  0  0  # atno 17394 bound_to 11000
  141.0457  134.0557  157.3847 LP  0  0  0  0  0  0  0  0  0  0  0  0  # atno 17395 bound_to 11000

$$$$
