AV-unprocessed.smi:2345|AV-procd|sdf|9364|dock5
  -GOLD-   2272012583D 1   1.00000     0.00000
 Structure written by MMmdl.
 37 38  0  0  0  0  0  0  0  0  1 V2000
  154.8567  140.6117  161.0150 C   0  0  0  0  0  0  0  0  0  0  0  0
  154.1687  141.6719  160.1519 C   0  0  0  0  0  0  0  0  0  0  0  0
  152.5540  141.0975  159.5566 S   0  0  0  0  0  0  0  0  0  0  0  0
  151.7294  142.6862  159.2412 C   0  0  1  0  0  0  0  0  0  0  0  0
  152.1247  143.7533  160.2655 C   0  0  0  0  0  0  0  0  0  0  0  0
  151.8925  145.0739  159.5396 C   0  0  0  0  0  0  0  0  0  0  0  0
  152.3294  144.7921  158.1018 C   0  0  0  0  0  0  0  0  0  0  0  0
  152.0734  143.2903  157.8625 C   0  0  2  0  0  0  0  0  0  0  0  0
  150.9762  143.0837  156.9201 N   0  0  0  0  0  0  0  0  0  0  0  0
  150.6481  141.9078  156.3672 C   0  0  0  0  0  0  0  0  0  0  0  0
  151.2572  140.8617  156.5892 O   0  0  0  0  0  0  0  0  0  0  0  0
  149.5727  142.0308  155.5708 N   0  0  0  0  0  0  0  0  0  0  0  0
  148.9113  141.0306  154.8067 C   0  0  0  0  0  0  0  0  0  0  0  0
  149.3821  139.7034  154.6564 C   0  0  0  0  0  0  0  0  0  0  0  0
  148.6408  138.8112  153.8557 C   0  0  0  0  0  0  0  0  0  0  0  0
  147.5047  139.1557  153.2133 N   0  0  0  0  0  0  0  0  0  0  0  0
  147.0666  140.4252  153.3474 C   0  0  0  0  0  0  0  0  0  0  0  0
  147.7315  141.3954  154.1239 C   0  0  0  0  0  0  0  0  0  0  0  0
  147.2388  142.6549  154.2127 F   0  0  0  0  0  0  0  0  0  0  0  0
  155.8240  140.9678  161.3698 H   0  0  0  0  0  0  0  0  0  0  0  0
  155.0265  139.6949  160.4498 H   0  0  0  0  0  0  0  0  0  0  0  0
  154.2526  140.3624  161.8877 H   0  0  0  0  0  0  0  0  0  0  0  0
  154.0325  142.5868  160.7283 H   0  0  0  0  0  0  0  0  0  0  0  0
  154.7962  141.9193  159.2956 H   0  0  0  0  0  0  0  0  0  0  0  0
  150.6520  142.5318  159.3235 H   0  0  0  0  0  0  0  0  0  0  0  0
  151.5537  143.6775  161.1913 H   0  0  0  0  0  0  0  0  0  0  0  0
  153.1822  143.6616  160.5180 H   0  0  0  0  0  0  0  0  0  0  0  0
  150.8308  145.3230  159.5604 H   0  0  0  0  0  0  0  0  0  0  0  0
  152.4396  145.9030  159.9891 H   0  0  0  0  0  0  0  0  0  0  0  0
  151.8169  145.4399  157.3891 H   0  0  0  0  0  0  0  0  0  0  0  0
  153.3969  144.9929  158.0032 H   0  0  0  0  0  0  0  0  0  0  0  0
  152.9862  142.8346  157.4734 H   0  0  0  0  0  0  0  0  0  0  0  0
  150.4206  143.8931  156.6850 H   0  0  0  0  0  0  0  0  0  0  0  0
  149.1357  142.9407  155.5542 H   0  0  0  0  0  0  0  0  0  0  0  0
  150.2915  139.3568  155.1219 H   0  0  0  0  0  0  0  0  0  0  0  0
  148.9746  137.7927  153.7230 H   0  0  0  0  0  0  0  0  0  0  0  0
  146.1592  140.6766  152.8182 H   0  0  0  0  0  0  0  0  0  0  0  0
  1  2  1  0  0  0  0
  1 20  1  0  0  0  0
  1 21  1  0  0  0  0
  1 22  1  0  0  0  0
  2  3  1  0  0  0  0
  2 23  1  0  0  0  0
  2 24  1  0  0  0  0
  3  4  1  0  0  0  0
  4  8  1  0  0  0  0
  4  5  1  0  0  0  0
  4 25  1  0  0  0  0
  5  6  1  0  0  0  0
  5 26  1  0  0  0  0
  5 27  1  0  0  0  0
  6  7  1  0  0  0  0
  6 28  1  0  0  0  0
  6 29  1  0  0  0  0
  7  8  1  0  0  0  0
  7 30  1  0  0  0  0
  7 31  1  0  0  0  0
  8  9  1  0  0  0  0
  8 32  1  0  0  0  0
  9 10  1  0  0  0  0
  9 33  1  0  0  0  0
 10 11  2  0  0  0  0
 10 12  1  0  0  0  0
 12 13  1  0  0  0  0
 12 34  1  0  0  0  0
 13 18  1  0  0  0  0
 13 14  2  0  0  0  0
 14 15  1  0  0  0  0
 14 35  1  0  0  0  0
 15 16  2  0  0  0  0
 15 36  1  0  0  0  0
 16 17  1  0  0  0  0
 17 18  2  0  0  0  0
 17 37  1  0  0  0  0
 18 19  1  0  0  0  0
M  END
> <s_m_source_file>
AV-unprocessed.smi

> <i_m_source_file_index>
2345

> <i_lp_mmshare_version>
43012

> <i_f3d_flags>
0

> <s_epik_input>
W0NIM11bQ0gyXVNbQ0BASF0xW0NIMl1bQ0gyXVtDSDJdW0NASF0xW05IXUMoPU8pW05IXWMyW2NIXVtjSF1uW2NIXWMyRg==

> <s_epik_cmdline>
J2VwaWtfcHl0aG9uJywgJy1waCcsICc3LjAnLCAnLXRuJywgJzgnLCAnLW1hJywgJzIwMCcsICctbWV0YWxfYmluZGluZycsICctaW1hZScsICc8aW5maWxlLm1hZT4nLCAnLW9tYWUnLCAnPG91dGZpbGUubWFlPic=

> <r_epik_Ionization_Penalty>
0.00333745

> <r_epik_Ionization_Penalty_Charging>
0

> <r_epik_Ionization_Penalty_Neutral>
0.00333745

> <r_epik_State_Penalty>
0.00233401

> <r_epik_Charging_Adjusted_Penalty>
0.00233401

> <i_epik_Tot_Q>
0

> <i_epik_Tot_abs_Q>
0

> <r_epik_Metal_State_Penalty>
-0

> <b_epik_Metal_Only>
0

> <s_lp_Force_Field>
OPLS_2005

> <r_lp_Energy>
20.2483

> <b_lp_Chiralities_Consistent>
1

> <s_lp_Variant>
AV-unprocessed.smi:2345-4

> <Gold.Version>
5.8.1

> <Gold.Id.Protein>
6NUR|6NUR_protein|mol2

> <Gold.PLP.Fitness>
55.9642

> <Gold.PLP.PLP>
-44.9646

> <Gold.PLP.part.hbond>
-2.0000

> <Gold.PLP.part.metal>
0.0000

> <Gold.PLP.part.buried>
-3.4118

> <Gold.PLP.part.nonpolar>
-40.6829

> <Gold.PLP.part.repulsive>
1.3405

> <Gold.PLP.ligand.clash>
0.0000

> <Gold.PLP.ligand.torsion>
0.5055

> <Gold.PLP.Chemscore.Hbond>
2.0000

> <Gold.PLP.Chemscore.CHOScore>
2.0000

> <Gold.PLP.Chemscore.Metal>
0.0000

> <Gold.Chemscore.Hbonds>
donor molecule, donor type, donor heavy atom, donor atom, acceptor molecule, acceptor atom, score
      L1  H     9    33       P1  8028  1.00
      L1  H    12    34       P1  8028  1.00
      L1  C    15    36       P1  7948  1.00
      L1  C    17    37       P1 10175  1.00

> <Gold.PLP.Chemscore.Internal.Correction>
0.0104

> <Gold.Rescore>
     Score         DG    S(hbond)    S(metal)    S(lipo)     H(rot)  DE(clash)    DE(int)     intcor
     20.63     -22.40       1.95        0.00     118.49       1.35       0.03       1.74       ----

> <Gold.Chemscore.Fitness>
20.6253

> <Gold.Chemscore.DG>
-22.4048

> <Gold.Chemscore.ZeroCoef>
-5.4800

> <Gold.Chemscore.Hbond>
1.9496

> <Gold.Chemscore.Metal>
0.0000

> <Gold.Chemscore.Lipo>
118.4859

> <Gold.Chemscore.Internal_Hbond>
0.0000

> <Gold.Chemscore.DEClash>
0.0347

> <Gold.Chemscore.DEInternal>
1.7449

> <Gold.Chemscore.Rot>
1.3475

> <Gold.Chemscore.Internal.Correction>
   9.000000E+99

> <Gold.Chemscore.Hbonds>
donor molecule, donor type, donor heavy atom, donor atom, acceptor molecule, acceptor atom, score
      L1  H     9    33       P1  8028  0.92
      L1  H    12    34       P1  8028  1.00

> <Gold.Chemscore.Hbond.Weighted>
-6.5116

> <Gold.Chemscore.Metal.Weighted>
-0.0000

> <Gold.Chemscore.Lipo.Weighted>
-13.8628

> <Gold.Chemscore.Internal_Hbond.Weighted>
0.0000

> <Gold.Chemscore.DEClash.Weighted>
0.0347

> <Gold.Chemscore.DEInternal.Weighted>
1.7449

> <Gold.Chemscore.Rot.Weighted>
3.4496

> <Gold.Chemscore.Internal.Correction.Weighted>
   9.000000E+99

> <Gold.Protein.RotatedTorsions>
[ 6907 6896 6895 6894 ] final  159.75 input  -60.11 | X-H torsion
[ 7974 7965 7964 7962 ] final  139.24 input  175.53 | X-H torsion
[ 8008 7997 7996 7995 ] final  177.42 input   59.86 | X-H torsion
[ 10167 10162 10161 10158 ] final -147.62 input  -65.29 | X-H torsion
[ 10718 10713 10712 10709 ] final  110.89 input   66.30 | X-H torsion
[ 10763 10752 10751 10750 ] final  120.49 input  -60.55 | X-H torsion
[ 11005 11000 10999 10996 ] final   36.21 input  -57.11 | X-H torsion

> <Gold.Protein.ActiveResidues>
 VAL166  LYS551  ARG553  GLY616  TRP617  ASP618  TYR619  PRO620  LYS621  CYS622 
 ASP623  PHE694  ASN695  SER759  ASP760  ASP761  ALA762  ILE779  LEU786  VAL792 
 PHE793  MET794  SER795  GLU796  ALA797  LYS798  CYS799  TRP800  GLU811  SER814 

> <Gold.Protein.RotatedAtoms>
  151.9809  133.3757  159.4106 H   0  0  0  0  0  0  0  0  0  0  0  0  # atno 6907 bound_to 6896
  150.6935  134.4039  159.5141 H   0  0  0  0  0  0  0  0  0  0  0  0  # atno 6908 bound_to 6896
  152.1758  134.8795  160.0581 H   0  0  0  0  0  0  0  0  0  0  0  0  # atno 6909 bound_to 6896
  144.9297  139.5063  143.5624 H   0  0  0  0  0  0  0  0  0  0  0  0  # atno 7974 bound_to 7965
  156.0658  140.1359  156.9887 H   0  0  0  0  0  0  0  0  0  0  0  0  # atno 8008 bound_to 7997
  154.4505  140.0982  156.6656 H   0  0  0  0  0  0  0  0  0  0  0  0  # atno 8009 bound_to 7997
  155.5306  140.3458  155.4427 H   0  0  0  0  0  0  0  0  0  0  0  0  # atno 8010 bound_to 7997
  139.7605  143.8384  152.2606 H   0  0  0  0  0  0  0  0  0  0  0  0  # atno 10167 bound_to 10162
  157.6472  131.0941  150.6668 H   0  0  0  0  0  0  0  0  0  0  0  0  # atno 10718 bound_to 10713
  153.5993  135.3451  155.2939 H   0  0  0  0  0  0  0  0  0  0  0  0  # atno 10763 bound_to 10752
  154.8639  135.4223  154.2430 H   0  0  0  0  0  0  0  0  0  0  0  0  # atno 10764 bound_to 10752
  153.3255  135.7041  153.7064 H   0  0  0  0  0  0  0  0  0  0  0  0  # atno 10765 bound_to 10752
  140.2348  134.3484  155.7949 H   0  0  0  0  0  0  0  0  0  0  0  0  # atno 11005 bound_to 11000
  146.3241  139.8238  142.8921 LP  0  0  0  0  0  0  0  0  0  0  0  0  # atno 17320 bound_to 7965
  145.3162  141.0232  143.3526 LP  0  0  0  0  0  0  0  0  0  0  0  0  # atno 17321 bound_to 7965
  139.8388  144.7219  150.9357 LP  0  0  0  0  0  0  0  0  0  0  0  0  # atno 17342 bound_to 10162
  140.7806  143.4002  151.1162 LP  0  0  0  0  0  0  0  0  0  0  0  0  # atno 17343 bound_to 10162
  156.6984  130.4616  149.5580 LP  0  0  0  0  0  0  0  0  0  0  0  0  # atno 17370 bound_to 10713
  156.1812  130.6500  151.0954 LP  0  0  0  0  0  0  0  0  0  0  0  0  # atno 17371 bound_to 10713
  141.2215  133.7266  156.8790 LP  0  0  0  0  0  0  0  0  0  0  0  0  # atno 17394 bound_to 11000
  140.1713  134.9098  157.2837 LP  0  0  0  0  0  0  0  0  0  0  0  0  # atno 17395 bound_to 11000

$$$$
