AV-unprocessed.smi:3263|AV-procd|sdf|12486|dock7
  -GOLD-   2272018383D 1   1.00000     0.00000
 Structure written by MMmdl.
 41 43  0  0  0  0  0  0  0  0  1 V2000
  144.2879  136.8320  152.2387 O   0  0  0  0  0  0  0  0  0  0  0  0
  145.4075  136.5996  151.7832 C   0  0  0  0  0  0  0  0  0  0  0  0
  145.6103  135.4557  150.7861 C   0  0  0  0  0  0  0  0  0  0  0  0
  145.3201  134.0667  151.3984 C   0  0  2  0  0  0  0  0  0  0  0  0
  146.4380  133.0284  151.1624 C   0  0  0  0  0  0  0  0  0  0  0  0
  145.6689  131.8114  150.6136 C   0  0  2  0  0  0  0  0  0  0  0  0
  145.2324  132.1001  149.1654 C   0  0  0  0  0  0  0  0  0  0  0  0
  144.1027  133.1292  149.3521 C   0  0  0  0  0  0  0  0  0  0  0  0
  144.0633  133.3202  150.8824 C   0  0  1  0  0  0  0  0  0  0  0  0
  144.3451  131.9010  151.3644 C   0  0  0  0  0  0  0  0  0  0  0  0
  146.4970  137.3147  152.1016 N   0  0  0  0  0  0  0  0  0  0  0  0
  146.5050  138.4832  152.9732 C   0  0  0  0  0  0  0  0  0  0  0  0
  147.1886  138.1758  154.3164 C   0  0  0  0  0  0  0  0  0  0  0  0
  148.2568  139.1945  154.6654 C   0  0  0  0  0  0  0  0  0  0  0  0
  149.6211  138.8333  154.6785 C   0  0  0  0  0  0  0  0  0  0  0  0
  150.5719  139.8165  155.0144 C   0  0  0  0  0  0  0  0  0  0  0  0
  150.1244  141.1157  155.3226 C   0  0  0  0  0  0  0  0  0  0  0  0
  148.7400  141.3751  155.2815 C   0  0  0  0  0  0  0  0  0  0  0  0
  147.8202  140.4397  154.9608 N   0  0  0  0  0  0  0  0  0  0  0  0
  144.9960  135.6205  149.9000 H   0  0  0  0  0  0  0  0  0  0  0  0
  146.6440  135.4890  150.4411 H   0  0  0  0  0  0  0  0  0  0  0  0
  145.2085  134.1954  152.4768 H   0  0  0  0  0  0  0  0  0  0  0  0
  147.2016  133.3740  150.4643 H   0  0  0  0  0  0  0  0  0  0  0  0
  146.9367  132.7849  152.1014 H   0  0  0  0  0  0  0  0  0  0  0  0
  146.2031  130.8680  150.7289 H   0  0  0  0  0  0  0  0  0  0  0  0
  146.0500  132.4853  148.5551 H   0  0  0  0  0  0  0  0  0  0  0  0
  144.8520  131.1978  148.6850 H   0  0  0  0  0  0  0  0  0  0  0  0
  144.2788  134.0541  148.8043 H   0  0  0  0  0  0  0  0  0  0  0  0
  143.1563  132.7196  148.9967 H   0  0  0  0  0  0  0  0  0  0  0  0
  143.1245  133.7406  151.2451 H   0  0  0  0  0  0  0  0  0  0  0  0
  143.6053  131.1729  151.0268 H   0  0  0  0  0  0  0  0  0  0  0  0
  144.4551  131.8222  152.4475 H   0  0  0  0  0  0  0  0  0  0  0  0
  147.3777  137.0499  151.6844 H   0  0  0  0  0  0  0  0  0  0  0  0
  146.9953  139.3204  152.4732 H   0  0  0  0  0  0  0  0  0  0  0  0
  145.4713  138.7852  153.1444 H   0  0  0  0  0  0  0  0  0  0  0  0
  146.4445  138.1489  155.1136 H   0  0  0  0  0  0  0  0  0  0  0  0
  147.6456  137.1853  154.2918 H   0  0  0  0  0  0  0  0  0  0  0  0
  149.9338  137.8278  154.4377 H   0  0  0  0  0  0  0  0  0  0  0  0
  151.6251  139.5784  155.0359 H   0  0  0  0  0  0  0  0  0  0  0  0
  150.8249  141.8949  155.5845 H   0  0  0  0  0  0  0  0  0  0  0  0
  148.3612  142.3597  155.5131 H   0  0  0  0  0  0  0  0  0  0  0  0
  1  2  2  0  0  0  0
  2  3  1  0  0  0  0
  2 11  1  0  0  0  0
  3  4  1  0  0  0  0
  3 20  1  0  0  0  0
  3 21  1  0  0  0  0
  4  9  1  0  0  0  0
  4  5  1  0  0  0  0
  4 22  1  0  0  0  0
  5  6  1  0  0  0  0
  5 23  1  0  0  0  0
  5 24  1  0  0  0  0
  6 10  1  0  0  0  0
  6  7  1  0  0  0  0
  6 25  1  0  0  0  0
  7  8  1  0  0  0  0
  7 26  1  0  0  0  0
  7 27  1  0  0  0  0
  8  9  1  0  0  0  0
  8 28  1  0  0  0  0
  8 29  1  0  0  0  0
  9 10  1  0  0  0  0
  9 30  1  0  0  0  0
 10 31  1  0  0  0  0
 10 32  1  0  0  0  0
 11 12  1  0  0  0  0
 11 33  1  0  0  0  0
 12 13  1  0  0  0  0
 12 34  1  0  0  0  0
 12 35  1  0  0  0  0
 13 14  1  0  0  0  0
 13 36  1  0  0  0  0
 13 37  1  0  0  0  0
 14 19  1  0  0  0  0
 14 15  2  0  0  0  0
 15 16  1  0  0  0  0
 15 38  1  0  0  0  0
 16 17  2  0  0  0  0
 16 39  1  0  0  0  0
 17 18  1  0  0  0  0
 17 40  1  0  0  0  0
 18 19  2  0  0  0  0
 18 41  1  0  0  0  0
M  END
> <s_m_source_file>
AV-unprocessed.smi

> <i_m_source_file_index>
3263

> <i_lp_mmshare_version>
43012

> <i_f3d_flags>
0

> <s_epik_input>
W0NIMl0xW0NIMl1bQ0BASF0oW0NIMl0yKVtDQEBIXShbQ0gyXVtDQEhdMTIpW0NIMl1DKD1PKVtOSF1bQ0gyXVtDSDJdYzNbY0hdW2NIXVtjSF1bY0hdbjM=

> <s_epik_cmdline>
J2VwaWtfcHl0aG9uJywgJy1waCcsICc3LjAnLCAnLXRuJywgJzgnLCAnLW1hJywgJzIwMCcsICctbWV0YWxfYmluZGluZycsICctaW1hZScsICc8aW5maWxlLm1hZT4nLCAnLW9tYWUnLCAnPG91dGZpbGUubWFlPic=

> <r_epik_Ionization_Penalty>
0.0273541

> <r_epik_Ionization_Penalty_Charging>
0

> <r_epik_Ionization_Penalty_Neutral>
0.0273541

> <r_epik_State_Penalty>
0.0223838

> <r_epik_Charging_Adjusted_Penalty>
0.0223838

> <i_epik_Tot_Q>
0

> <i_epik_Tot_abs_Q>
0

> <r_epik_Metal_State_Penalty>
0.0213927

> <b_epik_Metal_Only>
0

> <s_lp_Force_Field>
OPLS_2005

> <r_lp_Energy>
46.2802

> <b_lp_Chiralities_Consistent>
1

> <s_lp_Variant>
AV-unprocessed.smi:3263-1

> <Gold.Version>
5.8.1

> <Gold.Id.Protein>
6NUR|6NUR_protein|mol2

> <Gold.PLP.Fitness>
41.5194

> <Gold.PLP.PLP>
-37.9023

> <Gold.PLP.part.hbond>
-1.0000

> <Gold.PLP.part.metal>
0.0000

> <Gold.PLP.part.buried>
-2.9380

> <Gold.PLP.part.nonpolar>
-33.2919

> <Gold.PLP.part.repulsive>
0.8250

> <Gold.PLP.ligand.clash>
0.0000

> <Gold.PLP.ligand.torsion>
1.1968

> <Gold.PLP.Chemscore.Hbond>
0.9920

> <Gold.PLP.Chemscore.CHOScore>
1.0000

> <Gold.PLP.Chemscore.Metal>
0.0000

> <Gold.Chemscore.Hbonds>
donor molecule, donor type, donor heavy atom, donor atom, acceptor molecule, acceptor atom, score
      L1  H    11    33       P1  7948  0.99
      L1  C    18    41       P1  8028  1.00

> <Gold.PLP.Chemscore.Internal.Correction>
0.0346

> <Gold.Rescore>
     Score         DG    S(hbond)    S(metal)    S(lipo)     H(rot)  DE(clash)    DE(int)     intcor
     16.19     -17.52       0.92        0.00     108.46       1.46       0.12       1.21       ----

> <Gold.Chemscore.Fitness>
16.1929

> <Gold.Chemscore.DG>
-17.5233

> <Gold.Chemscore.ZeroCoef>
-5.4800

> <Gold.Chemscore.Hbond>
0.9221

> <Gold.Chemscore.Metal>
0.0000

> <Gold.Chemscore.Lipo>
108.4583

> <Gold.Chemscore.Internal_Hbond>
0.0000

> <Gold.Chemscore.DEClash>
0.1155

> <Gold.Chemscore.DEInternal>
1.2149

> <Gold.Chemscore.Rot>
1.4555

> <Gold.Chemscore.Internal.Correction>
   9.000000E+99

> <Gold.Chemscore.Hbonds>
donor molecule, donor type, donor heavy atom, donor atom, acceptor molecule, acceptor atom, score
      L1  H    11    33       P1  7948  0.94

> <Gold.Chemscore.Hbond.Weighted>
-3.0797

> <Gold.Chemscore.Metal.Weighted>
-0.0000

> <Gold.Chemscore.Lipo.Weighted>
-12.6896

> <Gold.Chemscore.Internal_Hbond.Weighted>
0.0000

> <Gold.Chemscore.DEClash.Weighted>
0.1155

> <Gold.Chemscore.DEInternal.Weighted>
1.2149

> <Gold.Chemscore.Rot.Weighted>
3.7260

> <Gold.Chemscore.Internal.Correction.Weighted>
   9.000000E+99

> <Gold.Protein.RotatedTorsions>
[ 6907 6896 6895 6894 ] final  119.76 input  -60.11 | X-H torsion
[ 7974 7965 7964 7962 ] final -141.86 input  175.53 | X-H torsion
[ 8008 7997 7996 7995 ] final  -26.29 input   59.86 | X-H torsion
[ 10167 10162 10161 10158 ] final  -70.74 input  -65.29 | X-H torsion
[ 10718 10713 10712 10709 ] final  -65.31 input   66.30 | X-H torsion
[ 10763 10752 10751 10750 ] final   21.82 input  -60.55 | X-H torsion
[ 11005 11000 10999 10996 ] final -112.69 input  -57.11 | X-H torsion

> <Gold.Protein.ActiveResidues>
 VAL166  LYS551  ARG553  GLY616  TRP617  ASP618  TYR619  PRO620  LYS621  CYS622 
 ASP623  PHE694  ASN695  SER759  ASP760  ASP761  ALA762  ILE779  LEU786  VAL792 
 PHE793  MET794  SER795  GLU796  ALA797  LYS798  CYS799  TRP800  GLU811  SER814 

> <Gold.Protein.RotatedAtoms>
  152.4448  133.7516  159.6696 H   0  0  0  0  0  0  0  0  0  0  0  0  # atno 6907 bound_to 6896
  150.8346  133.8024  159.3091 H   0  0  0  0  0  0  0  0  0  0  0  0  # atno 6908 bound_to 6896
  151.5668  135.1066  160.0037 H   0  0  0  0  0  0  0  0  0  0  0  0  # atno 6909 bound_to 6896
  144.8487  140.6028  143.5404 H   0  0  0  0  0  0  0  0  0  0  0  0  # atno 7974 bound_to 7965
  154.4432  140.1903  156.0752 H   0  0  0  0  0  0  0  0  0  0  0  0  # atno 8008 bound_to 7997
  156.0481  140.3312  155.7293 H   0  0  0  0  0  0  0  0  0  0  0  0  # atno 8009 bound_to 7997
  155.5599  140.0602  157.2822 H   0  0  0  0  0  0  0  0  0  0  0  0  # atno 8010 bound_to 7997
  140.5328  143.2320  151.7230 H   0  0  0  0  0  0  0  0  0  0  0  0  # atno 10167 bound_to 10162
  156.0677  130.4245  150.1546 H   0  0  0  0  0  0  0  0  0  0  0  0  # atno 10718 bound_to 10713
  153.0964  135.6661  153.9755 H   0  0  0  0  0  0  0  0  0  0  0  0  # atno 10763 bound_to 10752
  153.9337  135.3001  155.3446 H   0  0  0  0  0  0  0  0  0  0  0  0  # atno 10764 bound_to 10752
  154.7383  135.5091  153.9153 H   0  0  0  0  0  0  0  0  0  0  0  0  # atno 10765 bound_to 10752
  141.0659  133.9459  157.2578 H   0  0  0  0  0  0  0  0  0  0  0  0  # atno 11005 bound_to 11000
  145.4544  139.1520  143.3901 LP  0  0  0  0  0  0  0  0  0  0  0  0  # atno 17320 bound_to 7965
  146.2766  140.4671  142.8793 LP  0  0  0  0  0  0  0  0  0  0  0  0  # atno 17321 bound_to 7965
  139.4960  144.4088  152.0103 LP  0  0  0  0  0  0  0  0  0  0  0  0  # atno 17342 bound_to 10162
  140.3191  144.3449  150.6014 LP  0  0  0  0  0  0  0  0  0  0  0  0  # atno 17343 bound_to 10162
  156.9603  130.9803  151.3480 LP  0  0  0  0  0  0  0  0  0  0  0  0  # atno 17370 bound_to 10713
  157.5729  130.8323  149.8415 LP  0  0  0  0  0  0  0  0  0  0  0  0  # atno 17371 bound_to 10713
  139.9476  135.0181  156.8900 LP  0  0  0  0  0  0  0  0  0  0  0  0  # atno 17394 bound_to 11000
  140.5773  134.0386  155.7451 LP  0  0  0  0  0  0  0  0  0  0  0  0  # atno 17395 bound_to 11000

$$$$
