AV-unprocessed.smi:1900|AV-procd|sdf|7709|dock7
  -GOLD-   22720 9443D 1   1.00000     0.00000
 Structure written by MMmdl.
 44 45  0  0  0  0  0  0  0  0  2 V2000
  150.1347  135.0986  154.2700 C   0  0  0  0  0  0  0  0  0  0  0  0
  150.2853  136.1833  155.3514 C   0  0  2  0  0  0  0  0  0  0  0  0
  149.1330  137.2072  155.3614 C   0  0  0  0  0  0  0  0  0  0  0  0
  149.2319  138.1403  154.2139 N   0  3  1  0  0  0  0  0  0  0  0  0
  148.0998  139.0994  154.1698 C   0  0  0  0  0  0  0  0  0  0  0  0
  147.4976  139.2393  152.7614 C   0  0  0  0  0  0  0  0  0  0  0  0
  146.2393  138.3731  152.5818 C   0  0  0  0  0  0  0  0  0  0  0  0
  146.5464  137.0868  151.9663 N   0  0  0  0  0  0  0  0  0  0  0  0
  145.6346  136.1730  151.6035 C   0  0  0  0  0  0  0  0  0  0  0  0
  144.4209  136.3381  151.7289 O   0  0  0  0  0  0  0  0  0  0  0  0
  146.2166  135.0741  151.0960 N   0  0  0  0  0  0  0  0  0  0  0  0
  145.5740  133.9049  150.6157 C   0  0  0  0  0  0  0  0  0  0  0  0
  146.1910  132.6292  150.5063 C   0  0  0  0  0  0  0  0  0  0  0  0
  145.3501  131.7245  150.0258 N   0  0  0  0  0  0  0  0  0  0  0  0
  144.2027  132.4111  149.8253 N   0  0  0  0  0  0  0  0  0  0  0  0
  144.2924  133.7416  150.1702 C   0  0  0  0  0  0  0  0  0  0  0  0
  150.5634  138.7932  154.1976 C   0  0  0  0  0  0  0  0  0  0  0  0
  151.6815  137.7358  154.1603 C   0  0  1  0  0  0  0  0  0  0  0  0
  153.0742  138.3715  154.2351 C   0  0  0  0  0  0  0  0  0  0  0  0
  151.5417  136.8557  155.2725 O   0  0  0  0  0  0  0  0  0  0  0  0
  143.3758  131.9626  149.4573 H   0  0  0  0  0  0  0  0  0  0  0  0
  149.2305  134.5123  154.4353 H   0  0  0  0  0  0  0  0  0  0  0  0
  150.9801  134.4103  154.2896 H   0  0  0  0  0  0  0  0  0  0  0  0
  150.0681  135.5185  153.2670 H   0  0  0  0  0  0  0  0  0  0  0  0
  150.2795  135.6699  156.3134 H   0  0  0  0  0  0  0  0  0  0  0  0
  148.1748  136.6864  155.3432 H   0  0  0  0  0  0  0  0  0  0  0  0
  149.1616  137.7822  156.2884 H   0  0  0  0  0  0  0  0  0  0  0  0
  147.3120  138.7495  154.8386 H   0  0  0  0  0  0  0  0  0  0  0  0
  148.4204  140.0697  154.5522 H   0  0  0  0  0  0  0  0  0  0  0  0
  147.2443  140.2806  152.5649 H   0  0  0  0  0  0  0  0  0  0  0  0
  148.2423  138.9562  152.0163 H   0  0  0  0  0  0  0  0  0  0  0  0
  145.7779  138.1816  153.5509 H   0  0  0  0  0  0  0  0  0  0  0  0
  145.4948  138.9004  151.9829 H   0  0  0  0  0  0  0  0  0  0  0  0
  147.5222  136.8672  151.8276 H   0  0  0  0  0  0  0  0  0  0  0  0
  147.2253  135.0674  151.0585 H   0  0  0  0  0  0  0  0  0  0  0  0
  147.2000  132.3357  150.7561 H   0  0  0  0  0  0  0  0  0  0  0  0
  143.4605  134.4224  150.0682 H   0  0  0  0  0  0  0  0  0  0  0  0
  150.6587  139.4430  153.3286 H   0  0  0  0  0  0  0  0  0  0  0  0
  150.6703  139.4253  155.0809 H   0  0  0  0  0  0  0  0  0  0  0  0
  151.6192  137.1688  153.2312 H   0  0  0  0  0  0  0  0  0  0  0  0
  153.2414  139.0507  153.3986 H   0  0  0  0  0  0  0  0  0  0  0  0
  153.8532  137.6094  154.2039 H   0  0  0  0  0  0  0  0  0  0  0  0
  153.2008  138.9390  155.1575 H   0  0  0  0  0  0  0  0  0  0  0  0
  149.1665  137.5741  153.3801 H   0  0  0  0  0  0  0  0  0  0  0  0
  1  2  1  0  0  0  0
  1 22  1  0  0  0  0
  1 23  1  0  0  0  0
  1 24  1  0  0  0  0
  2 20  1  0  0  0  0
  2  3  1  0  0  0  0
  2 25  1  0  0  0  0
  3  4  1  0  0  0  0
  3 26  1  0  0  0  0
  3 27  1  0  0  0  0
  4  5  1  0  0  0  0
  4 17  1  0  0  0  0
  4 44  1  0  0  0  0
  5  6  1  0  0  0  0
  5 28  1  0  0  0  0
  5 29  1  0  0  0  0
  6  7  1  0  0  0  0
  6 30  1  0  0  0  0
  6 31  1  0  0  0  0
  7  8  1  0  0  0  0
  7 32  1  0  0  0  0
  7 33  1  0  0  0  0
  8  9  1  0  0  0  0
  8 34  1  0  0  0  0
  9 10  2  0  0  0  0
  9 11  1  0  0  0  0
 11 12  1  0  0  0  0
 11 35  1  0  0  0  0
 12 16  2  0  0  0  0
 12 13  1  0  0  0  0
 13 14  2  0  0  0  0
 13 36  1  0  0  0  0
 14 15  1  0  0  0  0
 15 21  1  0  0  0  0
 15 16  1  0  0  0  0
 16 37  1  0  0  0  0
 17 18  1  0  0  0  0
 17 38  1  0  0  0  0
 17 39  1  0  0  0  0
 18 19  1  0  0  0  0
 18 20  1  0  0  0  0
 18 40  1  0  0  0  0
 19 41  1  0  0  0  0
 19 42  1  0  0  0  0
 19 43  1  0  0  0  0
M  CHG  1   4   1
M  END
> <s_m_source_file>
AV-unprocessed.smi

> <i_m_source_file_index>
1900

> <i_lp_mmshare_version>
43012

> <i_f3d_flags>
0

> <s_epik_input>
W0NIM11bQ0BASF0xW0NIMl1OKFtDSDJdW0NASF0oTzEpW0NIM10pW0NIMl1bQ0gyXVtDSDJdW05IXUMoPU8pW05IXWMyW2NIXW5bbkhdW2NIXTI=

> <s_epik_cmdline>
J2VwaWtfcHl0aG9uJywgJy1waCcsICc3LjAnLCAnLXRuJywgJzgnLCAnLW1hJywgJzIwMCcsICctbWV0YWxfYmluZGluZycsICctaW1hZScsICc8aW5maWxlLm1hZT4nLCAnLW9tYWUnLCAnPG91dGZpbGUubWFlPic=

> <r_lp_tautomer_probability>
0.5

> <r_epik_Ionization_Penalty>
0.270543

> <r_epik_Ionization_Penalty_Charging>
0.270496

> <r_epik_Ionization_Penalty_Neutral>
4.67091e-05

> <r_epik_State_Penalty>
0.262618

> <r_epik_Charging_Adjusted_Penalty>
0.533114

> <i_epik_Tot_Q>
1

> <i_epik_Tot_abs_Q>
1

> <r_epik_Metal_State_Penalty>
0.262618

> <b_epik_Metal_Only>
0

> <s_lp_Force_Field>
OPLS_2005

> <r_lp_Energy>
21.2497

> <b_lp_Chiralities_Consistent>
1

> <s_lp_Variant>
AV-unprocessed.smi:1900-1

> <Gold.Version>
5.8.1

> <Gold.Id.Protein>
6NUR|6NUR_protein|mol2

> <Gold.PLP.Fitness>
45.0025

> <Gold.PLP.PLP>
-29.5650

> <Gold.PLP.part.hbond>
-3.6498

> <Gold.PLP.part.metal>
0.0000

> <Gold.PLP.part.buried>
-2.2036

> <Gold.PLP.part.nonpolar>
-24.7218

> <Gold.PLP.part.repulsive>
0.6471

> <Gold.PLP.ligand.clash>
0.0000

> <Gold.PLP.ligand.torsion>
1.2305

> <Gold.PLP.Chemscore.Hbond>
3.9572

> <Gold.PLP.Chemscore.CHOScore>
2.0000

> <Gold.PLP.Chemscore.Metal>
0.0000

> <Gold.Chemscore.Hbonds>
donor molecule, donor type, donor heavy atom, donor atom, acceptor molecule, acceptor atom, score
      L1  H     4    44       P1  7948  2.00
      L1  H     8    34       P1  7948  1.00
      L1  H    11    35       P1  7948  0.53
      P1  H 10752 10764       L1    20  0.90
      L1  C    13    36       P1 10747  1.00
      L1  C    16    37       P1 10186  1.00

> <Gold.PLP.Chemscore.Internal.Correction>
0.0268

> <Gold.Rescore>
     Score         DG    S(hbond)    S(metal)    S(lipo)     H(rot)  DE(clash)    DE(int)     intcor
     13.98     -17.27       2.15        0.00      81.68       1.93       1.33       1.95       ----

> <Gold.Chemscore.Fitness>
13.9823

> <Gold.Chemscore.DG>
-17.2679

> <Gold.Chemscore.ZeroCoef>
-5.4800

> <Gold.Chemscore.Hbond>
2.1508

> <Gold.Chemscore.Metal>
0.0000

> <Gold.Chemscore.Lipo>
81.6829

> <Gold.Chemscore.Internal_Hbond>
0.0000

> <Gold.Chemscore.DEClash>
1.3329

> <Gold.Chemscore.DEInternal>
1.9526

> <Gold.Chemscore.Rot>
1.9347

> <Gold.Chemscore.Internal.Correction>
   9.000000E+99

> <Gold.Chemscore.Hbonds>
donor molecule, donor type, donor heavy atom, donor atom, acceptor molecule, acceptor atom, score
      L1  H     4    44       P1  7948  0.95
      L1  H     8    34       P1  7948  0.94
      L1  H    11    35       P1  7948  0.26
      P1  H 10752 10764       L1    20  0.23

> <Gold.Chemscore.Hbond.Weighted>
-7.1838

> <Gold.Chemscore.Metal.Weighted>
-0.0000

> <Gold.Chemscore.Lipo.Weighted>
-9.5569

> <Gold.Chemscore.Internal_Hbond.Weighted>
0.0000

> <Gold.Chemscore.DEClash.Weighted>
1.3329

> <Gold.Chemscore.DEInternal.Weighted>
1.9526

> <Gold.Chemscore.Rot.Weighted>
4.9528

> <Gold.Chemscore.Internal.Correction.Weighted>
   9.000000E+99

> <Gold.Protein.RotatedTorsions>
[ 6907 6896 6895 6894 ] final  -31.04 input  -60.11 | X-H torsion
[ 7974 7965 7964 7962 ] final  104.52 input  175.53 | X-H torsion
[ 8008 7997 7996 7995 ] final  116.39 input   59.86 | X-H torsion
[ 10167 10162 10161 10158 ] final  -52.67 input  -65.29 | X-H torsion
[ 10718 10713 10712 10709 ] final    4.33 input   66.30 | X-H torsion
[ 10763 10752 10751 10750 ] final  -36.57 input  -60.55 | X-H torsion
[ 11005 11000 10999 10996 ] final  -51.22 input  -57.11 | X-H torsion

> <Gold.Protein.ActiveResidues>
 VAL166  LYS551  ARG553  GLY616  TRP617  ASP618  TYR619  PRO620  LYS621  CYS622 
 ASP623  PHE694  ASN695  SER759  ASP760  ASP761  ALA762  ILE779  LEU786  VAL792 
 PHE793  MET794  SER795  GLU796  ALA797  LYS798  CYS799  TRP800  GLU811  SER814 

> <Gold.Protein.RotatedAtoms>
  151.0974  134.9952  159.8431 H   0  0  0  0  0  0  0  0  0  0  0  0  # atno 6907 bound_to 6896
  152.5434  134.1992  159.8715 H   0  0  0  0  0  0  0  0  0  0  0  0  # atno 6908 bound_to 6896
  151.2032  133.4554  159.2630 H   0  0  0  0  0  0  0  0  0  0  0  0  # atno 6909 bound_to 6896
  145.3317  139.2485  143.3657 H   0  0  0  0  0  0  0  0  0  0  0  0  # atno 7974 bound_to 7965
  156.2436  140.2918  156.0515 H   0  0  0  0  0  0  0  0  0  0  0  0  # atno 8008 bound_to 7997
  155.1876  140.0406  157.2911 H   0  0  0  0  0  0  0  0  0  0  0  0  # atno 8009 bound_to 7997
  154.6217  140.2477  155.7549 H   0  0  0  0  0  0  0  0  0  0  0  0  # atno 8010 bound_to 7997
  140.6525  143.2576  151.4681 H   0  0  0  0  0  0  0  0  0  0  0  0  # atno 10167 bound_to 10162
  156.8910  130.5687  149.5650 H   0  0  0  0  0  0  0  0  0  0  0  0  # atno 10718 bound_to 10713
  153.8820  135.6820  153.4766 H   0  0  0  0  0  0  0  0  0  0  0  0  # atno 10763 bound_to 10752
  153.1228  135.4732  154.9222 H   0  0  0  0  0  0  0  0  0  0  0  0  # atno 10764 bound_to 10752
  154.7664  135.3225  154.8229 H   0  0  0  0  0  0  0  0  0  0  0  0  # atno 10765 bound_to 10752
  141.0859  133.6642  156.3845 H   0  0  0  0  0  0  0  0  0  0  0  0  # atno 11005 bound_to 11000
  146.3043  140.3896  142.8693 LP  0  0  0  0  0  0  0  0  0  0  0  0  # atno 17320 bound_to 7965
  144.8859  140.7461  143.5957 LP  0  0  0  0  0  0  0  0  0  0  0  0  # atno 17321 bound_to 7965
  139.5742  144.1857  152.1880 LP  0  0  0  0  0  0  0  0  0  0  0  0  # atno 17342 bound_to 10162
  140.1163  144.5413  150.6892 LP  0  0  0  0  0  0  0  0  0  0  0  0  # atno 17343 bound_to 10162
  156.0629  130.5678  150.9229 LP  0  0  0  0  0  0  0  0  0  0  0  0  # atno 17370 bound_to 10713
  157.6084  131.0938  150.8839 LP  0  0  0  0  0  0  0  0  0  0  0  0  # atno 17371 bound_to 10713
  140.5364  134.6163  157.5366 LP  0  0  0  0  0  0  0  0  0  0  0  0  # atno 17394 bound_to 11000
  139.9677  134.7345  156.0104 LP  0  0  0  0  0  0  0  0  0  0  0  0  # atno 17395 bound_to 11000

$$$$
