AV-unprocessed.smi:3263|AV-procd|sdf|12489|dock7
  -GOLD-   2272018393D 1   1.00000     0.00000
 Structure written by MMmdl.
 41 43  0  0  0  0  0  0  0  0  1 V2000
  148.7763  144.9645  161.2296 O   0  0  0  0  0  0  0  0  0  0  0  0
  148.4985  144.7625  160.0474 C   0  0  0  0  0  0  0  0  0  0  0  0
  149.3833  143.8511  159.1905 C   0  0  0  0  0  0  0  0  0  0  0  0
  150.8169  144.4013  159.0159 C   0  0  1  0  0  0  0  0  0  0  0  0
  151.6386  144.5248  160.3189 C   0  0  0  0  0  0  0  0  0  0  0  0
  152.9631  143.8277  159.9556 C   0  0  1  0  0  0  0  0  0  0  0  0
  152.7337  142.3059  159.9119 C   0  0  0  0  0  0  0  0  0  0  0  0
  151.9220  142.1243  158.6165 C   0  0  0  0  0  0  0  0  0  0  0  0
  151.7562  143.5718  158.1084 C   0  0  2  0  0  0  0  0  0  0  0  0
  153.1128  144.1662  158.4761 C   0  0  0  0  0  0  0  0  0  0  0  0
  147.4319  145.3034  159.4390 N   0  0  0  0  0  0  0  0  0  0  0  0
  146.4480  146.1651  160.0839 C   0  0  0  0  0  0  0  0  0  0  0  0
  145.3875  146.6548  159.0834 C   0  0  0  0  0  0  0  0  0  0  0  0
  145.5318  148.1317  158.7682 C   0  0  0  0  0  0  0  0  0  0  0  0
  145.4950  148.5912  157.4341 C   0  0  0  0  0  0  0  0  0  0  0  0
  145.6376  149.9721  157.1959 C   0  0  0  0  0  0  0  0  0  0  0  0
  145.8118  150.8354  158.2946 C   0  0  0  0  0  0  0  0  0  0  0  0
  145.8364  150.2771  159.5882 C   0  0  0  0  0  0  0  0  0  0  0  0
  145.6999  148.9549  159.8276 N   0  0  0  0  0  0  0  0  0  0  0  0
  149.4056  142.8572  159.6378 H   0  0  0  0  0  0  0  0  0  0  0  0
  148.9107  143.7426  158.2139 H   0  0  0  0  0  0  0  0  0  0  0  0
  150.7442  145.3942  158.5676 H   0  0  0  0  0  0  0  0  0  0  0  0
  151.8024  145.5739  160.5684 H   0  0  0  0  0  0  0  0  0  0  0  0
  151.1558  144.0533  161.1760 H   0  0  0  0  0  0  0  0  0  0  0  0
  153.8015  144.1254  160.5859 H   0  0  0  0  0  0  0  0  0  0  0  0
  153.6813  141.7697  159.8485 H   0  0  0  0  0  0  0  0  0  0  0  0
  152.2011  141.9420  160.7914 H   0  0  0  0  0  0  0  0  0  0  0  0
  152.4924  141.5352  157.8970 H   0  0  0  0  0  0  0  0  0  0  0  0
  150.9776  141.6062  158.7764 H   0  0  0  0  0  0  0  0  0  0  0  0
  151.5049  143.6356  157.0493 H   0  0  0  0  0  0  0  0  0  0  0  0
  153.1865  145.2378  158.2828 H   0  0  0  0  0  0  0  0  0  0  0  0
  153.9534  143.6592  157.9991 H   0  0  0  0  0  0  0  0  0  0  0  0
  147.2811  145.0879  158.4641 H   0  0  0  0  0  0  0  0  0  0  0  0
  145.9780  145.6402  160.9173 H   0  0  0  0  0  0  0  0  0  0  0  0
  146.9750  147.0181  160.5118 H   0  0  0  0  0  0  0  0  0  0  0  0
  145.4581  146.0820  158.1575 H   0  0  0  0  0  0  0  0  0  0  0  0
  144.3853  146.4769  159.4760 H   0  0  0  0  0  0  0  0  0  0  0  0
  145.3615  147.9039  156.6118 H   0  0  0  0  0  0  0  0  0  0  0  0
  145.6143  150.3620  156.1889 H   0  0  0  0  0  0  0  0  0  0  0  0
  145.9249  151.8994  158.1500 H   0  0  0  0  0  0  0  0  0  0  0  0
  145.9698  150.9093  160.4535 H   0  0  0  0  0  0  0  0  0  0  0  0
  1  2  2  0  0  0  0
  2  3  1  0  0  0  0
  2 11  1  0  0  0  0
  3  4  1  0  0  0  0
  3 20  1  0  0  0  0
  3 21  1  0  0  0  0
  4  9  1  0  0  0  0
  4  5  1  0  0  0  0
  4 22  1  0  0  0  0
  5  6  1  0  0  0  0
  5 23  1  0  0  0  0
  5 24  1  0  0  0  0
  6 10  1  0  0  0  0
  6  7  1  0  0  0  0
  6 25  1  0  0  0  0
  7  8  1  0  0  0  0
  7 26  1  0  0  0  0
  7 27  1  0  0  0  0
  8  9  1  0  0  0  0
  8 28  1  0  0  0  0
  8 29  1  0  0  0  0
  9 10  1  0  0  0  0
  9 30  1  0  0  0  0
 10 31  1  0  0  0  0
 10 32  1  0  0  0  0
 11 12  1  0  0  0  0
 11 33  1  0  0  0  0
 12 13  1  0  0  0  0
 12 34  1  0  0  0  0
 12 35  1  0  0  0  0
 13 14  1  0  0  0  0
 13 36  1  0  0  0  0
 13 37  1  0  0  0  0
 14 19  1  0  0  0  0
 14 15  2  0  0  0  0
 15 16  1  0  0  0  0
 15 38  1  0  0  0  0
 16 17  2  0  0  0  0
 16 39  1  0  0  0  0
 17 18  1  0  0  0  0
 17 40  1  0  0  0  0
 18 19  2  0  0  0  0
 18 41  1  0  0  0  0
M  END
> <s_m_source_file>
AV-unprocessed.smi

> <i_m_source_file_index>
3263

> <i_lp_mmshare_version>
43012

> <i_f3d_flags>
0

> <s_epik_input>
W0NIMl0xW0NIMl1bQ0BASF0oW0NIMl0yKVtDQEBIXShbQ0gyXVtDQEhdMTIpW0NIMl1DKD1PKVtOSF1bQ0gyXVtDSDJdYzNbY0hdW2NIXVtjSF1bY0hdbjM=

> <s_epik_cmdline>
J2VwaWtfcHl0aG9uJywgJy1waCcsICc3LjAnLCAnLXRuJywgJzgnLCAnLW1hJywgJzIwMCcsICctbWV0YWxfYmluZGluZycsICctaW1hZScsICc8aW5maWxlLm1hZT4nLCAnLW9tYWUnLCAnPG91dGZpbGUubWFlPic=

> <r_epik_Ionization_Penalty>
0.0273541

> <r_epik_Ionization_Penalty_Charging>
0

> <r_epik_Ionization_Penalty_Neutral>
0.0273541

> <r_epik_State_Penalty>
0.0223838

> <r_epik_Charging_Adjusted_Penalty>
0.0223838

> <i_epik_Tot_Q>
0

> <i_epik_Tot_abs_Q>
0

> <r_epik_Metal_State_Penalty>
0.0213927

> <b_epik_Metal_Only>
0

> <s_lp_Force_Field>
OPLS_2005

> <r_lp_Energy>
45.4659

> <b_lp_Chiralities_Consistent>
1

> <s_lp_Variant>
AV-unprocessed.smi:3263-4

> <Gold.Version>
5.8.1

> <Gold.Id.Protein>
6NUR|6NUR_protein|mol2

> <Gold.PLP.Fitness>
53.4608

> <Gold.PLP.PLP>
-52.5306

> <Gold.PLP.part.hbond>
-2.1168

> <Gold.PLP.part.metal>
0.0000

> <Gold.PLP.part.buried>
-9.3458

> <Gold.PLP.part.nonpolar>
-41.2510

> <Gold.PLP.part.repulsive>
0.6431

> <Gold.PLP.ligand.clash>
0.0000

> <Gold.PLP.ligand.torsion>
0.5162

> <Gold.PLP.Chemscore.Hbond>
0.6400

> <Gold.PLP.Chemscore.CHOScore>
0.0000

> <Gold.PLP.Chemscore.Metal>
0.0000

> <Gold.Chemscore.Hbonds>
donor molecule, donor type, donor heavy atom, donor atom, acceptor molecule, acceptor atom, score
      L1  H    11    33       P1  8029  0.48

> <Gold.PLP.Chemscore.Internal.Correction>
0.0426

> <Gold.Rescore>
     Score         DG    S(hbond)    S(metal)    S(lipo)     H(rot)  DE(clash)    DE(int)     intcor
     18.53     -20.55       0.52        0.00     145.81       1.46       0.34       1.68       ----

> <Gold.Chemscore.Fitness>
18.5348

> <Gold.Chemscore.DG>
-20.5500

> <Gold.Chemscore.ZeroCoef>
-5.4800

> <Gold.Chemscore.Hbond>
0.5200

> <Gold.Chemscore.Metal>
0.0000

> <Gold.Chemscore.Lipo>
145.8055

> <Gold.Chemscore.Internal_Hbond>
0.0000

> <Gold.Chemscore.DEClash>
0.3388

> <Gold.Chemscore.DEInternal>
1.6764

> <Gold.Chemscore.Rot>
1.4555

> <Gold.Chemscore.Internal.Correction>
   9.000000E+99

> <Gold.Chemscore.Hbonds>
donor molecule, donor type, donor heavy atom, donor atom, acceptor molecule, acceptor atom, score
      L1  H    11    33       P1  8029  0.47

> <Gold.Chemscore.Hbond.Weighted>
-1.7368

> <Gold.Chemscore.Metal.Weighted>
-0.0000

> <Gold.Chemscore.Lipo.Weighted>
-17.0592

> <Gold.Chemscore.Internal_Hbond.Weighted>
0.0000

> <Gold.Chemscore.DEClash.Weighted>
0.3388

> <Gold.Chemscore.DEInternal.Weighted>
1.6764

> <Gold.Chemscore.Rot.Weighted>
3.7260

> <Gold.Chemscore.Internal.Correction.Weighted>
   9.000000E+99

> <Gold.Protein.RotatedTorsions>
[ 6907 6896 6895 6894 ] final   53.30 input  -60.11 | X-H torsion
[ 7974 7965 7964 7962 ] final  161.56 input  175.53 | X-H torsion
[ 8008 7997 7996 7995 ] final  121.37 input   59.86 | X-H torsion
[ 10167 10162 10161 10158 ] final   36.22 input  -65.29 | X-H torsion
[ 10718 10713 10712 10709 ] final  -54.82 input   66.30 | X-H torsion
[ 10763 10752 10751 10750 ] final  -49.38 input  -60.55 | X-H torsion
[ 11005 11000 10999 10996 ] final   79.42 input  -57.11 | X-H torsion

> <Gold.Protein.ActiveResidues>
 VAL166  LYS551  ARG553  GLY616  TRP617  ASP618  TYR619  PRO620  LYS621  CYS622 
 ASP623  PHE694  ASN695  SER759  ASP760  ASP761  ALA762  ILE779  LEU786  VAL792 
 PHE793  MET794  SER795  GLU796  ALA797  LYS798  CYS799  TRP800  GLU811  SER814 

> <Gold.Protein.RotatedAtoms>
  152.3322  134.7244  160.0286 H   0  0  0  0  0  0  0  0  0  0  0  0  # atno 6907 bound_to 6896
  151.7656  133.3332  159.3438 H   0  0  0  0  0  0  0  0  0  0  0  0  # atno 6908 bound_to 6896
  150.7430  134.5997  159.6075 H   0  0  0  0  0  0  0  0  0  0  0  0  # atno 6909 bound_to 6896
  144.7680  139.7915  143.6308 H   0  0  0  0  0  0  0  0  0  0  0  0  # atno 7974 bound_to 7965
  156.2683  140.2810  156.1297 H   0  0  0  0  0  0  0  0  0  0  0  0  # atno 8008 bound_to 7997
  155.1067  140.0390  157.2730 H   0  0  0  0  0  0  0  0  0  0  0  0  # atno 8009 bound_to 7997
  154.6773  140.2601  155.6950 H   0  0  0  0  0  0  0  0  0  0  0  0  # atno 8010 bound_to 7997
  140.4148  144.1542  150.6142 H   0  0  0  0  0  0  0  0  0  0  0  0  # atno 10167 bound_to 10162
  156.1419  130.4154  150.0089 H   0  0  0  0  0  0  0  0  0  0  0  0  # atno 10718 bound_to 10713
  154.0931  135.6574  153.4856 H   0  0  0  0  0  0  0  0  0  0  0  0  # atno 10763 bound_to 10752
  153.0314  135.5207  154.7360 H   0  0  0  0  0  0  0  0  0  0  0  0  # atno 10764 bound_to 10752
  154.6490  135.2998  154.9979 H   0  0  0  0  0  0  0  0  0  0  0  0  # atno 10765 bound_to 10752
  139.9173  134.7841  156.1776 H   0  0  0  0  0  0  0  0  0  0  0  0  # atno 11005 bound_to 11000
  146.1803  139.4993  142.9870 LP  0  0  0  0  0  0  0  0  0  0  0  0  # atno 17320 bound_to 7965
  145.6411  141.0284  143.1811 LP  0  0  0  0  0  0  0  0  0  0  0  0  # atno 17321 bound_to 7965
  140.4598  143.2453  151.9235 LP  0  0  0  0  0  0  0  0  0  0  0  0  # atno 17342 bound_to 10162
  139.4782  144.5478  151.8431 LP  0  0  0  0  0  0  0  0  0  0  0  0  # atno 17343 bound_to 10162
  156.7972  130.9277  151.3646 LP  0  0  0  0  0  0  0  0  0  0  0  0  # atno 17370 bound_to 10713
  157.6583  130.8944  149.9775 LP  0  0  0  0  0  0  0  0  0  0  0  0  # atno 17371 bound_to 10713
  141.0662  133.6818  156.2049 LP  0  0  0  0  0  0  0  0  0  0  0  0  # atno 17394 bound_to 11000
  140.6581  134.4996  157.5582 LP  0  0  0  0  0  0  0  0  0  0  0  0  # atno 17395 bound_to 11000

$$$$
