#       Name:                AV-unprocessed.smi:815
#       Creating user name   scv26
#       Creation time:       Fri Mar 27 01:26:38 2020


#       File generated by GOLD software.
#

@<TRIPOS>MOLECULE
AV-unprocessed.smi:815
    45    46     1
SMALL
NO_CHARGES


@<TRIPOS>ATOM
      1 ****        -4.8943   1.8499  -3.4727 C.3            1 S1                 0.0000
      2 ****        -5.4222   0.9571  -2.3411 C.3            1 S1                 0.0000
      3 ****        -4.8803  -0.4831  -2.3858 C.3            1 S1                 0.0000
      4 ****        -3.4248  -0.5340  -2.2894 N.am           1 S1                 0.0000
      5 ****        -2.7244  -0.4362  -1.1508 C.2            1 S1                 0.0000
      6 ****        -3.2437  -0.2914  -0.0443 O.2            1 S1                 0.0000
      7 ****        -1.4026  -0.4937  -1.3870 N.am           1 S1                 0.0000
      8 ****        -0.3369  -0.4580  -0.4480 C.ar           1 S1                 0.0000
      9 ****        -0.4651  -0.8232   0.9133 C.ar           1 S1                 0.0000
     10 ****         0.6716  -0.7688   1.7422 C.ar           1 S1                 0.0000
     11 ****         1.9008  -0.3598   1.1862 C.ar           1 S1                 0.0000
     12 ****         3.0341  -0.3058   2.0098 N.3            1 S1                 0.0000
     13 ****         4.0713  -1.2608   1.6391 C.3            1 S1                 0.0000
     14 ****         5.2150  -1.2203   2.6676 C.3            1 S1                 0.0000
     15 ****         5.7146   0.1099   2.7752 O.3            1 S1                 0.0000
     16 ****         4.7117   1.0247   3.2087 C.3            1 S1                 0.0000
     17 ****         3.5565   1.0426   2.1927 C.3            1 S1                 0.0000
     18 ****         2.0337  -0.0203  -0.1179 N.ar           1 S1                 0.0000
     19 ****         0.9402  -0.0755  -0.9073 C.ar           1 S1                 0.0000
     20 ****        -5.3400   2.8433  -3.4207 H              1 S1                 0.0000
     21 ****        -5.1330   1.4294  -4.4499 H              1 S1                 0.0000
     22 ****        -3.8124   1.9724  -3.4139 H              1 S1                 0.0000
     23 ****        -5.1840   1.4128  -1.3793 H              1 S1                 0.0000
     24 ****        -6.5109   0.9250  -2.3964 H              1 S1                 0.0000
     25 ****        -5.3268  -1.0767  -1.5862 H              1 S1                 0.0000
     26 ****        -5.1752  -0.9595  -3.3210 H              1 S1                 0.0000
     27 ****        -2.9159  -0.6474  -3.1537 H              1 S1                 0.0000
     28 ****        -1.1243  -0.5176  -2.3572 H              1 S1                 0.0000
     29 ****        -1.4019  -1.1566   1.3320 H              1 S1                 0.0000
     30 ****         0.5996  -1.0417   2.7850 H              1 S1                 0.0000
     31 ****         3.6480  -2.2648   1.5884 H              1 S1                 0.0000
     32 ****         4.4574  -1.0219   0.6471 H              1 S1                 0.0000
     33 ****         4.8745  -1.5722   3.6429 H              1 S1                 0.0000
     34 ****         6.0248  -1.8800   2.3560 H              1 S1                 0.0000
     35 ****         4.3534   0.7448   4.2008 H              1 S1                 0.0000
     36 ****         5.1506   2.0185   3.2969 H              1 S1                 0.0000
     37 ****         3.9095   1.4357   1.2382 H              1 S1                 0.0000
     38 ****         2.7613   1.7032   2.5403 H              1 S1                 0.0000
     39 ****         1.0910   0.1998  -1.9410 H              1 S1                 0.0000
     40 ****        -4.2390  -0.2409   0.0382 LP             1 S1                 0.0000
     41 ****        -2.6703  -0.2242   0.7722 LP             1 S1                 0.0000
     42 ****         2.7059  -0.5963   2.9087 LP             1 S1                 0.0000
     43 ****         6.0518   0.4013   1.8800 LP             1 S1                 0.0000
     44 ****         6.4667   0.1197   3.4341 LP             1 S1                 0.0000
     45 ****         2.9188   0.2639  -0.4865 LP             1 S1                 0.0000
@<TRIPOS>BOND
    1    1    2 1     
    2    1   20 1     
    3    1   21 1     
    4    1   22 1     
    5    2    3 1     
    6    2   23 1     
    7    2   24 1     
    8    3    4 1     
    9    3   25 1     
   10    3   26 1     
   11    4    5 am    
   12    4   27 1     
   13    5    6 2     
   14    5    7 am    
   15    7    8 1     
   16    7   28 1     
   17    8   19 ar    
   18    8    9 ar    
   19    9   10 ar    
   20    9   29 1     
   21   10   11 ar    
   22   10   30 1     
   23   11   12 1     
   24   11   18 ar    
   25   12   17 1     
   26   12   13 1     
   27   13   14 1     
   28   13   31 1     
   29   13   32 1     
   30   14   15 1     
   31   14   33 1     
   32   14   34 1     
   33   15   16 1     
   34   16   17 1     
   35   16   35 1     
   36   16   36 1     
   37   17   37 1     
   38   17   38 1     
   39   18   19 ar    
   40   19   39 1     
   41    6   40 1     
   42    6   41 1     
   43   12   42 1     
   44   15   43 1     
   45   15   44 1     
   46   18   45 1     
@<TRIPOS>SUBSTRUCTURE
      1 S1             1
@<TRIPOS>SET
LONE_PAIRS      STATIC     ATOMS    <user>   **** ""
6 40 41 42 43 44 45
DONOR_HYDROGENS      STATIC     ATOMS    <user>   **** ""
2 27 28
ATOM$BLUE        STATIC     ATOMS    COLORGROUP SYSTEM
6 40 41 42 43 44 45
ATOM$RED        STATIC     ATOMS    COLORGROUP SYSTEM
2 27 28
