#       Name:                AV-unprocessed.smi:2527
#       Creating user name   scv26
#       Creation time:       Fri Mar 27 13:58:42 2020


#       File generated by GOLD software.
#

@<TRIPOS>MOLECULE
AV-unprocessed.smi:2527
    42    44     1
SMALL
NO_CHARGES


@<TRIPOS>ATOM
      1 ****        -1.9333   3.6461   1.3940 C.3            1 S1                 0.0000
      2 ****        -1.6140   2.3002   1.6977 O.3            1 S1                 0.0000
      3 ****        -2.3320   1.3751   0.8970 C.3            1 S1                 0.0000
      4 ****        -1.9242  -0.0564   1.2726 C.3            1 S1                 0.0000
      5 ****        -0.4971  -0.2825   1.0950 N.pl3          1 S1                 0.0000
      6 ****         0.1524  -0.6603  -0.0345 C.2            1 S1                 0.0000
      7 ****        -0.7232  -0.9404  -1.5469 S.3            1 S1                 0.0000
      8 ****         0.6057  -1.6436  -2.5674 C.3            1 S1                 0.0000
      9 ****         0.1582  -2.0734  -3.9467 C.2            1 S1                 0.0000
     10 ****         0.5977  -1.3525  -5.0188 N.am           1 S1                 0.0000
     11 ****         0.0783  -1.9281  -6.0983 C.2            1 S1                 0.0000
     12 ****         0.2884  -1.5106  -7.2351 O.2            1 S1                 0.0000
     13 ****        -0.6716  -2.9885  -5.7094 N.pl3          1 S1                -1.0000
     14 ****        -0.5956  -3.0558  -4.2800 N.2            1 S1                 0.0000
     15 ****         1.4754  -0.7905   0.0850 N.2            1 S1                 0.0000
     16 ****         1.7021  -0.4658   1.4069 C.ar           1 S1                 0.0000
     17 ****         2.9052  -0.4132   2.1461 C.ar           1 S1                 0.0000
     18 ****         2.8910  -0.0431   3.5071 C.ar           1 S1                 0.0000
     19 ****         4.3691   0.0181   4.3947 Cl             1 S1                 0.0000
     20 ****         1.6752   0.2782   4.1456 C.ar           1 S1                 0.0000
     21 ****         0.4653   0.2303   3.4269 C.ar           1 S1                 0.0000
     22 ****         0.4860  -0.1404   2.0691 C.ar           1 S1                 0.0000
     23 ****         1.1992  -0.5431  -4.9858 H              1 S1                 0.0000
     24 ****        -1.3579   4.3123   2.0369 H              1 S1                 0.0000
     25 ****        -2.9921   3.8479   1.5616 H              1 S1                 0.0000
     26 ****        -1.6901   3.8848   0.3579 H              1 S1                 0.0000
     27 ****        -3.4046   1.5043   1.0489 H              1 S1                 0.0000
     28 ****        -2.1280   1.5576  -0.1593 H              1 S1                 0.0000
     29 ****        -2.1815  -0.2551   2.3133 H              1 S1                 0.0000
     30 ****        -2.4819  -0.7816   0.6799 H              1 S1                 0.0000
     31 ****         1.4048  -0.9069  -2.6589 H              1 S1                 0.0000
     32 ****         1.0272  -2.5102  -2.0571 H              1 S1                 0.0000
     33 ****         3.8402  -0.6566   1.6635 H              1 S1                 0.0000
     34 ****         1.6705   0.5631   5.1875 H              1 S1                 0.0000
     35 ****        -0.4663   0.4798   3.9126 H              1 S1                 0.0000
     36 ****        -1.8314   2.1285   2.6585 LP             1 S1                 0.0000
     37 ****        -0.6351   2.1616   1.5475 LP             1 S1                 0.0000
     38 ****         0.8695  -0.7086  -7.3738 LP             1 S1                 0.0000
     39 ****        -0.1217  -1.9729  -8.0213 LP             1 S1                 0.0000
     40 ****        -1.1815  -3.6070  -6.3073 LP             1 S1                 0.0000
     41 ****        -1.0335  -3.7216  -3.6760 LP             1 S1                 0.0000
     42 ****         2.1399  -1.0579  -0.6129 LP             1 S1                 0.0000
@<TRIPOS>BOND
    1    1    2 1     
    2    1   24 1     
    3    1   25 1     
    4    1   26 1     
    5    2    3 1     
    6    3    4 1     
    7    3   27 1     
    8    3   28 1     
    9    4    5 1     
   10    4   29 1     
   11    4   30 1     
   12    5   22 1     
   13    5    6 1     
   14    6    7 1     
   15    6   15 2     
   16    7    8 1     
   17    8   31 1     
   18    8   32 1     
   19    8    9 1     
   20    9   14 2     
   21    9   10 1     
   22   10   11 am    
   23   10   23 1     
   24   11   13 1     
   25   11   12 2     
   26   13   14 1     
   27   15   16 1     
   28   16   22 ar    
   29   16   17 ar    
   30   17   18 ar    
   31   17   33 1     
   32   18   19 1     
   33   18   20 ar    
   34   20   21 ar    
   35   20   34 1     
   36   21   22 ar    
   37   21   35 1     
   38    2   36 1     
   39    2   37 1     
   40   12   38 1     
   41   12   39 1     
   42   13   40 1     
   43   14   41 1     
   44   15   42 1     
@<TRIPOS>SUBSTRUCTURE
      1 S1             1
@<TRIPOS>SET
LONE_PAIRS      STATIC     ATOMS    <user>   **** ""
7 36 37 38 39 40 41 42
DONOR_HYDROGENS      STATIC     ATOMS    <user>   **** ""
1 23
ATOM$BLUE        STATIC     ATOMS    COLORGROUP SYSTEM
7 36 37 38 39 40 41 42
ATOM$RED        STATIC     ATOMS    COLORGROUP SYSTEM
1 23
