AV-unprocessed.smi:313|AV-procd|sdf|2311|dock8
  -GOLD-   2262022213D 1   1.00000     0.00000
 Structure written by MMmdl.
 50 51  0  0  0  0  0  0  0  0  1 V2000
  147.6671  133.5967  153.1872 C   0  0  0  0  0  0  0  0  0  0  0  0
  146.9118  134.3879  154.2654 C   0  0  0  0  0  0  0  0  0  0  0  0
  145.9565  135.4525  153.6945 C   0  0  2  0  0  0  0  0  0  0  0  0
  145.0429  134.8736  152.6038 C   0  0  0  0  0  0  0  0  0  0  0  0
  146.7217  136.5748  153.1577 N   0  0  0  0  0  0  0  0  0  0  0  0
  146.6283  137.8502  153.5627 C   0  0  0  0  0  0  0  0  0  0  0  0
  145.8359  138.2324  154.4253 O   0  0  0  0  0  0  0  0  0  0  0  0
  147.5816  138.8454  152.8831 C   0  0  1  0  0  0  0  0  0  0  0  0
  146.7445  139.8549  152.0799 C   0  0  0  0  0  0  0  0  0  0  0  0
  148.3358  139.5823  153.8945 N   0  0  0  0  0  0  0  0  0  0  0  0
  149.5891  139.2951  154.2859 C   0  0  0  0  0  0  0  0  0  0  0  0
  150.2695  138.3988  153.7860 O   0  0  0  0  0  0  0  0  0  0  0  0
  150.1530  140.1846  155.3548 C   0  0  0  0  0  0  0  0  0  0  0  0
  149.4458  141.3085  155.8341 C   0  0  0  0  0  0  0  0  0  0  0  0
  150.0148  142.0913  156.8566 C   0  0  0  0  0  0  0  0  0  0  0  0
  151.2758  141.7275  157.3857 C   0  0  0  0  0  0  0  0  0  0  0  0
  151.8657  142.4983  158.4111 N   0  0  0  0  0  0  0  0  0  0  0  0
  151.2923  143.8260  158.6176 C   0  0  0  0  0  0  0  0  0  0  0  0
  152.2074  144.6689  159.5221 C   0  0  0  0  0  0  0  0  0  0  0  0
  152.4485  143.9769  160.7425 O   0  0  0  0  0  0  0  0  0  0  0  0
  153.1081  142.7343  160.5255 C   0  0  0  0  0  0  0  0  0  0  0  0
  152.2246  141.8232  159.6568 C   0  0  0  0  0  0  0  0  0  0  0  0
  151.9500  140.6444  156.9271 N   0  0  0  0  0  0  0  0  0  0  0  0
  151.3996  139.8949  155.9486 C   0  0  0  0  0  0  0  0  0  0  0  0
  148.3641  132.8926  153.6418 H   0  0  0  0  0  0  0  0  0  0  0  0
  148.2414  134.2617  152.5419 H   0  0  0  0  0  0  0  0  0  0  0  0
  146.9867  133.0242  152.5561 H   0  0  0  0  0  0  0  0  0  0  0  0
  146.3573  133.6941  154.8987 H   0  0  0  0  0  0  0  0  0  0  0  0
  147.6414  134.8731  154.9149 H   0  0  0  0  0  0  0  0  0  0  0  0
  145.3253  135.8019  154.5138 H   0  0  0  0  0  0  0  0  0  0  0  0
  144.4521  134.0420  152.9885 H   0  0  0  0  0  0  0  0  0  0  0  0
  145.6207  134.5062  151.7551 H   0  0  0  0  0  0  0  0  0  0  0  0
  144.3463  135.6260  152.2325 H   0  0  0  0  0  0  0  0  0  0  0  0
  147.4012  136.3575  152.4431 H   0  0  0  0  0  0  0  0  0  0  0  0
  148.2663  138.3234  152.2114 H   0  0  0  0  0  0  0  0  0  0  0  0
  146.1495  139.3548  151.3146 H   0  0  0  0  0  0  0  0  0  0  0  0
  147.3879  140.5736  151.5716 H   0  0  0  0  0  0  0  0  0  0  0  0
  146.0616  140.4190  152.7173 H   0  0  0  0  0  0  0  0  0  0  0  0
  147.8599  140.3483  154.3484 H   0  0  0  0  0  0  0  0  0  0  0  0
  148.4796  141.5761  155.4318 H   0  0  0  0  0  0  0  0  0  0  0  0
  149.4850  142.9625  157.2117 H   0  0  0  0  0  0  0  0  0  0  0  0
  151.1409  144.3540  157.6774 H   0  0  0  0  0  0  0  0  0  0  0  0
  150.3107  143.7159  159.0804 H   0  0  0  0  0  0  0  0  0  0  0  0
  153.1523  144.8883  159.0224 H   0  0  0  0  0  0  0  0  0  0  0  0
  151.7357  145.6261  159.7448 H   0  0  0  0  0  0  0  0  0  0  0  0
  154.0770  142.9021  160.0524 H   0  0  0  0  0  0  0  0  0  0  0  0
  153.3017  142.2617  161.4883 H   0  0  0  0  0  0  0  0  0  0  0  0
  151.3155  141.5587  160.1982 H   0  0  0  0  0  0  0  0  0  0  0  0
  152.7605  140.8972  159.4450 H   0  0  0  0  0  0  0  0  0  0  0  0
  151.9812  139.0418  155.6305 H   0  0  0  0  0  0  0  0  0  0  0  0
  1  2  1  0  0  0  0
  1 25  1  0  0  0  0
  1 26  1  0  0  0  0
  1 27  1  0  0  0  0
  2  3  1  0  0  0  0
  2 28  1  0  0  0  0
  2 29  1  0  0  0  0
  3  4  1  0  0  0  0
  3  5  1  0  0  0  0
  3 30  1  0  0  0  0
  4 31  1  0  0  0  0
  4 32  1  0  0  0  0
  4 33  1  0  0  0  0
  5  6  1  0  0  0  0
  5 34  1  0  0  0  0
  6  7  2  0  0  0  0
  6  8  1  0  0  0  0
  8  9  1  0  0  0  0
  8 10  1  0  0  0  0
  8 35  1  0  0  0  0
  9 36  1  0  0  0  0
  9 37  1  0  0  0  0
  9 38  1  0  0  0  0
 10 11  1  0  0  0  0
 10 39  1  0  0  0  0
 11 12  2  0  0  0  0
 11 13  1  0  0  0  0
 13 24  1  0  0  0  0
 13 14  2  0  0  0  0
 14 15  1  0  0  0  0
 14 40  1  0  0  0  0
 15 16  2  0  0  0  0
 15 41  1  0  0  0  0
 16 17  1  0  0  0  0
 16 23  1  0  0  0  0
 17 22  1  0  0  0  0
 17 18  1  0  0  0  0
 18 19  1  0  0  0  0
 18 42  1  0  0  0  0
 18 43  1  0  0  0  0
 19 20  1  0  0  0  0
 19 44  1  0  0  0  0
 19 45  1  0  0  0  0
 20 21  1  0  0  0  0
 21 22  1  0  0  0  0
 21 46  1  0  0  0  0
 21 47  1  0  0  0  0
 22 48  1  0  0  0  0
 22 49  1  0  0  0  0
 23 24  2  0  0  0  0
 24 50  1  0  0  0  0
M  END
> <s_m_source_file>
AV-unprocessed.smi

> <i_m_source_file_index>
313

> <i_lp_mmshare_version>
43012

> <i_f3d_flags>
0

> <s_epik_input>
W0NIM11bQ0gyXVtDQEhdKFtDSDNdKVtOSF1DKD1PKVtDQEhdKFtDSDNdKVtOSF1DKD1PKWMxW2NIXVtjSF1jKG5bY0hdMSlOMltDSDJdW0NIMl1PW0NIMl1bQ0gyXTI=

> <s_epik_cmdline>
J2VwaWtfcHl0aG9uJywgJy1waCcsICc3LjAnLCAnLXRuJywgJzgnLCAnLW1hJywgJzIwMCcsICctbWV0YWxfYmluZGluZycsICctaW1hZScsICc8aW5maWxlLm1hZT4nLCAnLW9tYWUnLCAnPG91dGZpbGUubWFlPic=

> <r_lp_tautomer_probability>
1

> <r_epik_Ionization_Penalty>
9.96442e-06

> <r_epik_Ionization_Penalty_Charging>
0

> <r_epik_Ionization_Penalty_Neutral>
9.96442e-06

> <r_epik_State_Penalty>
-0

> <r_epik_Charging_Adjusted_Penalty>
0

> <i_epik_Tot_Q>
0

> <i_epik_Tot_abs_Q>
0

> <r_epik_Metal_State_Penalty>
-0

> <b_epik_Metal_Only>
0

> <s_lp_Force_Field>
OPLS_2005

> <r_lp_Energy>
19.146

> <b_lp_Chiralities_Consistent>
1

> <s_lp_Variant>
AV-unprocessed.smi:313-3

> <Gold.Version>
5.8.1

> <Gold.Id.Protein>
6NUR|6NUR_protein|mol2

> <Gold.PLP.Fitness>
36.9637

> <Gold.PLP.PLP>
-34.9483

> <Gold.PLP.part.hbond>
-1.9542

> <Gold.PLP.part.metal>
0.0000

> <Gold.PLP.part.buried>
3.6477

> <Gold.PLP.part.nonpolar>
-36.6957

> <Gold.PLP.part.repulsive>
0.5432

> <Gold.PLP.ligand.clash>
0.0000

> <Gold.PLP.ligand.torsion>
0.6881

> <Gold.PLP.Chemscore.Hbond>
1.0000

> <Gold.PLP.Chemscore.CHOScore>
0.0000

> <Gold.PLP.Chemscore.Metal>
0.0000

> <Gold.Chemscore.Hbonds>
donor molecule, donor type, donor heavy atom, donor atom, acceptor molecule, acceptor atom, score
      L1  H     5    34       P1  7948  1.00

> <Gold.PLP.Chemscore.Internal.Correction>
0.3917

> <Gold.Rescore>
     Score         DG    S(hbond)    S(metal)    S(lipo)     H(rot)  DE(clash)    DE(int)     intcor
     14.29     -15.57       1.00        0.00      96.87       1.79       0.66       0.62       ----

> <Gold.Chemscore.Fitness>
14.2924

> <Gold.Chemscore.DG>
-15.5733

> <Gold.Chemscore.ZeroCoef>
-5.4800

> <Gold.Chemscore.Hbond>
0.9996

> <Gold.Chemscore.Metal>
0.0000

> <Gold.Chemscore.Lipo>
96.8705

> <Gold.Chemscore.Internal_Hbond>
0.0000

> <Gold.Chemscore.DEClash>
0.6574

> <Gold.Chemscore.DEInternal>
0.6235

> <Gold.Chemscore.Rot>
1.7888

> <Gold.Chemscore.Internal.Correction>
   9.000000E+99

> <Gold.Chemscore.Hbonds>
donor molecule, donor type, donor heavy atom, donor atom, acceptor molecule, acceptor atom, score
      L1  H     5    34       P1  7948  0.97

> <Gold.Chemscore.Hbond.Weighted>
-3.3387

> <Gold.Chemscore.Metal.Weighted>
-0.0000

> <Gold.Chemscore.Lipo.Weighted>
-11.3339

> <Gold.Chemscore.Internal_Hbond.Weighted>
0.0000

> <Gold.Chemscore.DEClash.Weighted>
0.6574

> <Gold.Chemscore.DEInternal.Weighted>
0.6235

> <Gold.Chemscore.Rot.Weighted>
4.5793

> <Gold.Chemscore.Internal.Correction.Weighted>
   9.000000E+99

> <Gold.Protein.RotatedTorsions>
[ 6907 6896 6895 6894 ] final  125.88 input  -60.11 | X-H torsion
[ 7974 7965 7964 7962 ] final   -0.91 input  175.53 | X-H torsion
[ 8008 7997 7996 7995 ] final -139.20 input   59.86 | X-H torsion
[ 10167 10162 10161 10158 ] final  -40.82 input  -65.29 | X-H torsion
[ 10718 10713 10712 10709 ] final -123.83 input   66.30 | X-H torsion
[ 10763 10752 10751 10750 ] final  154.84 input  -60.55 | X-H torsion
[ 11005 11000 10999 10996 ] final   96.39 input  -57.11 | X-H torsion

> <Gold.Protein.ActiveResidues>
 VAL166  LYS551  ARG553  GLY616  TRP617  ASP618  TYR619  PRO620  LYS621  CYS622 
 ASP623  PHE694  ASN695  SER759  ASP760  ASP761  ALA762  ILE779  LEU786  VAL792 
 PHE793  MET794  SER795  GLU796  ALA797  LYS798  CYS799  TRP800  GLU811  SER814 

> <Gold.Protein.RotatedAtoms>
  152.3953  133.6737  159.6270 H   0  0  0  0  0  0  0  0  0  0  0  0  # atno 6907 bound_to 6896
  150.7853  133.8885  159.3315 H   0  0  0  0  0  0  0  0  0  0  0  0  # atno 6908 bound_to 6896
  151.6663  135.0984  160.0240 H   0  0  0  0  0  0  0  0  0  0  0  0  # atno 6909 bound_to 6896
  146.2422  140.1341  142.8337 H   0  0  0  0  0  0  0  0  0  0  0  0  # atno 7974 bound_to 7965
  155.4410  140.0532  157.3010 H   0  0  0  0  0  0  0  0  0  0  0  0  # atno 8008 bound_to 7997
  154.4818  140.2084  155.9703 H   0  0  0  0  0  0  0  0  0  0  0  0  # atno 8009 bound_to 7997
  156.1217  140.3187  155.8222 H   0  0  0  0  0  0  0  0  0  0  0  0  # atno 8010 bound_to 7997
  140.7022  143.3130  151.2979 H   0  0  0  0  0  0  0  0  0  0  0  0  # atno 10167 bound_to 10162
  156.1535  130.6552  150.9948 H   0  0  0  0  0  0  0  0  0  0  0  0  # atno 10718 bound_to 10713
  154.1588  135.2811  155.3114 H   0  0  0  0  0  0  0  0  0  0  0  0  # atno 10763 bound_to 10752
  154.6162  135.5482  153.7529 H   0  0  0  0  0  0  0  0  0  0  0  0  # atno 10764 bound_to 10752
  153.0198  135.6427  154.1730 H   0  0  0  0  0  0  0  0  0  0  0  0  # atno 10765 bound_to 10752
  139.8782  134.8948  156.4152 H   0  0  0  0  0  0  0  0  0  0  0  0  # atno 11005 bound_to 11000
  145.0302  140.8864  143.5114 LP  0  0  0  0  0  0  0  0  0  0  0  0  # atno 17320 bound_to 7965
  145.1404  139.2576  143.5493 LP  0  0  0  0  0  0  0  0  0  0  0  0  # atno 17321 bound_to 7965
  139.6560  144.0276  152.2660 LP  0  0  0  0  0  0  0  0  0  0  0  0  # atno 17342 bound_to 10162
  139.9827  144.6417  150.7886 LP  0  0  0  0  0  0  0  0  0  0  0  0  # atno 17343 bound_to 10162
  157.6676  131.0868  150.7690 LP  0  0  0  0  0  0  0  0  0  0  0  0  # atno 17370 bound_to 10713
  156.7756  130.4843  149.5410 LP  0  0  0  0  0  0  0  0  0  0  0  0  # atno 17371 bound_to 10713
  140.9172  133.7670  155.9863 LP  0  0  0  0  0  0  0  0  0  0  0  0  # atno 17394 bound_to 11000
  140.8480  134.2988  157.5287 LP  0  0  0  0  0  0  0  0  0  0  0  0  # atno 17395 bound_to 11000

$$$$
