AV-unprocessed.smi:2061|AV-procd|sdf|8388|dock6
  -GOLD-   2272011 73D 1   1.00000     0.00000
 Structure written by MMmdl.
 45 46  0  0  0  0  0  0  0  0  3 V2000
  153.5821  137.7605  156.7322 C   0  0  0  0  0  0  0  0  0  0  0  0
  152.4462  138.2440  155.8972 C   0  0  0  0  0  0  0  0  0  0  0  0
  151.3924  137.6088  155.3030 C   0  0  0  0  0  0  0  0  0  0  0  0
  150.6974  138.6690  154.6626 C   0  0  0  0  0  0  0  0  0  0  0  0
  149.5119  138.4156  153.9229 N   0  0  0  0  0  0  0  0  0  0  0  0
  148.3795  139.1405  153.8735 C   0  0  0  0  0  0  0  0  0  0  0  0
  148.2854  140.1967  154.5103 O   0  0  0  0  0  0  0  0  0  0  0  0
  147.4321  138.5678  153.0799 N   0  5  0  0  0  0  0  0  0  0  0  0
  146.3546  137.6996  153.5588 C   0  0  0  0  0  0  0  0  0  0  0  0
  145.6537  136.9695  152.3786 C   0  0  2  0  0  0  0  0  0  0  0  0
  144.1060  137.0048  152.4398 C   0  0  0  0  0  0  0  0  0  0  0  0
  146.2011  135.5863  152.2200 N   0  3  1  0  0  0  0  0  0  0  0  0
  146.3923  134.7965  153.4680 C   0  0  0  0  0  0  0  0  0  0  0  0
  147.1217  133.4783  153.1527 C   0  0  1  0  0  0  0  0  0  0  0  0
  147.2903  132.5983  154.3957 C   0  0  0  0  0  0  0  0  0  0  0  0
  146.3618  132.7498  152.1938 O   0  0  0  0  0  0  0  0  0  0  0  0
  146.2207  133.4473  150.9606 C   0  0  1  0  0  0  0  0  0  0  0  0
  145.4686  132.5408  149.9803 C   0  0  0  0  0  0  0  0  0  0  0  0
  145.4803  134.7755  151.2078 C   0  0  0  0  0  0  0  0  0  0  0  0
  151.2763  139.8459  154.8505 N   0  0  0  0  0  0  0  0  0  0  0  0
  152.4000  139.5794  155.6414 O   0  0  0  0  0  0  0  0  0  0  0  0
  153.3691  136.7740  157.1445 H   0  0  0  0  0  0  0  0  0  0  0  0
  153.7700  138.4401  157.5634 H   0  0  0  0  0  0  0  0  0  0  0  0
  154.4938  137.6905  156.1389 H   0  0  0  0  0  0  0  0  0  0  0  0
  151.1578  136.5550  155.3240 H   0  0  0  0  0  0  0  0  0  0  0  0
  149.5166  137.5732  153.3671 H   0  0  0  0  0  0  0  0  0  0  0  0
  146.7296  136.9537  154.2617 H   0  0  0  0  0  0  0  0  0  0  0  0
  145.6090  138.2647  154.1185 H   0  0  0  0  0  0  0  0  0  0  0  0
  145.9386  137.5140  151.4771 H   0  0  0  0  0  0  0  0  0  0  0  0
  143.7224  138.0259  152.3966 H   0  0  0  0  0  0  0  0  0  0  0  0
  143.7079  136.5482  153.3478 H   0  0  0  0  0  0  0  0  0  0  0  0
  143.6726  136.4762  151.5909 H   0  0  0  0  0  0  0  0  0  0  0  0
  146.9686  135.3679  154.1962 H   0  0  0  0  0  0  0  0  0  0  0  0
  145.4261  134.5755  153.9238 H   0  0  0  0  0  0  0  0  0  0  0  0
  148.1103  133.6929  152.7428 H   0  0  0  0  0  0  0  0  0  0  0  0
  147.8735  133.1096  155.1619 H   0  0  0  0  0  0  0  0  0  0  0  0
  147.8070  131.6704  154.1492 H   0  0  0  0  0  0  0  0  0  0  0  0
  146.3244  132.3363  154.8285 H   0  0  0  0  0  0  0  0  0  0  0  0
  147.2118  133.6518  150.5514 H   0  0  0  0  0  0  0  0  0  0  0  0
  145.3474  133.0262  149.0116 H   0  0  0  0  0  0  0  0  0  0  0  0
  144.4762  132.2895  150.3558 H   0  0  0  0  0  0  0  0  0  0  0  0
  146.0092  131.6080  149.8184 H   0  0  0  0  0  0  0  0  0  0  0  0
  144.4603  134.5886  151.5475 H   0  0  0  0  0  0  0  0  0  0  0  0
  145.4113  135.3267  150.2691 H   0  0  0  0  0  0  0  0  0  0  0  0
  147.1241  135.7261  151.8339 H   0  0  0  0  0  0  0  0  0  0  0  0
  1  2  1  0  0  0  0
  1 22  1  0  0  0  0
  1 23  1  0  0  0  0
  1 24  1  0  0  0  0
  2 21  1  0  0  0  0
  2  3  2  0  0  0  0
  3  4  1  0  0  0  0
  3 25  1  0  0  0  0
  4  5  1  0  0  0  0
  4 20  2  0  0  0  0
  5  6  1  0  0  0  0
  5 26  1  0  0  0  0
  6  7  2  0  0  0  0
  6  8  1  0  0  0  0
  8  9  1  0  0  0  0
  9 10  1  0  0  0  0
  9 27  1  0  0  0  0
  9 28  1  0  0  0  0
 10 11  1  0  0  0  0
 10 12  1  0  0  0  0
 10 29  1  0  0  0  0
 11 30  1  0  0  0  0
 11 31  1  0  0  0  0
 11 32  1  0  0  0  0
 12 19  1  0  0  0  0
 12 13  1  0  0  0  0
 12 45  1  0  0  0  0
 13 14  1  0  0  0  0
 13 33  1  0  0  0  0
 13 34  1  0  0  0  0
 14 15  1  0  0  0  0
 14 16  1  0  0  0  0
 14 35  1  0  0  0  0
 15 36  1  0  0  0  0
 15 37  1  0  0  0  0
 15 38  1  0  0  0  0
 16 17  1  0  0  0  0
 17 18  1  0  0  0  0
 17 19  1  0  0  0  0
 17 39  1  0  0  0  0
 18 40  1  0  0  0  0
 18 41  1  0  0  0  0
 18 42  1  0  0  0  0
 19 43  1  0  0  0  0
 19 44  1  0  0  0  0
 20 21  1  0  0  0  0
M  CHG  1   8  -1
M  CHG  1  12   1
M  END
> <s_m_source_file>
AV-unprocessed.smi

> <i_m_source_file_index>
2061

> <i_lp_mmshare_version>
43012

> <i_f3d_flags>
0

> <s_epik_input>
W0NIM11jMVtjSF1jKG5vMSlbTkhdQyg9TylbTkhdW0NIMl1bQ0BIXShbQ0gzXSlOMltDSDJdW0NAQEhdKFtDSDNdKU9bQ0BASF0oW0NIM10pW0NIMl0y

> <s_epik_cmdline>
J2VwaWtfcHl0aG9uJywgJy1waCcsICc3LjAnLCAnLXRuJywgJzgnLCAnLW1hJywgJzIwMCcsICctbWV0YWxfYmluZGluZycsICctaW1hZScsICc8aW5maWxlLm1hZT4nLCAnLW9tYWUnLCAnPG91dGZpbGUubWFlPic=

> <r_epik_Ionization_Penalty>
6.8073

> <r_epik_Ionization_Penalty_Charging>
6.80729

> <r_epik_Ionization_Penalty_Neutral>
5.65391e-06

> <r_epik_State_Penalty>
7.47323

> <r_epik_Charging_Adjusted_Penalty>
14.2805

> <i_epik_Tot_Q>
0

> <i_epik_Tot_abs_Q>
2

> <r_epik_Metal_State_Penalty>
3.40035

> <b_epik_Metal_Only>
1

> <s_lp_Force_Field>
OPLS_2005

> <r_lp_Energy>
16.5553

> <b_lp_Chiralities_Consistent>
1

> <s_lp_Variant>
AV-unprocessed.smi:2061-29

> <Gold.Version>
5.8.1

> <Gold.Id.Protein>
6NUR|6NUR_protein|mol2

> <Gold.PLP.Fitness>
40.8406

> <Gold.PLP.PLP>
-30.4059

> <Gold.PLP.part.hbond>
-5.0880

> <Gold.PLP.part.metal>
0.0000

> <Gold.PLP.part.buried>
-3.3822

> <Gold.PLP.part.nonpolar>
-23.9746

> <Gold.PLP.part.repulsive>
1.1734

> <Gold.PLP.ligand.clash>
0.0000

> <Gold.PLP.ligand.torsion>
1.9905

> <Gold.PLP.Chemscore.Hbond>
4.7605

> <Gold.PLP.Chemscore.CHOScore>
0.0000

> <Gold.PLP.Chemscore.Metal>
0.0000

> <Gold.Chemscore.Hbonds>
donor molecule, donor type, donor heavy atom, donor atom, acceptor molecule, acceptor atom, score
      L1  H     5    26       P1  7948  0.93
      L1  H    12    45       P1  7948  2.00
      P1  H  7989  7998       L1    20  1.00
      P1  H  7997  8009       L1    21  0.83

> <Gold.PLP.Chemscore.Internal.Correction>
0.1341

> <Gold.Rescore>
     Score         DG    S(hbond)    S(metal)    S(lipo)     H(rot)  DE(clash)    DE(int)     intcor
     18.57     -20.90       3.62        0.00      62.35       1.56       0.30       2.03       ----

> <Gold.Chemscore.Fitness>
18.5747

> <Gold.Chemscore.DG>
-20.8997

> <Gold.Chemscore.ZeroCoef>
-5.4800

> <Gold.Chemscore.Hbond>
3.6243

> <Gold.Chemscore.Metal>
0.0000

> <Gold.Chemscore.Lipo>
62.3525

> <Gold.Chemscore.Internal_Hbond>
0.0000

> <Gold.Chemscore.DEClash>
0.2954

> <Gold.Chemscore.DEInternal>
2.0296

> <Gold.Chemscore.Rot>
1.5550

> <Gold.Chemscore.Internal.Correction>
   9.000000E+99

> <Gold.Chemscore.Hbonds>
donor molecule, donor type, donor heavy atom, donor atom, acceptor molecule, acceptor atom, score
      L1  H     5    26       P1  7948  0.80
      L1  H    12    45       P1  7948  0.99
      P1  H  7989  7998       L1    20  0.80
      P1  H  7997  8009       L1    21  0.25

> <Gold.Chemscore.Hbond.Weighted>
-12.1053

> <Gold.Chemscore.Metal.Weighted>
-0.0000

> <Gold.Chemscore.Lipo.Weighted>
-7.2952

> <Gold.Chemscore.Internal_Hbond.Weighted>
0.0000

> <Gold.Chemscore.DEClash.Weighted>
0.2954

> <Gold.Chemscore.DEInternal.Weighted>
2.0296

> <Gold.Chemscore.Rot.Weighted>
3.9809

> <Gold.Chemscore.Internal.Correction.Weighted>
   9.000000E+99

> <Gold.Protein.RotatedTorsions>
[ 6907 6896 6895 6894 ] final   76.17 input  -60.11 | X-H torsion
[ 7974 7965 7964 7962 ] final  108.60 input  175.53 | X-H torsion
[ 8008 7997 7996 7995 ] final -150.42 input   59.86 | X-H torsion
[ 10167 10162 10161 10158 ] final -123.96 input  -65.29 | X-H torsion
[ 10718 10713 10712 10709 ] final  -66.79 input   66.30 | X-H torsion
[ 10763 10752 10751 10750 ] final  -50.38 input  -60.55 | X-H torsion
[ 11005 11000 10999 10996 ] final   18.23 input  -57.11 | X-H torsion

> <Gold.Protein.ActiveResidues>
 VAL166  LYS551  ARG553  GLY616  TRP617  ASP618  TYR619  PRO620  LYS621  CYS622 
 ASP623  PHE694  ASN695  SER759  ASP760  ASP761  ALA762  ILE779  LEU786  VAL792 
 PHE793  MET794  SER795  GLU796  ALA797  LYS798  CYS799  TRP800  GLU811  SER814 

> <Gold.Protein.RotatedAtoms>
  152.5060  134.4010  159.9416 H   0  0  0  0  0  0  0  0  0  0  0  0  # atno 6907 bound_to 6896
  151.3974  133.3762  159.2736 H   0  0  0  0  0  0  0  0  0  0  0  0  # atno 6908 bound_to 6896
  150.9387  134.8819  159.7657 H   0  0  0  0  0  0  0  0  0  0  0  0  # atno 6909 bound_to 6896
  145.2786  139.2641  143.3928 H   0  0  0  0  0  0  0  0  0  0  0  0  # atno 7974 bound_to 7965
  155.6232  140.0683  157.2671 H   0  0  0  0  0  0  0  0  0  0  0  0  # atno 8008 bound_to 7997
  154.4224  140.1780  156.1442 H   0  0  0  0  0  0  0  0  0  0  0  0  # atno 8009 bound_to 7997
  155.9992  140.3337  155.6832 H   0  0  0  0  0  0  0  0  0  0  0  0  # atno 8010 bound_to 7997
  139.9979  143.5572  152.2316 H   0  0  0  0  0  0  0  0  0  0  0  0  # atno 10167 bound_to 10162
  156.0593  130.4267  150.1760 H   0  0  0  0  0  0  0  0  0  0  0  0  # atno 10718 bound_to 10713
  154.1094  135.6551  153.4882 H   0  0  0  0  0  0  0  0  0  0  0  0  # atno 10763 bound_to 10752
  153.0261  135.5244  154.7207 H   0  0  0  0  0  0  0  0  0  0  0  0  # atno 10764 bound_to 10752
  154.6382  135.2985  155.0105 H   0  0  0  0  0  0  0  0  0  0  0  0  # atno 10765 bound_to 10752
  140.4272  134.1458  155.7677 H   0  0  0  0  0  0  0  0  0  0  0  0  # atno 11005 bound_to 11000
  146.3223  140.3247  142.8636 LP  0  0  0  0  0  0  0  0  0  0  0  0  # atno 17320 bound_to 7965
  144.9273  140.7935  143.5711 LP  0  0  0  0  0  0  0  0  0  0  0  0  # atno 17321 bound_to 7965
  139.6293  144.7642  151.2571 LP  0  0  0  0  0  0  0  0  0  0  0  0  # atno 17342 bound_to 10162
  140.7430  143.6508  150.8250 LP  0  0  0  0  0  0  0  0  0  0  0  0  # atno 17343 bound_to 10162
  156.9831  130.9870  151.3432 LP  0  0  0  0  0  0  0  0  0  0  0  0  # atno 17370 bound_to 10713
  157.5588  130.8232  149.8239 LP  0  0  0  0  0  0  0  0  0  0  0  0  # atno 17371 bound_to 10713
  141.1760  133.8512  157.1418 LP  0  0  0  0  0  0  0  0  0  0  0  0  # atno 17394 bound_to 11000
  140.0159  134.9967  157.0493 LP  0  0  0  0  0  0  0  0  0  0  0  0  # atno 17395 bound_to 11000

$$$$
