AV-unprocessed.smi:1143|AV-procd|sdf|4875|dock9
  -GOLD-   22720 3443D 1   1.00000     0.00000
 Structure written by MMmdl.
 35 36  0  0  0  0  0  0  0  0  1 V2000
  151.2777  130.4047  155.6930 C   0  0  0  0  0  0  0  0  0  0  0  0
  150.8739  131.8118  155.6280 N   0  0  0  0  0  0  0  0  0  0  0  0
  150.0136  132.2009  154.5827 C   0  0  0  0  0  0  0  0  0  0  0  0
  149.5849  133.4740  154.4380 C   0  0  0  0  0  0  0  0  0  0  0  0
  148.7164  133.9308  153.4367 N   0  0  0  0  0  0  0  0  0  0  0  0
  147.6626  133.3106  152.8653 C   0  0  0  0  0  0  0  0  0  0  0  0
  147.3071  132.1570  153.0973 O   0  0  0  0  0  0  0  0  0  0  0  0
  147.0137  134.0631  151.9575 N   0  0  0  0  0  0  0  0  0  0  0  0
  145.8398  133.7088  151.1559 C   0  0  0  0  0  0  0  0  0  0  0  0
  144.7705  133.0734  152.0565 C   0  0  0  0  0  0  0  0  0  0  0  0
  143.5847  132.5672  151.2188 C   0  0  0  0  0  0  0  0  0  0  0  0
  144.0415  131.6471  150.2330 O   0  0  0  0  0  0  0  0  0  0  0  0
  144.9478  132.2327  149.3045 C   0  0  0  0  0  0  0  0  0  0  0  0
  146.2093  132.7196  150.0357 C   0  0  0  0  0  0  0  0  0  0  0  0
  150.0416  134.4346  155.4196 C   0  0  0  0  0  0  0  0  0  0  0  0
  150.8639  134.0707  156.4225 C   0  0  0  0  0  0  0  0  0  0  0  0
  151.3306  132.6898  156.5674 C   0  0  0  0  0  0  0  0  0  0  0  0
  152.0842  132.3432  157.4773 O   0  0  0  0  0  0  0  0  0  0  0  0
  150.8302  129.7978  154.9054 H   0  0  0  0  0  0  0  0  0  0  0  0
  150.9821  129.9651  156.6467 H   0  0  0  0  0  0  0  0  0  0  0  0
  152.3607  130.3137  155.5982 H   0  0  0  0  0  0  0  0  0  0  0  0
  149.7293  131.3887  153.9330 H   0  0  0  0  0  0  0  0  0  0  0  0
  148.9181  134.8593  153.0960 H   0  0  0  0  0  0  0  0  0  0  0  0
  147.4106  134.9723  151.7680 H   0  0  0  0  0  0  0  0  0  0  0  0
  145.4096  134.6096  150.7140 H   0  0  0  0  0  0  0  0  0  0  0  0
  145.1993  132.2369  152.6102 H   0  0  0  0  0  0  0  0  0  0  0  0
  144.4226  133.7939  152.7977 H   0  0  0  0  0  0  0  0  0  0  0  0
  142.8614  132.0643  151.8608 H   0  0  0  0  0  0  0  0  0  0  0  0
  143.0622  133.3978  150.7417 H   0  0  0  0  0  0  0  0  0  0  0  0
  145.2146  131.4876  148.5548 H   0  0  0  0  0  0  0  0  0  0  0  0
  144.4634  133.0551  148.7759 H   0  0  0  0  0  0  0  0  0  0  0  0
  146.8935  133.1810  149.3230 H   0  0  0  0  0  0  0  0  0  0  0  0
  146.7327  131.8605  150.4578 H   0  0  0  0  0  0  0  0  0  0  0  0
  149.7217  135.4642  155.3494 H   0  0  0  0  0  0  0  0  0  0  0  0
  151.1871  134.8130  157.1372 H   0  0  0  0  0  0  0  0  0  0  0  0
  1  2  1  0  0  0  0
  1 19  1  0  0  0  0
  1 20  1  0  0  0  0
  1 21  1  0  0  0  0
  2 17  1  0  0  0  0
  2  3  1  0  0  0  0
  3  4  2  0  0  0  0
  3 22  1  0  0  0  0
  4  5  1  0  0  0  0
  4 15  1  0  0  0  0
  5  6  1  0  0  0  0
  5 23  1  0  0  0  0
  6  7  2  0  0  0  0
  6  8  1  0  0  0  0
  8  9  1  0  0  0  0
  8 24  1  0  0  0  0
  9 14  1  0  0  0  0
  9 10  1  0  0  0  0
  9 25  1  0  0  0  0
 10 11  1  0  0  0  0
 10 26  1  0  0  0  0
 10 27  1  0  0  0  0
 11 12  1  0  0  0  0
 11 28  1  0  0  0  0
 11 29  1  0  0  0  0
 12 13  1  0  0  0  0
 13 14  1  0  0  0  0
 13 30  1  0  0  0  0
 13 31  1  0  0  0  0
 14 32  1  0  0  0  0
 14 33  1  0  0  0  0
 15 16  2  0  0  0  0
 15 34  1  0  0  0  0
 16 17  1  0  0  0  0
 16 35  1  0  0  0  0
 17 18  2  0  0  0  0
M  END
> <s_m_source_file>
AV-unprocessed.smi

> <i_m_source_file_index>
1143

> <i_lp_mmshare_version>
43012

> <i_f3d_flags>
0

> <s_epik_input>
Tz1jMVtjSF1bY0hdYyhbY0hdbjFbQ0gzXSlbTkhdQyg9TylbTkhdW0NIXTJbQ0gyXVtDSDJdT1tDSDJdW0NIMl0y

> <s_epik_cmdline>
J2VwaWtfcHl0aG9uJywgJy1waCcsICc3LjAnLCAnLXRuJywgJzgnLCAnLW1hJywgJzIwMCcsICctbWV0YWxfYmluZGluZycsICctaW1hZScsICc8aW5maWxlLm1hZT4nLCAnLW9tYWUnLCAnPG91dGZpbGUubWFlPic=

> <r_lp_tautomer_probability>
1

> <r_epik_Ionization_Penalty>
2.54991e-05

> <r_epik_Ionization_Penalty_Charging>
5.93057e-06

> <r_epik_Ionization_Penalty_Neutral>
1.95685e-05

> <r_epik_State_Penalty>
-0

> <r_epik_Charging_Adjusted_Penalty>
5.93057e-06

> <i_epik_Tot_Q>
0

> <i_epik_Tot_abs_Q>
0

> <r_epik_Metal_State_Penalty>
-0

> <b_epik_Metal_Only>
0

> <s_lp_Force_Field>
OPLS_2005

> <r_lp_Energy>
32.4408

> <b_lp_Chiralities_Consistent>
1

> <s_lp_Variant>
AV-unprocessed.smi:1143-1

> <Gold.Version>
5.8.1

> <Gold.Id.Protein>
6NUR|6NUR_protein|mol2

> <Gold.PLP.Fitness>
42.8479

> <Gold.PLP.PLP>
-33.3545

> <Gold.PLP.part.hbond>
-4.0000

> <Gold.PLP.part.metal>
0.0000

> <Gold.PLP.part.buried>
-3.9586

> <Gold.PLP.part.nonpolar>
-25.8820

> <Gold.PLP.part.repulsive>
0.2976

> <Gold.PLP.ligand.clash>
0.0000

> <Gold.PLP.ligand.torsion>
0.4181

> <Gold.PLP.Chemscore.Hbond>
3.4429

> <Gold.PLP.Chemscore.CHOScore>
0.0000

> <Gold.PLP.Chemscore.Metal>
0.0000

> <Gold.Chemscore.Hbonds>
donor molecule, donor type, donor heavy atom, donor atom, acceptor molecule, acceptor atom, score
      L1  H     5    23       P1  7948  0.85
      L1  H     8    24       P1  7948  0.99
      P1  H  6896  6908       L1    18  0.88
      P1  H 10785 10796       L1    12  0.21

> <Gold.PLP.Chemscore.Internal.Correction>
0.0009

> <Gold.Rescore>
     Score         DG    S(hbond)    S(metal)    S(lipo)     H(rot)  DE(clash)    DE(int)     intcor
     17.55     -19.11       2.46        0.00      68.16       1.00       0.07       1.48       ----

> <Gold.Chemscore.Fitness>
17.5505

> <Gold.Chemscore.DG>
-19.1090

> <Gold.Chemscore.ZeroCoef>
-5.4800

> <Gold.Chemscore.Hbond>
2.4595

> <Gold.Chemscore.Metal>
0.0000

> <Gold.Chemscore.Lipo>
68.1554

> <Gold.Chemscore.Internal_Hbond>
0.0000

> <Gold.Chemscore.DEClash>
0.0737

> <Gold.Chemscore.DEInternal>
1.4847

> <Gold.Chemscore.Rot>
1.0000

> <Gold.Chemscore.Internal.Correction>
   9.000000E+99

> <Gold.Chemscore.Hbonds>
donor molecule, donor type, donor heavy atom, donor atom, acceptor molecule, acceptor atom, score
      L1  H     5    23       P1  7948  0.14
      L1  H     8    24       P1  7948  0.76
      P1  H  6896  6908       L1    18  0.77
      P1  H 10785 10796       L1    12  0.03

> <Gold.Chemscore.Hbond.Weighted>
-8.2148

> <Gold.Chemscore.Metal.Weighted>
-0.0000

> <Gold.Chemscore.Lipo.Weighted>
-7.9742

> <Gold.Chemscore.Internal_Hbond.Weighted>
0.0000

> <Gold.Chemscore.DEClash.Weighted>
0.0737

> <Gold.Chemscore.DEInternal.Weighted>
1.4847

> <Gold.Chemscore.Rot.Weighted>
2.5600

> <Gold.Chemscore.Internal.Correction.Weighted>
   9.000000E+99

> <Gold.Protein.RotatedTorsions>
[ 6907 6896 6895 6894 ] final   47.81 input  -60.11 | X-H torsion
[ 7974 7965 7964 7962 ] final   30.40 input  175.53 | X-H torsion
[ 8008 7997 7996 7995 ] final   74.83 input   59.86 | X-H torsion
[ 10167 10162 10161 10158 ] final -178.92 input  -65.29 | X-H torsion
[ 10718 10713 10712 10709 ] final -170.39 input   66.30 | X-H torsion
[ 10763 10752 10751 10750 ] final  -25.77 input  -60.55 | X-H torsion
[ 11005 11000 10999 10996 ] final   39.98 input  -57.11 | X-H torsion

> <Gold.Protein.ActiveResidues>
 VAL166  LYS551  ARG553  GLY616  TRP617  ASP618  TYR619  PRO620  LYS621  CYS622 
 ASP623  PHE694  ASN695  SER759  ASP760  ASP761  ALA762  ILE779  LEU786  VAL792 
 PHE793  MET794  SER795  GLU796  ALA797  LYS798  CYS799  TRP800  GLU811  SER814 

> <Gold.Protein.RotatedAtoms>
  152.2723  134.7919  160.0411 H   0  0  0  0  0  0  0  0  0  0  0  0  # atno 6907 bound_to 6896
  151.8527  133.3437  159.3686 H   0  0  0  0  0  0  0  0  0  0  0  0  # atno 6908 bound_to 6896
  150.7157  134.5211  159.5698 H   0  0  0  0  0  0  0  0  0  0  0  0  # atno 6909 bound_to 6896
  146.1614  139.6793  142.9031 H   0  0  0  0  0  0  0  0  0  0  0  0  # atno 7974 bound_to 7965
  155.8040  140.3475  155.5419 H   0  0  0  0  0  0  0  0  0  0  0  0  # atno 8008 bound_to 7997
  155.8509  140.0956  157.1696 H   0  0  0  0  0  0  0  0  0  0  0  0  # atno 8009 bound_to 7997
  154.4008  140.1376  156.3830 H   0  0  0  0  0  0  0  0  0  0  0  0  # atno 8010 bound_to 7997
  139.5410  144.2364  152.0894 H   0  0  0  0  0  0  0  0  0  0  0  0  # atno 10167 bound_to 10162
  156.7255  130.9286  151.3100 H   0  0  0  0  0  0  0  0  0  0  0  0  # atno 10718 bound_to 10713
  153.7052  135.6954  153.5052 H   0  0  0  0  0  0  0  0  0  0  0  0  # atno 10763 bound_to 10752
  153.2313  135.4337  155.0597 H   0  0  0  0  0  0  0  0  0  0  0  0  # atno 10764 bound_to 10752
  154.8332  135.3485  154.6591 H   0  0  0  0  0  0  0  0  0  0  0  0  # atno 10765 bound_to 10752
  140.1975  134.3911  155.8113 H   0  0  0  0  0  0  0  0  0  0  0  0  # atno 11005 bound_to 11000
  145.4579  141.0431  143.2768 LP  0  0  0  0  0  0  0  0  0  0  0  0  # atno 17320 bound_to 7965
  144.8032  139.6101  143.7062 LP  0  0  0  0  0  0  0  0  0  0  0  0  # atno 17321 bound_to 7965
  140.1842  144.4815  150.6512 LP  0  0  0  0  0  0  0  0  0  0  0  0  # atno 17342 bound_to 10162
  140.6639  143.2261  151.5789 LP  0  0  0  0  0  0  0  0  0  0  0  0  # atno 17343 bound_to 10162
  157.6880  130.9205  150.0439 LP  0  0  0  0  0  0  0  0  0  0  0  0  # atno 17370 bound_to 10713
  156.1565  130.3643  149.9361 LP  0  0  0  0  0  0  0  0  0  0  0  0  # atno 17371 bound_to 10713
  141.2227  133.7077  156.8201 LP  0  0  0  0  0  0  0  0  0  0  0  0  # atno 17394 bound_to 11000
  140.2091  134.8841  157.3254 LP  0  0  0  0  0  0  0  0  0  0  0  0  # atno 17395 bound_to 11000

$$$$
