#       Name:                AV-unprocessed.smi:1356
#       Creating user name   scv26
#       Creation time:       Fri Mar 27 05:13:40 2020


#       File generated by GOLD software.
#

@<TRIPOS>MOLECULE
AV-unprocessed.smi:1356
    46    47     1
SMALL
NO_CHARGES


@<TRIPOS>ATOM
      1 ****        -4.7277   6.1760   1.0969 C.3            1 S1                 0.0000
      2 ****        -3.4243   5.4077   1.1281 C.3            1 S1                 0.0000
      3 ****        -2.3673   5.6350   0.0748 C.3            1 S1                 0.0000
      4 ****        -3.1420   4.3329   0.0947 C.3            1 S1                 0.0000
      5 ****        -2.4159   3.1070   0.5436 C.2            1 S1                 0.0000
      6 ****        -1.5524   3.1206   1.4223 O.2            1 S1                 0.0000
      7 ****        -2.7841   1.9891  -0.1007 N.am           1 S1                 0.0000
      8 ****        -2.2230   0.6635   0.1340 C.3            1 S1                 0.0000
      9 ****        -0.8635   0.4942  -0.5711 C.3            1 S1                 0.0000
     10 ****        -0.2191  -0.8641  -0.2848 C.2            1 S1                 0.0000
     11 ****        -0.8897  -1.8956  -0.3368 O.2            1 S1                 0.0000
     12 ****         1.0906  -0.8525   0.0079 N.am           1 S1                 0.0000
     13 ****         1.8914  -2.0333   0.3077 C.3            1 S1                 0.0000
     14 ****         2.3115  -2.7716  -0.9740 C.3            1 S1                 0.0000
     15 ****         3.1560  -3.9957  -0.6797 C.ar           1 S1                 0.0000
     16 ****         2.6112  -5.2980  -0.6681 C.ar           1 S1                 0.0000
     17 ****         3.4514  -6.3938  -0.3804 C.ar           1 S1                 0.0000
     18 ****         4.8164  -6.1646  -0.1096 C.ar           1 S1                 0.0000
     19 ****         5.3074  -4.8432  -0.1332 C.ar           1 S1                 0.0000
     20 ****         4.4705  -3.8198  -0.4129 N.pl3          1 S1                 1.0000
     21 ****        -5.0533   6.3446   0.0699 H              1 S1                 0.0000
     22 ****        -4.6035   7.1429   1.5850 H              1 S1                 0.0000
     23 ****        -5.5038   5.6180   1.6208 H              1 S1                 0.0000
     24 ****        -3.0560   5.2324   2.1378 H              1 S1                 0.0000
     25 ****        -2.5878   6.3256  -0.7365 H              1 S1                 0.0000
     26 ****        -1.3284   5.6288   0.4006 H              1 S1                 0.0000
     27 ****        -3.8837   4.1964  -0.6912 H              1 S1                 0.0000
     28 ****        -3.5021   2.0630  -0.8069 H              1 S1                 0.0000
     29 ****        -2.1274   0.4863   1.2070 H              1 S1                 0.0000
     30 ****        -2.9366  -0.0717  -0.2397 H              1 S1                 0.0000
     31 ****        -0.9873   0.5967  -1.6497 H              1 S1                 0.0000
     32 ****        -0.1816   1.2870  -0.2598 H              1 S1                 0.0000
     33 ****         1.5628   0.0401   0.0309 H              1 S1                 0.0000
     34 ****         2.7742  -1.7106   0.8604 H              1 S1                 0.0000
     35 ****         1.3373  -2.7013   0.9698 H              1 S1                 0.0000
     36 ****         1.4306  -3.0794  -1.5391 H              1 S1                 0.0000
     37 ****         2.8749  -2.1017  -1.6252 H              1 S1                 0.0000
     38 ****         1.5627  -5.4572  -0.8752 H              1 S1                 0.0000
     39 ****         3.0532  -7.3979  -0.3672 H              1 S1                 0.0000
     40 ****         5.4767  -6.9900   0.1133 H              1 S1                 0.0000
     41 ****         6.3357  -4.5759   0.0617 H              1 S1                 0.0000
     42 ****         4.8474  -2.8717  -0.4235 H              1 S1                 0.0000
     43 ****        -1.3089   3.9806   1.8707 LP             1 S1                 0.0000
     44 ****        -1.0951   2.2717   1.6870 LP             1 S1                 0.0000
     45 ****        -1.8617  -1.8490  -0.5673 LP             1 S1                 0.0000
     46 ****        -0.4623  -2.7798  -0.1486 LP             1 S1                 0.0000
@<TRIPOS>BOND
    1    1    2 1     
    2    1   21 1     
    3    1   22 1     
    4    1   23 1     
    5    2    4 1     
    6    2    3 1     
    7    2   24 1     
    8    3    4 1     
    9    3   25 1     
   10    3   26 1     
   11    4    5 1     
   12    4   27 1     
   13    5    6 2     
   14    5    7 am    
   15    7    8 1     
   16    7   28 1     
   17    8    9 1     
   18    8   29 1     
   19    8   30 1     
   20    9   10 1     
   21    9   31 1     
   22    9   32 1     
   23   10   11 2     
   24   10   12 am    
   25   12   13 1     
   26   12   33 1     
   27   13   14 1     
   28   13   34 1     
   29   13   35 1     
   30   14   15 1     
   31   14   36 1     
   32   14   37 1     
   33   15   20 ar    
   34   15   16 ar    
   35   16   17 ar    
   36   16   38 1     
   37   17   18 ar    
   38   17   39 1     
   39   18   19 ar    
   40   18   40 1     
   41   19   20 ar    
   42   19   41 1     
   43   20   42 1     
   44    6   43 1     
   45    6   44 1     
   46   11   45 1     
   47   11   46 1     
@<TRIPOS>SUBSTRUCTURE
      1 S1             1
@<TRIPOS>SET
LONE_PAIRS      STATIC     ATOMS    <user>   **** ""
4 43 44 45 46
DONOR_HYDROGENS      STATIC     ATOMS    <user>   **** ""
3 28 33 42
ATOM$BLUE        STATIC     ATOMS    COLORGROUP SYSTEM
4 43 44 45 46
ATOM$RED        STATIC     ATOMS    COLORGROUP SYSTEM
3 28 33 42
