AV-unprocessed.smi:3056|AV-procd|sdf|11653|dock8
  -GOLD-   2272017 53D 1   1.00000     0.00000
 Structure written by MMmdl.
 47 48  0  0  0  0  0  0  0  0  1 V2000
  150.8544  135.8233  155.4403 C   0  0  0  0  0  0  0  0  0  0  0  0
  150.7485  137.3070  155.2369 C   0  0  0  0  0  0  0  0  0  0  0  0
  151.3002  138.0890  154.1827 C   0  0  0  0  0  0  0  0  0  0  0  0
  151.0201  139.3769  154.2967 N   0  0  0  0  0  0  0  0  0  0  0  0
  150.2793  139.4656  155.4224 N   0  0  0  0  0  0  0  0  0  0  0  0
  149.7870  140.7629  155.8686 C   0  0  2  0  0  0  0  0  0  0  0  0
  149.0334  141.4475  154.7125 C   0  0  0  0  0  0  0  0  0  0  0  0
  150.9295  141.6404  156.4460 C   0  0  2  0  0  0  0  0  0  0  0  0
  151.7707  140.9117  157.5156 C   0  0  0  0  0  0  0  0  0  0  0  0
  150.3388  142.8371  157.0488 N   0  0  0  0  0  0  0  0  0  0  0  0
  151.3164  143.8592  157.4680 C   0  0  0  0  0  0  0  0  0  0  0  0
  151.2498  144.2480  158.9594 C   0  0  0  0  0  0  0  0  0  0  0  0
  150.2146  144.7549  159.3960 O   0  0  0  0  0  0  0  0  0  0  0  0
  152.3259  144.0235  159.7506 N   0  0  0  0  0  0  0  0  0  0  0  0
  153.5071  143.2810  159.3051 C   0  0  0  0  0  0  0  0  0  0  0  0
  153.5644  141.9657  160.1032 C   0  0  0  0  0  0  0  0  0  0  0  0
  153.5989  142.2490  161.5016 O   0  0  0  0  0  0  0  0  0  0  0  0
  152.4848  143.0165  161.9591 C   0  0  1  0  0  0  0  0  0  0  0  0
  152.6416  143.2378  163.4672 C   0  0  0  0  0  0  0  0  0  0  0  0
  152.4396  144.3434  161.1758 C   0  0  0  0  0  0  0  0  0  0  0  0
  150.1053  138.2295  156.0118 C   0  0  0  0  0  0  0  0  0  0  0  0
  151.4896  135.3550  154.6882 H   0  0  0  0  0  0  0  0  0  0  0  0
  149.8789  135.3401  155.3834 H   0  0  0  0  0  0  0  0  0  0  0  0
  151.2783  135.5803  156.4149 H   0  0  0  0  0  0  0  0  0  0  0  0
  151.8931  137.7598  153.3422 H   0  0  0  0  0  0  0  0  0  0  0  0
  149.0654  140.5796  156.6678 H   0  0  0  0  0  0  0  0  0  0  0  0
  148.5512  142.3695  155.0369 H   0  0  0  0  0  0  0  0  0  0  0  0
  148.2524  140.7976  154.3167 H   0  0  0  0  0  0  0  0  0  0  0  0
  149.7054  141.6977  153.8909 H   0  0  0  0  0  0  0  0  0  0  0  0
  151.5884  141.9106  155.6206 H   0  0  0  0  0  0  0  0  0  0  0  0
  152.2670  140.0317  157.1070 H   0  0  0  0  0  0  0  0  0  0  0  0
  151.1487  140.5813  158.3481 H   0  0  0  0  0  0  0  0  0  0  0  0
  152.5564  141.5478  157.9221 H   0  0  0  0  0  0  0  0  0  0  0  0
  149.6598  143.2312  156.4129 H   0  0  0  0  0  0  0  0  0  0  0  0
  152.3177  143.4779  157.2667 H   0  0  0  0  0  0  0  0  0  0  0  0
  151.1841  144.7414  156.8434 H   0  0  0  0  0  0  0  0  0  0  0  0
  153.4978  143.0631  158.2365 H   0  0  0  0  0  0  0  0  0  0  0  0
  154.4043  143.8744  159.4864 H   0  0  0  0  0  0  0  0  0  0  0  0
  152.7034  141.3356  159.8736 H   0  0  0  0  0  0  0  0  0  0  0  0
  154.4559  141.3989  159.8352 H   0  0  0  0  0  0  0  0  0  0  0  0
  151.5670  142.4526  161.7822 H   0  0  0  0  0  0  0  0  0  0  0  0
  151.8058  143.8114  163.8684 H   0  0  0  0  0  0  0  0  0  0  0  0
  153.5601  143.7802  163.6929 H   0  0  0  0  0  0  0  0  0  0  0  0
  152.6768  142.2866  163.9987 H   0  0  0  0  0  0  0  0  0  0  0  0
  153.3590  144.9071  161.3423 H   0  0  0  0  0  0  0  0  0  0  0  0
  151.6410  144.9838  161.5470 H   0  0  0  0  0  0  0  0  0  0  0  0
  149.5399  138.1099  156.9245 H   0  0  0  0  0  0  0  0  0  0  0  0
  1  2  1  0  0  0  0
  1 22  1  0  0  0  0
  1 23  1  0  0  0  0
  1 24  1  0  0  0  0
  2 21  2  0  0  0  0
  2  3  1  0  0  0  0
  3  4  2  0  0  0  0
  3 25  1  0  0  0  0
  4  5  1  0  0  0  0
  5  6  1  0  0  0  0
  5 21  1  0  0  0  0
  6  7  1  0  0  0  0
  6  8  1  0  0  0  0
  6 26  1  0  0  0  0
  7 27  1  0  0  0  0
  7 28  1  0  0  0  0
  7 29  1  0  0  0  0
  8  9  1  0  0  0  0
  8 10  1  0  0  0  0
  8 30  1  0  0  0  0
  9 31  1  0  0  0  0
  9 32  1  0  0  0  0
  9 33  1  0  0  0  0
 10 11  1  0  0  0  0
 10 34  1  0  0  0  0
 11 12  1  0  0  0  0
 11 35  1  0  0  0  0
 11 36  1  0  0  0  0
 12 13  2  0  0  0  0
 12 14  1  0  0  0  0
 14 20  1  0  0  0  0
 14 15  1  0  0  0  0
 15 16  1  0  0  0  0
 15 37  1  0  0  0  0
 15 38  1  0  0  0  0
 16 17  1  0  0  0  0
 16 39  1  0  0  0  0
 16 40  1  0  0  0  0
 17 18  1  0  0  0  0
 18 19  1  0  0  0  0
 18 20  1  0  0  0  0
 18 41  1  0  0  0  0
 19 42  1  0  0  0  0
 19 43  1  0  0  0  0
 19 44  1  0  0  0  0
 20 45  1  0  0  0  0
 20 46  1  0  0  0  0
 21 47  1  0  0  0  0
M  END
> <s_m_source_file>
AV-unprocessed.smi

> <i_m_source_file_index>
3056

> <i_lp_mmshare_version>
43012

> <i_f3d_flags>
0

> <s_epik_input>
W0NIM11jMVtjSF1ubihbY0hdMSlbQ0BIXShbQ0gzXSlbQ0BIXShbQ0gzXSlbTkhdW0NIMl1DKD1PKU4yW0NIMl1bQ0gyXU9bQ0BASF0oW0NIM10pW0NIMl0y

> <s_epik_cmdline>
J2VwaWtfcHl0aG9uJywgJy1waCcsICc3LjAnLCAnLXRuJywgJzgnLCAnLW1hJywgJzIwMCcsICctbWV0YWxfYmluZGluZycsICctaW1hZScsICc8aW5maWxlLm1hZT4nLCAnLW9tYWUnLCAnPG91dGZpbGUubWFlPic=

> <r_lp_tautomer_probability>
1

> <r_epik_Ionization_Penalty>
0.667689

> <r_epik_Ionization_Penalty_Charging>
0

> <r_epik_Ionization_Penalty_Neutral>
0.667689

> <r_epik_State_Penalty>
0.684601

> <r_epik_Charging_Adjusted_Penalty>
0.684601

> <i_epik_Tot_Q>
0

> <i_epik_Tot_abs_Q>
0

> <r_epik_Metal_State_Penalty>
0.681448

> <b_epik_Metal_Only>
0

> <s_lp_Force_Field>
OPLS_2005

> <r_lp_Energy>
29.7123

> <b_lp_Chiralities_Consistent>
1

> <s_lp_Variant>
AV-unprocessed.smi:3056-9

> <Gold.Version>
5.8.1

> <Gold.Id.Protein>
6NUR|6NUR_protein|mol2

> <Gold.PLP.Fitness>
52.2476

> <Gold.PLP.PLP>
-44.5367

> <Gold.PLP.part.hbond>
-2.0700

> <Gold.PLP.part.metal>
0.0000

> <Gold.PLP.part.buried>
-3.0213

> <Gold.PLP.part.nonpolar>
-39.3248

> <Gold.PLP.part.repulsive>
0.3462

> <Gold.PLP.ligand.clash>
0.0000

> <Gold.PLP.ligand.torsion>
0.6615

> <Gold.PLP.Chemscore.Hbond>
1.9920

> <Gold.PLP.Chemscore.CHOScore>
0.9932

> <Gold.PLP.Chemscore.Metal>
0.0000

> <Gold.Chemscore.Hbonds>
donor molecule, donor type, donor heavy atom, donor atom, acceptor molecule, acceptor atom, score
      L1  H    10    34       P1  8028  0.98
      P1  H  7989  7998       L1     4  1.00
      L1  C     3    25       P1  7949  0.64

> <Gold.PLP.Chemscore.Internal.Correction>
0.0782

> <Gold.Rescore>
     Score         DG    S(hbond)    S(metal)    S(lipo)     H(rot)  DE(clash)    DE(int)     intcor
     20.93     -21.87       1.96        0.00     120.89       1.68       0.51       0.42       ----

> <Gold.Chemscore.Fitness>
20.9282

> <Gold.Chemscore.DG>
-21.8666

> <Gold.Chemscore.ZeroCoef>
-5.4800

> <Gold.Chemscore.Hbond>
1.9586

> <Gold.Chemscore.Metal>
0.0000

> <Gold.Chemscore.Lipo>
120.8881

> <Gold.Chemscore.Internal_Hbond>
0.0000

> <Gold.Chemscore.DEClash>
0.5138

> <Gold.Chemscore.DEInternal>
0.4246

> <Gold.Chemscore.Rot>
1.6793

> <Gold.Chemscore.Internal.Correction>
   9.000000E+99

> <Gold.Chemscore.Hbonds>
donor molecule, donor type, donor heavy atom, donor atom, acceptor molecule, acceptor atom, score
      L1  H    10    34       P1  8028  0.92
      P1  H  7989  7998       L1     4  0.98

> <Gold.Chemscore.Hbond.Weighted>
-6.5418

> <Gold.Chemscore.Metal.Weighted>
-0.0000

> <Gold.Chemscore.Lipo.Weighted>
-14.1439

> <Gold.Chemscore.Internal_Hbond.Weighted>
0.0000

> <Gold.Chemscore.DEClash.Weighted>
0.5138

> <Gold.Chemscore.DEInternal.Weighted>
0.4246

> <Gold.Chemscore.Rot.Weighted>
4.2990

> <Gold.Chemscore.Internal.Correction.Weighted>
   9.000000E+99

> <Gold.Protein.RotatedTorsions>
[ 6907 6896 6895 6894 ] final  -24.75 input  -60.11 | X-H torsion
[ 7974 7965 7964 7962 ] final  -48.33 input  175.53 | X-H torsion
[ 8008 7997 7996 7995 ] final -167.57 input   59.86 | X-H torsion
[ 10167 10162 10161 10158 ] final  -16.23 input  -65.29 | X-H torsion
[ 10718 10713 10712 10709 ] final  -80.21 input   66.30 | X-H torsion
[ 10763 10752 10751 10750 ] final -132.02 input  -60.55 | X-H torsion
[ 11005 11000 10999 10996 ] final -112.91 input  -57.11 | X-H torsion

> <Gold.Protein.ActiveResidues>
 VAL166  LYS551  ARG553  GLY616  TRP617  ASP618  TYR619  PRO620  LYS621  CYS622 
 ASP623  PHE694  ASN695  SER759  ASP760  ASP761  ALA762  ILE779  LEU786  VAL792 
 PHE793  MET794  SER795  GLU796  ALA797  LYS798  CYS799  TRP800  GLU811  SER814 

> <Gold.Protein.RotatedAtoms>
  151.1850  135.0377  159.8808 H   0  0  0  0  0  0  0  0  0  0  0  0  # atno 6907 bound_to 6896
  152.5443  134.1020  159.8332 H   0  0  0  0  0  0  0  0  0  0  0  0  # atno 6908 bound_to 6896
  151.1141  133.5104  159.2636 H   0  0  0  0  0  0  0  0  0  0  0  0  # atno 6909 bound_to 6896
  145.9523  140.7560  142.9498 H   0  0  0  0  0  0  0  0  0  0  0  0  # atno 7974 bound_to 7965
  155.8795  140.1006  157.1495 H   0  0  0  0  0  0  0  0  0  0  0  0  # atno 8008 bound_to 7997
  154.4004  140.1331  156.4242 H   0  0  0  0  0  0  0  0  0  0  0  0  # atno 8009 bound_to 7997
  155.7659  140.3462  155.5224 H   0  0  0  0  0  0  0  0  0  0  0  0  # atno 8010 bound_to 7997
  140.7230  143.5137  150.9718 H   0  0  0  0  0  0  0  0  0  0  0  0  # atno 10167 bound_to 10162
  156.0075  130.4568  150.3766 H   0  0  0  0  0  0  0  0  0  0  0  0  # atno 10718 bound_to 10713
  154.8746  135.3811  154.4341 H   0  0  0  0  0  0  0  0  0  0  0  0  # atno 10763 bound_to 10752
  153.5032  135.7030  153.5825 H   0  0  0  0  0  0  0  0  0  0  0  0  # atno 10764 bound_to 10752
  153.4148  135.3916  155.2040 H   0  0  0  0  0  0  0  0  0  0  0  0  # atno 10765 bound_to 10752
  141.0647  133.9479  157.2602 H   0  0  0  0  0  0  0  0  0  0  0  0  # atno 11005 bound_to 11000
  144.6798  140.2455  143.7338 LP  0  0  0  0  0  0  0  0  0  0  0  0  # atno 17320 bound_to 7965
  145.8154  139.2021  143.1969 LP  0  0  0  0  0  0  0  0  0  0  0  0  # atno 17321 bound_to 7965
  139.8852  143.7022  152.3152 LP  0  0  0  0  0  0  0  0  0  0  0  0  # atno 17342 bound_to 10162
  139.7318  144.7580  151.0789 LP  0  0  0  0  0  0  0  0  0  0  0  0  # atno 17343 bound_to 10162
  157.1848  131.0401  151.2730 LP  0  0  0  0  0  0  0  0  0  0  0  0  # atno 17370 bound_to 10713
  157.4114  130.7387  149.6842 LP  0  0  0  0  0  0  0  0  0  0  0  0  # atno 17371 bound_to 10713
  139.9465  135.0183  156.8867 LP  0  0  0  0  0  0  0  0  0  0  0  0  # atno 17394 bound_to 11000
  140.5798  134.0363  155.7460 LP  0  0  0  0  0  0  0  0  0  0  0  0  # atno 17395 bound_to 11000

$$$$
