AV-unprocessed.smi:356|AV-procd|sdf|2410|dock10
  -GOLD-   2262022343D 1   1.00000     0.00000
 Structure written by MMmdl.
 42 44  0  0  0  0  0  0  0  0  2 V2000
  152.0415  137.1551  158.1223 C   0  0  0  0  0  0  0  0  0  0  0  0
  152.1715  138.5807  158.5560 C   0  0  0  0  0  0  0  0  0  0  0  0
  152.7278  138.9208  159.7183 N   0  0  0  0  0  0  0  0  0  0  0  0
  152.6485  140.2999  159.7009 C   0  0  0  0  0  0  0  0  0  0  0  0
  153.0680  141.2563  160.6529 C   0  0  0  0  0  0  0  0  0  0  0  0
  152.8775  142.6330  160.4132 C   0  0  0  0  0  0  0  0  0  0  0  0
  152.2665  143.0726  159.2211 C   0  0  0  0  0  0  0  0  0  0  0  0
  151.8401  142.1365  158.2595 C   0  0  0  0  0  0  0  0  0  0  0  0
  152.0321  140.7630  158.5037 C   0  0  0  0  0  0  0  0  0  0  0  0
  151.7286  139.6075  157.7890 N   0  0  0  0  0  0  0  0  0  0  0  0
  151.0753  139.5387  156.4892 C   0  0  0  0  0  0  0  0  0  0  0  0
  151.8209  138.6329  155.4875 C   0  0  2  0  0  0  0  0  0  0  0  0
  153.0025  139.3049  155.1002 O   0  0  0  0  0  0  0  0  0  0  0  0
  151.0001  138.3019  154.2210 C   0  0  0  0  0  0  0  0  0  0  0  0
  149.9814  137.2473  154.4556 N   0  3  0  0  0  0  0  0  0  0  0  0
  150.5145  136.0441  155.1423 C   0  0  0  0  0  0  0  0  0  0  0  0
  149.4088  134.9884  155.3130 C   0  0  0  0  0  0  0  0  0  0  0  0
  148.3147  135.5507  156.0268 O   0  0  0  0  0  0  0  0  0  0  0  0
  147.7387  136.6520  155.3357 C   0  0  0  0  0  0  0  0  0  0  0  0
  148.7891  137.7628  155.1697 C   0  0  0  0  0  0  0  0  0  0  0  0
  152.5011  136.4901  158.8543 H   0  0  0  0  0  0  0  0  0  0  0  0
  152.5397  137.0024  157.1649 H   0  0  0  0  0  0  0  0  0  0  0  0
  150.9916  136.8809  158.0256 H   0  0  0  0  0  0  0  0  0  0  0  0
  153.5378  140.9302  161.5691 H   0  0  0  0  0  0  0  0  0  0  0  0
  153.2029  143.3555  161.1475 H   0  0  0  0  0  0  0  0  0  0  0  0
  152.1260  144.1293  159.0457 H   0  0  0  0  0  0  0  0  0  0  0  0
  151.3711  142.4717  157.3466 H   0  0  0  0  0  0  0  0  0  0  0  0
  150.0568  139.1768  156.6360 H   0  0  0  0  0  0  0  0  0  0  0  0
  150.9790  140.5494  156.0912 H   0  0  0  0  0  0  0  0  0  0  0  0
  152.1112  137.7166  155.9988 H   0  0  0  0  0  0  0  0  0  0  0  0
  153.4676  138.7642  154.4793 H   0  0  0  0  0  0  0  0  0  0  0  0
  150.4967  139.1884  153.8345 H   0  0  0  0  0  0  0  0  0  0  0  0
  151.6893  137.9779  153.4394 H   0  0  0  0  0  0  0  0  0  0  0  0
  151.3381  135.6112  154.5756 H   0  0  0  0  0  0  0  0  0  0  0  0
  150.9123  136.3257  156.1187 H   0  0  0  0  0  0  0  0  0  0  0  0
  149.0736  134.6146  154.3441 H   0  0  0  0  0  0  0  0  0  0  0  0
  149.7902  134.1322  155.8697 H   0  0  0  0  0  0  0  0  0  0  0  0
  147.3550  136.3295  154.3663 H   0  0  0  0  0  0  0  0  0  0  0  0
  146.8879  137.0221  155.9080 H   0  0  0  0  0  0  0  0  0  0  0  0
  149.0854  138.1469  156.1473 H   0  0  0  0  0  0  0  0  0  0  0  0
  148.3555  138.5958  154.6151 H   0  0  0  0  0  0  0  0  0  0  0  0
  149.6608  136.9542  153.5431 H   0  0  0  0  0  0  0  0  0  0  0  0
  1  2  1  0  0  0  0
  1 21  1  0  0  0  0
  1 22  1  0  0  0  0
  1 23  1  0  0  0  0
  2 10  1  0  0  0  0
  2  3  2  0  0  0  0
  3  4  1  0  0  0  0
  4  9  2  0  0  0  0
  4  5  1  0  0  0  0
  5  6  2  0  0  0  0
  5 24  1  0  0  0  0
  6  7  1  0  0  0  0
  6 25  1  0  0  0  0
  7  8  2  0  0  0  0
  7 26  1  0  0  0  0
  8  9  1  0  0  0  0
  8 27  1  0  0  0  0
  9 10  1  0  0  0  0
 10 11  1  0  0  0  0
 11 12  1  0  0  0  0
 11 28  1  0  0  0  0
 11 29  1  0  0  0  0
 12 13  1  0  0  0  0
 12 14  1  0  0  0  0
 12 30  1  0  0  0  0
 13 31  1  0  0  0  0
 14 15  1  0  0  0  0
 14 32  1  0  0  0  0
 14 33  1  0  0  0  0
 15 20  1  0  0  0  0
 15 16  1  0  0  0  0
 15 42  1  0  0  0  0
 16 17  1  0  0  0  0
 16 34  1  0  0  0  0
 16 35  1  0  0  0  0
 17 18  1  0  0  0  0
 17 36  1  0  0  0  0
 17 37  1  0  0  0  0
 18 19  1  0  0  0  0
 19 20  1  0  0  0  0
 19 38  1  0  0  0  0
 19 39  1  0  0  0  0
 20 40  1  0  0  0  0
 20 41  1  0  0  0  0
M  CHG  1  15   1
M  END
> <s_m_source_file>
AV-unprocessed.smi

> <i_m_source_file_index>
356

> <i_lp_mmshare_version>
43012

> <i_f3d_flags>
0

> <s_epik_input>
W2NIXTFbY0hdW2NIXVtjSF1jKGMxMiluKGMobjIpW0NIM10pW0NIMl1bQ0BIXShbT0hdKVtDSDJdTjNbQ0gyXVtDSDJdT1tDSDJdW0NIMl0z

> <s_epik_cmdline>
J2VwaWtfcHl0aG9uJywgJy1waCcsICc3LjAnLCAnLXRuJywgJzgnLCAnLW1hJywgJzIwMCcsICctbWV0YWxfYmluZGluZycsICctaW1hZScsICc8aW5maWxlLm1hZT4nLCAnLW9tYWUnLCAnPG91dGZpbGUubWFlPic=

> <r_epik_Ionization_Penalty>
0.706388

> <r_epik_Ionization_Penalty_Charging>
0.608065

> <r_epik_Ionization_Penalty_Neutral>
0.0983237

> <r_epik_State_Penalty>
0.742533

> <r_epik_Charging_Adjusted_Penalty>
1.3506

> <i_epik_Tot_Q>
1

> <i_epik_Tot_abs_Q>
1

> <r_epik_Metal_State_Penalty>
0.651809

> <b_epik_Metal_Only>
0

> <s_lp_Force_Field>
OPLS_2005

> <r_lp_Energy>
21.62

> <b_lp_Chiralities_Consistent>
1

> <s_lp_Variant>
AV-unprocessed.smi:356-3

> <Gold.Version>
5.8.1

> <Gold.Id.Protein>
6NUR|6NUR_protein|mol2

> <Gold.PLP.Fitness>
45.1529

> <Gold.PLP.PLP>
-36.1012

> <Gold.PLP.part.hbond>
-3.0000

> <Gold.PLP.part.metal>
0.0000

> <Gold.PLP.part.buried>
-5.7769

> <Gold.PLP.part.nonpolar>
-27.4082

> <Gold.PLP.part.repulsive>
0.0624

> <Gold.PLP.ligand.clash>
0.0000

> <Gold.PLP.ligand.torsion>
0.4401

> <Gold.PLP.Chemscore.Hbond>
3.3033

> <Gold.PLP.Chemscore.CHOScore>
0.0000

> <Gold.PLP.Chemscore.Metal>
0.0000

> <Gold.Chemscore.Hbonds>
donor molecule, donor type, donor heavy atom, donor atom, acceptor molecule, acceptor atom, score
      L1  H    15    42       P1  7948  2.00
      P1  H  7997  8009       L1    13  1.00

> <Gold.PLP.Chemscore.Internal.Correction>
0.0221

> <Gold.Rescore>
     Score         DG    S(hbond)    S(metal)    S(lipo)     H(rot)  DE(clash)    DE(int)     intcor
     16.35     -16.85       1.65        0.00      95.19       2.07       0.03       0.47       ----

> <Gold.Chemscore.Fitness>
16.3474

> <Gold.Chemscore.DG>
-16.8473

> <Gold.Chemscore.ZeroCoef>
-5.4800

> <Gold.Chemscore.Hbond>
1.6522

> <Gold.Chemscore.Metal>
0.0000

> <Gold.Chemscore.Lipo>
95.1868

> <Gold.Chemscore.Internal_Hbond>
0.0000

> <Gold.Chemscore.DEClash>
0.0270

> <Gold.Chemscore.DEInternal>
0.4729

> <Gold.Chemscore.Rot>
2.0656

> <Gold.Chemscore.Internal.Correction>
   9.000000E+99

> <Gold.Chemscore.Hbonds>
donor molecule, donor type, donor heavy atom, donor atom, acceptor molecule, acceptor atom, score
      L1  H    15    42       P1  7948  0.70
      P1  H  7997  8009       L1    13  0.26

> <Gold.Chemscore.Hbond.Weighted>
-5.5183

> <Gold.Chemscore.Metal.Weighted>
-0.0000

> <Gold.Chemscore.Lipo.Weighted>
-11.1369

> <Gold.Chemscore.Internal_Hbond.Weighted>
0.0000

> <Gold.Chemscore.DEClash.Weighted>
0.0270

> <Gold.Chemscore.DEInternal.Weighted>
0.4729

> <Gold.Chemscore.Rot.Weighted>
5.2879

> <Gold.Chemscore.Internal.Correction.Weighted>
   9.000000E+99

> <Gold.Protein.RotatedTorsions>
[ 6907 6896 6895 6894 ] final  145.24 input  -60.11 | X-H torsion
[ 7974 7965 7964 7962 ] final  145.36 input  175.53 | X-H torsion
[ 8008 7997 7996 7995 ] final -136.75 input   59.86 | X-H torsion
[ 10167 10162 10161 10158 ] final  -16.84 input  -65.29 | X-H torsion
[ 10718 10713 10712 10709 ] final   69.86 input   66.30 | X-H torsion
[ 10763 10752 10751 10750 ] final  126.38 input  -60.55 | X-H torsion
[ 11005 11000 10999 10996 ] final -178.91 input  -57.11 | X-H torsion

> <Gold.Protein.ActiveResidues>
 VAL166  LYS551  ARG553  GLY616  TRP617  ASP618  TYR619  PRO620  LYS621  CYS622 
 ASP623  PHE694  ASN695  SER759  ASP760  ASP761  ALA762  ILE779  LEU786  VAL792 
 PHE793  MET794  SER795  GLU796  ALA797  LYS798  CYS799  TRP800  GLU811  SER814 

> <Gold.Protein.RotatedAtoms>
  152.1834  133.4723  159.4969 H   0  0  0  0  0  0  0  0  0  0  0  0  # atno 6907 bound_to 6896
  150.6938  134.1804  159.4255 H   0  0  0  0  0  0  0  0  0  0  0  0  # atno 6908 bound_to 6896
  151.9716  135.0073  160.0603 H   0  0  0  0  0  0  0  0  0  0  0  0  # atno 6909 bound_to 6896
  144.8759  139.5773  143.5865 H   0  0  0  0  0  0  0  0  0  0  0  0  # atno 7974 bound_to 7965
  155.4004  140.0505  157.3037 H   0  0  0  0  0  0  0  0  0  0  0  0  # atno 8008 bound_to 7997
  154.4993  140.2150  155.9340 H   0  0  0  0  0  0  0  0  0  0  0  0  # atno 8009 bound_to 7997
  156.1447  140.3147  155.8556 H   0  0  0  0  0  0  0  0  0  0  0  0  # atno 8010 bound_to 7997
  140.7239  143.5075  150.9791 H   0  0  0  0  0  0  0  0  0  0  0  0  # atno 10167 bound_to 10162
  157.6369  130.9447  150.0571 H   0  0  0  0  0  0  0  0  0  0  0  0  # atno 10718 bound_to 10713
  153.6925  135.3296  155.3205 H   0  0  0  0  0  0  0  0  0  0  0  0  # atno 10763 bound_to 10752
  154.8436  135.4435  154.1494 H   0  0  0  0  0  0  0  0  0  0  0  0  # atno 10764 bound_to 10752
  153.2539  135.6984  153.7727 H   0  0  0  0  0  0  0  0  0  0  0  0  # atno 10765 bound_to 10752
  140.4245  134.6575  157.4681 H   0  0  0  0  0  0  0  0  0  0  0  0  # atno 11005 bound_to 11000
  146.2962  139.7286  142.9125 LP  0  0  0  0  0  0  0  0  0  0  0  0  # atno 17320 bound_to 7965
  145.4043  141.0389  143.3053 LP  0  0  0  0  0  0  0  0  0  0  0  0  # atno 17321 bound_to 7965
  139.8787  143.7099  152.3159 LP  0  0  0  0  0  0  0  0  0  0  0  0  # atno 17342 bound_to 10162
  139.7374  144.7568  151.0706 LP  0  0  0  0  0  0  0  0  0  0  0  0  # atno 17343 bound_to 10162
  156.1615  130.3644  149.9292 LP  0  0  0  0  0  0  0  0  0  0  0  0  # atno 17370 bound_to 10713
  156.7289  130.9035  151.3624 LP  0  0  0  0  0  0  0  0  0  0  0  0  # atno 17371 bound_to 10713
  140.0177  134.6595  155.9286 LP  0  0  0  0  0  0  0  0  0  0  0  0  # atno 17394 bound_to 11000
  141.1770  133.6541  156.4870 LP  0  0  0  0  0  0  0  0  0  0  0  0  # atno 17395 bound_to 11000

$$$$
