AV-unprocessed.smi:332|AV-procd|sdf|2356|dock5
  -GOLD-   2262022263D 1   1.00000     0.00000
 Structure written by MMmdl.
 42 44  0  0  0  0  0  0  0  0  1 V2000
  148.2026  141.6688  154.6006 C   0  0  0  0  0  0  0  0  0  0  0  0
  149.2641  141.1235  155.5710 C   0  0  2  0  0  0  0  0  0  0  0  0
  150.0120  142.2257  156.1654 N   0  0  0  0  0  0  0  0  0  0  0  0
  150.6094  142.2205  157.3686 C   0  0  0  0  0  0  0  0  0  0  0  0
  150.5083  141.2858  158.1619 O   0  0  0  0  0  0  0  0  0  0  0  0
  151.4761  143.4353  157.7431 C   0  0  0  0  0  0  0  0  0  0  0  0
  151.6815  143.6177  159.1923 N   0  0  0  0  0  0  0  0  0  0  0  0
  151.2317  144.8280  159.7569 C   0  0  0  0  0  0  0  0  0  0  0  0
  151.3848  145.1024  161.0620 C   0  0  0  0  0  0  0  0  0  0  0  0
  152.0305  144.1166  161.8961 C   0  0  0  0  0  0  0  0  0  0  0  0
  152.4686  142.9576  161.3656 C   0  0  0  0  0  0  0  0  0  0  0  0
  152.3077  142.6550  159.9389 C   0  0  0  0  0  0  0  0  0  0  0  0
  152.7197  141.6062  159.4429 O   0  0  0  0  0  0  0  0  0  0  0  0
  150.2509  140.1603  154.8707 C   0  0  2  0  0  0  0  0  0  0  0  0
  149.6039  138.8883  154.2793 C   0  0  0  0  0  0  0  0  0  0  0  0
  150.4892  137.7587  154.8386 C   0  0  2  0  0  0  0  0  0  0  0  0
  150.1844  137.5743  156.3370 C   0  0  0  0  0  0  0  0  0  0  0  0
  150.8345  138.8178  156.9703 C   0  0  0  0  0  0  0  0  0  0  0  0
  151.3888  139.5728  155.7453 C   0  0  1  0  0  0  0  0  0  0  0  0
  151.8647  138.4152  154.8745 C   0  0  0  0  0  0  0  0  0  0  0  0
  147.6188  140.8608  154.1595 H   0  0  0  0  0  0  0  0  0  0  0  0
  148.6598  142.2313  153.7858 H   0  0  0  0  0  0  0  0  0  0  0  0
  147.5036  142.3316  155.1113 H   0  0  0  0  0  0  0  0  0  0  0  0
  148.7486  140.5813  156.3654 H   0  0  0  0  0  0  0  0  0  0  0  0
  150.1440  143.0409  155.5842 H   0  0  0  0  0  0  0  0  0  0  0  0
  152.4353  143.3334  157.2341 H   0  0  0  0  0  0  0  0  0  0  0  0
  151.0237  144.3312  157.3140 H   0  0  0  0  0  0  0  0  0  0  0  0
  150.7668  145.5142  159.0639 H   0  0  0  0  0  0  0  0  0  0  0  0
  151.0379  146.0377  161.4760 H   0  0  0  0  0  0  0  0  0  0  0  0
  152.1632  144.3094  162.9504 H   0  0  0  0  0  0  0  0  0  0  0  0
  152.9512  142.2324  162.0047 H   0  0  0  0  0  0  0  0  0  0  0  0
  150.7270  140.7089  154.0556 H   0  0  0  0  0  0  0  0  0  0  0  0
  148.5599  138.7638  154.5696 H   0  0  0  0  0  0  0  0  0  0  0  0
  149.6425  138.9124  153.1895 H   0  0  0  0  0  0  0  0  0  0  0  0
  150.4330  136.8337  154.2643 H   0  0  0  0  0  0  0  0  0  0  0  0
  149.1140  137.5171  156.5381 H   0  0  0  0  0  0  0  0  0  0  0  0
  150.6454  136.6634  156.7205 H   0  0  0  0  0  0  0  0  0  0  0  0
  150.1352  139.4069  157.5630 H   0  0  0  0  0  0  0  0  0  0  0  0
  151.6489  138.5224  157.6331 H   0  0  0  0  0  0  0  0  0  0  0  0
  152.1669  140.2948  155.9954 H   0  0  0  0  0  0  0  0  0  0  0  0
  152.6277  137.7980  155.3521 H   0  0  0  0  0  0  0  0  0  0  0  0
  152.2218  138.7280  153.8917 H   0  0  0  0  0  0  0  0  0  0  0  0
  1  2  1  0  0  0  0
  1 21  1  0  0  0  0
  1 22  1  0  0  0  0
  1 23  1  0  0  0  0
  2  3  1  0  0  0  0
  2 14  1  0  0  0  0
  2 24  1  0  0  0  0
  3  4  1  0  0  0  0
  3 25  1  0  0  0  0
  4  5  2  0  0  0  0
  4  6  1  0  0  0  0
  6  7  1  0  0  0  0
  6 26  1  0  0  0  0
  6 27  1  0  0  0  0
  7 12  1  0  0  0  0
  7  8  1  0  0  0  0
  8  9  2  0  0  0  0
  8 28  1  0  0  0  0
  9 10  1  0  0  0  0
  9 29  1  0  0  0  0
 10 11  2  0  0  0  0
 10 30  1  0  0  0  0
 11 12  1  0  0  0  0
 11 31  1  0  0  0  0
 12 13  2  0  0  0  0
 14 19  1  0  0  0  0
 14 15  1  0  0  0  0
 14 32  1  0  0  0  0
 15 16  1  0  0  0  0
 15 33  1  0  0  0  0
 15 34  1  0  0  0  0
 16 20  1  0  0  0  0
 16 17  1  0  0  0  0
 16 35  1  0  0  0  0
 17 18  1  0  0  0  0
 17 36  1  0  0  0  0
 17 37  1  0  0  0  0
 18 19  1  0  0  0  0
 18 38  1  0  0  0  0
 18 39  1  0  0  0  0
 19 20  1  0  0  0  0
 19 40  1  0  0  0  0
 20 41  1  0  0  0  0
 20 42  1  0  0  0  0
M  END
> <s_m_source_file>
AV-unprocessed.smi

> <i_m_source_file_index>
332

> <i_lp_mmshare_version>
43012

> <i_f3d_flags>
0

> <s_epik_input>
W0NIMl0xW0NIMl1bQ0BIXShbQ0gyXTIpW0NAQEhdKFtDSDJdW0NAQEhdMTIpW0NASF0oW0NIM10pW05IXUMoPU8pW0NIMl1uM1tjSF1bY0hdW2NIXVtjSF1jMz1P

> <s_epik_cmdline>
J2VwaWtfcHl0aG9uJywgJy1waCcsICc3LjAnLCAnLXRuJywgJzgnLCAnLW1hJywgJzIwMCcsICctbWV0YWxfYmluZGluZycsICctaW1hZScsICc8aW5maWxlLm1hZT4nLCAnLW9tYWUnLCAnPG91dGZpbGUubWFlPic=

> <r_lp_tautomer_probability>
1

> <r_epik_Ionization_Penalty>
4.05802e-07

> <r_epik_Ionization_Penalty_Charging>
3.84175e-07

> <r_epik_Ionization_Penalty_Neutral>
2.16269e-08

> <r_epik_State_Penalty>
-0

> <r_epik_Charging_Adjusted_Penalty>
3.84175e-07

> <i_epik_Tot_Q>
0

> <i_epik_Tot_abs_Q>
0

> <r_epik_Metal_State_Penalty>
-0

> <b_epik_Metal_Only>
0

> <s_lp_Force_Field>
OPLS_2005

> <r_lp_Energy>
59.3935

> <b_lp_Chiralities_Consistent>
1

> <s_lp_Variant>
AV-unprocessed.smi:332-5

> <Gold.Version>
5.8.1

> <Gold.Id.Protein>
6NUR|6NUR_protein|mol2

> <Gold.PLP.Fitness>
46.8927

> <Gold.PLP.PLP>
-46.3726

> <Gold.PLP.part.hbond>
-1.0000

> <Gold.PLP.part.metal>
0.0000

> <Gold.PLP.part.buried>
-1.3275

> <Gold.PLP.part.nonpolar>
-43.5455

> <Gold.PLP.part.repulsive>
0.1158

> <Gold.PLP.ligand.clash>
0.0000

> <Gold.PLP.ligand.torsion>
0.6851

> <Gold.PLP.Chemscore.Hbond>
0.6240

> <Gold.PLP.Chemscore.CHOScore>
0.0000

> <Gold.PLP.Chemscore.Metal>
0.0000

> <Gold.Chemscore.Hbonds>
donor molecule, donor type, donor heavy atom, donor atom, acceptor molecule, acceptor atom, score
      L1  H     3    25       P1  8028  0.41

> <Gold.PLP.Chemscore.Internal.Correction>
0.0182

> <Gold.Rescore>
     Score         DG    S(hbond)    S(metal)    S(lipo)     H(rot)  DE(clash)    DE(int)     intcor
     11.24     -17.20       0.93        0.00     107.27       1.54       0.17       5.79       ----

> <Gold.Chemscore.Fitness>
11.2432

> <Gold.Chemscore.DG>
-17.1996

> <Gold.Chemscore.ZeroCoef>
-5.4800

> <Gold.Chemscore.Hbond>
0.9314

> <Gold.Chemscore.Metal>
0.0000

> <Gold.Chemscore.Lipo>
107.2692

> <Gold.Chemscore.Internal_Hbond>
0.0000

> <Gold.Chemscore.DEClash>
0.1679

> <Gold.Chemscore.DEInternal>
5.7885

> <Gold.Chemscore.Rot>
1.5398

> <Gold.Chemscore.Internal.Correction>
   9.000000E+99

> <Gold.Chemscore.Hbonds>
donor molecule, donor type, donor heavy atom, donor atom, acceptor molecule, acceptor atom, score
      L1  H     3    25       P1  8028  0.39

> <Gold.Chemscore.Hbond.Weighted>
-3.1110

> <Gold.Chemscore.Metal.Weighted>
-0.0000

> <Gold.Chemscore.Lipo.Weighted>
-12.5505

> <Gold.Chemscore.Internal_Hbond.Weighted>
0.0000

> <Gold.Chemscore.DEClash.Weighted>
0.1679

> <Gold.Chemscore.DEInternal.Weighted>
5.7885

> <Gold.Chemscore.Rot.Weighted>
3.9419

> <Gold.Chemscore.Internal.Correction.Weighted>
   9.000000E+99

> <Gold.Protein.RotatedTorsions>
[ 6907 6896 6895 6894 ] final   15.21 input  -60.11 | X-H torsion
[ 7974 7965 7964 7962 ] final  162.64 input  175.53 | X-H torsion
[ 8008 7997 7996 7995 ] final  160.47 input   59.86 | X-H torsion
[ 10167 10162 10161 10158 ] final -117.28 input  -65.29 | X-H torsion
[ 10718 10713 10712 10709 ] final   -2.31 input   66.30 | X-H torsion
[ 10763 10752 10751 10750 ] final  -63.73 input  -60.55 | X-H torsion
[ 11005 11000 10999 10996 ] final  157.83 input  -57.11 | X-H torsion

> <Gold.Protein.ActiveResidues>
 VAL166  LYS551  ARG553  GLY616  TRP617  ASP618  TYR619  PRO620  LYS621  CYS622 
 ASP623  PHE694  ASN695  SER759  ASP760  ASP761  ALA762  ILE779  LEU786  VAL792 
 PHE793  MET794  SER795  GLU796  ALA797  LYS798  CYS799  TRP800  GLU811  SER814 

> <Gold.Protein.RotatedAtoms>
  151.8145  135.0671  160.0416 H   0  0  0  0  0  0  0  0  0  0  0  0  # atno 6907 bound_to 6896
  152.2996  133.5638  159.5618 H   0  0  0  0  0  0  0  0  0  0  0  0  # atno 6908 bound_to 6896
  150.7267  134.0226  159.3748 H   0  0  0  0  0  0  0  0  0  0  0  0  # atno 6909 bound_to 6896
  144.7627  139.8068  143.6326 H   0  0  0  0  0  0  0  0  0  0  0  0  # atno 7974 bound_to 7965
  156.2170  140.1803  156.7566 H   0  0  0  0  0  0  0  0  0  0  0  0  # atno 8008 bound_to 7997
  154.5806  140.0667  156.9128 H   0  0  0  0  0  0  0  0  0  0  0  0  # atno 8009 bound_to 7997
  155.2509  140.3329  155.4285 H   0  0  0  0  0  0  0  0  0  0  0  0  # atno 8010 bound_to 7997
  140.0700  143.4886  152.1985 H   0  0  0  0  0  0  0  0  0  0  0  0  # atno 10167 bound_to 10162
  156.7927  130.5367  149.5733 H   0  0  0  0  0  0  0  0  0  0  0  0  # atno 10718 bound_to 10713
  154.3194  135.6199  153.5501 H   0  0  0  0  0  0  0  0  0  0  0  0  # atno 10763 bound_to 10752
  152.9821  135.5720  154.5087 H   0  0  0  0  0  0  0  0  0  0  0  0  # atno 10764 bound_to 10752
  154.4752  135.2861  155.1589 H   0  0  0  0  0  0  0  0  0  0  0  0  # atno 10765 bound_to 10752
  140.1807  134.8478  157.2799 H   0  0  0  0  0  0  0  0  0  0  0  0  # atno 11005 bound_to 11000
  146.1706  139.4855  142.9930 LP  0  0  0  0  0  0  0  0  0  0  0  0  # atno 17320 bound_to 7965
  145.6567  141.0250  143.1731 LP  0  0  0  0  0  0  0  0  0  0  0  0  # atno 17321 bound_to 7965
  139.5841  144.7523  151.3564 LP  0  0  0  0  0  0  0  0  0  0  0  0  # atno 17342 bound_to 10162
  140.7130  143.7341  150.7602 LP  0  0  0  0  0  0  0  0  0  0  0  0  # atno 17343 bound_to 10162
  156.1149  130.6068  151.0105 LP  0  0  0  0  0  0  0  0  0  0  0  0  # atno 17370 bound_to 10713
  157.6593  131.0884  150.7876 LP  0  0  0  0  0  0  0  0  0  0  0  0  # atno 17371 bound_to 10713
  140.2271  134.3954  155.7539 LP  0  0  0  0  0  0  0  0  0  0  0  0  # atno 17394 bound_to 11000
  141.2223  133.7195  156.8581 LP  0  0  0  0  0  0  0  0  0  0  0  0  # atno 17395 bound_to 11000

$$$$
