AV-unprocessed.smi:3165|AV-procd|sdf|12092|dock9
  -GOLD-   2272017523D 1   1.00000     0.00000
 Structure written by MMmdl.
 37 38  0  0  0  0  0  0  0  0  1 V2000
  147.1490  141.8613  155.5735 C   0  0  0  0  0  0  0  0  0  0  0  0
  148.5018  141.1426  155.6997 C   0  0  1  0  0  0  0  0  0  0  0  0
  148.9695  140.5238  154.3575 C   0  0  0  0  0  0  0  0  0  0  0  0
  150.0956  139.6124  154.4883 N   0  0  0  0  0  0  0  0  0  0  0  0
  150.1368  138.2576  154.2312 C   0  0  0  0  0  0  0  0  0  0  0  0
  151.4049  137.8297  154.5010 C   0  0  0  0  0  0  0  0  0  0  0  0
  152.0751  139.0097  154.9285 C   0  0  0  0  0  0  0  0  0  0  0  0
  151.2883  140.0732  154.9245 N   0  0  0  0  0  0  0  0  0  0  0  0
  149.4842  142.0610  156.2855 N   0  0  0  0  0  0  0  0  0  0  0  0
  149.6018  142.0188  157.7431 C   0  0  0  0  0  0  0  0  0  0  0  0
  150.9360  142.6209  158.2083 C   0  0  1  0  0  0  0  0  0  0  0  0
  151.1685  144.0447  157.6613 C   0  0  0  0  0  0  0  0  0  0  0  0
  152.4669  144.6328  158.2252 C   0  0  0  0  0  0  0  0  0  0  0  0
  152.4526  144.5452  159.7546 C   0  0  0  0  0  0  0  0  0  0  0  0
  152.1434  143.1084  160.2043 C   0  0  0  0  0  0  0  0  0  0  0  0
  150.9125  142.6741  159.6329 O   0  0  0  0  0  0  0  0  0  0  0  0
  146.3934  141.2029  155.1441 H   0  0  0  0  0  0  0  0  0  0  0  0
  147.2185  142.7469  154.9407 H   0  0  0  0  0  0  0  0  0  0  0  0
  146.7858  142.1839  156.5498 H   0  0  0  0  0  0  0  0  0  0  0  0
  148.3542  140.3166  156.3965 H   0  0  0  0  0  0  0  0  0  0  0  0
  148.1558  140.0112  153.8441 H   0  0  0  0  0  0  0  0  0  0  0  0
  149.2729  141.3262  153.6840 H   0  0  0  0  0  0  0  0  0  0  0  0
  149.2704  137.7182  153.8778 H   0  0  0  0  0  0  0  0  0  0  0  0
  151.7946  136.8272  154.4072 H   0  0  0  0  0  0  0  0  0  0  0  0
  153.1027  139.1243  155.2409 H   0  0  0  0  0  0  0  0  0  0  0  0
  149.2797  143.0102  155.9900 H   0  0  0  0  0  0  0  0  0  0  0  0
  148.7716  142.5495  158.2110 H   0  0  0  0  0  0  0  0  0  0  0  0
  149.5501  140.9868  158.0892 H   0  0  0  0  0  0  0  0  0  0  0  0
  151.7499  141.9619  157.8988 H   0  0  0  0  0  0  0  0  0  0  0  0
  151.2114  144.0341  156.5717 H   0  0  0  0  0  0  0  0  0  0  0  0
  150.3296  144.6861  157.9347 H   0  0  0  0  0  0  0  0  0  0  0  0
  153.3209  144.0787  157.8334 H   0  0  0  0  0  0  0  0  0  0  0  0
  152.5886  145.6674  157.9037 H   0  0  0  0  0  0  0  0  0  0  0  0
  153.4103  144.8714  160.1610 H   0  0  0  0  0  0  0  0  0  0  0  0
  151.6958  145.2219  160.1531 H   0  0  0  0  0  0  0  0  0  0  0  0
  152.9486  142.4294  159.9198 H   0  0  0  0  0  0  0  0  0  0  0  0
  152.0614  143.0657  161.2904 H   0  0  0  0  0  0  0  0  0  0  0  0
  1  2  1  0  0  0  0
  1 17  1  0  0  0  0
  1 18  1  0  0  0  0
  1 19  1  0  0  0  0
  2  3  1  0  0  0  0
  2  9  1  0  0  0  0
  2 20  1  0  0  0  0
  3  4  1  0  0  0  0
  3 21  1  0  0  0  0
  3 22  1  0  0  0  0
  4  8  1  0  0  0  0
  4  5  1  0  0  0  0
  5  6  2  0  0  0  0
  5 23  1  0  0  0  0
  6  7  1  0  0  0  0
  6 24  1  0  0  0  0
  7  8  2  0  0  0  0
  7 25  1  0  0  0  0
  9 10  1  0  0  0  0
  9 26  1  0  0  0  0
 10 11  1  0  0  0  0
 10 27  1  0  0  0  0
 10 28  1  0  0  0  0
 11 16  1  0  0  0  0
 11 12  1  0  0  0  0
 11 29  1  0  0  0  0
 12 13  1  0  0  0  0
 12 30  1  0  0  0  0
 12 31  1  0  0  0  0
 13 14  1  0  0  0  0
 13 32  1  0  0  0  0
 13 33  1  0  0  0  0
 14 15  1  0  0  0  0
 14 34  1  0  0  0  0
 14 35  1  0  0  0  0
 15 16  1  0  0  0  0
 15 36  1  0  0  0  0
 15 37  1  0  0  0  0
M  END
> <s_m_source_file>
AV-unprocessed.smi

> <i_m_source_file_index>
3165

> <i_lp_mmshare_version>
43012

> <i_f3d_flags>
0

> <s_epik_input>
bjFbY0hdW2NIXVtjSF1uMVtDSDJdW0NAQEhdKFtDSDNdKVtOSF1bQ0gyXVtDQEBIXTJbQ0gyXVtDSDJdW0NIMl1bQ0gyXU8y

> <s_epik_cmdline>
J2VwaWtfcHl0aG9uJywgJy1waCcsICc3LjAnLCAnLXRuJywgJzgnLCAnLW1hJywgJzIwMCcsICctbWV0YWxfYmluZGluZycsICctaW1hZScsICc8aW5maWxlLm1hZT4nLCAnLW9tYWUnLCAnPG91dGZpbGUubWFlPic=

> <r_lp_tautomer_probability>
1

> <r_epik_Ionization_Penalty>
2.51982

> <r_epik_Ionization_Penalty_Charging>
0

> <r_epik_Ionization_Penalty_Neutral>
2.51982

> <r_epik_State_Penalty>
2.68614

> <r_epik_Charging_Adjusted_Penalty>
2.68614

> <i_epik_Tot_Q>
0

> <i_epik_Tot_abs_Q>
0

> <r_epik_Metal_State_Penalty>
2.6861

> <b_epik_Metal_Only>
0

> <s_lp_Force_Field>
OPLS_2005

> <r_lp_Energy>
14.4807

> <b_lp_Chiralities_Consistent>
1

> <s_lp_Variant>
AV-unprocessed.smi:3165-8

> <Gold.Version>
5.8.1

> <Gold.Id.Protein>
6NUR|6NUR_protein|mol2

> <Gold.PLP.Fitness>
46.3613

> <Gold.PLP.PLP>
-39.3698

> <Gold.PLP.part.hbond>
-3.0000

> <Gold.PLP.part.metal>
0.0000

> <Gold.PLP.part.buried>
-2.5463

> <Gold.PLP.part.nonpolar>
-34.4877

> <Gold.PLP.part.repulsive>
0.0642

> <Gold.PLP.ligand.clash>
0.0000

> <Gold.PLP.ligand.torsion>
0.6398

> <Gold.PLP.Chemscore.Hbond>
1.7500

> <Gold.PLP.Chemscore.CHOScore>
1.0000

> <Gold.PLP.Chemscore.Metal>
0.0000

> <Gold.Chemscore.Hbonds>
donor molecule, donor type, donor heavy atom, donor atom, acceptor molecule, acceptor atom, score
      L1  H     9    26       P1  8028  1.00
      P1  H  7989  7998       L1     8  0.75
      L1  C     5    23       P1  7948  1.00

> <Gold.PLP.Chemscore.Internal.Correction>
0.0211

> <Gold.Rescore>
     Score         DG    S(hbond)    S(metal)    S(lipo)     H(rot)  DE(clash)    DE(int)     intcor
     16.42     -17.10       1.10        0.00     102.37       1.57       0.03       0.66       ----

> <Gold.Chemscore.Fitness>
16.4156

> <Gold.Chemscore.DG>
-17.1037

> <Gold.Chemscore.ZeroCoef>
-5.4800

> <Gold.Chemscore.Hbond>
1.1000

> <Gold.Chemscore.Metal>
0.0000

> <Gold.Chemscore.Lipo>
102.3654

> <Gold.Chemscore.Internal_Hbond>
0.0000

> <Gold.Chemscore.DEClash>
0.0328

> <Gold.Chemscore.DEInternal>
0.6552

> <Gold.Chemscore.Rot>
1.5731

> <Gold.Chemscore.Internal.Correction>
   9.000000E+99

> <Gold.Chemscore.Hbonds>
donor molecule, donor type, donor heavy atom, donor atom, acceptor molecule, acceptor atom, score
      L1  H     9    26       P1  8028  1.00
      P1  H  7989  7998       L1     8  0.05

> <Gold.Chemscore.Hbond.Weighted>
-3.6742

> <Gold.Chemscore.Metal.Weighted>
-0.0000

> <Gold.Chemscore.Lipo.Weighted>
-11.9768

> <Gold.Chemscore.Internal_Hbond.Weighted>
0.0000

> <Gold.Chemscore.DEClash.Weighted>
0.0328

> <Gold.Chemscore.DEInternal.Weighted>
0.6552

> <Gold.Chemscore.Rot.Weighted>
4.0273

> <Gold.Chemscore.Internal.Correction.Weighted>
   9.000000E+99

> <Gold.Protein.RotatedTorsions>
[ 6907 6896 6895 6894 ] final   78.75 input  -60.11 | X-H torsion
[ 7974 7965 7964 7962 ] final   75.34 input  175.53 | X-H torsion
[ 8008 7997 7996 7995 ] final -119.67 input   59.86 | X-H torsion
[ 10167 10162 10161 10158 ] final -109.38 input  -65.29 | X-H torsion
[ 10718 10713 10712 10709 ] final -142.29 input   66.30 | X-H torsion
[ 10763 10752 10751 10750 ] final  -68.41 input  -60.55 | X-H torsion
[ 11005 11000 10999 10996 ] final  -82.44 input  -57.11 | X-H torsion

> <Gold.Protein.ActiveResidues>
 VAL166  LYS551  ARG553  GLY616  TRP617  ASP618  TYR619  PRO620  LYS621  CYS622 
 ASP623  PHE694  ASN695  SER759  ASP760  ASP761  ALA762  ILE779  LEU786  VAL792 
 PHE793  MET794  SER795  GLU796  ALA797  LYS798  CYS799  TRP800  GLU811  SER814 

> <Gold.Protein.RotatedAtoms>
  152.5172  134.3616  159.9286 H   0  0  0  0  0  0  0  0  0  0  0  0  # atno 6907 bound_to 6896
  151.3569  133.3898  159.2693 H   0  0  0  0  0  0  0  0  0  0  0  0  # atno 6908 bound_to 6896
  150.9683  134.9079  159.7830 H   0  0  0  0  0  0  0  0  0  0  0  0  # atno 6909 bound_to 6896
  145.7168  139.2634  143.1619 H   0  0  0  0  0  0  0  0  0  0  0  0  # atno 7974 bound_to 7965
  155.1194  140.0398  157.2746 H   0  0  0  0  0  0  0  0  0  0  0  0  # atno 8008 bound_to 7997
  154.6625  140.2594  155.7068 H   0  0  0  0  0  0  0  0  0  0  0  0  # atno 8009 bound_to 7997
  156.2625  140.2814  156.1102 H   0  0  0  0  0  0  0  0  0  0  0  0  # atno 8010 bound_to 7997
  140.1559  143.4160  152.1461 H   0  0  0  0  0  0  0  0  0  0  0  0  # atno 10167 bound_to 10162
  156.3442  130.7653  151.1795 H   0  0  0  0  0  0  0  0  0  0  0  0  # atno 10718 bound_to 10713
  154.3887  135.6058  153.5831 H   0  0  0  0  0  0  0  0  0  0  0  0  # atno 10763 bound_to 10752
  152.9787  135.5878  154.4324 H   0  0  0  0  0  0  0  0  0  0  0  0  # atno 10764 bound_to 10752
  154.4105  135.2844  155.2018 H   0  0  0  0  0  0  0  0  0  0  0  0  # atno 10765 bound_to 10752
  141.1663  133.7245  156.8572 H   0  0  0  0  0  0  0  0  0  0  0  0  # atno 11005 bound_to 11000
  146.0662  140.7918  142.9710 LP  0  0  0  0  0  0  0  0  0  0  0  0  # atno 17320 bound_to 7965
  144.6927  140.3272  143.7222 LP  0  0  0  0  0  0  0  0  0  0  0  0  # atno 17321 bound_to 7965
  139.5404  144.7250  151.4754 LP  0  0  0  0  0  0  0  0  0  0  0  0  # atno 17342 bound_to 10162
  140.6673  143.8369  150.6957 LP  0  0  0  0  0  0  0  0  0  0  0  0  # atno 17343 bound_to 10162
  157.7451  131.0446  150.4801 LP  0  0  0  0  0  0  0  0  0  0  0  0  # atno 17370 bound_to 10713
  156.4986  130.4112  149.6366 LP  0  0  0  0  0  0  0  0  0  0  0  0  # atno 17371 bound_to 10713
  140.1874  134.8990  157.3020 LP  0  0  0  0  0  0  0  0  0  0  0  0  # atno 17394 bound_to 11000
  140.2328  134.3889  155.7514 LP  0  0  0  0  0  0  0  0  0  0  0  0  # atno 17395 bound_to 11000

$$$$
