AV-unprocessed.smi:1033|AV-procd|sdf|4490|dock1
  -GOLD-   22720 2473D 1   1.00000     0.00000
 Structure written by MMmdl.
 56 58  0  0  0  0  0  0  0  0  2 V2000
  153.0971  142.5747  161.5986 C   0  0  0  0  0  0  0  0  0  0  0  0
  152.5338  142.3020  160.2149 C   0  0  0  0  0  0  0  0  0  0  0  0
  152.9044  141.1149  159.5441 C   0  0  0  0  0  0  0  0  0  0  0  0
  152.4057  140.8260  158.2552 C   0  0  0  0  0  0  0  0  0  0  0  0
  152.6363  139.7431  157.4244 N   0  0  0  0  0  0  0  0  0  0  0  0
  151.8954  140.0547  156.3655 C   0  0  0  0  0  0  0  0  0  0  0  0
  151.2132  141.2153  156.4095 N   0  0  0  0  0  0  0  0  0  0  0  0
  150.3549  141.7603  155.3726 C   0  0  0  0  0  0  0  0  0  0  0  0
  149.3444  140.7234  154.8456 C   0  0  2  0  0  0  0  0  0  0  0  0
  150.0080  139.8249  153.9771 O   0  0  0  0  0  0  0  0  0  0  0  0
  148.1875  141.3906  154.0757 C   0  0  0  0  0  0  0  0  0  0  0  0
  147.2386  142.1049  154.9676 N   0  3  0  0  0  0  0  0  0  0  0  0
  146.8499  141.2923  156.1489 C   0  0  0  0  0  0  0  0  0  0  0  0
  145.9347  142.1083  157.0846 C   0  0  0  0  0  0  0  0  0  0  0  0
  144.7318  142.6113  156.4218 N   0  0  0  0  0  0  0  0  0  0  0  0
  143.7578  141.5519  156.1329 C   0  0  0  0  0  0  0  0  0  0  0  0
  142.5040  141.9970  155.3536 C   0  0  2  0  0  0  0  0  0  0  0  0
  141.4352  142.6353  156.2526 C   0  0  0  0  0  0  0  0  0  0  0  0
  141.9414  140.8536  154.7462 O   0  0  0  0  0  0  0  0  0  0  0  0
  145.1386  143.4030  155.2579 C   0  0  0  0  0  0  0  0  0  0  0  0
  146.0320  142.6253  154.2702 C   0  0  0  0  0  0  0  0  0  0  0  0
  151.5179  141.7638  157.6510 C   0  0  0  0  0  0  0  0  0  0  0  0
  151.1395  142.9471  158.3097 C   0  0  0  0  0  0  0  0  0  0  0  0
  151.6485  143.2211  159.5966 C   0  0  0  0  0  0  0  0  0  0  0  0
  151.2368  144.5028  160.2991 C   0  0  0  0  0  0  0  0  0  0  0  0
  153.7625  141.7740  161.9226 H   0  0  0  0  0  0  0  0  0  0  0  0
  152.2922  142.6572  162.3294 H   0  0  0  0  0  0  0  0  0  0  0  0
  153.6665  143.5044  161.6031 H   0  0  0  0  0  0  0  0  0  0  0  0
  153.5786  140.4147  160.0154 H   0  0  0  0  0  0  0  0  0  0  0  0
  151.8487  139.4031  155.5052 H   0  0  0  0  0  0  0  0  0  0  0  0
  149.8277  142.6202  155.7878 H   0  0  0  0  0  0  0  0  0  0  0  0
  150.9793  142.1406  154.5628 H   0  0  0  0  0  0  0  0  0  0  0  0
  148.9597  140.1579  155.6938 H   0  0  0  0  0  0  0  0  0  0  0  0
  149.8619  140.1047  153.0854 H   0  0  0  0  0  0  0  0  0  0  0  0
  148.5741  142.0885  153.3314 H   0  0  0  0  0  0  0  0  0  0  0  0
  147.6528  140.6187  153.5198 H   0  0  0  0  0  0  0  0  0  0  0  0
  146.3586  140.3739  155.8247 H   0  0  0  0  0  0  0  0  0  0  0  0
  147.7446  140.9931  156.6965 H   0  0  0  0  0  0  0  0  0  0  0  0
  145.6569  141.5057  157.9502 H   0  0  0  0  0  0  0  0  0  0  0  0
  146.5003  142.9524  157.4817 H   0  0  0  0  0  0  0  0  0  0  0  0
  144.2400  140.7382  155.5914 H   0  0  0  0  0  0  0  0  0  0  0  0
  143.4245  141.1157  157.0757 H   0  0  0  0  0  0  0  0  0  0  0  0
  142.7704  142.6856  154.5523 H   0  0  0  0  0  0  0  0  0  0  0  0
  141.8105  143.5433  156.7254 H   0  0  0  0  0  0  0  0  0  0  0  0
  141.1215  141.9541  157.0446 H   0  0  0  0  0  0  0  0  0  0  0  0
  140.5499  142.9091  155.6781 H   0  0  0  0  0  0  0  0  0  0  0  0
  142.5244  140.5570  154.0637 H   0  0  0  0  0  0  0  0  0  0  0  0
  144.2670  143.7999  154.7393 H   0  0  0  0  0  0  0  0  0  0  0  0
  145.6878  144.2790  155.6060 H   0  0  0  0  0  0  0  0  0  0  0  0
  146.3227  143.2958  153.4628 H   0  0  0  0  0  0  0  0  0  0  0  0
  145.4811  141.8043  153.8100 H   0  0  0  0  0  0  0  0  0  0  0  0
  150.4654  143.6395  157.8277 H   0  0  0  0  0  0  0  0  0  0  0  0
  150.5576  145.0937  159.6841 H   0  0  0  0  0  0  0  0  0  0  0  0
  152.1108  145.1172  160.5167 H   0  0  0  0  0  0  0  0  0  0  0  0
  150.7286  144.2777  161.2370 H   0  0  0  0  0  0  0  0  0  0  0  0
  147.7381  142.9050  155.3299 H   0  0  0  0  0  0  0  0  0  0  0  0
  1  2  1  0  0  0  0
  1 26  1  0  0  0  0
  1 27  1  0  0  0  0
  1 28  1  0  0  0  0
  2 24  1  0  0  0  0
  2  3  2  0  0  0  0
  3  4  1  0  0  0  0
  3 29  1  0  0  0  0
  4 22  2  0  0  0  0
  4  5  1  0  0  0  0
  5  6  2  0  0  0  0
  6  7  1  0  0  0  0
  6 30  1  0  0  0  0
  7  8  1  0  0  0  0
  7 22  1  0  0  0  0
  8  9  1  0  0  0  0
  8 31  1  0  0  0  0
  8 32  1  0  0  0  0
  9 10  1  0  0  0  0
  9 11  1  0  0  0  0
  9 33  1  0  0  0  0
 10 34  1  0  0  0  0
 11 12  1  0  0  0  0
 11 35  1  0  0  0  0
 11 36  1  0  0  0  0
 12 21  1  0  0  0  0
 12 13  1  0  0  0  0
 12 56  1  0  0  0  0
 13 14  1  0  0  0  0
 13 37  1  0  0  0  0
 13 38  1  0  0  0  0
 14 15  1  0  0  0  0
 14 39  1  0  0  0  0
 14 40  1  0  0  0  0
 15 16  1  0  0  0  0
 15 20  1  0  0  0  0
 16 17  1  0  0  0  0
 16 41  1  0  0  0  0
 16 42  1  0  0  0  0
 17 18  1  0  0  0  0
 17 19  1  0  0  0  0
 17 43  1  0  0  0  0
 18 44  1  0  0  0  0
 18 45  1  0  0  0  0
 18 46  1  0  0  0  0
 19 47  1  0  0  0  0
 20 21  1  0  0  0  0
 20 48  1  0  0  0  0
 20 49  1  0  0  0  0
 21 50  1  0  0  0  0
 21 51  1  0  0  0  0
 22 23  1  0  0  0  0
 23 24  2  0  0  0  0
 23 52  1  0  0  0  0
 24 25  1  0  0  0  0
 25 53  1  0  0  0  0
 25 54  1  0  0  0  0
 25 55  1  0  0  0  0
M  CHG  1  12   1
M  END
> <s_m_source_file>
AV-unprocessed.smi

> <i_m_source_file_index>
1033

> <i_lp_mmshare_version>
43012

> <i_f3d_flags>
0

> <s_epik_input>
W0NIM11jKFtjSF0xKWMoW0NIM10pW2NIXWMoYzEyKW4oW2NIXW4yKVtDSDJdW0NASF0oW09IXSlbQ0gyXU4zW0NIMl1bQ0gyXU4oW0NIMl1bQ0gyXTMpW0NIMl1bQ0BIXShbQ0gzXSlbT0hd

> <s_epik_cmdline>
J2VwaWtfcHl0aG9uJywgJy1waCcsICc3LjAnLCAnLXRuJywgJzgnLCAnLW1hJywgJzIwMCcsICctbWV0YWxfYmluZGluZycsICctaW1hZScsICc8aW5maWxlLm1hZT4nLCAnLW9tYWUnLCAnPG91dGZpbGUubWFlPic=

> <r_epik_Ionization_Penalty>
0.131893

> <r_epik_Ionization_Penalty_Charging>
0.00208556

> <r_epik_Ionization_Penalty_Neutral>
0.129808

> <r_epik_State_Penalty>
0.452125

> <r_epik_Charging_Adjusted_Penalty>
0.454211

> <i_epik_Tot_Q>
1

> <i_epik_Tot_abs_Q>
1

> <r_epik_Metal_State_Penalty>
0.376389

> <b_epik_Metal_Only>
0

> <s_lp_Force_Field>
OPLS_2005

> <r_lp_Energy>
32.1786

> <b_lp_Chiralities_Consistent>
1

> <s_lp_Variant>
AV-unprocessed.smi:1033-1

> <Gold.Version>
5.8.1

> <Gold.Id.Protein>
6NUR|6NUR_protein|mol2

> <Gold.PLP.Fitness>
62.2410

> <Gold.PLP.PLP>
-48.2692

> <Gold.PLP.part.hbond>
-6.0000

> <Gold.PLP.part.metal>
0.0000

> <Gold.PLP.part.buried>
-4.0688

> <Gold.PLP.part.nonpolar>
-35.4474

> <Gold.PLP.part.repulsive>
0.1882

> <Gold.PLP.ligand.clash>
0.0000

> <Gold.PLP.ligand.torsion>
0.6214

> <Gold.PLP.Chemscore.Hbond>
5.0000

> <Gold.PLP.Chemscore.CHOScore>
0.0000

> <Gold.PLP.Chemscore.Metal>
0.0000

> <Gold.Chemscore.Hbonds>
donor molecule, donor type, donor heavy atom, donor atom, acceptor molecule, acceptor atom, score
      L1  H    10    34       P1  7957  1.00
      L1  H    12    56       P1  8028  1.43
      L1  H    19    47       P1 10175  1.00
      P1  H  7997  8008       L1     5  1.00

> <Gold.PLP.Chemscore.Internal.Correction>
0.2147

> <Gold.Rescore>
     Score         DG    S(hbond)    S(metal)    S(lipo)     H(rot)  DE(clash)    DE(int)     intcor
     18.43     -20.87       2.68        0.00     122.16       3.07       1.65       0.78       ----

> <Gold.Chemscore.Fitness>
18.4335

> <Gold.Chemscore.DG>
-20.8679

> <Gold.Chemscore.ZeroCoef>
-5.4800

> <Gold.Chemscore.Hbond>
2.6772

> <Gold.Chemscore.Metal>
0.0000

> <Gold.Chemscore.Lipo>
122.1585

> <Gold.Chemscore.Internal_Hbond>
0.0000

> <Gold.Chemscore.DEClash>
1.6503

> <Gold.Chemscore.DEInternal>
0.7841

> <Gold.Chemscore.Rot>
3.0650

> <Gold.Chemscore.Internal.Correction>
   9.000000E+99

> <Gold.Chemscore.Hbonds>
donor molecule, donor type, donor heavy atom, donor atom, acceptor molecule, acceptor atom, score
      L1  H    10    34       P1  7957  0.99
      L1  H    12    56       P1  8028  0.46
      L1  H    19    47       P1 10175  0.70
      P1  H  7997  8008       L1     5  0.10

> <Gold.Chemscore.Hbond.Weighted>
-8.9419

> <Gold.Chemscore.Metal.Weighted>
-0.0000

> <Gold.Chemscore.Lipo.Weighted>
-14.2925

> <Gold.Chemscore.Internal_Hbond.Weighted>
0.0000

> <Gold.Chemscore.DEClash.Weighted>
1.6503

> <Gold.Chemscore.DEInternal.Weighted>
0.7841

> <Gold.Chemscore.Rot.Weighted>
7.8465

> <Gold.Chemscore.Internal.Correction.Weighted>
   9.000000E+99

> <Gold.Protein.RotatedTorsions>
[ 6907 6896 6895 6894 ] final   68.02 input  -60.11 | X-H torsion
[ 7974 7965 7964 7962 ] final  -27.41 input  175.53 | X-H torsion
[ 8008 7997 7996 7995 ] final  -65.29 input   59.86 | X-H torsion
[ 10167 10162 10161 10158 ] final   16.51 input  -65.29 | X-H torsion
[ 10718 10713 10712 10709 ] final  -15.38 input   66.30 | X-H torsion
[ 10763 10752 10751 10750 ] final -100.69 input  -60.55 | X-H torsion
[ 11005 11000 10999 10996 ] final   64.87 input  -57.11 | X-H torsion

> <Gold.Protein.ActiveResidues>
 VAL166  LYS551  ARG553  GLY616  TRP617  ASP618  TYR619  PRO620  LYS621  CYS622 
 ASP623  PHE694  ASN695  SER759  ASP760  ASP761  ALA762  ILE779  LEU786  VAL792 
 PHE793  MET794  SER795  GLU796  ALA797  LYS798  CYS799  TRP800  GLU811  SER814 

> <Gold.Protein.RotatedAtoms>
  152.4592  134.5222  159.9785 H   0  0  0  0  0  0  0  0  0  0  0  0  # atno 6907 bound_to 6896
  151.5275  133.3449  159.2920 H   0  0  0  0  0  0  0  0  0  0  0  0  # atno 6908 bound_to 6896
  150.8548  134.7914  159.7100 H   0  0  0  0  0  0  0  0  0  0  0  0  # atno 6909 bound_to 6896
  146.1360  140.5148  142.8673 H   0  0  0  0  0  0  0  0  0  0  0  0  # atno 7974 bound_to 7965
  154.4663  140.0936  156.7027 H   0  0  0  0  0  0  0  0  0  0  0  0  # atno 8008 bound_to 7997
  155.4850  140.3469  155.4327 H   0  0  0  0  0  0  0  0  0  0  0  0  # atno 8009 bound_to 7997
  156.0961  140.1410  156.9517 H   0  0  0  0  0  0  0  0  0  0  0  0  # atno 8010 bound_to 7997
  140.5792  143.9013  150.6775 H   0  0  0  0  0  0  0  0  0  0  0  0  # atno 10167 bound_to 10162
  156.6025  130.4828  149.6234 H   0  0  0  0  0  0  0  0  0  0  0  0  # atno 10718 bound_to 10713
  154.7599  135.4925  153.9444 H   0  0  0  0  0  0  0  0  0  0  0  0  # atno 10763 bound_to 10752
  153.1239  135.6738  153.9297 H   0  0  0  0  0  0  0  0  0  0  0  0  # atno 10764 bound_to 10752
  153.9021  135.3108  155.3427 H   0  0  0  0  0  0  0  0  0  0  0  0  # atno 10765 bound_to 10752
  139.9931  134.6560  156.0057 H   0  0  0  0  0  0  0  0  0  0  0  0  # atno 11005 bound_to 11000
  144.7740  140.5699  143.6651 LP  0  0  0  0  0  0  0  0  0  0  0  0  # atno 17320 bound_to 7965
  145.5155  139.1478  143.3581 LP  0  0  0  0  0  0  0  0  0  0  0  0  # atno 17321 bound_to 7965
  140.2508  143.3594  152.1407 LP  0  0  0  0  0  0  0  0  0  0  0  0  # atno 17342 bound_to 10162
  139.5160  144.6971  151.5599 LP  0  0  0  0  0  0  0  0  0  0  0  0  # atno 17343 bound_to 10162
  156.2457  130.6877  151.1598 LP  0  0  0  0  0  0  0  0  0  0  0  0  # atno 17370 bound_to 10713
  157.7276  131.0638  150.5859 LP  0  0  0  0  0  0  0  0  0  0  0  0  # atno 17371 bound_to 10713
  141.1582  133.6541  156.4231 LP  0  0  0  0  0  0  0  0  0  0  0  0  # atno 17394 bound_to 11000
  140.4871  134.6611  157.5195 LP  0  0  0  0  0  0  0  0  0  0  0  0  # atno 17395 bound_to 11000

$$$$
