AV-unprocessed.smi:601|AV-procd|sdf|3034|dock5
  -GOLD-   2262023553D 1   1.00000     0.00000
 Structure written by MMmdl.
 49 50  0  0  0  0  0  0  0  0  2 V2000
  147.5930  133.6582  161.2652 C   0  0  0  0  0  0  0  0  0  0  0  0
  147.6978  134.8090  160.2554 C   0  0  0  0  0  0  0  0  0  0  0  0
  148.3139  134.3960  158.9092 C   0  0  0  0  0  0  0  0  0  0  0  0
  148.5911  135.5838  157.9676 C   0  0  0  0  0  0  0  0  0  0  0  0
  149.7097  135.3136  157.0511 N   0  0  0  0  0  0  0  0  0  0  0  0
  150.8022  136.1238  157.0218 C   0  0  0  0  0  0  0  0  0  0  0  0
  151.7679  135.8823  156.2947 O   0  0  0  0  0  0  0  0  0  0  0  0
  150.8478  137.3687  157.9358 C   0  0  1  0  0  0  0  0  0  0  0  0
  152.0805  137.4977  158.8457 C   0  0  0  0  0  0  0  0  0  0  0  0
  152.3045  139.0017  158.9514 C   0  0  0  0  0  0  0  0  0  0  0  0
  151.2601  139.6071  158.0132 C   0  0  0  0  0  0  0  0  0  0  0  0
  150.9289  138.5415  157.1404 O   0  0  0  0  0  0  0  0  0  0  0  0
  149.6103  134.1544  156.2584 C   0  0  0  0  0  0  0  0  0  0  0  0
  149.1563  134.1824  154.9768 C   0  0  0  0  0  0  0  0  0  0  0  0
  148.7542  135.3733  154.3888 N   0  0  0  0  0  0  0  0  0  0  0  0
  149.0872  132.9810  154.2210 N   0  0  0  0  0  0  0  0  0  0  0  0
  148.6041  133.0446  152.8223 C   0  0  0  0  0  0  0  0  0  0  0  0
  147.1864  132.4603  152.6458 C   0  0  0  0  0  0  0  0  0  0  0  0
  146.5147  132.8195  151.3137 C   0  0  0  0  0  0  0  0  0  0  0  0
  149.4662  131.7863  154.7730 C   0  0  0  0  0  0  0  0  0  0  0  0
  149.3889  130.7572  154.1006 O   0  0  0  0  0  0  0  0  0  0  0  0
  149.9169  131.7634  156.0598 N   0  5  0  0  0  0  0  0  0  0  0  0
  150.0137  132.8704  156.8417 C   0  0  0  0  0  0  0  0  0  0  0  0
  150.4227  132.8199  158.0021 O   0  0  0  0  0  0  0  0  0  0  0  0
  147.0912  133.9878  162.1750 H   0  0  0  0  0  0  0  0  0  0  0  0
  148.5756  133.2837  161.5516 H   0  0  0  0  0  0  0  0  0  0  0  0
  147.0215  132.8250  160.8547 H   0  0  0  0  0  0  0  0  0  0  0  0
  146.6962  135.2006  160.0747 H   0  0  0  0  0  0  0  0  0  0  0  0
  148.2695  135.6303  160.6885 H   0  0  0  0  0  0  0  0  0  0  0  0
  149.2347  133.8409  159.0895 H   0  0  0  0  0  0  0  0  0  0  0  0
  147.6325  133.7002  158.4185 H   0  0  0  0  0  0  0  0  0  0  0  0
  147.6928  135.8354  157.4013 H   0  0  0  0  0  0  0  0  0  0  0  0
  148.8148  136.4724  158.5588 H   0  0  0  0  0  0  0  0  0  0  0  0
  149.9508  137.4166  158.5548 H   0  0  0  0  0  0  0  0  0  0  0  0
  151.9080  137.0413  159.8208 H   0  0  0  0  0  0  0  0  0  0  0  0
  152.9701  137.0358  158.4162 H   0  0  0  0  0  0  0  0  0  0  0  0
  152.1837  139.3688  159.9710 H   0  0  0  0  0  0  0  0  0  0  0  0
  153.3124  139.2551  158.6206 H   0  0  0  0  0  0  0  0  0  0  0  0
  150.3690  139.9104  158.5656 H   0  0  0  0  0  0  0  0  0  0  0  0
  151.6352  140.4717  157.4656 H   0  0  0  0  0  0  0  0  0  0  0  0
  148.7858  136.2494  154.8900 H   0  0  0  0  0  0  0  0  0  0  0  0
  148.2809  135.3856  153.4966 H   0  0  0  0  0  0  0  0  0  0  0  0
  148.6172  134.0781  152.4754 H   0  0  0  0  0  0  0  0  0  0  0  0
  149.2840  132.5431  152.1322 H   0  0  0  0  0  0  0  0  0  0  0  0
  147.2113  131.3758  152.7510 H   0  0  0  0  0  0  0  0  0  0  0  0
  146.5592  132.8238  153.4600 H   0  0  0  0  0  0  0  0  0  0  0  0
  145.4950  132.4362  151.2788 H   0  0  0  0  0  0  0  0  0  0  0  0
  147.0536  132.3935  150.4672 H   0  0  0  0  0  0  0  0  0  0  0  0
  146.4695  133.8999  151.1749 H   0  0  0  0  0  0  0  0  0  0  0  0
  1  2  1  0  0  0  0
  1 25  1  0  0  0  0
  1 26  1  0  0  0  0
  1 27  1  0  0  0  0
  2  3  1  0  0  0  0
  2 28  1  0  0  0  0
  2 29  1  0  0  0  0
  3  4  1  0  0  0  0
  3 30  1  0  0  0  0
  3 31  1  0  0  0  0
  4  5  1  0  0  0  0
  4 32  1  0  0  0  0
  4 33  1  0  0  0  0
  5  6  1  0  0  0  0
  5 13  1  0  0  0  0
  6  7  2  0  0  0  0
  6  8  1  0  0  0  0
  8 12  1  0  0  0  0
  8  9  1  0  0  0  0
  8 34  1  0  0  0  0
  9 10  1  0  0  0  0
  9 35  1  0  0  0  0
  9 36  1  0  0  0  0
 10 11  1  0  0  0  0
 10 37  1  0  0  0  0
 10 38  1  0  0  0  0
 11 12  1  0  0  0  0
 11 39  1  0  0  0  0
 11 40  1  0  0  0  0
 13 23  1  0  0  0  0
 13 14  2  0  0  0  0
 14 15  1  0  0  0  0
 14 16  1  0  0  0  0
 15 41  1  0  0  0  0
 15 42  1  0  0  0  0
 16 17  1  0  0  0  0
 16 20  1  0  0  0  0
 17 18  1  0  0  0  0
 17 43  1  0  0  0  0
 17 44  1  0  0  0  0
 18 19  1  0  0  0  0
 18 45  1  0  0  0  0
 18 46  1  0  0  0  0
 19 47  1  0  0  0  0
 19 48  1  0  0  0  0
 19 49  1  0  0  0  0
 20 21  2  0  0  0  0
 20 22  1  0  0  0  0
 22 23  1  0  0  0  0
 23 24  2  0  0  0  0
M  CHG  1  22  -1
M  END
> <s_m_source_file>
AV-unprocessed.smi

> <i_m_source_file_index>
601

> <i_lp_mmshare_version>
43012

> <i_f3d_flags>
0

> <s_epik_input>
TzFbQ0gyXVtDSDJdW0NIMl1bQ0BIXTFDKD1PKU4oW0NIMl1bQ0gyXVtDSDJdW0NIM10pYzJjKFtOSDJdKW4oW0NIMl1bQ0gyXVtDSDNdKWMoPU8pW25IXWMyPU8=

> <s_epik_cmdline>
J2VwaWtfcHl0aG9uJywgJy1waCcsICc3LjAnLCAnLXRuJywgJzgnLCAnLW1hJywgJzIwMCcsICctbWV0YWxfYmluZGluZycsICctaW1hZScsICc8aW5maWxlLm1hZT4nLCAnLW9tYWUnLCAnPG91dGZpbGUubWFlPic=

> <r_lp_tautomer_probability>
1

> <r_epik_Ionization_Penalty>
5.90608

> <r_epik_Ionization_Penalty_Charging>
4.55687e-07

> <r_epik_Ionization_Penalty_Neutral>
5.90608

> <r_epik_State_Penalty>
5.90604

> <r_epik_Charging_Adjusted_Penalty>
5.90604

> <i_epik_Tot_Q>
-1

> <i_epik_Tot_abs_Q>
1

> <r_epik_Metal_State_Penalty>
1.84043

> <b_epik_Metal_Only>
1

> <s_lp_Force_Field>
OPLS_2005

> <r_lp_Energy>
54.0415

> <b_lp_Chiralities_Consistent>
1

> <s_lp_Variant>
AV-unprocessed.smi:601-4

> <Gold.Version>
5.8.1

> <Gold.Id.Protein>
6NUR|6NUR_protein|mol2

> <Gold.PLP.Fitness>
38.1094

> <Gold.PLP.PLP>
-32.3881

> <Gold.PLP.part.hbond>
-2.9861

> <Gold.PLP.part.metal>
0.0000

> <Gold.PLP.part.buried>
-4.6812

> <Gold.PLP.part.nonpolar>
-25.9825

> <Gold.PLP.part.repulsive>
0.0869

> <Gold.PLP.ligand.clash>
0.0000

> <Gold.PLP.ligand.torsion>
1.9378

> <Gold.PLP.Chemscore.Hbond>
2.4800

> <Gold.PLP.Chemscore.CHOScore>
0.0000

> <Gold.PLP.Chemscore.Metal>
0.0000

> <Gold.Chemscore.Hbonds>
donor molecule, donor type, donor heavy atom, donor atom, acceptor molecule, acceptor atom, score
      L1  H    15    42       P1  7948  0.51
      P1  H  6896  6907       L1    24  0.99
      P1  H 10752 10765       L1     7  1.00

> <Gold.PLP.Chemscore.Internal.Correction>
2.1568

> <Gold.Rescore>
     Score         DG    S(hbond)    S(metal)    S(lipo)     H(rot)  DE(clash)    DE(int)     intcor
     13.74     -17.25       2.89        0.00      60.20       1.92       0.14       3.37       ----

> <Gold.Chemscore.Fitness>
13.7364

> <Gold.Chemscore.DG>
-17.2459

> <Gold.Chemscore.ZeroCoef>
-5.4800

> <Gold.Chemscore.Hbond>
2.8855

> <Gold.Chemscore.Metal>
0.0000

> <Gold.Chemscore.Lipo>
60.2045

> <Gold.Chemscore.Internal_Hbond>
0.0000

> <Gold.Chemscore.DEClash>
0.1394

> <Gold.Chemscore.DEInternal>
3.3702

> <Gold.Chemscore.Rot>
1.9201

> <Gold.Chemscore.Internal.Correction>
   9.000000E+99

> <Gold.Chemscore.Hbonds>
donor molecule, donor type, donor heavy atom, donor atom, acceptor molecule, acceptor atom, score
      L1  H    15    42       P1  7948  0.49
      P1  H  6896  6907       L1    24  0.92
      P1  H 10752 10765       L1     7  1.00

> <Gold.Chemscore.Hbond.Weighted>
-9.6374

> <Gold.Chemscore.Metal.Weighted>
-0.0000

> <Gold.Chemscore.Lipo.Weighted>
-7.0439

> <Gold.Chemscore.Internal_Hbond.Weighted>
0.0000

> <Gold.Chemscore.DEClash.Weighted>
0.1394

> <Gold.Chemscore.DEInternal.Weighted>
3.3702

> <Gold.Chemscore.Rot.Weighted>
4.9154

> <Gold.Chemscore.Internal.Correction.Weighted>
   9.000000E+99

> <Gold.Protein.RotatedTorsions>
[ 6907 6896 6895 6894 ] final -136.75 input  -60.11 | X-H torsion
[ 7974 7965 7964 7962 ] final  177.94 input  175.53 | X-H torsion
[ 8008 7997 7996 7995 ] final  171.36 input   59.86 | X-H torsion
[ 10167 10162 10161 10158 ] final -177.91 input  -65.29 | X-H torsion
[ 10718 10713 10712 10709 ] final  -55.04 input   66.30 | X-H torsion
[ 10763 10752 10751 10750 ] final -146.44 input  -60.55 | X-H torsion
[ 11005 11000 10999 10996 ] final  -12.13 input  -57.11 | X-H torsion

> <Gold.Protein.ActiveResidues>
 VAL166  LYS551  ARG553  GLY616  TRP617  ASP618  TYR619  PRO620  LYS621  CYS622 
 ASP623  PHE694  ASN695  SER759  ASP760  ASP761  ALA762  ILE779  LEU786  VAL792 
 PHE793  MET794  SER795  GLU796  ALA797  LYS798  CYS799  TRP800  GLU811  SER814 

> <Gold.Protein.RotatedAtoms>
  151.0139  133.5939  159.2679 H   0  0  0  0  0  0  0  0  0  0  0  0  # atno 6907 bound_to 6896
  151.3081  135.0786  159.9272 H   0  0  0  0  0  0  0  0  0  0  0  0  # atno 6908 bound_to 6896
  152.5306  133.9809  159.7860 H   0  0  0  0  0  0  0  0  0  0  0  0  # atno 6909 bound_to 6896
  144.7162  140.0322  143.6439 H   0  0  0  0  0  0  0  0  0  0  0  0  # atno 7974 bound_to 7965
  156.1278  140.1514  156.9110 H   0  0  0  0  0  0  0  0  0  0  0  0  # atno 8008 bound_to 7997
  154.4885  140.0858  156.7582 H   0  0  0  0  0  0  0  0  0  0  0  0  # atno 8009 bound_to 7997
  155.4311  140.3427  155.4282 H   0  0  0  0  0  0  0  0  0  0  0  0  # atno 8010 bound_to 7997
  139.5457  144.2241  152.0983 H   0  0  0  0  0  0  0  0  0  0  0  0  # atno 10167 bound_to 10162
  156.1401  130.4155  150.0117 H   0  0  0  0  0  0  0  0  0  0  0  0  # atno 10718 bound_to 10713
  154.8335  135.3386  154.6662 H   0  0  0  0  0  0  0  0  0  0  0  0  # atno 10763 bound_to 10752
  153.7280  135.6954  153.5001 H   0  0  0  0  0  0  0  0  0  0  0  0  # atno 10764 bound_to 10752
  153.2333  135.4409  155.0571 H   0  0  0  0  0  0  0  0  0  0  0  0  # atno 10765 bound_to 10752
  140.7625  133.8503  155.9137 H   0  0  0  0  0  0  0  0  0  0  0  0  # atno 11005 bound_to 11000
  146.0093  139.3156  143.0880 LP  0  0  0  0  0  0  0  0  0  0  0  0  # atno 17320 bound_to 7965
  145.8701  140.9425  143.0655 LP  0  0  0  0  0  0  0  0  0  0  0  0  # atno 17321 bound_to 7965
  140.1728  144.4920  150.6570 LP  0  0  0  0  0  0  0  0  0  0  0  0  # atno 17342 bound_to 10162
  140.6704  143.2284  151.5638 LP  0  0  0  0  0  0  0  0  0  0  0  0  # atno 17343 bound_to 10162
  156.8005  130.9289  151.3646 LP  0  0  0  0  0  0  0  0  0  0  0  0  # atno 17370 bound_to 10713
  157.6568  130.8931  149.9746 LP  0  0  0  0  0  0  0  0  0  0  0  0  # atno 17371 bound_to 10713
  140.9650  134.1606  157.4624 LP  0  0  0  0  0  0  0  0  0  0  0  0  # atno 17394 bound_to 11000
  139.8768  134.9958  156.5763 LP  0  0  0  0  0  0  0  0  0  0  0  0  # atno 17395 bound_to 11000

$$$$
