AV-unprocessed.smi:1768|AV-procd|sdf|7146|dock7
  -GOLD-   22720 8383D 1   1.00000     0.00000
 Structure written by MMmdl.
 33 34  0  0  0  0  0  0  0  0  1 V2000
  146.3766  128.9832  152.4874 C   0  0  0  0  0  0  0  0  0  0  0  0
  146.7412  130.4279  152.4446 C   0  0  0  0  0  0  0  0  0  0  0  0
  146.2642  131.2707  151.5203 N   0  0  0  0  0  0  0  0  0  0  0  0
  146.7491  132.5608  151.6842 N   0  0  0  0  0  0  0  0  0  0  0  0
  147.5806  132.6526  152.7312 C   0  0  0  0  0  0  0  0  0  0  0  0
  148.2204  133.8560  153.1294 N   0  0  0  0  0  0  0  0  0  0  0  0
  148.6952  134.1857  154.3432 C   0  0  0  0  0  0  0  0  0  0  0  0
  148.6294  133.4779  155.3483 O   0  0  0  0  0  0  0  0  0  0  0  0
  149.2559  135.4038  154.3259 N   0  0  0  0  0  0  0  0  0  0  0  0
  149.8784  136.0796  155.4634 C   0  0  1  0  0  0  0  0  0  0  0  0
  150.9429  135.1533  156.0693 C   0  0  0  0  0  0  0  0  0  0  0  0
  150.4730  137.4304  155.0181 C   0  0  1  0  0  0  0  0  0  0  0  0
  150.7070  138.4335  156.1512 C   0  0  0  0  0  0  0  0  0  0  0  0
  151.8034  139.2985  155.5744 C   0  0  0  0  0  0  0  0  0  0  0  0
  152.6570  138.2651  154.8473 C   0  0  0  0  0  0  0  0  0  0  0  0
  151.7580  137.2426  154.4267 O   0  0  0  0  0  0  0  0  0  0  0  0
  147.8382  131.1558  153.6111 S   0  0  0  0  0  0  0  0  0  0  0  0
  145.6827  128.7359  151.6832 H   0  0  0  0  0  0  0  0  0  0  0  0
  145.9049  128.7462  153.4409 H   0  0  0  0  0  0  0  0  0  0  0  0
  147.2716  128.3708  152.3767 H   0  0  0  0  0  0  0  0  0  0  0  0
  148.3373  134.5444  152.4007 H   0  0  0  0  0  0  0  0  0  0  0  0
  149.2562  135.9083  153.4517 H   0  0  0  0  0  0  0  0  0  0  0  0
  149.1347  136.2768  156.2375 H   0  0  0  0  0  0  0  0  0  0  0  0
  151.4096  135.6072  156.9438 H   0  0  0  0  0  0  0  0  0  0  0  0
  151.7316  134.9296  155.3504 H   0  0  0  0  0  0  0  0  0  0  0  0
  150.5036  134.2073  156.3876 H   0  0  0  0  0  0  0  0  0  0  0  0
  149.8311  137.8933  154.2665 H   0  0  0  0  0  0  0  0  0  0  0  0
  149.8116  138.9979  156.4131 H   0  0  0  0  0  0  0  0  0  0  0  0
  151.0661  137.9267  157.0484 H   0  0  0  0  0  0  0  0  0  0  0  0
  151.3832  140.0100  154.8622 H   0  0  0  0  0  0  0  0  0  0  0  0
  152.3579  139.8547  156.3308 H   0  0  0  0  0  0  0  0  0  0  0  0
  153.1995  138.6915  154.0032 H   0  0  0  0  0  0  0  0  0  0  0  0
  153.3842  137.8240  155.5299 H   0  0  0  0  0  0  0  0  0  0  0  0
  1  2  1  0  0  0  0
  1 18  1  0  0  0  0
  1 19  1  0  0  0  0
  1 20  1  0  0  0  0
  2 17  1  0  0  0  0
  2  3  2  0  0  0  0
  3  4  1  0  0  0  0
  4  5  2  0  0  0  0
  5  6  1  0  0  0  0
  5 17  1  0  0  0  0
  6  7  1  0  0  0  0
  6 21  1  0  0  0  0
  7  8  2  0  0  0  0
  7  9  1  0  0  0  0
  9 10  1  0  0  0  0
  9 22  1  0  0  0  0
 10 11  1  0  0  0  0
 10 12  1  0  0  0  0
 10 23  1  0  0  0  0
 11 24  1  0  0  0  0
 11 25  1  0  0  0  0
 11 26  1  0  0  0  0
 12 16  1  0  0  0  0
 12 13  1  0  0  0  0
 12 27  1  0  0  0  0
 13 14  1  0  0  0  0
 13 28  1  0  0  0  0
 13 29  1  0  0  0  0
 14 15  1  0  0  0  0
 14 30  1  0  0  0  0
 14 31  1  0  0  0  0
 15 16  1  0  0  0  0
 15 32  1  0  0  0  0
 15 33  1  0  0  0  0
M  END
> <s_m_source_file>
AV-unprocessed.smi

> <i_m_source_file_index>
1768

> <i_lp_mmshare_version>
43012

> <i_f3d_flags>
0

> <s_epik_input>
W0NIM11jMW5uYyhzMSlbTkhdQyg9TylbTkhdW0NASF0oW0NIM10pW0NAQEhdMltDSDJdW0NIMl1bQ0gyXU8y

> <s_epik_cmdline>
J2VwaWtfcHl0aG9uJywgJy1waCcsICc3LjAnLCAnLXRuJywgJzgnLCAnLW1hJywgJzIwMCcsICctbWV0YWxfYmluZGluZycsICctaW1hZScsICc8aW5maWxlLm1hZT4nLCAnLW9tYWUnLCAnPG91dGZpbGUubWFlPic=

> <r_lp_tautomer_probability>
1

> <r_epik_Ionization_Penalty>
0.000523083

> <r_epik_Ionization_Penalty_Charging>
0

> <r_epik_Ionization_Penalty_Neutral>
0.000523083

> <r_epik_State_Penalty>
-0

> <r_epik_Charging_Adjusted_Penalty>
0

> <i_epik_Tot_Q>
0

> <i_epik_Tot_abs_Q>
0

> <r_epik_Metal_State_Penalty>
0.223408

> <b_epik_Metal_Only>
0

> <s_lp_Force_Field>
OPLS_2005

> <r_lp_Energy>
16.9545

> <b_lp_Chiralities_Consistent>
1

> <s_lp_Variant>
AV-unprocessed.smi:1768-4

> <Gold.Version>
5.8.1

> <Gold.Id.Protein>
6NUR|6NUR_protein|mol2

> <Gold.PLP.Fitness>
33.8967

> <Gold.PLP.PLP>
-25.9979

> <Gold.PLP.part.hbond>
-3.0000

> <Gold.PLP.part.metal>
0.0000

> <Gold.PLP.part.buried>
-3.2291

> <Gold.PLP.part.nonpolar>
-20.2333

> <Gold.PLP.part.repulsive>
0.4889

> <Gold.PLP.ligand.clash>
0.0000

> <Gold.PLP.ligand.torsion>
0.5417

> <Gold.PLP.Chemscore.Hbond>
2.9913

> <Gold.PLP.Chemscore.CHOScore>
0.0000

> <Gold.PLP.Chemscore.Metal>
0.0000

> <Gold.Chemscore.Hbonds>
donor molecule, donor type, donor heavy atom, donor atom, acceptor molecule, acceptor atom, score
      L1  H     6    21       P1  7948  0.80
      L1  H     9    22       P1  7948  1.00
      P1  H 10752 10764       L1    16  1.00

> <Gold.PLP.Chemscore.Internal.Correction>
0.0085

> <Gold.Rescore>
     Score         DG    S(hbond)    S(metal)    S(lipo)     H(rot)  DE(clash)    DE(int)     intcor
     14.23     -15.44       2.20        0.00      50.70       1.29       0.00       1.20       ----

> <Gold.Chemscore.Fitness>
14.2346

> <Gold.Chemscore.DG>
-15.4444

> <Gold.Chemscore.ZeroCoef>
-5.4800

> <Gold.Chemscore.Hbond>
2.1974

> <Gold.Chemscore.Metal>
0.0000

> <Gold.Chemscore.Lipo>
50.7034

> <Gold.Chemscore.Internal_Hbond>
0.0000

> <Gold.Chemscore.DEClash>
0.0048

> <Gold.Chemscore.DEInternal>
1.2049

> <Gold.Chemscore.Rot>
1.2919

> <Gold.Chemscore.Internal.Correction>
   9.000000E+99

> <Gold.Chemscore.Hbonds>
donor molecule, donor type, donor heavy atom, donor atom, acceptor molecule, acceptor atom, score
      L1  H     6    21       P1  7948  0.11
      L1  H     9    22       P1  7948  0.69
      P1  H 10752 10764       L1    16  0.33

> <Gold.Chemscore.Hbond.Weighted>
-7.3392

> <Gold.Chemscore.Metal.Weighted>
-0.0000

> <Gold.Chemscore.Lipo.Weighted>
-5.9323

> <Gold.Chemscore.Internal_Hbond.Weighted>
0.0000

> <Gold.Chemscore.DEClash.Weighted>
0.0048

> <Gold.Chemscore.DEInternal.Weighted>
1.2049

> <Gold.Chemscore.Rot.Weighted>
3.3072

> <Gold.Chemscore.Internal.Correction.Weighted>
   9.000000E+99

> <Gold.Protein.RotatedTorsions>
[ 6907 6896 6895 6894 ] final -116.26 input  -60.11 | X-H torsion
[ 7974 7965 7964 7962 ] final -125.83 input  175.53 | X-H torsion
[ 8008 7997 7996 7995 ] final  121.55 input   59.86 | X-H torsion
[ 10167 10162 10161 10158 ] final   12.80 input  -65.29 | X-H torsion
[ 10718 10713 10712 10709 ] final -103.55 input   66.30 | X-H torsion
[ 10763 10752 10751 10750 ] final  -78.91 input  -60.55 | X-H torsion
[ 11005 11000 10999 10996 ] final -175.73 input  -57.11 | X-H torsion

> <Gold.Protein.ActiveResidues>
 VAL166  LYS551  ARG553  GLY616  TRP617  ASP618  TYR619  PRO620  LYS621  CYS622 
 ASP623  PHE694  ASN695  SER759  ASP760  ASP761  ALA762  ILE779  LEU786  VAL792 
 PHE793  MET794  SER795  GLU796  ALA797  LYS798  CYS799  TRP800  GLU811  SER814 

> <Gold.Protein.RotatedAtoms>
  150.8042  133.8541  159.3213 H   0  0  0  0  0  0  0  0  0  0  0  0  # atno 6907 bound_to 6896
  151.6345  135.1017  160.0138 H   0  0  0  0  0  0  0  0  0  0  0  0  # atno 6908 bound_to 6896
  152.4132  133.6956  159.6451 H   0  0  0  0  0  0  0  0  0  0  0  0  # atno 6909 bound_to 6896
  144.9935  140.7754  143.4540 H   0  0  0  0  0  0  0  0  0  0  0  0  # atno 7974 bound_to 7965
  156.2691  140.2806  156.1326 H   0  0  0  0  0  0  0  0  0  0  0  0  # atno 8008 bound_to 7997
  155.1038  140.0390  157.2722 H   0  0  0  0  0  0  0  0  0  0  0  0  # atno 8009 bound_to 7997
  154.6795  140.2605  155.6929 H   0  0  0  0  0  0  0  0  0  0  0  0  # atno 8010 bound_to 7997
  140.6044  143.8538  150.6998 H   0  0  0  0  0  0  0  0  0  0  0  0  # atno 10167 bound_to 10162
  156.0270  130.5473  150.7269 H   0  0  0  0  0  0  0  0  0  0  0  0  # atno 10718 bound_to 10713
  154.5319  135.5713  153.6766 H   0  0  0  0  0  0  0  0  0  0  0  0  # atno 10763 bound_to 10752
  152.9941  135.6207  154.2617 H   0  0  0  0  0  0  0  0  0  0  0  0  # atno 10764 bound_to 10752
  154.2544  135.2858  155.2783 H   0  0  0  0  0  0  0  0  0  0  0  0  # atno 10765 bound_to 10752
  140.4600  134.6263  157.4838 H   0  0  0  0  0  0  0  0  0  0  0  0  # atno 11005 bound_to 11000
  145.2252  139.2140  143.5072 LP  0  0  0  0  0  0  0  0  0  0  0  0  # atno 17320 bound_to 7965
  146.3436  140.2118  142.8590 LP  0  0  0  0  0  0  0  0  0  0  0  0  # atno 17321 bound_to 7965
  140.2092  143.3897  152.1732 LP  0  0  0  0  0  0  0  0  0  0  0  0  # atno 17342 bound_to 10162
  139.5314  144.7163  151.5042 LP  0  0  0  0  0  0  0  0  0  0  0  0  # atno 17343 bound_to 10162
  157.4871  131.0907  151.0470 LP  0  0  0  0  0  0  0  0  0  0  0  0  # atno 17370 bound_to 10713
  157.0887  130.5933  149.5435 LP  0  0  0  0  0  0  0  0  0  0  0  0  # atno 17371 bound_to 10713
  139.9951  134.6924  155.9623 LP  0  0  0  0  0  0  0  0  0  0  0  0  # atno 17394 bound_to 11000
  141.1625  133.6538  156.4368 LP  0  0  0  0  0  0  0  0  0  0  0  0  # atno 17395 bound_to 11000

$$$$
