AV-unprocessed.smi:1328|AV-procd|sdf|5480|dock9
  -GOLD-   22720 5 53D 1   1.00000     0.00000
 Structure written by MMmdl.
 38 39  0  0  0  0  0  0  0  0  1 V2000
  149.5130  130.6294  155.1157 C   0  0  0  0  0  0  0  0  0  0  0  0
  149.7918  131.9167  155.8373 C   0  0  0  0  0  0  0  0  0  0  0  0
  150.1389  131.8863  157.1130 N   0  0  0  0  0  0  0  0  0  0  0  0
  150.3307  133.2189  157.4896 O   0  0  0  0  0  0  0  0  0  0  0  0
  150.0875  134.0093  156.4134 C   0  0  0  0  0  0  0  0  0  0  0  0
  150.2457  135.4789  156.6161 C   0  0  0  0  0  0  0  0  0  0  0  0
  149.7355  133.2476  155.3323 C   0  0  0  0  0  0  0  0  0  0  0  0
  149.3806  133.6937  153.9369 C   0  0  0  0  0  0  0  0  0  0  0  0
  147.8730  133.5577  153.7283 C   0  0  0  0  0  0  0  0  0  0  0  0
  147.2491  132.6584  154.2914 O   0  0  0  0  0  0  0  0  0  0  0  0
  147.3084  134.4493  152.9005 N   0  0  0  0  0  0  0  0  0  0  0  0
  145.9164  134.4471  152.4647 C   0  0  1  0  0  0  0  0  0  0  0  0
  145.6135  135.7369  151.6837 C   0  0  0  0  0  0  0  0  0  0  0  0
  145.6678  133.1795  151.6258 C   0  0  2  0  0  0  0  0  0  0  0  0
  146.5372  133.0528  150.3755 C   0  0  0  0  0  0  0  0  0  0  0  0
  145.7231  132.1386  149.4739 C   0  0  0  0  0  0  0  0  0  0  0  0
  144.3068  132.2064  150.0533 C   0  0  0  0  0  0  0  0  0  0  0  0
  144.3617  133.1984  151.0692 O   0  0  0  0  0  0  0  0  0  0  0  0
  149.8388  130.6824  154.0769 H   0  0  0  0  0  0  0  0  0  0  0  0
  148.4464  130.4047  155.1183 H   0  0  0  0  0  0  0  0  0  0  0  0
  150.0322  129.7894  155.5785 H   0  0  0  0  0  0  0  0  0  0  0  0
  150.6891  135.9489  155.7386 H   0  0  0  0  0  0  0  0  0  0  0  0
  150.8914  135.6891  157.4688 H   0  0  0  0  0  0  0  0  0  0  0  0
  149.2792  135.9484  156.7988 H   0  0  0  0  0  0  0  0  0  0  0  0
  149.6728  134.7302  153.7642 H   0  0  0  0  0  0  0  0  0  0  0  0
  149.9030  133.1027  153.1835 H   0  0  0  0  0  0  0  0  0  0  0  0
  147.9071  135.1505  152.4891 H   0  0  0  0  0  0  0  0  0  0  0  0
  145.2686  134.4089  153.3426 H   0  0  0  0  0  0  0  0  0  0  0  0
  144.5677  135.7798  151.3795 H   0  0  0  0  0  0  0  0  0  0  0  0
  146.2254  135.8091  150.7841 H   0  0  0  0  0  0  0  0  0  0  0  0
  145.8091  136.6211  152.2912 H   0  0  0  0  0  0  0  0  0  0  0  0
  145.7728  132.2848  152.2432 H   0  0  0  0  0  0  0  0  0  0  0  0
  146.6544  134.0265  149.8977 H   0  0  0  0  0  0  0  0  0  0  0  0
  147.5315  132.6597  150.5889 H   0  0  0  0  0  0  0  0  0  0  0  0
  145.7578  132.4741  148.4368 H   0  0  0  0  0  0  0  0  0  0  0  0
  146.0987  131.1154  149.5091 H   0  0  0  0  0  0  0  0  0  0  0  0
  143.5594  132.4629  149.3021 H   0  0  0  0  0  0  0  0  0  0  0  0
  144.0276  131.2505  150.4985 H   0  0  0  0  0  0  0  0  0  0  0  0
  1  2  1  0  0  0  0
  1 19  1  0  0  0  0
  1 20  1  0  0  0  0
  1 21  1  0  0  0  0
  2  7  1  0  0  0  0
  2  3  2  0  0  0  0
  3  4  1  0  0  0  0
  4  5  1  0  0  0  0
  5  6  1  0  0  0  0
  5  7  2  0  0  0  0
  6 22  1  0  0  0  0
  6 23  1  0  0  0  0
  6 24  1  0  0  0  0
  7  8  1  0  0  0  0
  8  9  1  0  0  0  0
  8 25  1  0  0  0  0
  8 26  1  0  0  0  0
  9 10  2  0  0  0  0
  9 11  1  0  0  0  0
 11 12  1  0  0  0  0
 11 27  1  0  0  0  0
 12 13  1  0  0  0  0
 12 14  1  0  0  0  0
 12 28  1  0  0  0  0
 13 29  1  0  0  0  0
 13 30  1  0  0  0  0
 13 31  1  0  0  0  0
 14 18  1  0  0  0  0
 14 15  1  0  0  0  0
 14 32  1  0  0  0  0
 15 16  1  0  0  0  0
 15 33  1  0  0  0  0
 15 34  1  0  0  0  0
 16 17  1  0  0  0  0
 16 35  1  0  0  0  0
 16 36  1  0  0  0  0
 17 18  1  0  0  0  0
 17 37  1  0  0  0  0
 17 38  1  0  0  0  0
M  END
> <s_m_source_file>
AV-unprocessed.smi

> <i_m_source_file_index>
1328

> <i_lp_mmshare_version>
43012

> <i_f3d_flags>
0

> <s_epik_input>
W0NIM11jMW5vYyhbQ0gzXSljMVtDSDJdQyg9TylbTkhdW0NASF0oW0NIM10pW0NAQEhdMltDSDJdW0NIMl1bQ0gyXU8y

> <s_epik_cmdline>
J2VwaWtfcHl0aG9uJywgJy1waCcsICc3LjAnLCAnLXRuJywgJzgnLCAnLW1hJywgJzIwMCcsICctbWV0YWxfYmluZGluZycsICctaW1hZScsICc8aW5maWxlLm1hZT4nLCAnLW9tYWUnLCAnPG91dGZpbGUubWFlPic=

> <r_lp_tautomer_probability>
1

> <r_epik_Ionization_Penalty>
2.66156e-08

> <r_epik_Ionization_Penalty_Charging>
0

> <r_epik_Ionization_Penalty_Neutral>
2.66156e-08

> <r_epik_State_Penalty>
-0

> <r_epik_Charging_Adjusted_Penalty>
0

> <i_epik_Tot_Q>
0

> <i_epik_Tot_abs_Q>
0

> <r_epik_Metal_State_Penalty>
-0

> <b_epik_Metal_Only>
0

> <s_lp_Force_Field>
OPLS_2005

> <r_lp_Energy>
11.7374

> <b_lp_Chiralities_Consistent>
1

> <s_lp_Variant>
AV-unprocessed.smi:1328-2

> <Gold.Version>
5.8.1

> <Gold.Id.Protein>
6NUR|6NUR_protein|mol2

> <Gold.PLP.Fitness>
37.0493

> <Gold.PLP.PLP>
-32.2541

> <Gold.PLP.part.hbond>
-2.0000

> <Gold.PLP.part.metal>
0.0000

> <Gold.PLP.part.buried>
-4.7652

> <Gold.PLP.part.nonpolar>
-26.1518

> <Gold.PLP.part.repulsive>
0.1833

> <Gold.PLP.ligand.clash>
0.0000

> <Gold.PLP.ligand.torsion>
0.6080

> <Gold.PLP.Chemscore.Hbond>
1.9913

> <Gold.PLP.Chemscore.CHOScore>
0.0000

> <Gold.PLP.Chemscore.Metal>
0.0000

> <Gold.Chemscore.Hbonds>
donor molecule, donor type, donor heavy atom, donor atom, acceptor molecule, acceptor atom, score
      L1  H    11    27       P1  7948  1.00
      P1  H  6896  6907       L1     4  0.93

> <Gold.PLP.Chemscore.Internal.Correction>
0.0375

> <Gold.Rescore>
     Score         DG    S(hbond)    S(metal)    S(lipo)     H(rot)  DE(clash)    DE(int)     intcor
     15.58     -16.50       1.94        0.00      71.91       1.52       0.06       0.87       ----

> <Gold.Chemscore.Fitness>
15.5774

> <Gold.Chemscore.DG>
-16.5017

> <Gold.Chemscore.ZeroCoef>
-5.4800

> <Gold.Chemscore.Hbond>
1.9427

> <Gold.Chemscore.Metal>
0.0000

> <Gold.Chemscore.Lipo>
71.9139

> <Gold.Chemscore.Internal_Hbond>
0.0000

> <Gold.Chemscore.DEClash>
0.0580

> <Gold.Chemscore.DEInternal>
0.8663

> <Gold.Chemscore.Rot>
1.5159

> <Gold.Chemscore.Internal.Correction>
   9.000000E+99

> <Gold.Chemscore.Hbonds>
donor molecule, donor type, donor heavy atom, donor atom, acceptor molecule, acceptor atom, score
      L1  H    11    27       P1  7948  0.96
      P1  H  6896  6907       L1     4  0.79

> <Gold.Chemscore.Hbond.Weighted>
-6.4885

> <Gold.Chemscore.Metal.Weighted>
-0.0000

> <Gold.Chemscore.Lipo.Weighted>
-8.4139

> <Gold.Chemscore.Internal_Hbond.Weighted>
0.0000

> <Gold.Chemscore.DEClash.Weighted>
0.0580

> <Gold.Chemscore.DEInternal.Weighted>
0.8663

> <Gold.Chemscore.Rot.Weighted>
3.8807

> <Gold.Chemscore.Internal.Correction.Weighted>
   9.000000E+99

> <Gold.Protein.RotatedTorsions>
[ 6907 6896 6895 6894 ] final -152.48 input  -60.11 | X-H torsion
[ 7974 7965 7964 7962 ] final   63.52 input  175.53 | X-H torsion
[ 8008 7997 7996 7995 ] final   44.68 input   59.86 | X-H torsion
[ 10167 10162 10161 10158 ] final   47.50 input  -65.29 | X-H torsion
[ 10718 10713 10712 10709 ] final  -91.74 input   66.30 | X-H torsion
[ 10763 10752 10751 10750 ] final   87.72 input  -60.55 | X-H torsion
[ 11005 11000 10999 10996 ] final   79.59 input  -57.11 | X-H torsion

> <Gold.Protein.ActiveResidues>
 VAL166  LYS551  ARG553  GLY616  TRP617  ASP618  TYR619  PRO620  LYS621  CYS622 
 ASP623  PHE694  ASN695  SER759  ASP760  ASP761  ALA762  ILE779  LEU786  VAL792 
 PHE793  MET794  SER795  GLU796  ALA797  LYS798  CYS799  TRP800  GLU811  SER814 

> <Gold.Protein.RotatedAtoms>
  151.2284  133.4464  159.2602 H   0  0  0  0  0  0  0  0  0  0  0  0  # atno 6907 bound_to 6896
  151.0818  134.9863  159.8370 H   0  0  0  0  0  0  0  0  0  0  0  0  # atno 6908 bound_to 6896
  152.5425  134.2223  159.8845 H   0  0  0  0  0  0  0  0  0  0  0  0  # atno 6909 bound_to 6896
  145.8608  139.3314  143.0820 H   0  0  0  0  0  0  0  0  0  0  0  0  # atno 7974 bound_to 7965
  155.3232  140.3398  155.4241 H   0  0  0  0  0  0  0  0  0  0  0  0  # atno 8008 bound_to 7997
  156.1898  140.1693  156.8151 H   0  0  0  0  0  0  0  0  0  0  0  0  # atno 8009 bound_to 7997
  154.5429  140.0721  156.8523 H   0  0  0  0  0  0  0  0  0  0  0  0  # atno 8010 bound_to 7997
  140.3030  144.2911  150.6215 H   0  0  0  0  0  0  0  0  0  0  0  0  # atno 10167 bound_to 10162
  155.9996  130.4960  150.5521 H   0  0  0  0  0  0  0  0  0  0  0  0  # atno 10718 bound_to 10713
  153.1697  135.4533  154.9885 H   0  0  0  0  0  0  0  0  0  0  0  0  # atno 10763 bound_to 10752
  154.7957  135.3236  154.7675 H   0  0  0  0  0  0  0  0  0  0  0  0  # atno 10764 bound_to 10752
  153.8153  135.6951  153.4889 H   0  0  0  0  0  0  0  0  0  0  0  0  # atno 10765 bound_to 10752
  139.9166  134.7855  156.1799 H   0  0  0  0  0  0  0  0  0  0  0  0  # atno 11005 bound_to 11000
  145.9250  140.9089  143.0386 LP  0  0  0  0  0  0  0  0  0  0  0  0  # atno 17320 bound_to 7965
  144.6726  140.1340  143.7442 LP  0  0  0  0  0  0  0  0  0  0  0  0  # atno 17321 bound_to 7965
  140.5635  143.2189  151.7725 LP  0  0  0  0  0  0  0  0  0  0  0  0  # atno 17342 bound_to 10162
  139.4911  144.4316  151.9865 LP  0  0  0  0  0  0  0  0  0  0  0  0  # atno 17343 bound_to 10162
  157.3442  131.0722  151.1764 LP  0  0  0  0  0  0  0  0  0  0  0  0  # atno 17370 bound_to 10713
  157.2602  130.6655  149.5971 LP  0  0  0  0  0  0  0  0  0  0  0  0  # atno 17371 bound_to 10713
  141.0648  133.6824  156.2024 LP  0  0  0  0  0  0  0  0  0  0  0  0  # atno 17394 bound_to 11000
  140.6602  134.4976  157.5583 LP  0  0  0  0  0  0  0  0  0  0  0  0  # atno 17395 bound_to 11000

$$$$
