AV-unprocessed.smi:2330|AV-procd|sdf|9310|dock1
  -GOLD-   2272012523D 1   1.00000     0.00000
 Structure written by MMmdl.
 42 43  0  0  0  0  0  0  0  0  1 V2000
  136.2041  141.2205  153.6488 C   0  0  0  0  0  0  0  0  0  0  0  0
  137.6157  140.7382  153.2851 C   0  0  2  0  0  0  0  0  0  0  0  0
  137.7395  139.2079  153.4131 C   0  0  0  0  0  0  0  0  0  0  0  0
  139.1521  138.7206  153.0530 C   0  0  0  0  0  0  0  0  0  0  0  0
  140.2279  139.4241  153.9056 C   0  0  1  0  0  0  0  0  0  0  0  0
  141.5632  139.0048  153.4907 N   0  0  0  0  0  0  0  0  0  0  0  0
  142.0850  137.7862  153.6883 C   0  0  0  0  0  0  0  0  0  0  0  0
  141.5081  136.8744  154.2814 O   0  0  0  0  0  0  0  0  0  0  0  0
  143.3011  137.6714  153.1378 N   0  0  0  0  0  0  0  0  0  0  0  0
  144.0921  136.4440  153.1019 C   0  0  0  0  0  0  0  0  0  0  0  0
  143.5039  135.3766  152.1516 C   0  0  2  0  0  0  0  0  0  0  0  0
  142.2130  134.7425  152.6891 C   0  0  0  0  0  0  0  0  0  0  0  0
  144.5076  134.3470  151.7269 C   0  0  0  0  0  0  0  0  0  0  0  0
  144.3419  133.0315  151.8995 N   0  0  0  0  0  0  0  0  0  0  0  0
  145.4316  132.2894  151.4377 C   0  0  0  0  0  0  0  0  0  0  0  0
  146.4375  133.0614  150.9147 C   0  0  0  0  0  0  0  0  0  0  0  0
  146.0494  134.7584  150.9806 S   0  0  0  0  0  0  0  0  0  0  0  0
  140.1036  140.9536  153.7826 C   0  0  0  0  0  0  0  0  0  0  0  0
  138.6889  141.4349  154.1434 C   0  0  0  0  0  0  0  0  0  0  0  0
  135.9569  140.9809  154.6835 H   0  0  0  0  0  0  0  0  0  0  0  0
  135.4534  140.7541  153.0106 H   0  0  0  0  0  0  0  0  0  0  0  0
  136.1147  142.3004  153.5262 H   0  0  0  0  0  0  0  0  0  0  0  0
  137.7942  141.0040  152.2420 H   0  0  0  0  0  0  0  0  0  0  0  0
  137.5004  138.9025  154.4328 H   0  0  0  0  0  0  0  0  0  0  0  0
  137.0105  138.7190  152.7663 H   0  0  0  0  0  0  0  0  0  0  0  0
  139.2091  137.6400  153.1902 H   0  0  0  0  0  0  0  0  0  0  0  0
  139.3393  138.9062  151.9943 H   0  0  0  0  0  0  0  0  0  0  0  0
  140.0804  139.1552  154.9536 H   0  0  0  0  0  0  0  0  0  0  0  0
  142.1168  139.6836  152.9890 H   0  0  0  0  0  0  0  0  0  0  0  0
  143.6913  138.4766  152.6704 H   0  0  0  0  0  0  0  0  0  0  0  0
  145.0926  136.7175  152.7657 H   0  0  0  0  0  0  0  0  0  0  0  0
  144.2053  136.0414  154.1097 H   0  0  0  0  0  0  0  0  0  0  0  0
  143.2146  135.9009  151.2400 H   0  0  0  0  0  0  0  0  0  0  0  0
  141.7684  134.0732  151.9519 H   0  0  0  0  0  0  0  0  0  0  0  0
  141.4728  135.5054  152.9315 H   0  0  0  0  0  0  0  0  0  0  0  0
  142.4023  134.1642  153.5939 H   0  0  0  0  0  0  0  0  0  0  0  0
  145.4082  131.2129  151.5218 H   0  0  0  0  0  0  0  0  0  0  0  0
  147.3786  132.7363  150.4966 H   0  0  0  0  0  0  0  0  0  0  0  0
  140.8322  141.4410  154.4316 H   0  0  0  0  0  0  0  0  0  0  0  0
  140.3406  141.2644  152.7638 H   0  0  0  0  0  0  0  0  0  0  0  0
  138.6275  142.5157  154.0121 H   0  0  0  0  0  0  0  0  0  0  0  0
  138.4984  141.2417  155.2001 H   0  0  0  0  0  0  0  0  0  0  0  0
  1  2  1  0  0  0  0
  1 20  1  0  0  0  0
  1 21  1  0  0  0  0
  1 22  1  0  0  0  0
  2 19  1  0  0  0  0
  2  3  1  0  0  0  0
  2 23  1  0  0  0  0
  3  4  1  0  0  0  0
  3 24  1  0  0  0  0
  3 25  1  0  0  0  0
  4  5  1  0  0  0  0
  4 26  1  0  0  0  0
  4 27  1  0  0  0  0
  5  6  1  0  0  0  0
  5 18  1  0  0  0  0
  5 28  1  0  0  0  0
  6  7  1  0  0  0  0
  6 29  1  0  0  0  0
  7  8  2  0  0  0  0
  7  9  1  0  0  0  0
  9 10  1  0  0  0  0
  9 30  1  0  0  0  0
 10 11  1  0  0  0  0
 10 31  1  0  0  0  0
 10 32  1  0  0  0  0
 11 12  1  0  0  0  0
 11 13  1  0  0  0  0
 11 33  1  0  0  0  0
 12 34  1  0  0  0  0
 12 35  1  0  0  0  0
 12 36  1  0  0  0  0
 13 17  1  0  0  0  0
 13 14  2  0  0  0  0
 14 15  1  0  0  0  0
 15 16  2  0  0  0  0
 15 37  1  0  0  0  0
 16 17  1  0  0  0  0
 16 38  1  0  0  0  0
 18 19  1  0  0  0  0
 18 39  1  0  0  0  0
 18 40  1  0  0  0  0
 19 41  1  0  0  0  0
 19 42  1  0  0  0  0
M  END
> <s_m_source_file>
AV-unprocessed.smi

> <i_m_source_file_index>
2330

> <i_lp_mmshare_version>
43012

> <i_f3d_flags>
0

> <s_epik_input>
W0NIM11bQ0BASF0xW0NIMl1bQ0gyXVtDQEhdKFtDSDJdW0NIMl0xKVtOSF1DKD1PKVtOSF1bQ0gyXVtDQEhdKFtDSDNdKWMybltjSF1bY0hdczI=

> <s_epik_cmdline>
J2VwaWtfcHl0aG9uJywgJy1waCcsICc3LjAnLCAnLXRuJywgJzgnLCAnLW1hJywgJzIwMCcsICctbWV0YWxfYmluZGluZycsICctaW1hZScsICc8aW5maWxlLm1hZT4nLCAnLW9tYWUnLCAnPG91dGZpbGUubWFlPic=

> <r_lp_tautomer_probability>
1

> <r_epik_Ionization_Penalty>
0.000331107

> <r_epik_Ionization_Penalty_Charging>
0

> <r_epik_Ionization_Penalty_Neutral>
0.000331107

> <r_epik_State_Penalty>
-0

> <r_epik_Charging_Adjusted_Penalty>
0

> <i_epik_Tot_Q>
0

> <i_epik_Tot_abs_Q>
0

> <r_epik_Metal_State_Penalty>
-0

> <b_epik_Metal_Only>
0

> <s_lp_Force_Field>
OPLS_2005

> <r_lp_Energy>
-1.82221

> <b_lp_Chiralities_Consistent>
1

> <s_lp_Variant>
AV-unprocessed.smi:2330-1

> <Gold.Version>
5.8.1

> <Gold.Id.Protein>
6NUR|6NUR_protein|mol2

> <Gold.PLP.Fitness>
39.4311

> <Gold.PLP.PLP>
-31.2977

> <Gold.PLP.part.hbond>
-2.0369

> <Gold.PLP.part.metal>
0.0000

> <Gold.PLP.part.buried>
-4.6512

> <Gold.PLP.part.nonpolar>
-25.3089

> <Gold.PLP.part.repulsive>
0.2079

> <Gold.PLP.ligand.clash>
0.0000

> <Gold.PLP.ligand.torsion>
0.3362

> <Gold.PLP.Chemscore.Hbond>
1.8960

> <Gold.PLP.Chemscore.CHOScore>
1.0000

> <Gold.PLP.Chemscore.Metal>
0.0000

> <Gold.Chemscore.Hbonds>
donor molecule, donor type, donor heavy atom, donor atom, acceptor molecule, acceptor atom, score
      L1  H     6    29       P1 10175  1.00
      L1  H     9    30       P1 10175  0.93
      L1  C    16    38       P1 10747  1.00

> <Gold.PLP.Chemscore.Internal.Correction>
0.1178

> <Gold.Rescore>
     Score         DG    S(hbond)    S(metal)    S(lipo)     H(rot)  DE(clash)    DE(int)     intcor
     15.14     -16.80       1.71        0.00      79.84       1.45       0.02       1.63       ----

> <Gold.Chemscore.Fitness>
15.1427

> <Gold.Chemscore.DG>
-16.7956

> <Gold.Chemscore.ZeroCoef>
-5.4800

> <Gold.Chemscore.Hbond>
1.7053

> <Gold.Chemscore.Metal>
0.0000

> <Gold.Chemscore.Lipo>
79.8377

> <Gold.Chemscore.Internal_Hbond>
0.0000

> <Gold.Chemscore.DEClash>
0.0186

> <Gold.Chemscore.DEInternal>
1.6343

> <Gold.Chemscore.Rot>
1.4536

> <Gold.Chemscore.Internal.Correction>
   9.000000E+99

> <Gold.Chemscore.Hbonds>
donor molecule, donor type, donor heavy atom, donor atom, acceptor molecule, acceptor atom, score
      L1  H     6    29       P1 10175  0.69
      L1  H     9    30       P1 10175  0.88

> <Gold.Chemscore.Hbond.Weighted>
-5.6958

> <Gold.Chemscore.Metal.Weighted>
-0.0000

> <Gold.Chemscore.Lipo.Weighted>
-9.3410

> <Gold.Chemscore.Internal_Hbond.Weighted>
0.0000

> <Gold.Chemscore.DEClash.Weighted>
0.0186

> <Gold.Chemscore.DEInternal.Weighted>
1.6343

> <Gold.Chemscore.Rot.Weighted>
3.7212

> <Gold.Chemscore.Internal.Correction.Weighted>
   9.000000E+99

> <Gold.Protein.RotatedTorsions>
[ 6907 6896 6895 6894 ] final   29.58 input  -60.11 | X-H torsion
[ 7974 7965 7964 7962 ] final  -84.07 input  175.53 | X-H torsion
[ 8008 7997 7996 7995 ] final  137.40 input   59.86 | X-H torsion
[ 10167 10162 10161 10158 ] final -110.12 input  -65.29 | X-H torsion
[ 10718 10713 10712 10709 ] final   -7.67 input   66.30 | X-H torsion
[ 10763 10752 10751 10750 ] final   62.71 input  -60.55 | X-H torsion
[ 11005 11000 10999 10996 ] final  -68.63 input  -57.11 | X-H torsion

> <Gold.Protein.ActiveResidues>
 VAL166  LYS551  ARG553  GLY616  TRP617  ASP618  TYR619  PRO620  LYS621  CYS622 
 ASP623  PHE694  ASN695  SER759  ASP760  ASP761  ALA762  ILE779  LEU786  VAL792 
 PHE793  MET794  SER795  GLU796  ALA797  LYS798  CYS799  TRP800  GLU811  SER814 

> <Gold.Protein.RotatedAtoms>
  152.0336  134.9753  160.0572 H   0  0  0  0  0  0  0  0  0  0  0  0  # atno 6907 bound_to 6896
  152.1220  133.4354  159.4688 H   0  0  0  0  0  0  0  0  0  0  0  0  # atno 6908 bound_to 6896
  150.6850  134.2443  159.4528 H   0  0  0  0  0  0  0  0  0  0  0  0  # atno 6909 bound_to 6896
  145.5115  140.9539  143.1705 H   0  0  0  0  0  0  0  0  0  0  0  0  # atno 7974 bound_to 7965
  156.3002  140.2420  156.3903 H   0  0  0  0  0  0  0  0  0  0  0  0  # atno 8008 bound_to 7997
  154.8620  140.0419  157.1691 H   0  0  0  0  0  0  0  0  0  0  0  0  # atno 8009 bound_to 7997
  154.8886  140.2960  155.5387 H   0  0  0  0  0  0  0  0  0  0  0  0  # atno 8010 bound_to 7997
  140.1479  143.4224  152.1516 H   0  0  0  0  0  0  0  0  0  0  0  0  # atno 10167 bound_to 10162
  156.7139  130.5130  149.5885 H   0  0  0  0  0  0  0  0  0  0  0  0  # atno 10718 bound_to 10713
  152.9992  135.5455  154.6236 H   0  0  0  0  0  0  0  0  0  0  0  0  # atno 10763 bound_to 10752
  154.5529  135.2828  155.0993 H   0  0  0  0  0  0  0  0  0  0  0  0  # atno 10764 bound_to 10752
  154.2226  135.6448  153.5202 H   0  0  0  0  0  0  0  0  0  0  0  0  # atno 10765 bound_to 10752
  141.1536  133.6745  156.6476 H   0  0  0  0  0  0  0  0  0  0  0  0  # atno 11005 bound_to 11000
  144.7725  139.6703  143.7189 LP  0  0  0  0  0  0  0  0  0  0  0  0  # atno 17320 bound_to 7965
  146.2163  139.5556  142.9647 LP  0  0  0  0  0  0  0  0  0  0  0  0  # atno 17321 bound_to 7965
  139.5440  144.7282  151.4642 LP  0  0  0  0  0  0  0  0  0  0  0  0  # atno 17342 bound_to 10162
  140.6721  143.8272  150.7012 LP  0  0  0  0  0  0  0  0  0  0  0  0  # atno 17343 bound_to 10162
  156.1642  130.6394  151.0757 LP  0  0  0  0  0  0  0  0  0  0  0  0  # atno 17370 bound_to 10713
  157.6925  131.0805  150.7066 LP  0  0  0  0  0  0  0  0  0  0  0  0  # atno 17371 bound_to 10713
  140.3345  134.7901  157.4351 LP  0  0  0  0  0  0  0  0  0  0  0  0  # atno 17394 bound_to 11000
  140.0989  134.5500  155.8372 LP  0  0  0  0  0  0  0  0  0  0  0  0  # atno 17395 bound_to 11000

$$$$
