#       Name:                AV-unprocessed.smi:262
#       Creating user name   scv26
#       Creation time:       Thu Mar 26 21:19:25 2020


#       File generated by GOLD software.
#

@<TRIPOS>MOLECULE
AV-unprocessed.smi:262
    70    74     1
SMALL
NO_CHARGES


@<TRIPOS>ATOM
      1 ****        -4.3078   2.0960   3.6997 O.3            1 S1                 0.0000
      2 ****        -4.9192   1.4658   2.5869 C.3            1 S1                 0.0000
      3 ****        -4.3804   0.0156   2.5094 C.3            1 S1                 0.0000
      4 ****        -2.9432  -0.0734   2.2988 N.pl3          1 S1                 0.0000
      5 ****        -1.9683  -0.0962   3.2717 C.2            1 S1                 0.0000
      6 ****        -0.7424  -0.1854   2.8311 N.2            1 S1                 0.0000
      7 ****        -0.8856  -0.2348   1.4509 C.ar           1 S1                 0.0000
      8 ****         0.0263  -0.3335   0.3685 C.ar           1 S1                 0.0000
      9 ****         1.3603  -0.4129   0.5659 N.3            1 S1                 0.0000
     10 ****         1.9602  -1.7187   0.3165 C.3            1 S1                 0.0000
     11 ****         2.4549  -1.8580  -1.1360 C.3            1 S1                 0.0000
     12 ****         3.3301  -0.7175  -1.5177 N.4            1 S1                 1.0000
     13 ****         3.9055  -0.8341  -2.8827 C.3            1 S1                 0.0000
     14 ****         4.9563  -1.9561  -3.0060 C.3            1 S1                 0.0000
     15 ****         6.1676  -1.7902  -2.1090 C.3            1 S1                 0.0000
     16 ****         7.1873  -2.7050  -2.7813 C.3            1 S1                 0.0000
     17 ****         6.8635  -2.6961  -4.1688 O.3            1 S1                 0.0000
     18 ****         5.6269  -2.0216  -4.3783 C.3            1 S1                 0.0000
     19 ****         2.6511   0.5880  -1.3105 C.3            1 S1                 0.0000
     20 ****         2.1455   0.7392   0.1373 C.3            1 S1                 0.0000
     21 ****        -0.4787  -0.3540  -0.8919 N.ar           1 S1                 0.0000
     22 ****        -1.8006  -0.2869  -1.0805 C.ar           1 S1                 0.0000
     23 ****        -2.7707  -0.1969  -0.1676 N.ar           1 S1                 0.0000
     24 ****        -2.2618  -0.1705   1.0979 C.ar           1 S1                 0.0000
     25 ****        -6.4447   1.4588   2.8106 C.3            1 S1                 0.0000
     26 ****        -7.0522   2.8702   2.7214 C.3            1 S1                 0.0000
     27 ****        -6.7171   3.4662   1.4743 O.3            1 S1                 0.0000
     28 ****        -5.3160   3.6502   1.3137 C.3            1 S1                 0.0000
     29 ****        -4.5985   2.2888   1.3200 C.3            1 S1                 0.0000
     30 ****        -3.3756   2.1324   3.5492 H              1 S1                 0.0000
     31 ****        -4.6229  -0.5266   3.4246 H              1 S1                 0.0000
     32 ****        -4.8745  -0.5242   1.7004 H              1 S1                 0.0000
     33 ****        -2.1974  -0.0414   4.3263 H              1 S1                 0.0000
     34 ****         2.7984  -1.8410   1.0034 H              1 S1                 0.0000
     35 ****         1.2508  -2.5137   0.5514 H              1 S1                 0.0000
     36 ****         2.9897  -2.8020  -1.2263 H              1 S1                 0.0000
     37 ****         1.6091  -1.9112  -1.8228 H              1 S1                 0.0000
     38 ****         3.1016  -0.9876  -3.6041 H              1 S1                 0.0000
     39 ****         4.3789   0.1123  -3.1491 H              1 S1                 0.0000
     40 ****         4.5039  -2.9293  -2.8151 H              1 S1                 0.0000
     41 ****         6.5211  -0.7582  -2.1299 H              1 S1                 0.0000
     42 ****         5.9753  -2.0653  -1.0716 H              1 S1                 0.0000
     43 ****         8.2140  -2.3816  -2.6082 H              1 S1                 0.0000
     44 ****         7.0863  -3.7252  -2.4093 H              1 S1                 0.0000
     45 ****         5.0146  -2.5352  -5.1199 H              1 S1                 0.0000
     46 ****         5.8431  -1.0207  -4.7546 H              1 S1                 0.0000
     47 ****         3.3393   1.4039  -1.5341 H              1 S1                 0.0000
     48 ****         1.8215   0.6777  -2.0129 H              1 S1                 0.0000
     49 ****         1.5614   1.6552   0.2399 H              1 S1                 0.0000
     50 ****         2.9940   0.8380   0.8151 H              1 S1                 0.0000
     51 ****        -2.1293  -0.3088  -2.1094 H              1 S1                 0.0000
     52 ****        -6.9169   0.8331   2.0520 H              1 S1                 0.0000
     53 ****        -6.6890   1.0071   3.7728 H              1 S1                 0.0000
     54 ****        -8.1381   2.8125   2.8003 H              1 S1                 0.0000
     55 ****        -6.7095   3.5004   3.5436 H              1 S1                 0.0000
     56 ****        -5.1369   4.1594   0.3666 H              1 S1                 0.0000
     57 ****        -4.9305   4.3019   2.0993 H              1 S1                 0.0000
     58 ****        -3.5240   2.4422   1.2158 H              1 S1                 0.0000
     59 ****        -4.9156   1.7284   0.4395 H              1 S1                 0.0000
     60 ****         4.1117  -0.7273  -0.8783 H              1 S1                 0.0000
     61 ****        -4.4952   1.5706   4.5297 LP             1 S1                 0.0000
     62 ****        -4.6692   3.0226   3.8031 LP             1 S1                 0.0000
     63 ****         0.1033  -0.2120   3.3640 LP             1 S1                 0.0000
     64 ****         1.4220  -0.3369   1.5611 LP             1 S1                 0.0000
     65 ****         6.7863  -3.6378  -4.4965 LP             1 S1                 0.0000
     66 ****         7.5867  -2.2255  -4.6742 LP             1 S1                 0.0000
     67 ****         0.1368  -0.4192  -1.6773 LP             1 S1                 0.0000
     68 ****        -3.7461  -0.1543  -0.3839 LP             1 S1                 0.0000
     69 ****        -7.1660   4.3578   1.4148 LP             1 S1                 0.0000
     70 ****        -7.0489   2.8762   0.7382 LP             1 S1                 0.0000
@<TRIPOS>BOND
    1    1    2 1     
    2    1   30 1     
    3    2   29 1     
    4    2    3 1     
    5    2   25 1     
    6    3    4 1     
    7    3   31 1     
    8    3   32 1     
    9    4   24 1     
   10    4    5 1     
   11    5    6 2     
   12    5   33 1     
   13    6    7 1     
   14    7   24 ar    
   15    7    8 ar    
   16    8    9 1     
   17    8   21 ar    
   18    9   20 1     
   19    9   10 1     
   20   10   11 1     
   21   10   34 1     
   22   10   35 1     
   23   11   12 1     
   24   11   36 1     
   25   11   37 1     
   26   12   13 1     
   27   12   19 1     
   28   12   60 1     
   29   13   14 1     
   30   13   38 1     
   31   13   39 1     
   32   14   18 1     
   33   14   15 1     
   34   14   40 1     
   35   15   16 1     
   36   15   41 1     
   37   15   42 1     
   38   16   17 1     
   39   16   43 1     
   40   16   44 1     
   41   17   18 1     
   42   18   45 1     
   43   18   46 1     
   44   19   20 1     
   45   19   47 1     
   46   19   48 1     
   47   20   49 1     
   48   20   50 1     
   49   21   22 ar    
   50   22   23 ar    
   51   22   51 1     
   52   23   24 ar    
   53   25   26 1     
   54   25   52 1     
   55   25   53 1     
   56   26   27 1     
   57   26   54 1     
   58   26   55 1     
   59   27   28 1     
   60   28   29 1     
   61   28   56 1     
   62   28   57 1     
   63   29   58 1     
   64   29   59 1     
   65    1   61 1     
   66    1   62 1     
   67    6   63 1     
   68    9   64 1     
   69   17   65 1     
   70   17   66 1     
   71   21   67 1     
   72   23   68 1     
   73   27   69 1     
   74   27   70 1     
@<TRIPOS>SUBSTRUCTURE
      1 S1             1
@<TRIPOS>SET
LONE_PAIRS      STATIC     ATOMS    <user>   **** ""
10 61 62 63 64 65 66 67 68 69 70
DONOR_HYDROGENS      STATIC     ATOMS    <user>   **** ""
2 30 60
ATOM$BLUE        STATIC     ATOMS    COLORGROUP SYSTEM
10 61 62 63 64 65 66 67 68 69 70
ATOM$RED        STATIC     ATOMS    COLORGROUP SYSTEM
2 30 60
