#       Name:                AV-unprocessed.smi:813
#       Creating user name   scv26
#       Creation time:       Fri Mar 27 01:26:07 2020


#       File generated by GOLD software.
#

@<TRIPOS>MOLECULE
AV-unprocessed.smi:813
    42    43     1
SMALL
NO_CHARGES


@<TRIPOS>ATOM
      1 ****        -0.9768  -2.2034  -2.6947 C.3            1 S1                 0.0000
      2 ****        -0.3726  -1.6102  -1.4111 C.3            1 S1                 0.0000
      3 ****         1.0660  -1.8734  -1.4228 N.am           1 S1                 0.0000
      4 ****         1.8821  -1.8373  -0.3582 C.2            1 S1                 0.0000
      5 ****         1.4276  -1.5675   0.7563 O.2            1 S1                 0.0000
      6 ****         3.1731  -2.1143  -0.6509 N.pl3          1 S1                -1.0000
      7 ****         4.0976  -2.1121   0.3235 C.2            1 S1                 0.0000
      8 ****         4.5236  -3.2416   0.9116 N.2            1 S1                 0.0000
      9 ****         5.4835  -3.0194   1.8899 N.2            1 S1                 0.0000
     10 ****         5.7651  -1.7220   2.0078 C.2            1 S1                 0.0000
     11 ****         4.8847  -0.6543   0.9351 S.3            1 S1                 0.0000
     12 ****        -0.6405  -0.0969  -1.4032 C.2            1 S1                 0.0000
     13 ****        -0.0565   0.6493  -2.1909 O.2            1 S1                 0.0000
     14 ****        -1.5384   0.3387  -0.5068 N.am           1 S1                 0.0000
     15 ****        -1.9266   1.7329  -0.3142 C.3            1 S1                 0.0000
     16 ****        -0.8969   2.4889   0.5493 C.3            1 S1                 0.0000
     17 ****        -1.5620   2.6945   1.9099 C.3            1 S1                 0.0000
     18 ****        -3.0462   2.8204   1.5818 C.3            1 S1                 0.0000
     19 ****        -3.2683   1.8287   0.4381 C.3            1 S1                 0.0000
     20 ****        -2.0537  -2.0365  -2.7390 H              1 S1                 0.0000
     21 ****        -0.8137  -3.2809  -2.7376 H              1 S1                 0.0000
     22 ****        -0.5344  -1.7687  -3.5924 H              1 S1                 0.0000
     23 ****        -0.8312  -2.0844  -0.5410 H              1 S1                 0.0000
     24 ****         1.4813  -2.0904  -2.3168 H              1 S1                 0.0000
     25 ****         6.4976  -1.3919   2.7291 H              1 S1                 0.0000
     26 ****        -1.9663  -0.3437   0.1020 H              1 S1                 0.0000
     27 ****        -2.0181   2.2235  -1.2852 H              1 S1                 0.0000
     28 ****         0.0619   1.9755   0.6367 H              1 S1                 0.0000
     29 ****        -0.6973   3.4613   0.0971 H              1 S1                 0.0000
     30 ****        -1.3963   1.8171   2.5366 H              1 S1                 0.0000
     31 ****        -1.1723   3.5636   2.4406 H              1 S1                 0.0000
     32 ****        -3.6855   2.6198   2.4419 H              1 S1                 0.0000
     33 ****        -3.2593   3.8331   1.2370 H              1 S1                 0.0000
     34 ****        -4.0838   2.1404  -0.2152 H              1 S1                 0.0000
     35 ****        -3.5458   0.8600   0.8570 H              1 S1                 0.0000
     36 ****         0.4522  -1.3760   0.8655 LP             1 S1                 0.0000
     37 ****         2.0345  -1.5402   1.5505 LP             1 S1                 0.0000
     38 ****         3.4393  -2.3207  -1.5925 LP             1 S1                 0.0000
     39 ****         4.1840  -4.1505   0.6695 LP             1 S1                 0.0000
     40 ****         5.9092  -3.7407   2.4362 LP             1 S1                 0.0000
     41 ****         0.5996   0.2718  -2.8443 LP             1 S1                 0.0000
     42 ****        -0.2387   1.6325  -2.1768 LP             1 S1                 0.0000
@<TRIPOS>BOND
    1    1    2 1     
    2    1   20 1     
    3    1   21 1     
    4    1   22 1     
    5    2    3 1     
    6    2   12 1     
    7    2   23 1     
    8    3    4 am    
    9    3   24 1     
   10    4    5 2     
   11    4    6 1     
   12    6    7 1     
   13    7   11 1     
   14    7    8 2     
   15    8    9 1     
   16    9   10 2     
   17   10   11 1     
   18   10   25 1     
   19   12   13 2     
   20   12   14 am    
   21   14   15 1     
   22   14   26 1     
   23   15   19 1     
   24   15   16 1     
   25   15   27 1     
   26   16   17 1     
   27   16   28 1     
   28   16   29 1     
   29   17   18 1     
   30   17   30 1     
   31   17   31 1     
   32   18   19 1     
   33   18   32 1     
   34   18   33 1     
   35   19   34 1     
   36   19   35 1     
   37    5   36 1     
   38    5   37 1     
   39    6   38 1     
   40    8   39 1     
   41    9   40 1     
   42   13   41 1     
   43   13   42 1     
@<TRIPOS>SUBSTRUCTURE
      1 S1             1
@<TRIPOS>SET
LONE_PAIRS      STATIC     ATOMS    <user>   **** ""
7 36 37 38 39 40 41 42
DONOR_HYDROGENS      STATIC     ATOMS    <user>   **** ""
2 24 26
ATOM$BLUE        STATIC     ATOMS    COLORGROUP SYSTEM
7 36 37 38 39 40 41 42
ATOM$RED        STATIC     ATOMS    COLORGROUP SYSTEM
2 24 26
