AV-unprocessed.smi:2124|AV-procd|sdf|8661|dock3
  -GOLD-   2272011413D 1   1.00000     0.00000
 Structure written by MMmdl.
 47 49  0  0  0  0  0  0  0  0  1 V2000
  146.9486  136.7075  160.7201 C   0  0  0  0  0  0  0  0  0  0  0  0
  148.0132  137.0011  159.6857 C   0  0  0  0  0  0  0  0  0  0  0  0
  147.5035  137.3994  158.4608 N   0  0  0  0  0  0  0  0  0  0  0  0
  148.4023  137.6945  157.4509 C   0  0  0  0  0  0  0  0  0  0  0  0
  147.7628  138.1219  156.1414 C   0  0  0  0  0  0  0  0  0  0  0  0
  149.7411  137.5948  157.6509 C   0  0  0  0  0  0  0  0  0  0  0  0
  150.7662  137.9054  156.5606 C   0  0  0  0  0  0  0  0  0  0  0  0
  151.0005  139.3872  156.2546 C   0  0  0  0  0  0  0  0  0  0  0  0
  150.9759  139.8009  155.0951 O   0  0  0  0  0  0  0  0  0  0  0  0
  151.2249  140.1777  157.3155 N   0  0  0  0  0  0  0  0  0  0  0  0
  151.4790  141.6164  157.2624 C   0  0  1  0  0  0  0  0  0  0  0  0
  150.4943  142.2614  156.2693 C   0  0  0  0  0  0  0  0  0  0  0  0
  151.3729  142.2161  158.6868 C   0  0  1  0  0  0  0  0  0  0  0  0
  152.3990  141.6304  159.6909 C   0  0  0  0  0  0  0  0  0  0  0  0
  153.0923  142.8795  160.2620 C   0  0  2  0  0  0  0  0  0  0  0  0
  152.1047  143.6625  161.1461 C   0  0  0  0  0  0  0  0  0  0  0  0
  151.1414  144.2766  160.1135 C   0  0  0  0  0  0  0  0  0  0  0  0
  151.6824  143.7323  158.7771 C   0  0  1  0  0  0  0  0  0  0  0  0
  153.1873  143.7638  159.0267 C   0  0  0  0  0  0  0  0  0  0  0  0
  150.2260  137.1568  158.9809 C   0  0  0  0  0  0  0  0  0  0  0  0
  151.4266  137.0342  159.2204 O   0  0  0  0  0  0  0  0  0  0  0  0
  149.2730  136.8760  159.9734 N   0  0  0  0  0  0  0  0  0  0  0  0
  146.5156  137.4849  158.2691 H   0  0  0  0  0  0  0  0  0  0  0  0
  147.3952  136.3506  161.6493 H   0  0  0  0  0  0  0  0  0  0  0  0
  146.2641  135.9410  160.3555 H   0  0  0  0  0  0  0  0  0  0  0  0
  146.3757  137.6086  160.9405 H   0  0  0  0  0  0  0  0  0  0  0  0
  148.0695  137.4587  155.3322 H   0  0  0  0  0  0  0  0  0  0  0  0
  148.0612  139.1387  155.8859 H   0  0  0  0  0  0  0  0  0  0  0  0
  146.6738  138.0982  156.1988 H   0  0  0  0  0  0  0  0  0  0  0  0
  150.5024  137.3977  155.6322 H   0  0  0  0  0  0  0  0  0  0  0  0
  151.7217  137.4696  156.8530 H   0  0  0  0  0  0  0  0  0  0  0  0
  151.2288  139.7500  158.2301 H   0  0  0  0  0  0  0  0  0  0  0  0
  152.4936  141.7812  156.8961 H   0  0  0  0  0  0  0  0  0  0  0  0
  150.6992  143.3212  156.1250 H   0  0  0  0  0  0  0  0  0  0  0  0
  149.4640  142.1646  156.6128 H   0  0  0  0  0  0  0  0  0  0  0  0
  150.5608  141.7907  155.2876 H   0  0  0  0  0  0  0  0  0  0  0  0
  150.3622  142.0292  159.0538 H   0  0  0  0  0  0  0  0  0  0  0  0
  151.9237  141.0280  160.4659 H   0  0  0  0  0  0  0  0  0  0  0  0
  153.1362  141.0002  159.1911 H   0  0  0  0  0  0  0  0  0  0  0  0
  154.0432  142.6659  160.7509 H   0  0  0  0  0  0  0  0  0  0  0  0
  151.5931  143.0191  161.8627 H   0  0  0  0  0  0  0  0  0  0  0  0
  152.6178  144.4462  161.7049 H   0  0  0  0  0  0  0  0  0  0  0  0
  150.1027  143.9957  160.2913 H   0  0  0  0  0  0  0  0  0  0  0  0
  151.1994  145.3655  160.1382 H   0  0  0  0  0  0  0  0  0  0  0  0
  151.3529  144.3190  157.9208 H   0  0  0  0  0  0  0  0  0  0  0  0
  153.5707  144.7633  159.2393 H   0  0  0  0  0  0  0  0  0  0  0  0
  153.7750  143.3212  158.2210 H   0  0  0  0  0  0  0  0  0  0  0  0
  1 24  1  0  0  0  0
  1 25  1  0  0  0  0
  1 26  1  0  0  0  0
  1  2  1  0  0  0  0
  2  3  1  0  0  0  0
  2 22  2  0  0  0  0
  3  4  1  0  0  0  0
  3 23  1  0  0  0  0
  4  6  2  0  0  0  0
  4  5  1  0  0  0  0
  5 27  1  0  0  0  0
  5 28  1  0  0  0  0
  5 29  1  0  0  0  0
  6 20  1  0  0  0  0
  6  7  1  0  0  0  0
  7  8  1  0  0  0  0
  7 30  1  0  0  0  0
  7 31  1  0  0  0  0
  8  9  2  0  0  0  0
  8 10  1  0  0  0  0
 10 11  1  0  0  0  0
 10 32  1  0  0  0  0
 11 12  1  0  0  0  0
 11 13  1  0  0  0  0
 11 33  1  0  0  0  0
 12 34  1  0  0  0  0
 12 35  1  0  0  0  0
 12 36  1  0  0  0  0
 13 18  1  0  0  0  0
 13 14  1  0  0  0  0
 13 37  1  0  0  0  0
 14 15  1  0  0  0  0
 14 38  1  0  0  0  0
 14 39  1  0  0  0  0
 15 19  1  0  0  0  0
 15 16  1  0  0  0  0
 15 40  1  0  0  0  0
 16 17  1  0  0  0  0
 16 41  1  0  0  0  0
 16 42  1  0  0  0  0
 17 18  1  0  0  0  0
 17 43  1  0  0  0  0
 17 44  1  0  0  0  0
 18 19  1  0  0  0  0
 18 45  1  0  0  0  0
 19 46  1  0  0  0  0
 19 47  1  0  0  0  0
 20 21  2  0  0  0  0
 20 22  1  0  0  0  0
M  END
> <s_m_source_file>
AV-unprocessed.smi

> <i_m_source_file_index>
2124

> <i_lp_mmshare_version>
43012

> <i_f3d_flags>
0

> <s_epik_input>
W0NIM11jMW5jKFtDSDNdKWMoYyg9TylbbkhdMSlbQ0gyXUMoPU8pW05IXVtDQEhdKFtDSDNdKVtDQEhdKFtDSDJdW0NASF0yMylbQ0BIXShbQ0gyXTMpW0NIMl1bQ0gyXTI=

> <s_epik_cmdline>
J2VwaWtfcHl0aG9uJywgJy1waCcsICc3LjAnLCAnLXRuJywgJzgnLCAnLW1hJywgJzIwMCcsICctbWV0YWxfYmluZGluZycsICctaW1hZScsICc8aW5maWxlLm1hZT4nLCAnLW9tYWUnLCAnPG91dGZpbGUubWFlPic=

> <r_lp_tautomer_probability>
0.156392

> <r_epik_Ionization_Penalty>
0.0139374

> <r_epik_Ionization_Penalty_Charging>
0.0138122

> <r_epik_Ionization_Penalty_Neutral>
0.000125146

> <r_epik_State_Penalty>
1.15342

> <r_epik_Charging_Adjusted_Penalty>
1.16723

> <i_epik_Tot_Q>
0

> <i_epik_Tot_abs_Q>
0

> <r_epik_Metal_State_Penalty>
1.3173

> <b_epik_Metal_Only>
0

> <s_lp_Force_Field>
OPLS_2005

> <r_lp_Energy>
56.04

> <b_lp_Chiralities_Consistent>
1

> <s_lp_Variant>
AV-unprocessed.smi:2124-12

> <Gold.Version>
5.8.1

> <Gold.Id.Protein>
6NUR|6NUR_protein|mol2

> <Gold.PLP.Fitness>
41.0209

> <Gold.PLP.PLP>
-35.8776

> <Gold.PLP.part.hbond>
-2.8409

> <Gold.PLP.part.metal>
0.0000

> <Gold.PLP.part.buried>
-5.0179

> <Gold.PLP.part.nonpolar>
-29.4349

> <Gold.PLP.part.repulsive>
0.2032

> <Gold.PLP.ligand.clash>
0.0000

> <Gold.PLP.ligand.torsion>
0.4793

> <Gold.PLP.Chemscore.Hbond>
2.0254

> <Gold.PLP.Chemscore.CHOScore>
0.0000

> <Gold.PLP.Chemscore.Metal>
0.0000

> <Gold.Chemscore.Hbonds>
donor molecule, donor type, donor heavy atom, donor atom, acceptor molecule, acceptor atom, score
      P1  H  6896  6908       L1    21  1.00
      P1  H  6931  6943       L1    22  0.05
      P1  H  7989  7998       L1     9  1.00

> <Gold.PLP.Chemscore.Internal.Correction>
0.0257

> <Gold.Rescore>
     Score         DG    S(hbond)    S(metal)    S(lipo)     H(rot)  DE(clash)    DE(int)     intcor
     18.10     -19.75       1.91        0.00     103.72       1.65       0.06       1.60       ----

> <Gold.Chemscore.Fitness>
18.0957

> <Gold.Chemscore.DG>
-19.7535

> <Gold.Chemscore.ZeroCoef>
-5.4800

> <Gold.Chemscore.Hbond>
1.9074

> <Gold.Chemscore.Metal>
0.0000

> <Gold.Chemscore.Lipo>
103.7229

> <Gold.Chemscore.Internal_Hbond>
0.0000

> <Gold.Chemscore.DEClash>
0.0588

> <Gold.Chemscore.DEInternal>
1.5990

> <Gold.Chemscore.Rot>
1.6534

> <Gold.Chemscore.Internal.Correction>
   9.000000E+99

> <Gold.Chemscore.Hbonds>
donor molecule, donor type, donor heavy atom, donor atom, acceptor molecule, acceptor atom, score
      P1  H  6896  6908       L1    21  0.46
      P1  H  7989  7998       L1     9  0.93

> <Gold.Chemscore.Hbond.Weighted>
-6.3706

> <Gold.Chemscore.Metal.Weighted>
-0.0000

> <Gold.Chemscore.Lipo.Weighted>
-12.1356

> <Gold.Chemscore.Internal_Hbond.Weighted>
0.0000

> <Gold.Chemscore.DEClash.Weighted>
0.0588

> <Gold.Chemscore.DEInternal.Weighted>
1.5990

> <Gold.Chemscore.Rot.Weighted>
4.2326

> <Gold.Chemscore.Internal.Correction.Weighted>
   9.000000E+99

> <Gold.Protein.RotatedTorsions>
[ 6907 6896 6895 6894 ] final -117.34 input  -60.11 | X-H torsion
[ 7974 7965 7964 7962 ] final  -18.30 input  175.53 | X-H torsion
[ 8008 7997 7996 7995 ] final   -3.16 input   59.86 | X-H torsion
[ 10167 10162 10161 10158 ] final    0.13 input  -65.29 | X-H torsion
[ 10718 10713 10712 10709 ] final  171.22 input   66.30 | X-H torsion
[ 10763 10752 10751 10750 ] final -122.36 input  -60.55 | X-H torsion
[ 11005 11000 10999 10996 ] final   73.11 input  -57.11 | X-H torsion

> <Gold.Protein.ActiveResidues>
 VAL166  LYS551  ARG553  GLY616  TRP617  ASP618  TYR619  PRO620  LYS621  CYS622 
 ASP623  PHE694  ASN695  SER759  ASP760  ASP761  ALA762  ILE779  LEU786  VAL792 
 PHE793  MET794  SER795  GLU796  ALA797  LYS798  CYS799  TRP800  GLU811  SER814 

> <Gold.Protein.RotatedAtoms>
  150.8129  133.8389  159.3173 H   0  0  0  0  0  0  0  0  0  0  0  0  # atno 6907 bound_to 6896
  151.6170  135.1033  160.0103 H   0  0  0  0  0  0  0  0  0  0  0  0  # atno 6908 bound_to 6896
  152.4221  133.7093  159.6526 H   0  0  0  0  0  0  0  0  0  0  0  0  # atno 6909 bound_to 6896
  146.1899  140.3901  142.8462 H   0  0  0  0  0  0  0  0  0  0  0  0  # atno 7974 bound_to 7965
  154.6278  140.2516  155.7470 H   0  0  0  0  0  0  0  0  0  0  0  0  # atno 8008 bound_to 7997
  156.2463  140.2913  156.0536 H   0  0  0  0  0  0  0  0  0  0  0  0  # atno 8009 bound_to 7997
  155.1793  140.0388  157.2869 H   0  0  0  0  0  0  0  0  0  0  0  0  # atno 8010 bound_to 7997
  140.6742  143.6963  150.7987 H   0  0  0  0  0  0  0  0  0  0  0  0  # atno 10167 bound_to 10162
  156.9967  131.0164  151.2842 H   0  0  0  0  0  0  0  0  0  0  0  0  # atno 10718 bound_to 10713
  154.8688  135.4135  154.2769 H   0  0  0  0  0  0  0  0  0  0  0  0  # atno 10763 bound_to 10752
  153.3669  135.7006  153.6674 H   0  0  0  0  0  0  0  0  0  0  0  0  # atno 10764 bound_to 10752
  153.5552  135.3621  155.2748 H   0  0  0  0  0  0  0  0  0  0  0  0  # atno 10765 bound_to 10752
  139.9457  134.7318  156.0987 H   0  0  0  0  0  0  0  0  0  0  0  0  # atno 11005 bound_to 11000
  144.8467  140.6939  143.6195 LP  0  0  0  0  0  0  0  0  0  0  0  0  # atno 17320 bound_to 7965
  145.3825  139.1634  143.4273 LP  0  0  0  0  0  0  0  0  0  0  0  0  # atno 17321 bound_to 7965
  140.0653  143.5114  152.2607 LP  0  0  0  0  0  0  0  0  0  0  0  0  # atno 17342 bound_to 10162
  139.6026  144.7587  151.3137 LP  0  0  0  0  0  0  0  0  0  0  0  0  # atno 17343 bound_to 10162
  157.5420  130.8126  149.8040 LP  0  0  0  0  0  0  0  0  0  0  0  0  # atno 17370 bound_to 10713
  156.0186  130.3804  150.2031 LP  0  0  0  0  0  0  0  0  0  0  0  0  # atno 17371 bound_to 10713
  141.1106  133.6644  156.2969 LP  0  0  0  0  0  0  0  0  0  0  0  0  # atno 17394 bound_to 11000
  140.5842  134.5716  157.5486 LP  0  0  0  0  0  0  0  0  0  0  0  0  # atno 17395 bound_to 11000

$$$$
