#       Name:                AV-unprocessed.smi:2908
#       Creating user name   scv26
#       Creation time:       Fri Mar 27 16:06:00 2020


#       File generated by GOLD software.
#

@<TRIPOS>MOLECULE
AV-unprocessed.smi:2908
    48    49     1
SMALL
NO_CHARGES


@<TRIPOS>ATOM
      1 ****        -1.3402   0.6509  -0.9375 O.2            1 S1                 0.0000
      2 ****        -0.7468  -0.2627  -0.3618 C.2            1 S1                 0.0000
      3 ****        -1.2308  -1.5168  -0.3242 N.am           1 S1                 0.0000
      4 ****        -2.4686  -1.9764  -0.9502 C.3            1 S1                 0.0000
      5 ****        -3.6655  -1.9592   0.0210 C.3            1 S1                 0.0000
      6 ****        -3.9756  -0.5841   0.5856 C.ar           1 S1                 0.0000
      7 ****        -3.6338  -0.2173   1.9058 C.ar           1 S1                 0.0000
      8 ****        -3.9269   1.0867   2.3558 C.ar           1 S1                 0.0000
      9 ****        -4.5568   1.9943   1.4793 C.ar           1 S1                 0.0000
     10 ****        -4.8790   1.5739   0.1729 C.ar           1 S1                 0.0000
     11 ****        -4.5824   0.3163  -0.2211 N.pl3          1 S1                 1.0000
     12 ****         0.4034  -0.0787   0.3334 N.am           1 S1                 0.0000
     13 ****         1.3077  -1.1346   0.8129 C.3            1 S1                 0.0000
     14 ****         2.5447  -1.1745  -0.1008 C.3            1 S1                 0.0000
     15 ****         3.2725   0.1941  -0.1535 C.3            1 S1                 0.0000
     16 ****         4.4624   0.1637  -1.1513 C.3            1 S1                 0.0000
     17 ****         5.3690  -0.8424  -0.7379 O.3            1 S1                 0.0000
     18 ****         5.2631   1.4805  -1.2831 C.3            1 S1                 0.0000
     19 ****         6.3501   1.2732  -2.0280 F              1 S1                 0.0000
     20 ****         4.5388   2.4124  -1.9016 F              1 S1                 0.0000
     21 ****         5.6304   1.9400  -0.0865 F              1 S1                 0.0000
     22 ****         2.2532   1.3229  -0.4469 C.3            1 S1                 0.0000
     23 ****         1.0230   1.2422   0.4754 C.3            1 S1                 0.0000
     24 ****        -0.6945  -2.2086   0.1794 H              1 S1                 0.0000
     25 ****        -2.6933  -1.3823  -1.8376 H              1 S1                 0.0000
     26 ****        -2.3052  -2.9946  -1.3037 H              1 S1                 0.0000
     27 ****        -4.5534  -2.3357  -0.4881 H              1 S1                 0.0000
     28 ****        -3.4771  -2.6472   0.8461 H              1 S1                 0.0000
     29 ****        -3.1441  -0.9210   2.5630 H              1 S1                 0.0000
     30 ****        -3.6689   1.3883   3.3604 H              1 S1                 0.0000
     31 ****        -4.7873   2.9986   1.8036 H              1 S1                 0.0000
     32 ****        -5.3576   2.2017  -0.5643 H              1 S1                 0.0000
     33 ****         1.6095  -0.9129   1.8374 H              1 S1                 0.0000
     34 ****         0.8508  -2.1231   0.8555 H              1 S1                 0.0000
     35 ****         3.2220  -1.9516   0.2537 H              1 S1                 0.0000
     36 ****         2.2396  -1.4689  -1.1059 H              1 S1                 0.0000
     37 ****         3.6768   0.3832   0.8422 H              1 S1                 0.0000
     38 ****         4.0960  -0.1189  -2.1391 H              1 S1                 0.0000
     39 ****         6.0867  -0.8679  -1.3524 H              1 S1                 0.0000
     40 ****         2.7182   2.2983  -0.3096 H              1 S1                 0.0000
     41 ****         1.9314   1.2711  -1.4881 H              1 S1                 0.0000
     42 ****         0.3323   2.0560   0.2499 H              1 S1                 0.0000
     43 ****         1.3228   1.3925   1.5136 H              1 S1                 0.0000
     44 ****        -4.8171   0.0367  -1.1739 H              1 S1                 0.0000
     45 ****        -2.2104   0.4710  -1.3962 LP             1 S1                 0.0000
     46 ****        -0.9516   1.5723  -0.9460 LP             1 S1                 0.0000
     47 ****         4.9060  -1.7286  -0.7224 LP             1 S1                 0.0000
     48 ****         5.7145  -0.6307   0.1764 LP             1 S1                 0.0000
@<TRIPOS>BOND
    1    1    2 2     
    2    2    3 am    
    3    2   12 am    
    4    3    4 1     
    5    3   24 1     
    6    4    5 1     
    7    4   25 1     
    8    4   26 1     
    9    5    6 1     
   10    5   27 1     
   11    5   28 1     
   12    6   11 ar    
   13    6    7 ar    
   14    7    8 ar    
   15    7   29 1     
   16    8    9 ar    
   17    8   30 1     
   18    9   10 ar    
   19    9   31 1     
   20   10   11 ar    
   21   10   32 1     
   22   11   44 1     
   23   12   23 1     
   24   12   13 1     
   25   13   14 1     
   26   13   33 1     
   27   13   34 1     
   28   14   15 1     
   29   14   35 1     
   30   14   36 1     
   31   15   16 1     
   32   15   22 1     
   33   15   37 1     
   34   16   17 1     
   35   16   18 1     
   36   16   38 1     
   37   17   39 1     
   38   18   19 1     
   39   18   20 1     
   40   18   21 1     
   41   22   23 1     
   42   22   40 1     
   43   22   41 1     
   44   23   42 1     
   45   23   43 1     
   46    1   45 1     
   47    1   46 1     
   48   17   47 1     
   49   17   48 1     
@<TRIPOS>SUBSTRUCTURE
      1 S1             1
@<TRIPOS>SET
LONE_PAIRS      STATIC     ATOMS    <user>   **** ""
4 45 46 47 48
DONOR_HYDROGENS      STATIC     ATOMS    <user>   **** ""
3 24 44 39
ATOM$BLUE        STATIC     ATOMS    COLORGROUP SYSTEM
4 45 46 47 48
ATOM$RED        STATIC     ATOMS    COLORGROUP SYSTEM
3 24 44 39
