#       Name:                AV-unprocessed.smi:3236
#       Creating user name   scv26
#       Creation time:       Fri Mar 27 18:22:25 2020


#       File generated by GOLD software.
#

@<TRIPOS>MOLECULE
AV-unprocessed.smi:3236
    44    45     1
SMALL
NO_CHARGES


@<TRIPOS>ATOM
      1 ****        -4.3362   0.5389   3.4670 C.3            1 S1                 0.0000
      2 ****        -3.8615   0.6774   2.0140 C.3            1 S1                 0.0000
      3 ****        -3.1257  -0.5906   1.5297 C.3            1 S1                 0.0000
      4 ****        -2.5705  -0.4021   0.1064 C.3            1 S1                 0.0000
      5 ****        -1.6872   0.7720   0.0957 N.am           1 S1                 0.0000
      6 ****        -0.3392   0.7448  -0.0457 C.2            1 S1                 0.0000
      7 ****         0.3461   1.7681   0.0131 O.2            1 S1                 0.0000
      8 ****         0.3572  -0.6071  -0.2796 C.3            1 S1                 0.0000
      9 ****         1.8157  -0.4921  -0.4017 N.3            1 S1                 0.0000
     10 ****         2.4199  -1.7916  -0.6588 C.3            1 S1                 0.0000
     11 ****         3.9432  -1.6494  -0.8162 C.3            1 S1                 0.0000
     12 ****         4.3112  -0.9159  -2.0142 N.pl3          1 S1                 0.0000
     13 ****         4.7079   0.4001  -2.1249 C.2            1 S1                 0.0000
     14 ****         4.9443   0.6431  -3.4476 C.2            1 S1                 0.0000
     15 ****         4.6604  -0.6016  -4.0759 C.2            1 S1                 0.0000
     16 ****         4.2837  -1.5338  -3.2152 N.2            1 S1                 0.0000
     17 ****        -2.4300   2.0060   0.3825 C.3            1 S1                 0.0000
     18 ****        -2.9839   1.9320   1.8171 C.3            1 S1                 0.0000
     19 ****        -3.4948   0.4138   4.1491 H              1 S1                 0.0000
     20 ****        -4.9919  -0.3241   3.5849 H              1 S1                 0.0000
     21 ****        -4.8932   1.4211   3.7835 H              1 S1                 0.0000
     22 ****        -4.7484   0.7984   1.3903 H              1 S1                 0.0000
     23 ****        -2.3048  -0.8253   2.2090 H              1 S1                 0.0000
     24 ****        -3.8011  -1.4464   1.5528 H              1 S1                 0.0000
     25 ****        -2.0884  -1.3201  -0.2249 H              1 S1                 0.0000
     26 ****        -3.3908  -0.2385  -0.5940 H              1 S1                 0.0000
     27 ****         0.1200  -1.2754   0.5496 H              1 S1                 0.0000
     28 ****        -0.0409  -1.0497  -1.1939 H              1 S1                 0.0000
     29 ****         2.2244  -0.0895   0.4296 H              1 S1                 0.0000
     30 ****         2.2025  -2.4593   0.1760 H              1 S1                 0.0000
     31 ****         1.9876  -2.2423  -1.5535 H              1 S1                 0.0000
     32 ****         4.3753  -1.1482   0.0510 H              1 S1                 0.0000
     33 ****         4.4045  -2.6367  -0.8649 H              1 S1                 0.0000
     34 ****         4.7844   1.0471  -1.2635 H              1 S1                 0.0000
     35 ****         5.2681   1.5695  -3.8976 H              1 S1                 0.0000
     36 ****         4.7164  -0.8533  -5.1247 H              1 S1                 0.0000
     37 ****        -1.8227   2.9047   0.2674 H              1 S1                 0.0000
     38 ****        -3.2484   2.1091  -0.3314 H              1 S1                 0.0000
     39 ****        -3.5609   2.8309   2.0369 H              1 S1                 0.0000
     40 ****        -2.1528   1.9172   2.5241 H              1 S1                 0.0000
     41 ****        -0.0906   2.6540   0.1694 LP             1 S1                 0.0000
     42 ****         1.3386   1.7121  -0.0956 LP             1 S1                 0.0000
     43 ****         2.0000   0.1145  -1.1751 LP             1 S1                 0.0000
     44 ****         4.0347  -2.4825  -3.4102 LP             1 S1                 0.0000
@<TRIPOS>BOND
    1    1    2 1     
    2    1   19 1     
    3    1   20 1     
    4    1   21 1     
    5    2   18 1     
    6    2    3 1     
    7    2   22 1     
    8    3    4 1     
    9    3   23 1     
   10    3   24 1     
   11    4    5 1     
   12    4   25 1     
   13    4   26 1     
   14    5    6 am    
   15    5   17 1     
   16    6    7 2     
   17    6    8 1     
   18    8    9 1     
   19    8   27 1     
   20    8   28 1     
   21    9   10 1     
   22    9   29 1     
   23   10   11 1     
   24   10   30 1     
   25   10   31 1     
   26   11   12 1     
   27   11   32 1     
   28   11   33 1     
   29   12   16 1     
   30   12   13 1     
   31   13   14 2     
   32   13   34 1     
   33   14   15 1     
   34   14   35 1     
   35   15   16 2     
   36   15   36 1     
   37   17   18 1     
   38   17   37 1     
   39   17   38 1     
   40   18   39 1     
   41   18   40 1     
   42    7   41 1     
   43    7   42 1     
   44    9   43 1     
   45   16   44 1     
@<TRIPOS>SUBSTRUCTURE
      1 S1             1
@<TRIPOS>SET
LONE_PAIRS      STATIC     ATOMS    <user>   **** ""
4 41 42 43 44
DONOR_HYDROGENS      STATIC     ATOMS    <user>   **** ""
1 29
ATOM$BLUE        STATIC     ATOMS    COLORGROUP SYSTEM
4 41 42 43 44
ATOM$RED        STATIC     ATOMS    COLORGROUP SYSTEM
1 29
