AV-unprocessed.smi:2492|AV-procd|sdf|9816|dock2
  -GOLD-   2272013443D 1   1.00000     0.00000
 Structure written by MMmdl.
 32 33  0  0  0  0  0  0  0  0  2 V2000
  144.6789  132.9876  151.1436 C   0  0  0  0  0  0  0  0  0  0  0  0
  145.1907  134.4255  152.1205 S   0  0  0  0  0  0  0  0  0  0  0  0
  146.4130  133.6526  153.2200 C   0  0  1  0  0  0  0  0  0  0  0  0
  147.6015  133.0491  152.4738 C   0  0  0  0  0  0  0  0  0  0  0  0
  148.6861  132.9207  153.5440 C   0  0  0  0  0  0  0  0  0  0  0  0
  148.4405  134.0698  154.5392 C   0  0  1  0  0  0  0  0  0  0  0  0
  149.4993  135.0719  154.4384 N   0  0  0  0  0  0  0  0  0  0  0  0
  150.4814  135.2678  155.3302 C   0  0  0  0  0  0  0  0  0  0  0  0
  150.5418  134.5651  156.3420 O   0  0  0  0  0  0  0  0  0  0  0  0
  151.3293  136.2669  154.9959 N   0  5  0  0  0  0  0  0  0  0  0  0
  150.8455  137.4757  154.6661 C   0  0  0  0  0  0  0  0  0  0  0  0
  149.5605  137.7838  154.4854 N   0  0  0  0  0  0  0  0  0  0  0  0
  149.6300  139.1089  154.1877 C   0  0  0  0  0  0  0  0  0  0  0  0
  148.4262  139.9372  153.8949 C   0  0  0  0  0  0  0  0  0  0  0  0
  150.8450  139.6362  154.1807 N   0  0  0  0  0  0  0  0  0  0  0  0
  151.6654  138.5472  154.5057 O   0  0  0  0  0  0  0  0  0  0  0  0
  147.0582  134.6549  154.1811 C   0  0  0  0  0  0  0  0  0  0  0  0
  143.8913  133.2706  150.4455 H   0  0  0  0  0  0  0  0  0  0  0  0
  144.2975  132.2005  151.7940 H   0  0  0  0  0  0  0  0  0  0  0  0
  145.5185  132.5928  150.5719 H   0  0  0  0  0  0  0  0  0  0  0  0
  145.9205  132.8732  153.8032 H   0  0  0  0  0  0  0  0  0  0  0  0
  147.3668  132.0934  152.0050 H   0  0  0  0  0  0  0  0  0  0  0  0
  147.9386  133.7320  151.6926 H   0  0  0  0  0  0  0  0  0  0  0  0
  148.5683  131.9676  154.0615 H   0  0  0  0  0  0  0  0  0  0  0  0
  149.6879  132.9278  153.1121 H   0  0  0  0  0  0  0  0  0  0  0  0
  148.4260  133.6601  155.5509 H   0  0  0  0  0  0  0  0  0  0  0  0
  149.4863  135.6691  153.6248 H   0  0  0  0  0  0  0  0  0  0  0  0
  148.0709  140.4172  154.8067 H   0  0  0  0  0  0  0  0  0  0  0  0
  147.6242  139.3172  153.4935 H   0  0  0  0  0  0  0  0  0  0  0  0
  148.6607  140.7108  153.1632 H   0  0  0  0  0  0  0  0  0  0  0  0
  147.1743  135.6168  153.6785 H   0  0  0  0  0  0  0  0  0  0  0  0
  146.4447  134.8280  155.0658 H   0  0  0  0  0  0  0  0  0  0  0  0
  1  2  1  0  0  0  0
  1 18  1  0  0  0  0
  1 19  1  0  0  0  0
  1 20  1  0  0  0  0
  2  3  1  0  0  0  0
  3 17  1  0  0  0  0
  3  4  1  0  0  0  0
  3 21  1  0  0  0  0
  4  5  1  0  0  0  0
  4 22  1  0  0  0  0
  4 23  1  0  0  0  0
  5  6  1  0  0  0  0
  5 24  1  0  0  0  0
  5 25  1  0  0  0  0
  6  7  1  0  0  0  0
  6 17  1  0  0  0  0
  6 26  1  0  0  0  0
  7  8  1  0  0  0  0
  7 27  1  0  0  0  0
  8  9  2  0  0  0  0
  8 10  1  0  0  0  0
 10 11  1  0  0  0  0
 11 16  1  0  0  0  0
 11 12  2  0  0  0  0
 12 13  1  0  0  0  0
 13 14  1  0  0  0  0
 13 15  2  0  0  0  0
 14 28  1  0  0  0  0
 14 29  1  0  0  0  0
 14 30  1  0  0  0  0
 15 16  1  0  0  0  0
 17 31  1  0  0  0  0
 17 32  1  0  0  0  0
M  CHG  1  10  -1
M  END
> <s_m_source_file>
AV-unprocessed.smi

> <i_m_source_file_index>
2492

> <i_lp_mmshare_version>
43012

> <i_f3d_flags>
0

> <s_epik_input>
W0NIM11TW0NAQEhdMVtDSDJdW0NIMl1bQ0BIXShbQ0gyXTEpW05IXUMoPU8pW05IXWMybmMoW0NIM10pbm8y

> <s_epik_cmdline>
J2VwaWtfcHl0aG9uJywgJy1waCcsICc3LjAnLCAnLXRuJywgJzgnLCAnLW1hJywgJzIwMCcsICctbWV0YWxfYmluZGluZycsICctaW1hZScsICc8aW5maWxlLm1hZT4nLCAnLW9tYWUnLCAnPG91dGZpbGUubWFlPic=

> <r_lp_tautomer_probability>
1

> <r_epik_Ionization_Penalty>
6.26454

> <r_epik_Ionization_Penalty_Charging>
6.26445

> <r_epik_Ionization_Penalty_Neutral>
9.05726e-05

> <r_epik_State_Penalty>
6.26444

> <r_epik_Charging_Adjusted_Penalty>
12.5289

> <i_epik_Tot_Q>
-1

> <i_epik_Tot_abs_Q>
1

> <r_epik_Metal_State_Penalty>
2.20125

> <b_epik_Metal_Only>
1

> <s_lp_Force_Field>
OPLS_2005

> <r_lp_Energy>
11.8534

> <b_lp_Chiralities_Consistent>
1

> <s_lp_Variant>
AV-unprocessed.smi:2492-6

> <Gold.Version>
5.8.1

> <Gold.Id.Protein>
6NUR|6NUR_protein|mol2

> <Gold.PLP.Fitness>
37.4223

> <Gold.PLP.PLP>
-26.6836

> <Gold.PLP.part.hbond>
-3.0000

> <Gold.PLP.part.metal>
0.0000

> <Gold.PLP.part.buried>
-4.7087

> <Gold.PLP.part.nonpolar>
-20.3451

> <Gold.PLP.part.repulsive>
0.5953

> <Gold.PLP.ligand.clash>
0.0000

> <Gold.PLP.ligand.torsion>
0.6510

> <Gold.PLP.Chemscore.Hbond>
4.0000

> <Gold.PLP.Chemscore.CHOScore>
0.0000

> <Gold.PLP.Chemscore.Metal>
0.0000

> <Gold.Chemscore.Hbonds>
donor molecule, donor type, donor heavy atom, donor atom, acceptor molecule, acceptor atom, score
      L1  H     7    27       P1  7948  1.00
      P1  H  7989  7998       L1    15  1.00
      P1  H 10752 10765       L1    10  2.00

> <Gold.PLP.Chemscore.Internal.Correction>
0.0407

> <Gold.Rescore>
     Score         DG    S(hbond)    S(metal)    S(lipo)     H(rot)  DE(clash)    DE(int)     intcor
     13.00     -14.99       2.55        0.00      36.28       1.27       0.09       1.90       ----

> <Gold.Chemscore.Fitness>
13.0019

> <Gold.Chemscore.DG>
-14.9949

> <Gold.Chemscore.ZeroCoef>
-5.4800

> <Gold.Chemscore.Hbond>
2.5521

> <Gold.Chemscore.Metal>
0.0000

> <Gold.Chemscore.Lipo>
36.2820

> <Gold.Chemscore.Internal_Hbond>
0.0000

> <Gold.Chemscore.DEClash>
0.0913

> <Gold.Chemscore.DEInternal>
1.9018

> <Gold.Chemscore.Rot>
1.2712

> <Gold.Chemscore.Internal.Correction>
   9.000000E+99

> <Gold.Chemscore.Hbonds>
donor molecule, donor type, donor heavy atom, donor atom, acceptor molecule, acceptor atom, score
      L1  H     7    27       P1  7948  0.30
      P1  H  7989  7998       L1    15  0.87
      P1  H 10752 10765       L1    10  0.74

> <Gold.Chemscore.Hbond.Weighted>
-8.5241

> <Gold.Chemscore.Metal.Weighted>
-0.0000

> <Gold.Chemscore.Lipo.Weighted>
-4.2450

> <Gold.Chemscore.Internal_Hbond.Weighted>
0.0000

> <Gold.Chemscore.DEClash.Weighted>
0.0913

> <Gold.Chemscore.DEInternal.Weighted>
1.9018

> <Gold.Chemscore.Rot.Weighted>
3.2542

> <Gold.Chemscore.Internal.Correction.Weighted>
   9.000000E+99

> <Gold.Protein.RotatedTorsions>
[ 6907 6896 6895 6894 ] final  121.28 input  -60.11 | X-H torsion
[ 7974 7965 7964 7962 ] final   81.92 input  175.53 | X-H torsion
[ 8008 7997 7996 7995 ] final -145.02 input   59.86 | X-H torsion
[ 10167 10162 10161 10158 ] final  -28.74 input  -65.29 | X-H torsion
[ 10718 10713 10712 10709 ] final  166.35 input   66.30 | X-H torsion
[ 10763 10752 10751 10750 ] final  177.62 input  -60.55 | X-H torsion
[ 11005 11000 10999 10996 ] final  136.69 input  -57.11 | X-H torsion

> <Gold.Protein.ActiveResidues>
 VAL166  LYS551  ARG553  GLY616  TRP617  ASP618  TYR619  PRO620  LYS621  CYS622 
 ASP623  PHE694  ASN695  SER759  ASP760  ASP761  ALA762  ILE779  LEU786  VAL792 
 PHE793  MET794  SER795  GLU796  ALA797  LYS798  CYS799  TRP800  GLU811  SER814 

> <Gold.Protein.RotatedAtoms>
  152.4334  133.7317  159.6590 H   0  0  0  0  0  0  0  0  0  0  0  0  # atno 6907 bound_to 6896
  150.8215  133.8234  159.3143 H   0  0  0  0  0  0  0  0  0  0  0  0  # atno 6908 bound_to 6896
  151.5915  135.1055  160.0091 H   0  0  0  0  0  0  0  0  0  0  0  0  # atno 6909 bound_to 6896
  145.6318  139.2406  143.2080 H   0  0  0  0  0  0  0  0  0  0  0  0  # atno 7974 bound_to 7965
  155.5364  140.0604  157.2879 H   0  0  0  0  0  0  0  0  0  0  0  0  # atno 8008 bound_to 7997
  154.4467  140.1927  156.0590 H   0  0  0  0  0  0  0  0  0  0  0  0  # atno 8009 bound_to 7997
  156.0616  140.3271  155.7472 H   0  0  0  0  0  0  0  0  0  0  0  0  # atno 8010 bound_to 7997
  140.7267  143.3985  151.1305 H   0  0  0  0  0  0  0  0  0  0  0  0  # atno 10167 bound_to 10162
  157.0671  131.0356  151.2625 H   0  0  0  0  0  0  0  0  0  0  0  0  # atno 10718 bound_to 10713
  154.4968  135.2781  155.1452 H   0  0  0  0  0  0  0  0  0  0  0  0  # atno 10763 bound_to 10752
  154.3102  135.6230  153.5466 H   0  0  0  0  0  0  0  0  0  0  0  0  # atno 10764 bound_to 10752
  152.9896  135.5718  154.5402 H   0  0  0  0  0  0  0  0  0  0  0  0  # atno 10765 bound_to 10752
  140.0063  134.9458  157.0182 H   0  0  0  0  0  0  0  0  0  0  0  0  # atno 11005 bound_to 11000
  146.1350  140.7134  142.9394 LP  0  0  0  0  0  0  0  0  0  0  0  0  # atno 17320 bound_to 7965
  144.7190  140.4311  143.7022 LP  0  0  0  0  0  0  0  0  0  0  0  0  # atno 17321 bound_to 7965
  139.7601  143.8647  152.3098 LP  0  0  0  0  0  0  0  0  0  0  0  0  # atno 17342 bound_to 10162
  139.8531  144.7155  150.9190 LP  0  0  0  0  0  0  0  0  0  0  0  0  # atno 17343 bound_to 10162
  157.4908  130.7821  149.7506 LP  0  0  0  0  0  0  0  0  0  0  0  0  # atno 17370 bound_to 10713
  155.9961  130.3908  150.2792 LP  0  0  0  0  0  0  0  0  0  0  0  0  # atno 17371 bound_to 10713
  140.4635  134.1459  155.7194 LP  0  0  0  0  0  0  0  0  0  0  0  0  # atno 17394 bound_to 11000
  141.1679  133.8666  157.1659 LP  0  0  0  0  0  0  0  0  0  0  0  0  # atno 17395 bound_to 11000

$$$$
