#       Name:                AV-unprocessed.smi:790
#       Creating user name   scv26
#       Creation time:       Fri Mar 27 01:17:51 2020


#       File generated by GOLD software.
#

@<TRIPOS>MOLECULE
AV-unprocessed.smi:790
    43    45     1
SMALL
NO_CHARGES


@<TRIPOS>ATOM
      1 ****        -0.3320   1.9418  -0.5976 O.2            1 S1                 0.0000
      2 ****        -0.8393   0.8216  -0.5533 C.2            1 S1                 0.0000
      3 ****        -2.1573   0.5604  -0.5679 N.am           1 S1                 0.0000
      4 ****        -3.2443   1.4728  -0.6436 C.ar           1 S1                 0.0000
      5 ****        -3.1425   2.8032  -1.1184 C.ar           1 S1                 0.0000
      6 ****        -4.3027   3.6005  -1.1591 C.ar           1 S1                 0.0000
      7 ****        -5.5208   3.0391  -0.7300 C.ar           1 S1                 0.0000
      8 ****        -5.6347   1.7696  -0.2868 N.ar           1 S1                 0.0000
      9 ****        -4.5187   1.0109  -0.2518 C.ar           1 S1                 0.0000
     10 ****        -0.1259  -0.3089  -0.4551 N.am           1 S1                 0.0000
     11 ****         1.3346  -0.3881  -0.4113 C.3            1 S1                 0.0000
     12 ****         1.8117  -1.7378  -0.9893 C.3            1 S1                 0.0000
     13 ****         3.3180  -1.6492  -1.2952 C.3            1 S1                 0.0000
     14 ****         3.9445  -1.6489   0.1123 C.3            1 S1                 0.0000
     15 ****         2.7136  -1.7363   1.0368 C.3            1 S1                 0.0000
     16 ****         1.7962  -2.6484   0.2326 C.3            1 S1                 0.0000
     17 ****         1.9584  -0.3842   1.0180 C.3            1 S1                 0.0000
     18 ****         0.9706  -0.2195   2.1960 C.3            1 S1                 0.0000
     19 ****         1.6696  -0.1474   3.4206 O.3            1 S1                 0.0000
     20 ****        -2.4170  -0.4084  -0.4530 H              1 S1                 0.0000
     21 ****        -2.2109   3.2233  -1.4631 H              1 S1                 0.0000
     22 ****        -4.2602   4.6189  -1.5159 H              1 S1                 0.0000
     23 ****        -6.4288   3.6233  -0.7485 H              1 S1                 0.0000
     24 ****        -4.6483  -0.0005   0.1052 H              1 S1                 0.0000
     25 ****        -0.6269  -1.1844  -0.4152 H              1 S1                 0.0000
     26 ****         1.7478   0.4286  -1.0064 H              1 S1                 0.0000
     27 ****         1.2230  -2.0922  -1.8366 H              1 S1                 0.0000
     28 ****         3.6512  -2.5194  -1.8623 H              1 S1                 0.0000
     29 ****         3.5767  -0.7579  -1.8682 H              1 S1                 0.0000
     30 ****         4.5885  -2.5193   0.2426 H              1 S1                 0.0000
     31 ****         4.5460  -0.7593   0.3018 H              1 S1                 0.0000
     32 ****         2.9572  -2.0989   2.0358 H              1 S1                 0.0000
     33 ****         0.8053  -2.7710   0.6720 H              1 S1                 0.0000
     34 ****         2.2244  -3.6345   0.0432 H              1 S1                 0.0000
     35 ****         2.6769   0.4345   1.0828 H              1 S1                 0.0000
     36 ****         0.3984   0.7023   2.0913 H              1 S1                 0.0000
     37 ****         0.2577  -1.0429   2.2404 H              1 S1                 0.0000
     38 ****         2.2407   0.6051   3.3956 H              1 S1                 0.0000
     39 ****        -0.9147   2.7529  -0.6494 LP             1 S1                 0.0000
     40 ****         0.6629   2.0411  -0.5817 LP             1 S1                 0.0000
     41 ****        -6.5176   1.4027   0.0064 LP             1 S1                 0.0000
     42 ****         2.2113  -0.9780   3.5493 LP             1 S1                 0.0000
     43 ****         1.0199  -0.0530   4.1750 LP             1 S1                 0.0000
@<TRIPOS>BOND
    1    1    2 2     
    2    2    3 am    
    3    2   10 am    
    4    3    4 1     
    5    3   20 1     
    6    4    9 ar    
    7    4    5 ar    
    8    5    6 ar    
    9    5   21 1     
   10    6    7 ar    
   11    6   22 1     
   12    7    8 ar    
   13    7   23 1     
   14    8    9 ar    
   15    9   24 1     
   16   10   11 1     
   17   10   25 1     
   18   11   17 1     
   19   11   12 1     
   20   11   26 1     
   21   12   16 1     
   22   12   13 1     
   23   12   27 1     
   24   13   14 1     
   25   13   28 1     
   26   13   29 1     
   27   14   15 1     
   28   14   30 1     
   29   14   31 1     
   30   15   16 1     
   31   15   17 1     
   32   15   32 1     
   33   16   33 1     
   34   16   34 1     
   35   17   18 1     
   36   17   35 1     
   37   18   19 1     
   38   18   36 1     
   39   18   37 1     
   40   19   38 1     
   41    1   39 1     
   42    1   40 1     
   43    8   41 1     
   44   19   42 1     
   45   19   43 1     
@<TRIPOS>SUBSTRUCTURE
      1 S1             1
@<TRIPOS>SET
LONE_PAIRS      STATIC     ATOMS    <user>   **** ""
5 39 40 41 42 43
DONOR_HYDROGENS      STATIC     ATOMS    <user>   **** ""
3 20 25 38
ATOM$BLUE        STATIC     ATOMS    COLORGROUP SYSTEM
5 39 40 41 42 43
ATOM$RED        STATIC     ATOMS    COLORGROUP SYSTEM
3 20 25 38
