AV-unprocessed.smi:1677|AV-procd|sdf|6725|dock3
  -GOLD-   22720 7473D 1   1.00000     0.00000
 Structure written by MMmdl.
 36 37  0  0  0  0  0  0  0  0  1 V2000
  149.3309  138.6526  156.5962 C   0  0  0  0  0  0  0  0  0  0  0  0
  150.5185  139.5123  156.1328 C   0  0  1  0  0  0  0  0  0  0  0  0
  150.3966  139.9778  154.6654 C   0  0  0  0  0  0  0  0  0  0  0  0
  149.0978  140.5494  154.3643 N   0  0  0  0  0  0  0  0  0  0  0  0
  148.1566  140.0581  153.4693 C   0  0  0  0  0  0  0  0  0  0  0  0
  147.0845  140.9205  153.5140 C   0  0  0  0  0  0  0  0  0  0  0  0
  147.3451  141.9465  154.4193 N   0  0  0  0  0  0  0  0  0  0  0  0
  148.5562  141.6616  154.8802 C   0  0  0  0  0  0  0  0  0  0  0  0
  150.6441  140.6675  157.0166 N   0  0  0  0  0  0  0  0  0  0  0  0
  151.7154  140.9602  157.7708 C   0  0  0  0  0  0  0  0  0  0  0  0
  152.7353  140.2705  157.7914 O   0  0  0  0  0  0  0  0  0  0  0  0
  151.6187  142.2251  158.6346 C   0  0  2  0  0  0  0  0  0  0  0  0
  151.5880  143.5015  157.7621 C   0  0  0  0  0  0  0  0  0  0  0  0
  151.7485  144.7648  158.5898 C   0  0  0  0  0  0  0  0  0  0  0  0
  152.2031  144.7672  159.8547 C   0  0  0  0  0  0  0  0  0  0  0  0
  152.6123  143.5079  160.5979 C   0  0  0  0  0  0  0  0  0  0  0  0
  152.7715  142.2992  159.6559 C   0  0  0  0  0  0  0  0  0  0  0  0
  149.2578  137.7280  156.0233 H   0  0  0  0  0  0  0  0  0  0  0  0
  148.3878  139.1887  156.4859 H   0  0  0  0  0  0  0  0  0  0  0  0
  149.4351  138.3736  157.6451 H   0  0  0  0  0  0  0  0  0  0  0  0
  151.4180  138.9009  156.2297 H   0  0  0  0  0  0  0  0  0  0  0  0
  151.1635  140.7203  154.4391 H   0  0  0  0  0  0  0  0  0  0  0  0
  150.5616  139.1418  153.9845 H   0  0  0  0  0  0  0  0  0  0  0  0
  148.3230  139.1592  152.8939 H   0  0  0  0  0  0  0  0  0  0  0  0
  146.1537  140.8825  152.9673 H   0  0  0  0  0  0  0  0  0  0  0  0
  149.0579  142.2738  155.6153 H   0  0  0  0  0  0  0  0  0  0  0  0
  149.8514  141.2910  157.0631 H   0  0  0  0  0  0  0  0  0  0  0  0
  150.6838  142.1809  159.1971 H   0  0  0  0  0  0  0  0  0  0  0  0
  152.3802  143.4905  157.0122 H   0  0  0  0  0  0  0  0  0  0  0  0
  150.6416  143.5574  157.2229 H   0  0  0  0  0  0  0  0  0  0  0  0
  151.4897  145.6977  158.1107 H   0  0  0  0  0  0  0  0  0  0  0  0
  152.2821  145.6989  160.3955 H   0  0  0  0  0  0  0  0  0  0  0  0
  153.5469  143.6903  161.1287 H   0  0  0  0  0  0  0  0  0  0  0  0
  151.8533  143.2998  161.3526 H   0  0  0  0  0  0  0  0  0  0  0  0
  152.8280  141.3825  160.2443 H   0  0  0  0  0  0  0  0  0  0  0  0
  153.7222  142.3828  159.1267 H   0  0  0  0  0  0  0  0  0  0  0  0
  1  2  1  0  0  0  0
  1 18  1  0  0  0  0
  1 19  1  0  0  0  0
  1 20  1  0  0  0  0
  2  3  1  0  0  0  0
  2  9  1  0  0  0  0
  2 21  1  0  0  0  0
  3  4  1  0  0  0  0
  3 22  1  0  0  0  0
  3 23  1  0  0  0  0
  4  8  1  0  0  0  0
  4  5  1  0  0  0  0
  5  6  2  0  0  0  0
  5 24  1  0  0  0  0
  6  7  1  0  0  0  0
  6 25  1  0  0  0  0
  7  8  2  0  0  0  0
  8 26  1  0  0  0  0
  9 10  1  0  0  0  0
  9 27  1  0  0  0  0
 10 11  2  0  0  0  0
 10 12  1  0  0  0  0
 12 17  1  0  0  0  0
 12 13  1  0  0  0  0
 12 28  1  0  0  0  0
 13 14  1  0  0  0  0
 13 29  1  0  0  0  0
 13 30  1  0  0  0  0
 14 15  2  0  0  0  0
 14 31  1  0  0  0  0
 15 16  1  0  0  0  0
 15 32  1  0  0  0  0
 16 17  1  0  0  0  0
 16 33  1  0  0  0  0
 16 34  1  0  0  0  0
 17 35  1  0  0  0  0
 17 36  1  0  0  0  0
M  END
> <s_m_source_file>
AV-unprocessed.smi

> <i_m_source_file_index>
1677

> <i_lp_mmshare_version>
43012

> <i_f3d_flags>
0

> <s_epik_input>
W2NIXTFuW2NIXVtjSF1uMVtDSDJdW0NAQEhdKFtDSDNdKVtOSF1DKD1PKVtDQEBIXTJbQ0gyXVtDSF09W0NIXVtDSDJdW0NIMl0y

> <s_epik_cmdline>
J2VwaWtfcHl0aG9uJywgJy1waCcsICc3LjAnLCAnLXRuJywgJzgnLCAnLW1hJywgJzIwMCcsICctbWV0YWxfYmluZGluZycsICctaW1hZScsICc8aW5maWxlLm1hZT4nLCAnLW9tYWUnLCAnPG91dGZpbGUubWFlPic=

> <r_lp_tautomer_probability>
1

> <r_epik_Ionization_Penalty>
0.640435

> <r_epik_Ionization_Penalty_Charging>
0.640435

> <r_epik_Ionization_Penalty_Neutral>
2.11108e-08

> <r_epik_State_Penalty>
0.658069

> <r_epik_Charging_Adjusted_Penalty>
1.2985

> <i_epik_Tot_Q>
0

> <i_epik_Tot_abs_Q>
0

> <r_epik_Metal_State_Penalty>
0.311689

> <b_epik_Metal_Only>
0

> <s_lp_Force_Field>
OPLS_2005

> <r_lp_Energy>
10.0444

> <b_lp_Chiralities_Consistent>
1

> <s_lp_Variant>
AV-unprocessed.smi:1677-6

> <Gold.Version>
5.8.1

> <Gold.Id.Protein>
6NUR|6NUR_protein|mol2

> <Gold.PLP.Fitness>
44.9898

> <Gold.PLP.PLP>
-35.8356

> <Gold.PLP.part.hbond>
-1.0000

> <Gold.PLP.part.metal>
0.0000

> <Gold.PLP.part.buried>
0.4133

> <Gold.PLP.part.nonpolar>
-35.1816

> <Gold.PLP.part.repulsive>
0.1844

> <Gold.PLP.ligand.clash>
0.0000

> <Gold.PLP.ligand.torsion>
0.2866

> <Gold.PLP.Chemscore.Hbond>
0.9920

> <Gold.PLP.Chemscore.CHOScore>
2.2349

> <Gold.PLP.Chemscore.Metal>
0.0000

> <Gold.Chemscore.Hbonds>
donor molecule, donor type, donor heavy atom, donor atom, acceptor molecule, acceptor atom, score
      P1  H  7997  8009       L1    11  0.96
      L1  C     5    24       P1  7957  0.41
      L1  C     6    25       P1 10175  0.97
      L1  C     8    26       P1  8028  0.85

> <Gold.PLP.Chemscore.Internal.Correction>
0.0468

> <Gold.Rescore>
     Score         DG    S(hbond)    S(metal)    S(lipo)     H(rot)  DE(clash)    DE(int)     intcor
     15.09     -15.36       0.93        0.00      95.98       1.75       0.11       0.16       ----

> <Gold.Chemscore.Fitness>
15.0866

> <Gold.Chemscore.DG>
-15.3561

> <Gold.Chemscore.ZeroCoef>
-5.4800

> <Gold.Chemscore.Hbond>
0.9342

> <Gold.Chemscore.Metal>
0.0000

> <Gold.Chemscore.Lipo>
95.9772

> <Gold.Chemscore.Internal_Hbond>
0.0000

> <Gold.Chemscore.DEClash>
0.1087

> <Gold.Chemscore.DEInternal>
0.1608

> <Gold.Chemscore.Rot>
1.7475

> <Gold.Chemscore.Internal.Correction>
   9.000000E+99

> <Gold.Chemscore.Hbonds>
donor molecule, donor type, donor heavy atom, donor atom, acceptor molecule, acceptor atom, score
      P1  H  7997  8009       L1    11  0.90

> <Gold.Chemscore.Hbond.Weighted>
-3.1203

> <Gold.Chemscore.Metal.Weighted>
-0.0000

> <Gold.Chemscore.Lipo.Weighted>
-11.2293

> <Gold.Chemscore.Internal_Hbond.Weighted>
0.0000

> <Gold.Chemscore.DEClash.Weighted>
0.1087

> <Gold.Chemscore.DEInternal.Weighted>
0.1608

> <Gold.Chemscore.Rot.Weighted>
4.4735

> <Gold.Chemscore.Internal.Correction.Weighted>
   9.000000E+99

> <Gold.Protein.RotatedTorsions>
[ 6907 6896 6895 6894 ] final   32.69 input  -60.11 | X-H torsion
[ 7974 7965 7964 7962 ] final -128.67 input  175.53 | X-H torsion
[ 8008 7997 7996 7995 ] final  168.78 input   59.86 | X-H torsion
[ 10167 10162 10161 10158 ] final  105.05 input  -65.29 | X-H torsion
[ 10718 10713 10712 10709 ] final  134.75 input   66.30 | X-H torsion
[ 10763 10752 10751 10750 ] final  152.82 input  -60.55 | X-H torsion
[ 11005 11000 10999 10996 ] final  -55.06 input  -57.11 | X-H torsion

> <Gold.Protein.ActiveResidues>
 VAL166  LYS551  ARG553  GLY616  TRP617  ASP618  TYR619  PRO620  LYS621  CYS622 
 ASP623  PHE694  ASN695  SER759  ASP760  ASP761  ALA762  ILE779  LEU786  VAL792 
 PHE793  MET794  SER795  GLU796  ALA797  LYS798  CYS799  TRP800  GLU811  SER814 

> <Gold.Protein.RotatedAtoms>
  152.0781  134.9489  160.0573 H   0  0  0  0  0  0  0  0  0  0  0  0  # atno 6907 bound_to 6896
  152.0789  133.4138  159.4500 H   0  0  0  0  0  0  0  0  0  0  0  0  # atno 6908 bound_to 6896
  150.6836  134.2925  159.4716 H   0  0  0  0  0  0  0  0  0  0  0  0  # atno 6909 bound_to 6896
  144.9648  140.7484  143.4707 H   0  0  0  0  0  0  0  0  0  0  0  0  # atno 7974 bound_to 7965
  156.1516  140.1581  156.8760 H   0  0  0  0  0  0  0  0  0  0  0  0  # atno 8008 bound_to 7997
  154.5076  140.0809  156.7963 H   0  0  0  0  0  0  0  0  0  0  0  0  # atno 8009 bound_to 7997
  155.3884  140.3408  155.4252 H   0  0  0  0  0  0  0  0  0  0  0  0  # atno 8010 bound_to 7997
  139.7126  144.7074  151.1003 H   0  0  0  0  0  0  0  0  0  0  0  0  # atno 10167 bound_to 10162
  157.4641  131.1075  150.9883 H   0  0  0  0  0  0  0  0  0  0  0  0  # atno 10718 bound_to 10713
  154.1262  135.2829  155.3196 H   0  0  0  0  0  0  0  0  0  0  0  0  # atno 10763 bound_to 10752
  154.6388  135.5410  153.7768 H   0  0  0  0  0  0  0  0  0  0  0  0  # atno 10764 bound_to 10752
  153.0296  135.6481  154.1414 H   0  0  0  0  0  0  0  0  0  0  0  0  # atno 10765 bound_to 10752
  141.1056  133.6613  156.4414 H   0  0  0  0  0  0  0  0  0  0  0  0  # atno 11005 bound_to 11000
  145.2646  139.1978  143.4873 LP  0  0  0  0  0  0  0  0  0  0  0  0  # atno 17320 bound_to 7965
  146.3364  140.2582  142.8601 LP  0  0  0  0  0  0  0  0  0  0  0  0  # atno 17321 bound_to 7965
  140.7736  143.5273  150.9465 LP  0  0  0  0  0  0  0  0  0  0  0  0  # atno 17342 bound_to 10162
  139.8958  143.6897  152.3139 LP  0  0  0  0  0  0  0  0  0  0  0  0  # atno 17343 bound_to 10162
  157.0671  130.5849  149.5396 LP  0  0  0  0  0  0  0  0  0  0  0  0  # atno 17370 bound_to 10713
  156.0042  130.5126  150.7772 LP  0  0  0  0  0  0  0  0  0  0  0  0  # atno 17371 bound_to 10713
  140.4911  134.6575  157.5211 LP  0  0  0  0  0  0  0  0  0  0  0  0  # atno 17394 bound_to 11000
  139.9925  134.6963  155.9665 LP  0  0  0  0  0  0  0  0  0  0  0  0  # atno 17395 bound_to 11000

$$$$
