AV-unprocessed.smi:2237|AV-procd|sdf|9047|dock1
  -GOLD-   2272012253D 1   1.00000     0.00000
 Structure written by MMmdl.
 55 57  0  0  0  0  0  0  0  0  3 V2000
  153.1676  142.1914  161.2099 C   0  0  0  0  0  0  0  0  0  0  0  0
  152.3645  143.2143  160.4344 C   0  0  0  0  0  0  0  0  0  0  0  0
  152.3101  144.5596  160.8487 C   0  0  0  0  0  0  0  0  0  0  0  0
  151.5450  145.4581  160.0841 C   0  0  0  0  0  0  0  0  0  0  0  0
  150.8710  144.9785  158.9444 C   0  0  0  0  0  0  0  0  0  0  0  0
  150.9783  143.6129  158.5968 C   0  0  0  0  0  0  0  0  0  0  0  0
  150.2658  143.2300  157.4290 N   0  0  0  0  0  0  0  0  0  0  0  0
  150.4676  142.1528  156.6495 C   0  0  0  0  0  0  0  0  0  0  0  0
  151.3183  141.2833  156.8404 O   0  0  0  0  0  0  0  0  0  0  0  0
  149.6141  142.1323  155.6146 N   0  0  0  0  0  0  0  0  0  0  0  0
  149.5899  141.1110  154.5711 C   0  0  2  0  0  0  0  0  0  0  0  0
  148.2500  141.1610  153.8175 C   0  0  0  0  0  0  0  0  0  0  0  0
  148.1722  140.0312  152.7741 C   0  0  0  0  0  0  0  0  0  0  0  0
  148.3264  138.6870  153.4018 N   0  3  2  0  0  0  0  0  0  0  0  0
  147.1645  138.1972  154.2201 C   0  0  2  0  0  0  0  0  0  0  0  0
  147.4645  136.8128  154.8473 C   0  0  0  0  0  0  0  0  0  0  0  0
  146.2749  136.2627  155.6526 C   0  0  0  0  0  0  0  0  0  0  0  0
  145.0577  136.1735  154.8135 N   0  3  1  0  0  0  0  0  0  0  0  0
  143.9271  135.5373  155.5236 C   0  0  0  0  0  0  0  0  0  0  0  0
  144.6969  137.4913  154.2421 C   0  0  0  0  0  0  0  0  0  0  0  0
  145.8512  138.0704  153.4064 C   0  0  0  0  0  0  0  0  0  0  0  0
  149.6481  138.6103  154.0904 C   0  0  0  0  0  0  0  0  0  0  0  0
  149.8133  139.7055  155.1637 C   0  0  0  0  0  0  0  0  0  0  0  0
  151.7179  142.7539  159.3418 N   0  0  0  0  0  0  0  0  0  0  0  0
  153.7257  142.6590  162.0215 H   0  0  0  0  0  0  0  0  0  0  0  0
  153.8797  141.6899  160.5538 H   0  0  0  0  0  0  0  0  0  0  0  0
  152.5067  141.4383  161.6400 H   0  0  0  0  0  0  0  0  0  0  0  0
  152.8394  144.8967  161.7279 H   0  0  0  0  0  0  0  0  0  0  0  0
  151.4760  146.4984  160.3657 H   0  0  0  0  0  0  0  0  0  0  0  0
  150.2799  145.6563  158.3459 H   0  0  0  0  0  0  0  0  0  0  0  0
  149.5248  143.8557  157.1503 H   0  0  0  0  0  0  0  0  0  0  0  0
  148.9486  142.8871  155.5333 H   0  0  0  0  0  0  0  0  0  0  0  0
  150.3863  141.3203  153.8538 H   0  0  0  0  0  0  0  0  0  0  0  0
  147.4174  141.0823  154.5178 H   0  0  0  0  0  0  0  0  0  0  0  0
  148.1425  142.1257  153.3200 H   0  0  0  0  0  0  0  0  0  0  0  0
  147.2667  140.1058  152.1748 H   0  0  0  0  0  0  0  0  0  0  0  0
  148.9831  140.1616  152.0557 H   0  0  0  0  0  0  0  0  0  0  0  0
  146.9786  138.9088  155.0247 H   0  0  0  0  0  0  0  0  0  0  0  0
  147.7293  136.1027  154.0623 H   0  0  0  0  0  0  0  0  0  0  0  0
  148.3184  136.8580  155.5208 H   0  0  0  0  0  0  0  0  0  0  0  0
  146.5239  135.2730  156.0383 H   0  0  0  0  0  0  0  0  0  0  0  0
  146.0791  136.8995  156.5170 H   0  0  0  0  0  0  0  0  0  0  0  0
  143.6200  136.1315  156.3853 H   0  0  0  0  0  0  0  0  0  0  0  0
  144.2036  134.5425  155.8749 H   0  0  0  0  0  0  0  0  0  0  0  0
  143.0684  135.4274  154.8602 H   0  0  0  0  0  0  0  0  0  0  0  0
  143.8116  137.3858  153.6137 H   0  0  0  0  0  0  0  0  0  0  0  0
  144.4338  138.1800  155.0471 H   0  0  0  0  0  0  0  0  0  0  0  0
  145.5237  139.0441  153.0430 H   0  0  0  0  0  0  0  0  0  0  0  0
  146.0154  137.4434  152.5287 H   0  0  0  0  0  0  0  0  0  0  0  0
  149.8293  137.6282  154.5213 H   0  0  0  0  0  0  0  0  0  0  0  0
  150.4276  138.7354  153.3376 H   0  0  0  0  0  0  0  0  0  0  0  0
  150.8134  139.6386  155.5942 H   0  0  0  0  0  0  0  0  0  0  0  0
  149.1216  139.5313  155.9881 H   0  0  0  0  0  0  0  0  0  0  0  0
  148.3839  138.0428  152.6255 H   0  0  0  0  0  0  0  0  0  0  0  0
  145.2815  135.5683  154.0360 H   0  0  0  0  0  0  0  0  0  0  0  0
  1  2  1  0  0  0  0
  1 25  1  0  0  0  0
  1 26  1  0  0  0  0
  1 27  1  0  0  0  0
  2 24  1  0  0  0  0
  2  3  2  0  0  0  0
  3  4  1  0  0  0  0
  3 28  1  0  0  0  0
  4  5  2  0  0  0  0
  4 29  1  0  0  0  0
  5  6  1  0  0  0  0
  5 30  1  0  0  0  0
  6  7  1  0  0  0  0
  6 24  2  0  0  0  0
  7  8  1  0  0  0  0
  7 31  1  0  0  0  0
  8  9  2  0  0  0  0
  8 10  1  0  0  0  0
 10 11  1  0  0  0  0
 10 32  1  0  0  0  0
 11 23  1  0  0  0  0
 11 12  1  0  0  0  0
 11 33  1  0  0  0  0
 12 13  1  0  0  0  0
 12 34  1  0  0  0  0
 12 35  1  0  0  0  0
 13 14  1  0  0  0  0
 13 36  1  0  0  0  0
 13 37  1  0  0  0  0
 14 15  1  0  0  0  0
 14 22  1  0  0  0  0
 14 54  1  0  0  0  0
 15 21  1  0  0  0  0
 15 16  1  0  0  0  0
 15 38  1  0  0  0  0
 16 17  1  0  0  0  0
 16 39  1  0  0  0  0
 16 40  1  0  0  0  0
 17 18  1  0  0  0  0
 17 41  1  0  0  0  0
 17 42  1  0  0  0  0
 18 19  1  0  0  0  0
 18 20  1  0  0  0  0
 18 55  1  0  0  0  0
 19 43  1  0  0  0  0
 19 44  1  0  0  0  0
 19 45  1  0  0  0  0
 20 21  1  0  0  0  0
 20 46  1  0  0  0  0
 20 47  1  0  0  0  0
 21 48  1  0  0  0  0
 21 49  1  0  0  0  0
 22 23  1  0  0  0  0
 22 50  1  0  0  0  0
 22 51  1  0  0  0  0
 23 52  1  0  0  0  0
 23 53  1  0  0  0  0
M  CHG  1  14   1
M  CHG  1  18   1
M  END
> <s_m_source_file>
AV-unprocessed.smi

> <i_m_source_file_index>
2237

> <i_lp_mmshare_version>
43012

> <i_f3d_flags>
0

> <s_epik_input>
W0NIM11jMVtjSF1bY0hdW2NIXWMobjEpW05IXUMoPU8pW05IXVtDSF0yW0NIMl1bQ0gyXU4oW0NIMl1bQ0gyXTIpW0NIXTNbQ0gyXVtDSDJdTihbQ0gzXSlbQ0gyXVtDSDJdMw==

> <s_epik_cmdline>
J2VwaWtfcHl0aG9uJywgJy1waCcsICc3LjAnLCAnLXRuJywgJzgnLCAnLW1hJywgJzIwMCcsICctbWV0YWxfYmluZGluZycsICctaW1hZScsICc8aW5maWxlLm1hZT4nLCAnLW9tYWUnLCAnPG91dGZpbGUubWFlPic=

> <r_epik_Ionization_Penalty>
0.180851

> <r_epik_Ionization_Penalty_Charging>
0.180787

> <r_epik_Ionization_Penalty_Neutral>
6.38624e-05

> <r_epik_State_Penalty>
0.153592

> <r_epik_Charging_Adjusted_Penalty>
0.334379

> <i_epik_Tot_Q>
2

> <i_epik_Tot_abs_Q>
2

> <r_epik_Metal_State_Penalty>
0.153595

> <b_epik_Metal_Only>
0

> <s_lp_Force_Field>
OPLS_2005

> <r_lp_Energy>
43.8269

> <b_lp_Chiralities_Consistent>
1

> <s_lp_Variant>
AV-unprocessed.smi:2237-2

> <Gold.Version>
5.8.1

> <Gold.Id.Protein>
6NUR|6NUR_protein|mol2

> <Gold.PLP.Fitness>
48.8763

> <Gold.PLP.PLP>
-38.5791

> <Gold.PLP.part.hbond>
-4.0000

> <Gold.PLP.part.metal>
0.0000

> <Gold.PLP.part.buried>
2.1652

> <Gold.PLP.part.nonpolar>
-36.3274

> <Gold.PLP.part.repulsive>
0.2439

> <Gold.PLP.ligand.clash>
0.0000

> <Gold.PLP.ligand.torsion>
0.3969

> <Gold.PLP.Chemscore.Hbond>
3.6800

> <Gold.PLP.Chemscore.CHOScore>
0.0000

> <Gold.PLP.Chemscore.Metal>
0.0000

> <Gold.Chemscore.Hbonds>
donor molecule, donor type, donor heavy atom, donor atom, acceptor molecule, acceptor atom, score
      L1  H     7    31       P1  8028  0.83
      L1  H    10    32       P1  8028  0.82
      L1  H    14    54       P1  7948  2.00

> <Gold.PLP.Chemscore.Internal.Correction>
0.0510

> <Gold.Rescore>
     Score         DG    S(hbond)    S(metal)    S(lipo)     H(rot)  DE(clash)    DE(int)     intcor
     18.25     -23.91       2.80        0.00     104.54       1.23       2.42       3.24       ----

> <Gold.Chemscore.Fitness>
18.2544

> <Gold.Chemscore.DG>
-23.9064

> <Gold.Chemscore.ZeroCoef>
-5.4800

> <Gold.Chemscore.Hbond>
2.7973

> <Gold.Chemscore.Metal>
0.0000

> <Gold.Chemscore.Lipo>
104.5375

> <Gold.Chemscore.Internal_Hbond>
0.0000

> <Gold.Chemscore.DEClash>
2.4163

> <Gold.Chemscore.DEInternal>
3.2357

> <Gold.Chemscore.Rot>
1.2295

> <Gold.Chemscore.Internal.Correction>
   9.000000E+99

> <Gold.Chemscore.Hbonds>
donor molecule, donor type, donor heavy atom, donor atom, acceptor molecule, acceptor atom, score
      L1  H     7    31       P1  8028  0.57
      L1  H    10    32       P1  8028  0.80
      L1  H    14    54       P1  7948  0.89

> <Gold.Chemscore.Hbond.Weighted>
-9.3429

> <Gold.Chemscore.Metal.Weighted>
-0.0000

> <Gold.Chemscore.Lipo.Weighted>
-12.2309

> <Gold.Chemscore.Internal_Hbond.Weighted>
0.0000

> <Gold.Chemscore.DEClash.Weighted>
2.4163

> <Gold.Chemscore.DEInternal.Weighted>
3.2357

> <Gold.Chemscore.Rot.Weighted>
3.1474

> <Gold.Chemscore.Internal.Correction.Weighted>
   9.000000E+99

> <Gold.Protein.RotatedTorsions>
[ 6907 6896 6895 6894 ] final  110.24 input  -60.11 | X-H torsion
[ 7974 7965 7964 7962 ] final    2.12 input  175.53 | X-H torsion
[ 8008 7997 7996 7995 ] final   99.15 input   59.86 | X-H torsion
[ 10167 10162 10161 10158 ] final  151.05 input  -65.29 | X-H torsion
[ 10718 10713 10712 10709 ] final -140.58 input   66.30 | X-H torsion
[ 10763 10752 10751 10750 ] final  -59.56 input  -60.55 | X-H torsion
[ 11005 11000 10999 10996 ] final   38.82 input  -57.11 | X-H torsion

> <Gold.Protein.ActiveResidues>
 VAL166  LYS551  ARG553  GLY616  TRP617  ASP618  TYR619  PRO620  LYS621  CYS622 
 ASP623  PHE694  ASN695  SER759  ASP760  ASP761  ALA762  ILE779  LEU786  VAL792 
 PHE793  MET794  SER795  GLU796  ALA797  LYS798  CYS799  TRP800  GLU811  SER814 

> <Gold.Protein.RotatedAtoms>
  152.5029  133.8829  159.7355 H   0  0  0  0  0  0  0  0  0  0  0  0  # atno 6907 bound_to 6896
  150.9287  133.6784  159.2822 H   0  0  0  0  0  0  0  0  0  0  0  0  # atno 6908 bound_to 6896
  151.4136  135.0993  159.9645 H   0  0  0  0  0  0  0  0  0  0  0  0  # atno 6909 bound_to 6896
  146.2443  140.0885  142.8353 H   0  0  0  0  0  0  0  0  0  0  0  0  # atno 7974 bound_to 7965
  156.1076  140.3233  155.8027 H   0  0  0  0  0  0  0  0  0  0  0  0  # atno 8008 bound_to 7997
  155.4729  140.0548  157.2994 H   0  0  0  0  0  0  0  0  0  0  0  0  # atno 8009 bound_to 7997
  154.4738  140.2023  155.9943 H   0  0  0  0  0  0  0  0  0  0  0  0  # atno 8010 bound_to 7997
  139.4844  144.5473  151.7462 H   0  0  0  0  0  0  0  0  0  0  0  0  # atno 10167 bound_to 10162
  156.3239  130.7549  151.1653 H   0  0  0  0  0  0  0  0  0  0  0  0  # atno 10718 bound_to 10713
  154.2557  135.6317  153.5256 H   0  0  0  0  0  0  0  0  0  0  0  0  # atno 10763 bound_to 10752
  152.9904  135.5575  154.5759 H   0  0  0  0  0  0  0  0  0  0  0  0  # atno 10764 bound_to 10752
  154.5297  135.2887  155.1166 H   0  0  0  0  0  0  0  0  0  0  0  0  # atno 10765 bound_to 10752
  140.2088  134.3780  155.8059 H   0  0  0  0  0  0  0  0  0  0  0  0  # atno 11005 bound_to 11000
  145.0671  140.9129  143.4904 LP  0  0  0  0  0  0  0  0  0  0  0  0  # atno 17320 bound_to 7965
  145.1011  139.2822  143.5685 LP  0  0  0  0  0  0  0  0  0  0  0  0  # atno 17321 bound_to 7965
  140.5021  144.1153  150.5973 LP  0  0  0  0  0  0  0  0  0  0  0  0  # atno 17342 bound_to 10162
  140.4050  143.2685  151.9902 LP  0  0  0  0  0  0  0  0  0  0  0  0  # atno 17343 bound_to 10162
  157.7417  131.0500  150.5076 LP  0  0  0  0  0  0  0  0  0  0  0  0  # atno 17370 bound_to 10713
  156.5232  130.4167  149.6240 LP  0  0  0  0  0  0  0  0  0  0  0  0  # atno 17371 bound_to 10713
  141.2226  133.7132  156.8383 LP  0  0  0  0  0  0  0  0  0  0  0  0  # atno 17394 bound_to 11000
  140.1973  134.8922  157.3129 LP  0  0  0  0  0  0  0  0  0  0  0  0  # atno 17395 bound_to 11000

$$$$
