AV-unprocessed.smi:3103|AV-procd|sdf|11814|dock1
  -GOLD-   2272017183D 1   1.00000     0.00000
 Structure written by MMmdl.
 32 32  0  0  0  0  0  0  0  0  1 V2000
  151.4690  145.6172  159.8862 C   0  0  0  0  0  0  0  0  0  0  0  0
  151.6695  144.1993  159.3872 C   0  0  0  0  0  0  0  0  0  0  0  0
  151.3019  143.8232  158.0778 C   0  0  0  0  0  0  0  0  0  0  0  0
  151.4723  142.5628  157.6236 N   0  0  0  0  0  0  0  0  0  0  0  0
  152.0066  141.6798  158.4701 C   0  0  0  0  0  0  0  0  0  0  0  0
  152.1572  140.3984  157.9761 N   0  0  0  0  0  0  0  0  0  0  0  0
  151.2763  139.8001  156.9847 C   0  0  0  0  0  0  0  0  0  0  0  0
  152.0555  139.3193  155.7568 C   0  0  0  0  0  0  0  0  0  0  0  0
  151.3883  139.7660  154.5882 O   0  0  0  0  0  0  0  0  0  0  0  0
  150.0287  139.3671  154.5413 C   0  0  0  0  0  0  0  0  0  0  0  0
  149.1428  140.6185  154.5626 C   0  0  0  0  0  0  0  0  0  0  0  0
  149.0957  141.2018  153.2780 O   0  0  0  0  0  0  0  0  0  0  0  0
  152.3952  141.9230  159.7274 N   0  0  0  0  0  0  0  0  0  0  0  0
  152.2295  143.1809  160.1933 C   0  0  0  0  0  0  0  0  0  0  0  0
  152.6736  143.4361  161.6210 C   0  0  0  0  0  0  0  0  0  0  0  0
  150.9814  146.2345  159.1309 H   0  0  0  0  0  0  0  0  0  0  0  0
  152.4286  146.0739  160.1296 H   0  0  0  0  0  0  0  0  0  0  0  0
  150.8460  145.6223  160.7810 H   0  0  0  0  0  0  0  0  0  0  0  0
  150.8682  144.5338  157.3896 H   0  0  0  0  0  0  0  0  0  0  0  0
  152.9967  139.8998  158.2326 H   0  0  0  0  0  0  0  0  0  0  0  0
  150.7633  138.9553  157.4456 H   0  0  0  0  0  0  0  0  0  0  0  0
  150.5109  140.5176  156.6863 H   0  0  0  0  0  0  0  0  0  0  0  0
  153.0835  139.6843  155.7829 H   0  0  0  0  0  0  0  0  0  0  0  0
  152.0944  138.2291  155.7573 H   0  0  0  0  0  0  0  0  0  0  0  0
  149.8568  138.8222  153.6117 H   0  0  0  0  0  0  0  0  0  0  0  0
  149.7800  138.6931  155.3632 H   0  0  0  0  0  0  0  0  0  0  0  0
  148.1370  140.3869  154.9147 H   0  0  0  0  0  0  0  0  0  0  0  0
  149.5627  141.3573  155.2457 H   0  0  0  0  0  0  0  0  0  0  0  0
  149.1135  140.5109  152.6336 H   0  0  0  0  0  0  0  0  0  0  0  0
  153.4026  144.2460  161.6539 H   0  0  0  0  0  0  0  0  0  0  0  0
  153.1348  142.5501  162.0596 H   0  0  0  0  0  0  0  0  0  0  0  0
  151.8194  143.7139  162.2388 H   0  0  0  0  0  0  0  0  0  0  0  0
  1  2  1  0  0  0  0
  1 16  1  0  0  0  0
  1 17  1  0  0  0  0
  1 18  1  0  0  0  0
  2 14  1  0  0  0  0
  2  3  2  0  0  0  0
  3  4  1  0  0  0  0
  3 19  1  0  0  0  0
  4  5  2  0  0  0  0
  5  6  1  0  0  0  0
  5 13  1  0  0  0  0
  6  7  1  0  0  0  0
  6 20  1  0  0  0  0
  7  8  1  0  0  0  0
  7 21  1  0  0  0  0
  7 22  1  0  0  0  0
  8  9  1  0  0  0  0
  8 23  1  0  0  0  0
  8 24  1  0  0  0  0
  9 10  1  0  0  0  0
 10 11  1  0  0  0  0
 10 25  1  0  0  0  0
 10 26  1  0  0  0  0
 11 12  1  0  0  0  0
 11 27  1  0  0  0  0
 11 28  1  0  0  0  0
 12 29  1  0  0  0  0
 13 14  2  0  0  0  0
 14 15  1  0  0  0  0
 15 30  1  0  0  0  0
 15 31  1  0  0  0  0
 15 32  1  0  0  0  0
M  END
> <s_m_source_file>
AV-unprocessed.smi

> <i_m_source_file_index>
3103

> <i_lp_mmshare_version>
43012

> <i_f3d_flags>
0

> <s_epik_input>
W0NIM11jMVtjSF1uYyhuYzFbQ0gzXSlbTkhdW0NIMl1bQ0gyXU9bQ0gyXVtDSDJdW09IXQ==

> <s_epik_cmdline>
J2VwaWtfcHl0aG9uJywgJy1waCcsICc3LjAnLCAnLXRuJywgJzgnLCAnLW1hJywgJzIwMCcsICctbWV0YWxfYmluZGluZycsICctaW1hZScsICc8aW5maWxlLm1hZT4nLCAnLW9tYWUnLCAnPG91dGZpbGUubWFlPic=

> <r_lp_tautomer_probability>
1

> <r_epik_Ionization_Penalty>
0.00815169

> <r_epik_Ionization_Penalty_Charging>
0

> <r_epik_Ionization_Penalty_Neutral>
0.00815169

> <r_epik_State_Penalty>
0.00530275

> <r_epik_Charging_Adjusted_Penalty>
0.00530275

> <i_epik_Tot_Q>
0

> <i_epik_Tot_abs_Q>
0

> <r_epik_Metal_State_Penalty>
-0

> <b_epik_Metal_Only>
0

> <s_lp_Force_Field>
OPLS_2005

> <r_lp_Energy>
-2.90403

> <b_lp_Chiralities_Consistent>
1

> <s_lp_Variant>
AV-unprocessed.smi:3103-1

> <Gold.Version>
5.8.1

> <Gold.Id.Protein>
6NUR|6NUR_protein|mol2

> <Gold.PLP.Fitness>
46.1378

> <Gold.PLP.PLP>
-36.7248

> <Gold.PLP.part.hbond>
-3.5081

> <Gold.PLP.part.metal>
0.0000

> <Gold.PLP.part.buried>
-5.2165

> <Gold.PLP.part.nonpolar>
-28.4920

> <Gold.PLP.part.repulsive>
0.2214

> <Gold.PLP.ligand.clash>
0.0000

> <Gold.PLP.ligand.torsion>
1.0034

> <Gold.PLP.Chemscore.Hbond>
2.9600

> <Gold.PLP.Chemscore.CHOScore>
0.8186

> <Gold.PLP.Chemscore.Metal>
0.0000

> <Gold.Chemscore.Hbonds>
donor molecule, donor type, donor heavy atom, donor atom, acceptor molecule, acceptor atom, score
      L1  H    12    29       P1  7957  0.93
      P1  H  7989  7998       L1     9  1.00
      P1  H  8011  8017       L1    12  0.85
      L1  C     3    19       P1  8028  0.82

> <Gold.PLP.Chemscore.Internal.Correction>
0.0841

> <Gold.Rescore>
     Score         DG    S(hbond)    S(metal)    S(lipo)     H(rot)  DE(clash)    DE(int)     intcor
     15.29     -16.52       2.25        0.00      87.37       2.61       0.15       1.08       ----

> <Gold.Chemscore.Fitness>
15.2859

> <Gold.Chemscore.DG>
-16.5235

> <Gold.Chemscore.ZeroCoef>
-5.4800

> <Gold.Chemscore.Hbond>
2.2475

> <Gold.Chemscore.Metal>
0.0000

> <Gold.Chemscore.Lipo>
87.3662

> <Gold.Chemscore.Internal_Hbond>
0.0000

> <Gold.Chemscore.DEClash>
0.1549

> <Gold.Chemscore.DEInternal>
1.0827

> <Gold.Chemscore.Rot>
2.6113

> <Gold.Chemscore.Internal.Correction>
   9.000000E+99

> <Gold.Chemscore.Hbonds>
donor molecule, donor type, donor heavy atom, donor atom, acceptor molecule, acceptor atom, score
      L1  H    12    29       P1  7957  0.89
      P1  H  7989  7998       L1     9  0.72
      P1  H  8011  8017       L1    12  0.14

> <Gold.Chemscore.Hbond.Weighted>
-7.5065

> <Gold.Chemscore.Metal.Weighted>
-0.0000

> <Gold.Chemscore.Lipo.Weighted>
-10.2218

> <Gold.Chemscore.Internal_Hbond.Weighted>
0.0000

> <Gold.Chemscore.DEClash.Weighted>
0.1549

> <Gold.Chemscore.DEInternal.Weighted>
1.0827

> <Gold.Chemscore.Rot.Weighted>
6.6849

> <Gold.Chemscore.Internal.Correction.Weighted>
   9.000000E+99

> <Gold.Protein.RotatedTorsions>
[ 6907 6896 6895 6894 ] final  155.99 input  -60.11 | X-H torsion
[ 7974 7965 7964 7962 ] final -118.29 input  175.53 | X-H torsion
[ 8008 7997 7996 7995 ] final  131.74 input   59.86 | X-H torsion
[ 10167 10162 10161 10158 ] final   57.49 input  -65.29 | X-H torsion
[ 10718 10713 10712 10709 ] final  149.74 input   66.30 | X-H torsion
[ 10763 10752 10751 10750 ] final  -37.27 input  -60.55 | X-H torsion
[ 11005 11000 10999 10996 ] final  177.13 input  -57.11 | X-H torsion

> <Gold.Protein.ActiveResidues>
 VAL166  LYS551  ARG553  GLY616  TRP617  ASP618  TYR619  PRO620  LYS621  CYS622 
 ASP623  PHE694  ASN695  SER759  ASP760  ASP761  ALA762  ILE779  LEU786  VAL792 
 PHE793  MET794  SER795  GLU796  ALA797  LYS798  CYS799  TRP800  GLU811  SER814 

> <Gold.Protein.RotatedAtoms>
  152.0362  133.3958  159.4317 H   0  0  0  0  0  0  0  0  0  0  0  0  # atno 6907 bound_to 6896
  150.6878  134.3465  159.4900 H   0  0  0  0  0  0  0  0  0  0  0  0  # atno 6908 bound_to 6896
  152.1258  134.9171  160.0611 H   0  0  0  0  0  0  0  0  0  0  0  0  # atno 6909 bound_to 6896
  145.0754  140.8389  143.4070 H   0  0  0  0  0  0  0  0  0  0  0  0  # atno 7974 bound_to 7965
  156.2974  140.2564  156.2975 H   0  0  0  0  0  0  0  0  0  0  0  0  # atno 8008 bound_to 7997
  154.9449  140.0395  157.2134 H   0  0  0  0  0  0  0  0  0  0  0  0  # atno 8009 bound_to 7997
  154.8091  140.2841  155.5871 H   0  0  0  0  0  0  0  0  0  0  0  0  # atno 8010 bound_to 7997
  140.1974  144.4023  150.6544 H   0  0  0  0  0  0  0  0  0  0  0  0  # atno 10167 bound_to 10162
  157.2923  131.0855  151.1452 H   0  0  0  0  0  0  0  0  0  0  0  0  # atno 10718 bound_to 10713
  153.8935  135.6809  153.4759 H   0  0  0  0  0  0  0  0  0  0  0  0  # atno 10763 bound_to 10752
  153.1168  135.4758  154.9126 H   0  0  0  0  0  0  0  0  0  0  0  0  # atno 10764 bound_to 10752
  154.7610  135.3211  154.8331 H   0  0  0  0  0  0  0  0  0  0  0  0  # atno 10765 bound_to 10752
  140.3807  134.6949  157.4449 H   0  0  0  0  0  0  0  0  0  0  0  0  # atno 11005 bound_to 11000
  145.1241  139.2674  143.5573 LP  0  0  0  0  0  0  0  0  0  0  0  0  # atno 17320 bound_to 7965
  146.3530  140.0874  142.8614 LP  0  0  0  0  0  0  0  0  0  0  0  0  # atno 17321 bound_to 7965
  140.6414  143.2204  151.6281 LP  0  0  0  0  0  0  0  0  0  0  0  0  # atno 17342 bound_to 10162
  139.5231  144.3143  152.0966 LP  0  0  0  0  0  0  0  0  0  0  0  0  # atno 17343 bound_to 10162
  157.2844  130.6765  149.6082 LP  0  0  0  0  0  0  0  0  0  0  0  0  # atno 17370 bound_to 10713
  155.9667  130.4440  150.5444 LP  0  0  0  0  0  0  0  0  0  0  0  0  # atno 17371 bound_to 10713
  140.0481  134.6170  155.8896 LP  0  0  0  0  0  0  0  0  0  0  0  0  # atno 17394 bound_to 11000
  141.1924  133.6575  156.5502 LP  0  0  0  0  0  0  0  0  0  0  0  0  # atno 17395 bound_to 11000

$$$$
