AV-unprocessed.smi:3316|AV-procd|sdf|12757|dock7
  -GOLD-   2272019 93D 1   1.00000     0.00000
 Structure written by MMmdl.
 41 43  0  0  0  0  0  0  0  0  2 V2000
  147.8636  140.2772  153.8527 C   0  0  0  0  0  0  0  0  0  0  0  0
  148.8855  140.3451  154.9985 C   0  0  2  0  0  0  0  0  0  0  0  0
  149.5696  141.7243  155.0636 C   0  0  0  0  0  0  0  0  0  0  0  0
  149.6430  142.2316  156.4491 N   0  3  0  0  0  0  0  0  0  0  0  0
  151.0122  142.2874  156.9960 C   0  0  0  0  0  0  0  0  0  0  0  0
  151.0171  142.8493  158.4294 C   0  0  2  0  0  0  0  0  0  0  0  0
  150.7604  144.3882  158.5067 C   0  0  0  0  0  0  0  0  0  0  0  0
  151.9840  144.9107  159.2943 C   0  0  1  0  0  0  0  0  0  0  0  0
  151.9215  144.3403  160.6953 C   0  0  0  0  0  0  0  0  0  0  0  0
  152.1724  143.0330  160.6026 C   0  0  0  0  0  0  0  0  0  0  0  0
  152.3915  142.7193  159.1368 C   0  0  2  0  0  0  0  0  0  0  0  0
  153.0740  144.0197  158.6923 C   0  0  0  0  0  0  0  0  0  0  0  0
  149.8944  139.2066  154.9069 C   0  0  0  0  0  0  0  0  0  0  0  0
  151.2789  139.4693  154.9759 C   0  0  0  0  0  0  0  0  0  0  0  0
  152.1771  138.3873  154.8828 C   0  0  0  0  0  0  0  0  0  0  0  0
  151.7805  137.1064  154.7270 N   0  0  0  0  0  0  0  0  0  0  0  0
  150.4550  136.8588  154.6628 C   0  0  0  0  0  0  0  0  0  0  0  0
  149.4748  137.8681  154.7448 C   0  0  0  0  0  0  0  0  0  0  0  0
  147.3440  139.3184  153.8490 H   0  0  0  0  0  0  0  0  0  0  0  0
  148.3393  140.4009  152.8794 H   0  0  0  0  0  0  0  0  0  0  0  0
  147.1095  141.0582  153.9530 H   0  0  0  0  0  0  0  0  0  0  0  0
  148.3266  140.2154  155.9269 H   0  0  0  0  0  0  0  0  0  0  0  0
  150.5752  141.6736  154.6440 H   0  0  0  0  0  0  0  0  0  0  0  0
  149.0104  142.4401  154.4597 H   0  0  0  0  0  0  0  0  0  0  0  0
  149.2513  143.1624  156.4725 H   0  0  0  0  0  0  0  0  0  0  0  0
  151.4270  141.2786  156.9977 H   0  0  0  0  0  0  0  0  0  0  0  0
  151.6405  142.8890  156.3387 H   0  0  0  0  0  0  0  0  0  0  0  0
  150.2647  142.3123  159.0105 H   0  0  0  0  0  0  0  0  0  0  0  0
  150.7264  144.8405  157.5144 H   0  0  0  0  0  0  0  0  0  0  0  0
  149.8213  144.6238  159.0091 H   0  0  0  0  0  0  0  0  0  0  0  0
  152.1731  145.9832  159.2420 H   0  0  0  0  0  0  0  0  0  0  0  0
  151.6843  144.9076  161.5832 H   0  0  0  0  0  0  0  0  0  0  0  0
  152.1813  142.3031  161.3985 H   0  0  0  0  0  0  0  0  0  0  0  0
  152.9536  141.8039  158.9493 H   0  0  0  0  0  0  0  0  0  0  0  0
  153.1849  144.1252  157.6121 H   0  0  0  0  0  0  0  0  0  0  0  0
  154.0507  144.1682  159.1578 H   0  0  0  0  0  0  0  0  0  0  0  0
  151.6523  140.4752  155.1006 H   0  0  0  0  0  0  0  0  0  0  0  0
  153.2426  138.5559  154.9332 H   0  0  0  0  0  0  0  0  0  0  0  0
  150.1661  135.8255  154.5407 H   0  0  0  0  0  0  0  0  0  0  0  0
  148.4267  137.6132  154.6873 H   0  0  0  0  0  0  0  0  0  0  0  0
  149.0845  141.6320  157.0400 H   0  0  0  0  0  0  0  0  0  0  0  0
  1  2  1  0  0  0  0
  1 19  1  0  0  0  0
  1 20  1  0  0  0  0
  1 21  1  0  0  0  0
  2  3  1  0  0  0  0
  2 13  1  0  0  0  0
  2 22  1  0  0  0  0
  3  4  1  0  0  0  0
  3 23  1  0  0  0  0
  3 24  1  0  0  0  0
  4  5  1  0  0  0  0
  4 25  1  0  0  0  0
  4 41  1  0  0  0  0
  5  6  1  0  0  0  0
  5 26  1  0  0  0  0
  5 27  1  0  0  0  0
  6 11  1  0  0  0  0
  6  7  1  0  0  0  0
  6 28  1  0  0  0  0
  7  8  1  0  0  0  0
  7 29  1  0  0  0  0
  7 30  1  0  0  0  0
  8 12  1  0  0  0  0
  8  9  1  0  0  0  0
  8 31  1  0  0  0  0
  9 10  2  0  0  0  0
  9 32  1  0  0  0  0
 10 11  1  0  0  0  0
 10 33  1  0  0  0  0
 11 12  1  0  0  0  0
 11 34  1  0  0  0  0
 12 35  1  0  0  0  0
 12 36  1  0  0  0  0
 13 18  1  0  0  0  0
 13 14  2  0  0  0  0
 14 15  1  0  0  0  0
 14 37  1  0  0  0  0
 15 16  2  0  0  0  0
 15 38  1  0  0  0  0
 16 17  1  0  0  0  0
 17 18  2  0  0  0  0
 17 39  1  0  0  0  0
 18 40  1  0  0  0  0
M  CHG  1   4   1
M  END
> <s_m_source_file>
AV-unprocessed.smi

> <i_m_source_file_index>
3316

> <i_lp_mmshare_version>
43012

> <i_f3d_flags>
0

> <s_epik_input>
W2NIXTFbY0hdbltjSF1bY0hdYzFbQ0BIXShbQ0gzXSlbQ0gyXVtOSF1bQ0gyXVtDQEhdKFtDSDJdW0NASF0yMylbQ0BIXShbQ0gyXTMpW0NIXT1bQ0hdMg==

> <s_epik_cmdline>
J2VwaWtfcHl0aG9uJywgJy1waCcsICc3LjAnLCAnLXRuJywgJzgnLCAnLW1hJywgJzIwMCcsICctbWV0YWxfYmluZGluZycsICctaW1hZScsICc8aW5maWxlLm1hZT4nLCAnLW9tYWUnLCAnPG91dGZpbGUubWFlPic=

> <r_lp_tautomer_probability>
1

> <r_epik_Ionization_Penalty>
0.00280406

> <r_epik_Ionization_Penalty_Charging>
0.000446589

> <r_epik_Ionization_Penalty_Neutral>
0.00235747

> <r_epik_State_Penalty>
-0

> <r_epik_Charging_Adjusted_Penalty>
0.000446589

> <i_epik_Tot_Q>
1

> <i_epik_Tot_abs_Q>
1

> <r_epik_Metal_State_Penalty>
-0

> <b_epik_Metal_Only>
0

> <s_lp_Force_Field>
OPLS_2005

> <r_lp_Energy>
65.5539

> <b_lp_Chiralities_Consistent>
1

> <s_lp_Variant>
AV-unprocessed.smi:3316-5

> <Gold.Version>
5.8.1

> <Gold.Id.Protein>
6NUR|6NUR_protein|mol2

> <Gold.PLP.Fitness>
52.4263

> <Gold.PLP.PLP>
-45.9270

> <Gold.PLP.part.hbond>
-2.0000

> <Gold.PLP.part.metal>
0.0000

> <Gold.PLP.part.buried>
-3.1223

> <Gold.PLP.part.nonpolar>
-42.3674

> <Gold.PLP.part.repulsive>
0.1704

> <Gold.PLP.ligand.clash>
0.0000

> <Gold.PLP.ligand.torsion>
1.1261

> <Gold.PLP.Chemscore.Hbond>
2.8800

> <Gold.PLP.Chemscore.CHOScore>
0.0000

> <Gold.PLP.Chemscore.Metal>
0.0000

> <Gold.Chemscore.Hbonds>
donor molecule, donor type, donor heavy atom, donor atom, acceptor molecule, acceptor atom, score
      L1  H     4    25       P1  8028  2.00
      P1  H 10752 10764       L1    16  1.00

> <Gold.PLP.Chemscore.Internal.Correction>
0.1115

> <Gold.Rescore>
     Score         DG    S(hbond)    S(metal)    S(lipo)     H(rot)  DE(clash)    DE(int)     intcor
     24.03     -25.38       1.93        0.00     144.94       1.36       0.08       1.28       ----

> <Gold.Chemscore.Fitness>
24.0267

> <Gold.Chemscore.DG>
-25.3843

> <Gold.Chemscore.ZeroCoef>
-5.4800

> <Gold.Chemscore.Hbond>
1.9277

> <Gold.Chemscore.Metal>
0.0000

> <Gold.Chemscore.Lipo>
144.9367

> <Gold.Chemscore.Internal_Hbond>
0.0000

> <Gold.Chemscore.DEClash>
0.0786

> <Gold.Chemscore.DEInternal>
1.2790

> <Gold.Chemscore.Rot>
1.3640

> <Gold.Chemscore.Internal.Correction>
   9.000000E+99

> <Gold.Chemscore.Hbonds>
donor molecule, donor type, donor heavy atom, donor atom, acceptor molecule, acceptor atom, score
      L1  H     4    25       P1  8028  0.95
      P1  H 10752 10764       L1    16  0.89

> <Gold.Chemscore.Hbond.Weighted>
-6.4386

> <Gold.Chemscore.Metal.Weighted>
-0.0000

> <Gold.Chemscore.Lipo.Weighted>
-16.9576

> <Gold.Chemscore.Internal_Hbond.Weighted>
0.0000

> <Gold.Chemscore.DEClash.Weighted>
0.0786

> <Gold.Chemscore.DEInternal.Weighted>
1.2790

> <Gold.Chemscore.Rot.Weighted>
3.4919

> <Gold.Chemscore.Internal.Correction.Weighted>
   9.000000E+99

> <Gold.Protein.RotatedTorsions>
[ 6907 6896 6895 6894 ] final  167.60 input  -60.11 | X-H torsion
[ 7974 7965 7964 7962 ] final  177.50 input  175.53 | X-H torsion
[ 8008 7997 7996 7995 ] final -106.63 input   59.86 | X-H torsion
[ 10167 10162 10161 10158 ] final   89.52 input  -65.29 | X-H torsion
[ 10718 10713 10712 10709 ] final  122.44 input   66.30 | X-H torsion
[ 10763 10752 10751 10750 ] final  -59.20 input  -60.55 | X-H torsion
[ 11005 11000 10999 10996 ] final   52.92 input  -57.11 | X-H torsion

> <Gold.Protein.ActiveResidues>
 VAL166  LYS551  ARG553  GLY616  TRP617  ASP618  TYR619  PRO620  LYS621  CYS622 
 ASP623  PHE694  ASN695  SER759  ASP760  ASP761  ALA762  ILE779  LEU786  VAL792 
 PHE793  MET794  SER795  GLU796  ALA797  LYS798  CYS799  TRP800  GLU811  SER814 

> <Gold.Protein.RotatedAtoms>
  151.8608  133.3457  159.3702 H   0  0  0  0  0  0  0  0  0  0  0  0  # atno 6907 bound_to 6896
  150.7179  134.5208  159.5662 H   0  0  0  0  0  0  0  0  0  0  0  0  # atno 6908 bound_to 6896
  152.2721  134.7922  160.0463 H   0  0  0  0  0  0  0  0  0  0  0  0  # atno 6909 bound_to 6896
  144.7168  140.0257  143.6439 H   0  0  0  0  0  0  0  0  0  0  0  0  # atno 7974 bound_to 7965
  154.9174  140.0408  157.1979 H   0  0  0  0  0  0  0  0  0  0  0  0  # atno 8008 bound_to 7997
  154.8288  140.2895  155.5715 H   0  0  0  0  0  0  0  0  0  0  0  0  # atno 8009 bound_to 7997
  156.2985  140.2505  156.3209 H   0  0  0  0  0  0  0  0  0  0  0  0  # atno 8010 bound_to 7997
  139.8564  144.6567  150.9109 H   0  0  0  0  0  0  0  0  0  0  0  0  # atno 10167 bound_to 10162
  157.5742  131.1081  150.8311 H   0  0  0  0  0  0  0  0  0  0  0  0  # atno 10718 bound_to 10713
  154.2501  135.6327  153.5237 H   0  0  0  0  0  0  0  0  0  0  0  0  # atno 10763 bound_to 10752
  152.9914  135.5562  154.5817 H   0  0  0  0  0  0  0  0  0  0  0  0  # atno 10764 bound_to 10752
  154.5342  135.2890  155.1128 H   0  0  0  0  0  0  0  0  0  0  0  0  # atno 10765 bound_to 10752
  140.0809  134.5340  155.8948 H   0  0  0  0  0  0  0  0  0  0  0  0  # atno 11005 bound_to 11000
  146.0144  139.3197  143.0851 LP  0  0  0  0  0  0  0  0  0  0  0  0  # atno 17320 bound_to 7965
  145.8643  140.9457  143.0684 LP  0  0  0  0  0  0  0  0  0  0  0  0  # atno 17321 bound_to 7965
  140.7781  143.3782  151.1525 LP  0  0  0  0  0  0  0  0  0  0  0  0  # atno 17342 bound_to 10162
  139.7415  143.8917  152.3051 LP  0  0  0  0  0  0  0  0  0  0  0  0  # atno 17343 bound_to 10162
  156.8774  130.5167  149.5293 LP  0  0  0  0  0  0  0  0  0  0  0  0  # atno 17370 bound_to 10713
  156.0786  130.5802  150.9521 LP  0  0  0  0  0  0  0  0  0  0  0  0  # atno 17371 bound_to 10713
  141.2046  133.6640  156.6132 LP  0  0  0  0  0  0  0  0  0  0  0  0  # atno 17394 bound_to 11000
  140.3489  134.7785  157.4452 LP  0  0  0  0  0  0  0  0  0  0  0  0  # atno 17395 bound_to 11000

$$$$
