AV-unprocessed.smi:976|AV-procd|sdf|4302|dock2
  -GOLD-   22720 2203D 1   1.00000     0.00000
 Structure written by MMmdl.
 41 42  0  0  0  0  0  0  0  0  1 V2000
  146.5707  138.1950  158.2964 C   0  0  0  0  0  0  0  0  0  0  0  0
  147.4626  137.0427  158.7821 C   0  0  2  0  0  0  0  0  0  0  0  0
  147.4144  137.0333  160.2068 O   0  0  0  0  0  0  0  0  0  0  0  0
  147.7753  135.8025  160.8264 C   0  0  0  0  0  0  0  0  0  0  0  0
  147.1710  135.7458  162.2345 C   0  0  0  0  0  0  0  0  0  0  0  0
  147.3705  134.5328  162.7487 F   0  0  0  0  0  0  0  0  0  0  0  0
  147.7556  136.6462  163.0243 F   0  0  0  0  0  0  0  0  0  0  0  0
  145.8598  135.9783  162.1832 F   0  0  0  0  0  0  0  0  0  0  0  0
  148.9112  137.2125  158.2960 C   0  0  0  0  0  0  0  0  0  0  0  0
  149.8178  136.5832  158.8414 O   0  0  0  0  0  0  0  0  0  0  0  0
  149.0864  138.0700  157.2745 N   0  0  0  0  0  0  0  0  0  0  0  0
  150.2998  138.4305  156.6225 C   0  0  0  0  0  0  0  0  0  0  0  0
  151.5517  137.8854  156.9978 C   0  0  0  0  0  0  0  0  0  0  0  0
  152.7029  138.2486  156.2765 C   0  0  0  0  0  0  0  0  0  0  0  0
  152.5612  139.1369  155.1963 C   0  0  0  0  0  0  0  0  0  0  0  0
  151.3747  139.6532  154.8168 N   0  0  0  0  0  0  0  0  0  0  0  0
  150.2597  139.3114  155.5079 C   0  0  0  0  0  0  0  0  0  0  0  0
  149.0403  139.8863  155.0968 N   0  0  0  0  0  0  0  0  0  0  0  0
  149.2055  141.1054  154.3139 C   0  0  0  0  0  0  0  0  0  0  0  0
  147.8465  141.8030  154.1363 C   0  0  0  0  0  0  0  0  0  0  0  0
  146.9157  140.8986  153.5480 O   0  0  0  0  0  0  0  0  0  0  0  0
  146.7048  139.7434  154.3552 C   0  0  0  0  0  0  0  0  0  0  0  0
  148.0340  138.9903  154.5354 C   0  0  0  0  0  0  0  0  0  0  0  0
  146.5725  138.2662  157.2082 H   0  0  0  0  0  0  0  0  0  0  0  0
  146.9004  139.1546  158.6966 H   0  0  0  0  0  0  0  0  0  0  0  0
  145.5389  138.0444  158.6145 H   0  0  0  0  0  0  0  0  0  0  0  0
  147.0492  136.1071  158.3996 H   0  0  0  0  0  0  0  0  0  0  0  0
  147.4060  134.9650  160.2328 H   0  0  0  0  0  0  0  0  0  0  0  0
  148.8591  135.7009  160.8938 H   0  0  0  0  0  0  0  0  0  0  0  0
  148.2707  138.5924  156.9890 H   0  0  0  0  0  0  0  0  0  0  0  0
  151.6451  137.1817  157.8106 H   0  0  0  0  0  0  0  0  0  0  0  0
  153.6705  137.8480  156.5403 H   0  0  0  0  0  0  0  0  0  0  0  0
  153.4220  139.4367  154.6173 H   0  0  0  0  0  0  0  0  0  0  0  0
  149.9112  141.7849  154.7919 H   0  0  0  0  0  0  0  0  0  0  0  0
  149.6231  140.8486  153.3395 H   0  0  0  0  0  0  0  0  0  0  0  0
  147.4665  142.1615  155.0944 H   0  0  0  0  0  0  0  0  0  0  0  0
  147.9532  142.6738  153.4896 H   0  0  0  0  0  0  0  0  0  0  0  0
  146.2866  140.0322  155.3208 H   0  0  0  0  0  0  0  0  0  0  0  0
  145.9709  139.1002  153.8695 H   0  0  0  0  0  0  0  0  0  0  0  0
  148.3747  138.6110  153.5709 H   0  0  0  0  0  0  0  0  0  0  0  0
  147.8919  138.1315  155.1927 H   0  0  0  0  0  0  0  0  0  0  0  0
  1  2  1  0  0  0  0
  1 24  1  0  0  0  0
  1 25  1  0  0  0  0
  1 26  1  0  0  0  0
  2  3  1  0  0  0  0
  2  9  1  0  0  0  0
  2 27  1  0  0  0  0
  3  4  1  0  0  0  0
  4  5  1  0  0  0  0
  4 28  1  0  0  0  0
  4 29  1  0  0  0  0
  5  6  1  0  0  0  0
  5  7  1  0  0  0  0
  5  8  1  0  0  0  0
  9 10  2  0  0  0  0
  9 11  1  0  0  0  0
 11 12  1  0  0  0  0
 11 30  1  0  0  0  0
 12 17  1  0  0  0  0
 12 13  2  0  0  0  0
 13 14  1  0  0  0  0
 13 31  1  0  0  0  0
 14 15  2  0  0  0  0
 14 32  1  0  0  0  0
 15 16  1  0  0  0  0
 15 33  1  0  0  0  0
 16 17  2  0  0  0  0
 17 18  1  0  0  0  0
 18 23  1  0  0  0  0
 18 19  1  0  0  0  0
 19 20  1  0  0  0  0
 19 34  1  0  0  0  0
 19 35  1  0  0  0  0
 20 21  1  0  0  0  0
 20 36  1  0  0  0  0
 20 37  1  0  0  0  0
 21 22  1  0  0  0  0
 22 23  1  0  0  0  0
 22 38  1  0  0  0  0
 22 39  1  0  0  0  0
 23 40  1  0  0  0  0
 23 41  1  0  0  0  0
M  END
> <s_m_source_file>
AV-unprocessed.smi

> <i_m_source_file_index>
976

> <i_lp_mmshare_version>
43012

> <i_f3d_flags>
0

> <s_epik_input>
RkMoRikoRilbQ0gyXU9bQ0BASF0oW0NIM10pQyg9TylbTkhdYzFbY0hdW2NIXVtjSF1uYzFOMltDSDJdW0NIMl1PW0NIMl1bQ0gyXTI=

> <s_epik_cmdline>
J2VwaWtfcHl0aG9uJywgJy1waCcsICc3LjAnLCAnLXRuJywgJzgnLCAnLW1hJywgJzIwMCcsICctbWV0YWxfYmluZGluZycsICctaW1hZScsICc8aW5maWxlLm1hZT4nLCAnLW9tYWUnLCAnPG91dGZpbGUubWFlPic=

> <r_lp_tautomer_probability>
1

> <r_epik_Ionization_Penalty>
0.000443367

> <r_epik_Ionization_Penalty_Charging>
0

> <r_epik_Ionization_Penalty_Neutral>
0.000443367

> <r_epik_State_Penalty>
0.00027288

> <r_epik_Charging_Adjusted_Penalty>
0.00027288

> <i_epik_Tot_Q>
0

> <i_epik_Tot_abs_Q>
0

> <r_epik_Metal_State_Penalty>
-0

> <b_epik_Metal_Only>
0

> <s_lp_Force_Field>
OPLS_2005

> <r_lp_Energy>
26.1193

> <b_lp_Chiralities_Consistent>
1

> <s_lp_Variant>
AV-unprocessed.smi:976-1

> <Gold.Version>
5.8.1

> <Gold.Id.Protein>
6NUR|6NUR_protein|mol2

> <Gold.PLP.Fitness>
41.4172

> <Gold.PLP.PLP>
-36.8330

> <Gold.PLP.part.hbond>
-2.4777

> <Gold.PLP.part.metal>
0.0000

> <Gold.PLP.part.buried>
-4.5402

> <Gold.PLP.part.nonpolar>
-30.2965

> <Gold.PLP.part.repulsive>
0.3232

> <Gold.PLP.ligand.clash>
1.1489

> <Gold.PLP.ligand.torsion>
1.1606

> <Gold.PLP.Chemscore.Hbond>
2.5763

> <Gold.PLP.Chemscore.CHOScore>
0.0000

> <Gold.PLP.Chemscore.Metal>
0.0000

> <Gold.Chemscore.Hbonds>
donor molecule, donor type, donor heavy atom, donor atom, acceptor molecule, acceptor atom, score
      P1  H  6896  6909       L1    10  0.65
      P1  H  6934  6947       L1     3  0.76
      P1  H  7989  7998       L1    16  1.00

> <Gold.PLP.Chemscore.Internal.Correction>
0.3256

> <Gold.Rescore>
     Score         DG    S(hbond)    S(metal)    S(lipo)     H(rot)  DE(clash)    DE(int)     intcor
     12.90     -16.99       2.70        0.00      64.07       1.95       0.83       3.27       ----

> <Gold.Chemscore.Fitness>
12.9009

> <Gold.Chemscore.DG>
-16.9919

> <Gold.Chemscore.ZeroCoef>
-5.4800

> <Gold.Chemscore.Hbond>
2.6963

> <Gold.Chemscore.Metal>
0.0000

> <Gold.Chemscore.Lipo>
64.0676

> <Gold.Chemscore.Internal_Hbond>
0.0000

> <Gold.Chemscore.DEClash>
0.8251

> <Gold.Chemscore.DEInternal>
3.2659

> <Gold.Chemscore.Rot>
1.9491

> <Gold.Chemscore.Internal.Correction>
   9.000000E+99

> <Gold.Chemscore.Hbonds>
donor molecule, donor type, donor heavy atom, donor atom, acceptor molecule, acceptor atom, score
      P1  H  6896  6909       L1    10  0.65
      P1  H  6934  6947       L1     3  0.51
      P1  H  7989  7998       L1    16  0.70

> <Gold.Chemscore.Hbond.Weighted>
-9.0057

> <Gold.Chemscore.Metal.Weighted>
-0.0000

> <Gold.Chemscore.Lipo.Weighted>
-7.4959

> <Gold.Chemscore.Internal_Hbond.Weighted>
0.0000

> <Gold.Chemscore.DEClash.Weighted>
0.8251

> <Gold.Chemscore.DEInternal.Weighted>
3.2659

> <Gold.Chemscore.Rot.Weighted>
4.9897

> <Gold.Chemscore.Internal.Correction.Weighted>
   9.000000E+99

> <Gold.Protein.RotatedTorsions>
[ 6907 6896 6895 6894 ] final   76.27 input  -60.11 | X-H torsion
[ 7974 7965 7964 7962 ] final -164.08 input  175.53 | X-H torsion
[ 8008 7997 7996 7995 ] final   38.12 input   59.86 | X-H torsion
[ 10167 10162 10161 10158 ] final -177.07 input  -65.29 | X-H torsion
[ 10718 10713 10712 10709 ] final   77.05 input   66.30 | X-H torsion
[ 10763 10752 10751 10750 ] final  167.63 input  -60.55 | X-H torsion
[ 11005 11000 10999 10996 ] final  -50.61 input  -57.11 | X-H torsion

> <Gold.Protein.ActiveResidues>
 VAL166  LYS551  ARG553  GLY616  TRP617  ASP618  TYR619  PRO620  LYS621  CYS622 
 ASP623  PHE694  ASN695  SER759  ASP760  ASP761  ALA762  ILE779  LEU786  VAL792 
 PHE793  MET794  SER795  GLU796  ALA797  LYS798  CYS799  TRP800  GLU811  SER814 

> <Gold.Protein.RotatedAtoms>
  152.5065  134.3994  159.9411 H   0  0  0  0  0  0  0  0  0  0  0  0  # atno 6907 bound_to 6896
  151.3957  133.3768  159.2734 H   0  0  0  0  0  0  0  0  0  0  0  0  # atno 6908 bound_to 6896
  150.9399  134.8829  159.7664 H   0  0  0  0  0  0  0  0  0  0  0  0  # atno 6909 bound_to 6896
  144.7307  140.3013  143.6204 H   0  0  0  0  0  0  0  0  0  0  0  0  # atno 7974 bound_to 7965
  155.2150  140.3326  155.4323 H   0  0  0  0  0  0  0  0  0  0  0  0  # atno 8008 bound_to 7997
  156.2355  140.1870  156.7178 H   0  0  0  0  0  0  0  0  0  0  0  0  # atno 8009 bound_to 7997
  154.6052  140.0617  156.9407 H   0  0  0  0  0  0  0  0  0  0  0  0  # atno 8010 bound_to 7997
  139.5498  144.2139  152.1056 H   0  0  0  0  0  0  0  0  0  0  0  0  # atno 10167 bound_to 10162
  157.6696  130.9803  150.1586 H   0  0  0  0  0  0  0  0  0  0  0  0  # atno 10718 bound_to 10713
  154.3566  135.2753  155.2343 H   0  0  0  0  0  0  0  0  0  0  0  0  # atno 10763 bound_to 10752
  154.4549  135.5921  153.6220 H   0  0  0  0  0  0  0  0  0  0  0  0  # atno 10764 bound_to 10752
  152.9846  135.6051  154.3783 H   0  0  0  0  0  0  0  0  0  0  0  0  # atno 10765 bound_to 10752
  141.0826  133.6650  156.3757 H   0  0  0  0  0  0  0  0  0  0  0  0  # atno 11005 bound_to 11000
  145.7758  139.1873  143.2186 LP  0  0  0  0  0  0  0  0  0  0  0  0  # atno 17320 bound_to 7965
  146.0874  140.7695  142.9612 LP  0  0  0  0  0  0  0  0  0  0  0  0  # atno 17321 bound_to 7965
  140.1633  144.5005  150.6620 LP  0  0  0  0  0  0  0  0  0  0  0  0  # atno 17342 bound_to 10162
  140.6757  143.2304  151.5513 LP  0  0  0  0  0  0  0  0  0  0  0  0  # atno 17343 bound_to 10162
  156.2368  130.3687  149.8382 LP  0  0  0  0  0  0  0  0  0  0  0  0  # atno 17370 bound_to 10713
  156.6194  130.8620  151.3472 LP  0  0  0  0  0  0  0  0  0  0  0  0  # atno 17371 bound_to 10713
  140.5435  134.6097  157.5387 LP  0  0  0  0  0  0  0  0  0  0  0  0  # atno 17394 bound_to 11000
  139.9641  134.7403  156.0176 LP  0  0  0  0  0  0  0  0  0  0  0  0  # atno 17395 bound_to 11000

$$$$
