AV-unprocessed.smi:3222|AV-procd|sdf|12304|dock7
  -GOLD-   2272018143D 1   1.00000     0.00000
 Structure written by MMmdl.
 41 42  0  0  0  0  0  0  0  0  2 V2000
  147.4711  140.8131  156.4784 C   0  0  0  0  0  0  0  0  0  0  0  0
  148.2552  141.6968  155.4844 C   0  0  1  0  0  0  0  0  0  0  0  0
  149.3965  142.3524  156.1650 N   0  3  0  0  0  0  0  0  0  0  0  0
  149.2016  142.6420  157.6008 C   0  0  0  0  0  0  0  0  0  0  0  0
  149.9054  143.9499  157.9946 C   0  0  0  0  0  0  0  0  0  0  0  0
  150.9720  143.7145  158.9639 N   0  0  0  0  0  0  0  0  0  0  0  0
  151.9817  142.6962  158.7280 C   0  0  0  0  0  0  0  0  0  0  0  0
  152.9997  142.8705  159.8648 C   0  0  0  0  0  0  0  0  0  0  0  0
  152.3358  143.8026  160.8847 C   0  0  0  0  0  0  0  0  0  0  0  0
  151.1214  144.3320  160.1416 C   0  0  0  0  0  0  0  0  0  0  0  0
  150.3921  145.2135  160.5936 O   0  0  0  0  0  0  0  0  0  0  0  0
  148.7679  140.9052  154.2504 C   0  0  2  0  0  0  0  0  0  0  0  0
  147.6332  140.1852  153.4960 C   0  0  0  0  0  0  0  0  0  0  0  0
  149.8149  139.9519  154.5980 N   0  0  0  0  0  0  0  0  0  0  0  0
  149.8003  138.5788  154.4608 C   0  0  0  0  0  0  0  0  0  0  0  0
  150.9960  138.1091  154.9233 C   0  0  0  0  0  0  0  0  0  0  0  0
  151.6854  139.2838  155.3333 C   0  0  0  0  0  0  0  0  0  0  0  0
  150.9761  140.3841  155.1407 N   0  0  0  0  0  0  0  0  0  0  0  0
  146.5907  140.3666  156.0162 H   0  0  0  0  0  0  0  0  0  0  0  0
  147.1101  141.3840  157.3331 H   0  0  0  0  0  0  0  0  0  0  0  0
  148.0915  140.0012  156.8592 H   0  0  0  0  0  0  0  0  0  0  0  0
  147.5848  142.4787  155.1236 H   0  0  0  0  0  0  0  0  0  0  0  0
  150.2221  141.7827  156.0475 H   0  0  0  0  0  0  0  0  0  0  0  0
  148.1346  142.7213  157.8130 H   0  0  0  0  0  0  0  0  0  0  0  0
  149.5888  141.8159  158.1966 H   0  0  0  0  0  0  0  0  0  0  0  0
  150.3249  144.4342  157.1112 H   0  0  0  0  0  0  0  0  0  0  0  0
  149.1829  144.6506  158.4158 H   0  0  0  0  0  0  0  0  0  0  0  0
  151.5178  141.7097  158.7659 H   0  0  0  0  0  0  0  0  0  0  0  0
  152.4459  142.8194  157.7486 H   0  0  0  0  0  0  0  0  0  0  0  0
  153.2735  141.9129  160.3090 H   0  0  0  0  0  0  0  0  0  0  0  0
  153.9142  143.3272  159.4839 H   0  0  0  0  0  0  0  0  0  0  0  0
  152.0118  143.2576  161.7719 H   0  0  0  0  0  0  0  0  0  0  0  0
  152.9974  144.6131  161.1928 H   0  0  0  0  0  0  0  0  0  0  0  0
  149.2182  141.6201  153.5596 H   0  0  0  0  0  0  0  0  0  0  0  0
  146.8943  140.8888  153.1127 H   0  0  0  0  0  0  0  0  0  0  0  0
  147.1118  139.4756  154.1393 H   0  0  0  0  0  0  0  0  0  0  0  0
  148.0235  139.6313  152.6415 H   0  0  0  0  0  0  0  0  0  0  0  0
  148.9506  138.0545  154.0489 H   0  0  0  0  0  0  0  0  0  0  0  0
  151.3273  137.0821  154.9643 H   0  0  0  0  0  0  0  0  0  0  0  0
  152.6726  139.3690  155.7631 H   0  0  0  0  0  0  0  0  0  0  0  0
  149.5516  143.2375  155.7036 H   0  0  0  0  0  0  0  0  0  0  0  0
  1  2  1  0  0  0  0
  1 19  1  0  0  0  0
  1 20  1  0  0  0  0
  1 21  1  0  0  0  0
  2  3  1  0  0  0  0
  2 12  1  0  0  0  0
  2 22  1  0  0  0  0
  3  4  1  0  0  0  0
  3 23  1  0  0  0  0
  3 41  1  0  0  0  0
  4  5  1  0  0  0  0
  4 24  1  0  0  0  0
  4 25  1  0  0  0  0
  5  6  1  0  0  0  0
  5 26  1  0  0  0  0
  5 27  1  0  0  0  0
  6 10  1  0  0  0  0
  6  7  1  0  0  0  0
  7  8  1  0  0  0  0
  7 28  1  0  0  0  0
  7 29  1  0  0  0  0
  8  9  1  0  0  0  0
  8 30  1  0  0  0  0
  8 31  1  0  0  0  0
  9 10  1  0  0  0  0
  9 32  1  0  0  0  0
  9 33  1  0  0  0  0
 10 11  2  0  0  0  0
 12 13  1  0  0  0  0
 12 14  1  0  0  0  0
 12 34  1  0  0  0  0
 13 35  1  0  0  0  0
 13 36  1  0  0  0  0
 13 37  1  0  0  0  0
 14 18  1  0  0  0  0
 14 15  1  0  0  0  0
 15 16  2  0  0  0  0
 15 38  1  0  0  0  0
 16 17  1  0  0  0  0
 16 39  1  0  0  0  0
 17 18  2  0  0  0  0
 17 40  1  0  0  0  0
M  CHG  1   3   1
M  END
> <s_m_source_file>
AV-unprocessed.smi

> <i_m_source_file_index>
3222

> <i_lp_mmshare_version>
43012

> <i_f3d_flags>
0

> <s_epik_input>
bjFbY0hdW2NIXVtjSF1uMVtDQEBIXShbQ0gzXSlbQ0BIXShbQ0gzXSlbTkhdW0NIMl1bQ0gyXU4yW0NIMl1bQ0gyXVtDSDJdQzI9Tw==

> <s_epik_cmdline>
J2VwaWtfcHl0aG9uJywgJy1waCcsICc3LjAnLCAnLXRuJywgJzgnLCAnLW1hJywgJzIwMCcsICctbWV0YWxfYmluZGluZycsICctaW1hZScsICc8aW5maWxlLm1hZT4nLCAnLW9tYWUnLCAnPG91dGZpbGUubWFlPic=

> <r_lp_tautomer_probability>
1

> <r_epik_Ionization_Penalty>
0.0064019

> <r_epik_Ionization_Penalty_Charging>
0.00639164

> <r_epik_Ionization_Penalty_Neutral>
1.02567e-05

> <r_epik_State_Penalty>
0.00472531

> <r_epik_Charging_Adjusted_Penalty>
0.011117

> <i_epik_Tot_Q>
1

> <i_epik_Tot_abs_Q>
1

> <r_epik_Metal_State_Penalty>
-0

> <b_epik_Metal_Only>
0

> <s_lp_Force_Field>
OPLS_2005

> <r_lp_Energy>
24.0012

> <b_lp_Chiralities_Consistent>
1

> <s_lp_Variant>
AV-unprocessed.smi:3222-2

> <Gold.Version>
5.8.1

> <Gold.Id.Protein>
6NUR|6NUR_protein|mol2

> <Gold.PLP.Fitness>
46.2514

> <Gold.PLP.PLP>
-37.8985

> <Gold.PLP.part.hbond>
-2.4577

> <Gold.PLP.part.metal>
0.0000

> <Gold.PLP.part.buried>
-2.6268

> <Gold.PLP.part.nonpolar>
-33.6988

> <Gold.PLP.part.repulsive>
0.2894

> <Gold.PLP.ligand.clash>
0.0000

> <Gold.PLP.ligand.torsion>
1.0804

> <Gold.PLP.Chemscore.Hbond>
2.6850

> <Gold.PLP.Chemscore.CHOScore>
0.7750

> <Gold.PLP.Chemscore.Metal>
0.0000

> <Gold.Chemscore.Hbonds>
donor molecule, donor type, donor heavy atom, donor atom, acceptor molecule, acceptor atom, score
      L1  H     3    41       P1  8028  1.57
      P1  H  7989  7998       L1    18  0.57
      L1  C    15    38       P1  7948  0.24

> <Gold.PLP.Chemscore.Internal.Correction>
0.1339

> <Gold.Rescore>
     Score         DG    S(hbond)    S(metal)    S(lipo)     H(rot)  DE(clash)    DE(int)     intcor
     13.24     -16.15       1.78        0.00      84.10       1.99       0.06       2.86       ----

> <Gold.Chemscore.Fitness>
13.2355

> <Gold.Chemscore.DG>
-16.1489

> <Gold.Chemscore.ZeroCoef>
-5.4800

> <Gold.Chemscore.Hbond>
1.7753

> <Gold.Chemscore.Metal>
0.0000

> <Gold.Chemscore.Lipo>
84.0977

> <Gold.Chemscore.Internal_Hbond>
0.0000

> <Gold.Chemscore.DEClash>
0.0562

> <Gold.Chemscore.DEInternal>
2.8572

> <Gold.Chemscore.Rot>
1.9922

> <Gold.Chemscore.Internal.Correction>
   9.000000E+99

> <Gold.Chemscore.Hbonds>
donor molecule, donor type, donor heavy atom, donor atom, acceptor molecule, acceptor atom, score
      L1  H     3    41       P1  8028  0.77
      P1  H  7989  7998       L1    18  0.01

> <Gold.Chemscore.Hbond.Weighted>
-5.9296

> <Gold.Chemscore.Metal.Weighted>
-0.0000

> <Gold.Chemscore.Lipo.Weighted>
-9.8394

> <Gold.Chemscore.Internal_Hbond.Weighted>
0.0000

> <Gold.Chemscore.DEClash.Weighted>
0.0562

> <Gold.Chemscore.DEInternal.Weighted>
2.8572

> <Gold.Chemscore.Rot.Weighted>
5.1002

> <Gold.Chemscore.Internal.Correction.Weighted>
   9.000000E+99

> <Gold.Protein.RotatedTorsions>
[ 6907 6896 6895 6894 ] final -101.27 input  -60.11 | X-H torsion
[ 7974 7965 7964 7962 ] final   21.16 input  175.53 | X-H torsion
[ 8008 7997 7996 7995 ] final  175.78 input   59.86 | X-H torsion
[ 10167 10162 10161 10158 ] final   27.06 input  -65.29 | X-H torsion
[ 10718 10713 10712 10709 ] final   55.06 input   66.30 | X-H torsion
[ 10763 10752 10751 10750 ] final -168.58 input  -60.55 | X-H torsion
[ 11005 11000 10999 10996 ] final   45.61 input  -57.11 | X-H torsion

> <Gold.Protein.ActiveResidues>
 VAL166  LYS551  ARG553  GLY616  TRP617  ASP618  TYR619  PRO620  LYS621  CYS622 
 ASP623  PHE694  ASN695  SER759  ASP760  ASP761  ALA762  ILE779  LEU786  VAL792 
 PHE793  MET794  SER795  GLU796  ALA797  LYS798  CYS799  TRP800  GLU811  SER814 

> <Gold.Protein.RotatedAtoms>
  150.7148  134.0759  159.3880 H   0  0  0  0  0  0  0  0  0  0  0  0  # atno 6907 bound_to 6896
  151.8742  135.0475  160.0491 H   0  0  0  0  0  0  0  0  0  0  0  0  # atno 6908 bound_to 6896
  152.2619  133.5269  159.5423 H   0  0  0  0  0  0  0  0  0  0  0  0  # atno 6909 bound_to 6896
  146.2082  139.8066  142.8709 H   0  0  0  0  0  0  0  0  0  0  0  0  # atno 7974 bound_to 7965
  156.0834  140.1400  156.9684 H   0  0  0  0  0  0  0  0  0  0  0  0  # atno 8008 bound_to 7997
  154.4598  140.0947  156.6910 H   0  0  0  0  0  0  0  0  0  0  0  0  # atno 8009 bound_to 7997
  155.5039  140.3451  155.4378 H   0  0  0  0  0  0  0  0  0  0  0  0  # atno 8010 bound_to 7997
  140.4970  144.0376  150.6318 H   0  0  0  0  0  0  0  0  0  0  0  0  # atno 10167 bound_to 10162
  157.5312  130.8632  149.8690 H   0  0  0  0  0  0  0  0  0  0  0  0  # atno 10718 bound_to 10713
  154.6614  135.2925  154.9862 H   0  0  0  0  0  0  0  0  0  0  0  0  # atno 10763 bound_to 10752
  154.0920  135.6589  153.4858 H   0  0  0  0  0  0  0  0  0  0  0  0  # atno 10764 bound_to 10752
  153.0432  135.5222  154.7567 H   0  0  0  0  0  0  0  0  0  0  0  0  # atno 10765 bound_to 10752
  140.1444  134.4542  155.8426 H   0  0  0  0  0  0  0  0  0  0  0  0  # atno 11005 bound_to 11000
  145.3240  141.0251  143.3484 LP  0  0  0  0  0  0  0  0  0  0  0  0  # atno 17320 bound_to 7965
  144.8846  139.4857  143.6706 LP  0  0  0  0  0  0  0  0  0  0  0  0  # atno 17321 bound_to 7965
  140.3661  143.2880  152.0330 LP  0  0  0  0  0  0  0  0  0  0  0  0  # atno 17342 bound_to 10162
  139.4863  144.6266  151.7153 LP  0  0  0  0  0  0  0  0  0  0  0  0  # atno 17343 bound_to 10162
  156.0424  130.3736  150.1402 LP  0  0  0  0  0  0  0  0  0  0  0  0  # atno 17370 bound_to 10713
  156.9586  130.9798  151.3483 LP  0  0  0  0  0  0  0  0  0  0  0  0  # atno 17371 bound_to 10713
  141.2190  133.6846  156.7306 LP  0  0  0  0  0  0  0  0  0  0  0  0  # atno 17394 bound_to 11000
  140.2682  134.8413  157.3823 LP  0  0  0  0  0  0  0  0  0  0  0  0  # atno 17395 bound_to 11000

$$$$
