AV-unprocessed.smi:3287|AV-procd|sdf|12594|dock2
  -GOLD-   2272018513D 1   1.00000     0.00000
 Structure written by MMmdl.
 43 44  0  0  0  0  0  0  0  0  2 V2000
  153.5165  142.2908  160.5188 C   0  0  0  0  0  0  0  0  0  0  0  0
  152.2286  142.3143  159.6766 C   0  0  2  0  0  0  0  0  0  0  0  0
  152.2396  141.1422  158.6745 C   0  0  0  0  0  0  0  0  0  0  0  0
  150.9714  141.1113  157.8118 C   0  0  0  0  0  0  0  0  0  0  0  0
  150.7864  142.4348  157.0541 C   0  0  1  0  0  0  0  0  0  0  0  0
  149.5581  142.3723  156.2313 N   0  3  0  0  0  0  0  0  0  0  0  0
  149.4938  141.2456  155.2751 C   0  0  0  0  0  0  0  0  0  0  0  0
  148.5136  141.5368  154.1255 C   0  0  1  0  0  0  0  0  0  0  0  0
  148.4093  140.3851  153.3110 O   0  0  0  0  0  0  0  0  0  0  0  0
  147.1592  141.9754  154.6607 C   0  0  0  0  0  0  0  0  0  0  0  0
  146.5510  141.3105  155.7479 C   0  0  0  0  0  0  0  0  0  0  0  0
  145.2992  141.7696  156.2042 C   0  0  0  0  0  0  0  0  0  0  0  0
  144.6500  142.8185  155.6556 N   0  0  0  0  0  0  0  0  0  0  0  0
  145.2370  143.4524  154.6182 C   0  0  0  0  0  0  0  0  0  0  0  0
  146.4856  143.0732  154.0858 C   0  0  0  0  0  0  0  0  0  0  0  0
  150.7477  143.6076  158.0543 C   0  0  0  0  0  0  0  0  0  0  0  0
  152.0108  143.6628  158.9402 C   0  0  1  0  0  0  0  0  0  0  0  0
  151.9210  144.8618  159.9013 C   0  0  0  0  0  0  0  0  0  0  0  0
  154.3933  142.5157  159.9107 H   0  0  0  0  0  0  0  0  0  0  0  0
  153.6706  141.3103  160.9704 H   0  0  0  0  0  0  0  0  0  0  0  0
  153.4799  143.0111  161.3355 H   0  0  0  0  0  0  0  0  0  0  0  0
  151.3891  142.1597  160.3563 H   0  0  0  0  0  0  0  0  0  0  0  0
  153.1153  141.2174  158.0281 H   0  0  0  0  0  0  0  0  0  0  0  0
  152.3341  140.1962  159.2091 H   0  0  0  0  0  0  0  0  0  0  0  0
  151.0308  140.2808  157.1073 H   0  0  0  0  0  0  0  0  0  0  0  0
  150.1050  140.9183  158.4464 H   0  0  0  0  0  0  0  0  0  0  0  0
  151.6385  142.5631  156.3845 H   0  0  0  0  0  0  0  0  0  0  0  0
  148.7744  142.2758  156.8609 H   0  0  0  0  0  0  0  0  0  0  0  0
  150.4858  141.0333  154.8761 H   0  0  0  0  0  0  0  0  0  0  0  0
  149.1667  140.3536  155.8115 H   0  0  0  0  0  0  0  0  0  0  0  0
  148.9144  142.3394  153.5046 H   0  0  0  0  0  0  0  0  0  0  0  0
  149.0635  140.4393  152.6303 H   0  0  0  0  0  0  0  0  0  0  0  0
  147.0289  140.4681  156.2258 H   0  0  0  0  0  0  0  0  0  0  0  0
  144.8076  141.2819  157.0328 H   0  0  0  0  0  0  0  0  0  0  0  0
  144.6961  144.2882  154.1997 H   0  0  0  0  0  0  0  0  0  0  0  0
  146.9109  143.6173  153.2556 H   0  0  0  0  0  0  0  0  0  0  0  0
  150.6496  144.5529  157.5205 H   0  0  0  0  0  0  0  0  0  0  0  0
  149.8628  143.5197  158.6868 H   0  0  0  0  0  0  0  0  0  0  0  0
  152.8664  143.8328  158.2846 H   0  0  0  0  0  0  0  0  0  0  0  0
  151.1252  144.7237  160.6340 H   0  0  0  0  0  0  0  0  0  0  0  0
  151.7137  145.7846  159.3586 H   0  0  0  0  0  0  0  0  0  0  0  0
  152.8531  145.0187  160.4433 H   0  0  0  0  0  0  0  0  0  0  0  0
  149.4541  143.2403  155.7249 H   0  0  0  0  0  0  0  0  0  0  0  0
  1  2  1  0  0  0  0
  1 19  1  0  0  0  0
  1 20  1  0  0  0  0
  1 21  1  0  0  0  0
  2 17  1  0  0  0  0
  2  3  1  0  0  0  0
  2 22  1  0  0  0  0
  3  4  1  0  0  0  0
  3 23  1  0  0  0  0
  3 24  1  0  0  0  0
  4  5  1  0  0  0  0
  4 25  1  0  0  0  0
  4 26  1  0  0  0  0
  5  6  1  0  0  0  0
  5 16  1  0  0  0  0
  5 27  1  0  0  0  0
  6  7  1  0  0  0  0
  6 28  1  0  0  0  0
  6 43  1  0  0  0  0
  7  8  1  0  0  0  0
  7 29  1  0  0  0  0
  7 30  1  0  0  0  0
  8  9  1  0  0  0  0
  8 10  1  0  0  0  0
  8 31  1  0  0  0  0
  9 32  1  0  0  0  0
 10 15  1  0  0  0  0
 10 11  2  0  0  0  0
 11 12  1  0  0  0  0
 11 33  1  0  0  0  0
 12 13  2  0  0  0  0
 12 34  1  0  0  0  0
 13 14  1  0  0  0  0
 14 15  2  0  0  0  0
 14 35  1  0  0  0  0
 15 36  1  0  0  0  0
 16 17  1  0  0  0  0
 16 37  1  0  0  0  0
 16 38  1  0  0  0  0
 17 18  1  0  0  0  0
 17 39  1  0  0  0  0
 18 40  1  0  0  0  0
 18 41  1  0  0  0  0
 18 42  1  0  0  0  0
M  CHG  1   6   1
M  END
> <s_m_source_file>
AV-unprocessed.smi

> <i_m_source_file_index>
3287

> <i_lp_mmshare_version>
43012

> <i_f3d_flags>
0

> <s_epik_input>
W0NIM11bQ0BASF0xW0NIMl1bQ0gyXVtDQEhdKFtDSDJdW0NASF0xW0NIM10pW05IXVtDSDJdW0NASF0oW09IXSljMltjSF1bY0hdbltjSF1bY0hdMg==

> <s_epik_cmdline>
J2VwaWtfcHl0aG9uJywgJy1waCcsICc3LjAnLCAnLXRuJywgJzgnLCAnLW1hJywgJzIwMCcsICctbWV0YWxfYmluZGluZycsICctaW1hZScsICc8aW5maWxlLm1hZT4nLCAnLW9tYWUnLCAnPG91dGZpbGUubWFlPic=

> <r_lp_tautomer_probability>
1

> <r_epik_Ionization_Penalty>
0.00537262

> <r_epik_Ionization_Penalty_Charging>
0.00321624

> <r_epik_Ionization_Penalty_Neutral>
0.00215638

> <r_epik_State_Penalty>
-0

> <r_epik_Charging_Adjusted_Penalty>
0.00321624

> <i_epik_Tot_Q>
1

> <i_epik_Tot_abs_Q>
1

> <r_epik_Metal_State_Penalty>
-0

> <b_epik_Metal_Only>
0

> <s_lp_Force_Field>
OPLS_2005

> <r_lp_Energy>
16.1009

> <b_lp_Chiralities_Consistent>
1

> <s_lp_Variant>
AV-unprocessed.smi:3287-5

> <Gold.Version>
5.8.1

> <Gold.Id.Protein>
6NUR|6NUR_protein|mol2

> <Gold.PLP.Fitness>
50.3394

> <Gold.PLP.PLP>
-42.5323

> <Gold.PLP.part.hbond>
-1.6876

> <Gold.PLP.part.metal>
0.0000

> <Gold.PLP.part.buried>
-4.2441

> <Gold.PLP.part.nonpolar>
-37.3642

> <Gold.PLP.part.repulsive>
0.2241

> <Gold.PLP.ligand.clash>
0.0000

> <Gold.PLP.ligand.torsion>
0.5811

> <Gold.PLP.Chemscore.Hbond>
2.9840

> <Gold.PLP.Chemscore.CHOScore>
0.0000

> <Gold.PLP.Chemscore.Metal>
0.0000

> <Gold.Chemscore.Hbonds>
donor molecule, donor type, donor heavy atom, donor atom, acceptor molecule, acceptor atom, score
      L1  H     6    43       P1  8028  1.98
      L1  H     9    32       P1  7957  1.00

> <Gold.PLP.Chemscore.Internal.Correction>
0.0172

> <Gold.Rescore>
     Score         DG    S(hbond)    S(metal)    S(lipo)     H(rot)  DE(clash)    DE(int)     intcor
     20.00     -20.42       1.91        0.00     114.97       1.90       0.11       0.31       ----

> <Gold.Chemscore.Fitness>
20.0041

> <Gold.Chemscore.DG>
-20.4221

> <Gold.Chemscore.ZeroCoef>
-5.4800

> <Gold.Chemscore.Hbond>
1.9051

> <Gold.Chemscore.Metal>
0.0000

> <Gold.Chemscore.Lipo>
114.9740

> <Gold.Chemscore.Internal_Hbond>
0.0000

> <Gold.Chemscore.DEClash>
0.1062

> <Gold.Chemscore.DEInternal>
0.3117

> <Gold.Chemscore.Rot>
1.9035

> <Gold.Chemscore.Internal.Correction>
   9.000000E+99

> <Gold.Chemscore.Hbonds>
donor molecule, donor type, donor heavy atom, donor atom, acceptor molecule, acceptor atom, score
      L1  H     6    43       P1  8028  0.92
      L1  H     9    32       P1  7957  0.95

> <Gold.Chemscore.Hbond.Weighted>
-6.3630

> <Gold.Chemscore.Metal.Weighted>
-0.0000

> <Gold.Chemscore.Lipo.Weighted>
-13.4520

> <Gold.Chemscore.Internal_Hbond.Weighted>
0.0000

> <Gold.Chemscore.DEClash.Weighted>
0.1062

> <Gold.Chemscore.DEInternal.Weighted>
0.3117

> <Gold.Chemscore.Rot.Weighted>
4.8729

> <Gold.Chemscore.Internal.Correction.Weighted>
   9.000000E+99

> <Gold.Protein.RotatedTorsions>
[ 6907 6896 6895 6894 ] final  -23.74 input  -60.11 | X-H torsion
[ 7974 7965 7964 7962 ] final  -35.91 input  175.53 | X-H torsion
[ 8008 7997 7996 7995 ] final  163.23 input   59.86 | X-H torsion
[ 10167 10162 10161 10158 ] final  121.45 input  -65.29 | X-H torsion
[ 10718 10713 10712 10709 ] final -179.44 input   66.30 | X-H torsion
[ 10763 10752 10751 10750 ] final  -66.00 input  -60.55 | X-H torsion
[ 11005 11000 10999 10996 ] final  -99.01 input  -57.11 | X-H torsion

> <Gold.Protein.ActiveResidues>
 VAL166  LYS551  ARG553  GLY616  TRP617  ASP618  TYR619  PRO620  LYS621  CYS622 
 ASP623  PHE694  ASN695  SER759  ASP760  ASP761  ALA762  ILE779  LEU786  VAL792 
 PHE793  MET794  SER795  GLU796  ALA797  LYS798  CYS799  TRP800  GLU811  SER814 

> <Gold.Protein.RotatedAtoms>
  151.1996  135.0437  159.8866 H   0  0  0  0  0  0  0  0  0  0  0  0  # atno 6907 bound_to 6896
  152.5433  134.0865  159.8268 H   0  0  0  0  0  0  0  0  0  0  0  0  # atno 6908 bound_to 6896
  151.1004  133.5200  159.2642 H   0  0  0  0  0  0  0  0  0  0  0  0  # atno 6909 bound_to 6896
  146.0706  140.6216  142.8954 H   0  0  0  0  0  0  0  0  0  0  0  0  # atno 7974 bound_to 7965
  156.1972  140.1729  156.7973 H   0  0  0  0  0  0  0  0  0  0  0  0  # atno 8008 bound_to 7997
  154.5545  140.0711  156.8753 H   0  0  0  0  0  0  0  0  0  0  0  0  # atno 8009 bound_to 7997
  155.2965  140.3358  155.4252 H   0  0  0  0  0  0  0  0  0  0  0  0  # atno 8010 bound_to 7997
  139.5919  144.7028  151.3270 H   0  0  0  0  0  0  0  0  0  0  0  0  # atno 10167 bound_to 10162
  156.8592  130.9745  151.3085 H   0  0  0  0  0  0  0  0  0  0  0  0  # atno 10718 bound_to 10713
  154.3534  135.6131  153.5654 H   0  0  0  0  0  0  0  0  0  0  0  0  # atno 10763 bound_to 10752
  152.9797  135.5798  154.4717 H   0  0  0  0  0  0  0  0  0  0  0  0  # atno 10764 bound_to 10752
  154.4442  135.2851  155.1804 H   0  0  0  0  0  0  0  0  0  0  0  0  # atno 10765 bound_to 10752
  141.1324  133.8289  157.0916 H   0  0  0  0  0  0  0  0  0  0  0  0  # atno 11005 bound_to 11000
  144.7229  140.4433  143.6994 LP  0  0  0  0  0  0  0  0  0  0  0  0  # atno 17320 bound_to 7965
  145.6397  139.1548  143.2922 LP  0  0  0  0  0  0  0  0  0  0  0  0  # atno 17321 bound_to 7965
  140.7180  143.7214  150.7693 LP  0  0  0  0  0  0  0  0  0  0  0  0  # atno 17342 bound_to 10162
  140.0772  143.5004  152.2549 LP  0  0  0  0  0  0  0  0  0  0  0  0  # atno 17343 bound_to 10162
  157.6260  130.8692  149.9190 LP  0  0  0  0  0  0  0  0  0  0  0  0  # atno 17370 bound_to 10713
  156.0786  130.3676  150.0627 LP  0  0  0  0  0  0  0  0  0  0  0  0  # atno 17371 bound_to 10713
  140.0389  134.9864  157.0924 LP  0  0  0  0  0  0  0  0  0  0  0  0  # atno 17394 bound_to 11000
  140.4167  134.1924  155.7163 LP  0  0  0  0  0  0  0  0  0  0  0  0  # atno 17395 bound_to 11000

$$$$
