AV-unprocessed.smi:3240|AV-procd|sdf|12382|dock10
  -GOLD-   2272018243D 1   1.00000     0.00000
 Structure written by MMmdl.
 44 45  0  0  0  0  0  0  0  0  2 V2000
  145.2648  132.3459  151.5966 C   0  0  0  0  0  0  0  0  0  0  0  0
  146.2758  132.5007  152.6961 C   0  0  0  0  0  0  0  0  0  0  0  0
  146.0507  132.4830  154.1019 C   0  0  0  0  0  0  0  0  0  0  0  0
  147.1612  132.6496  154.8018 N   0  0  0  0  0  0  0  0  0  0  0  0
  148.1305  132.7802  153.8720 N   0  0  0  0  0  0  0  0  0  0  0  0
  149.5086  132.9809  154.2812 C   0  0  0  0  0  0  0  0  0  0  0  0
  149.6756  134.2156  155.2013 C   0  0  1  0  0  0  0  0  0  0  0  0
  150.6555  133.9258  156.3474 C   0  0  0  0  0  0  0  0  0  0  0  0
  150.1463  135.3993  154.4473 N   0  3  0  0  0  0  0  0  0  0  0  0
  150.5952  136.5423  155.2724 C   0  0  0  0  0  0  0  0  0  0  0  0
  151.2920  137.6376  154.4291 C   0  0  0  0  0  0  0  0  0  0  0  0
  152.0455  136.9764  153.4300 O   0  0  0  0  0  0  0  0  0  0  0  0
  150.3010  138.6033  153.7332 C   0  0  0  0  0  0  0  0  0  0  0  0
  149.5942  139.5376  154.7312 C   0  0  0  0  0  0  0  0  0  0  0  0
  150.6114  140.3272  155.5700 C   0  0  0  0  0  0  0  0  0  0  0  0
  151.6025  139.3914  156.2794 C   0  0  0  0  0  0  0  0  0  0  0  0
  152.2978  138.4496  155.2792 C   0  0  0  0  0  0  0  0  0  0  0  0
  147.6243  132.6930  152.5927 C   0  0  0  0  0  0  0  0  0  0  0  0
  144.2675  132.1423  151.9872 H   0  0  0  0  0  0  0  0  0  0  0  0
  145.5211  131.5243  150.9273 H   0  0  0  0  0  0  0  0  0  0  0  0
  145.1925  133.2474  150.9880 H   0  0  0  0  0  0  0  0  0  0  0  0
  145.1178  132.3552  154.6311 H   0  0  0  0  0  0  0  0  0  0  0  0
  149.8336  132.0725  154.7905 H   0  0  0  0  0  0  0  0  0  0  0  0
  150.1343  133.0547  153.3898 H   0  0  0  0  0  0  0  0  0  0  0  0
  148.7186  134.4723  155.6598 H   0  0  0  0  0  0  0  0  0  0  0  0
  150.3110  133.0880  156.9548 H   0  0  0  0  0  0  0  0  0  0  0  0
  150.7564  134.7881  157.0074 H   0  0  0  0  0  0  0  0  0  0  0  0
  151.6483  133.6774  155.9700 H   0  0  0  0  0  0  0  0  0  0  0  0
  150.9365  135.1156  153.8854 H   0  0  0  0  0  0  0  0  0  0  0  0
  149.7350  136.9623  155.7885 H   0  0  0  0  0  0  0  0  0  0  0  0
  151.2739  136.1756  156.0440 H   0  0  0  0  0  0  0  0  0  0  0  0
  151.4487  136.5203  152.8556 H   0  0  0  0  0  0  0  0  0  0  0  0
  150.8424  139.2184  153.0126 H   0  0  0  0  0  0  0  0  0  0  0  0
  149.5600  138.0534  153.1522 H   0  0  0  0  0  0  0  0  0  0  0  0
  148.9469  140.2303  154.1922 H   0  0  0  0  0  0  0  0  0  0  0  0
  148.9418  138.9612  155.3877 H   0  0  0  0  0  0  0  0  0  0  0  0
  151.1598  141.0140  154.9239 H   0  0  0  0  0  0  0  0  0  0  0  0
  150.0910  140.9436  156.3037 H   0  0  0  0  0  0  0  0  0  0  0  0
  152.3506  139.9821  156.8090 H   0  0  0  0  0  0  0  0  0  0  0  0
  151.0816  138.8123  157.0422 H   0  0  0  0  0  0  0  0  0  0  0  0
  152.9748  137.7805  155.8119 H   0  0  0  0  0  0  0  0  0  0  0  0
  152.9273  139.0525  154.6223 H   0  0  0  0  0  0  0  0  0  0  0  0
  148.2587  132.7748  151.7222 H   0  0  0  0  0  0  0  0  0  0  0  0
  149.4101  135.7079  153.8291 H   0  0  0  0  0  0  0  0  0  0  0  0
  1  2  1  0  0  0  0
  1 19  1  0  0  0  0
  1 20  1  0  0  0  0
  1 21  1  0  0  0  0
  2 18  2  0  0  0  0
  2  3  1  0  0  0  0
  3  4  2  0  0  0  0
  3 22  1  0  0  0  0
  4  5  1  0  0  0  0
  5  6  1  0  0  0  0
  5 18  1  0  0  0  0
  6  7  1  0  0  0  0
  6 23  1  0  0  0  0
  6 24  1  0  0  0  0
  7  8  1  0  0  0  0
  7  9  1  0  0  0  0
  7 25  1  0  0  0  0
  8 26  1  0  0  0  0
  8 27  1  0  0  0  0
  8 28  1  0  0  0  0
  9 10  1  0  0  0  0
  9 29  1  0  0  0  0
  9 44  1  0  0  0  0
 10 11  1  0  0  0  0
 10 30  1  0  0  0  0
 10 31  1  0  0  0  0
 11 17  1  0  0  0  0
 11 12  1  0  0  0  0
 11 13  1  0  0  0  0
 12 32  1  0  0  0  0
 13 14  1  0  0  0  0
 13 33  1  0  0  0  0
 13 34  1  0  0  0  0
 14 15  1  0  0  0  0
 14 35  1  0  0  0  0
 14 36  1  0  0  0  0
 15 16  1  0  0  0  0
 15 37  1  0  0  0  0
 15 38  1  0  0  0  0
 16 17  1  0  0  0  0
 16 39  1  0  0  0  0
 16 40  1  0  0  0  0
 17 41  1  0  0  0  0
 17 42  1  0  0  0  0
 18 43  1  0  0  0  0
M  CHG  1   9   1
M  END
> <s_m_source_file>
AV-unprocessed.smi

> <i_m_source_file_index>
3240

> <i_lp_mmshare_version>
43012

> <i_f3d_flags>
0

> <s_epik_input>
W0NIM11jMVtjSF1ubihbY0hdMSlbQ0gyXVtDQEhdKFtDSDNdKVtOSF1bQ0gyXUMyKFtPSF0pW0NIMl1bQ0gyXVtDSDJdW0NIMl1bQ0gyXTI=

> <s_epik_cmdline>
J2VwaWtfcHl0aG9uJywgJy1waCcsICc3LjAnLCAnLXRuJywgJzgnLCAnLW1hJywgJzIwMCcsICctbWV0YWxfYmluZGluZycsICctaW1hZScsICc8aW5maWxlLm1hZT4nLCAnLW9tYWUnLCAnPG91dGZpbGUubWFlPic=

> <r_lp_tautomer_probability>
1

> <r_epik_Ionization_Penalty>
0.0111573

> <r_epik_Ionization_Penalty_Charging>
0.0111472

> <r_epik_Ionization_Penalty_Neutral>
1.01652e-05

> <r_epik_State_Penalty>
0.00856328

> <r_epik_Charging_Adjusted_Penalty>
0.0197104

> <i_epik_Tot_Q>
1

> <i_epik_Tot_abs_Q>
1

> <r_epik_Metal_State_Penalty>
0.00856448

> <b_epik_Metal_Only>
0

> <s_lp_Force_Field>
OPLS_2005

> <r_lp_Energy>
18.8853

> <b_lp_Chiralities_Consistent>
1

> <s_lp_Variant>
AV-unprocessed.smi:3240-2

> <Gold.Version>
5.8.1

> <Gold.Id.Protein>
6NUR|6NUR_protein|mol2

> <Gold.PLP.Fitness>
49.5194

> <Gold.PLP.PLP>
-34.5363

> <Gold.PLP.part.hbond>
-3.6386

> <Gold.PLP.part.metal>
0.0000

> <Gold.PLP.part.buried>
-3.1258

> <Gold.PLP.part.nonpolar>
-29.2013

> <Gold.PLP.part.repulsive>
0.1100

> <Gold.PLP.ligand.clash>
0.0000

> <Gold.PLP.ligand.torsion>
1.0726

> <Gold.PLP.Chemscore.Hbond>
3.9200

> <Gold.PLP.Chemscore.CHOScore>
1.7784

> <Gold.PLP.Chemscore.Metal>
0.0000

> <Gold.Chemscore.Hbonds>
donor molecule, donor type, donor heavy atom, donor atom, acceptor molecule, acceptor atom, score
      L1  H     9    44       P1  7948  1.63
      L1  H    12    32       P1  7949  0.84
      P1  H 10752 10763       L1    12  1.00
      L1  C     3    22       P1 10957  1.00
      L1  C    18    43       P1 10747  0.92

> <Gold.PLP.Chemscore.Internal.Correction>
0.0331

> <Gold.Rescore>
     Score         DG    S(hbond)    S(metal)    S(lipo)     H(rot)  DE(clash)    DE(int)     intcor
     16.23     -17.70       2.40        0.00      82.37       2.12       0.01       1.47       ----

> <Gold.Chemscore.Fitness>
16.2252

> <Gold.Chemscore.DG>
-17.7003

> <Gold.Chemscore.ZeroCoef>
-5.4800

> <Gold.Chemscore.Hbond>
2.3978

> <Gold.Chemscore.Metal>
0.0000

> <Gold.Chemscore.Lipo>
82.3668

> <Gold.Chemscore.Internal_Hbond>
0.0000

> <Gold.Chemscore.DEClash>
0.0089

> <Gold.Chemscore.DEInternal>
1.4663

> <Gold.Chemscore.Rot>
2.1193

> <Gold.Chemscore.Internal.Correction>
   9.000000E+99

> <Gold.Chemscore.Hbonds>
donor molecule, donor type, donor heavy atom, donor atom, acceptor molecule, acceptor atom, score
      L1  H     9    44       P1  7948  0.38
      L1  H    12    32       P1  7949  0.73
      P1  H 10752 10763       L1    12  0.28

> <Gold.Chemscore.Hbond.Weighted>
-8.0088

> <Gold.Chemscore.Metal.Weighted>
-0.0000

> <Gold.Chemscore.Lipo.Weighted>
-9.6369

> <Gold.Chemscore.Internal_Hbond.Weighted>
0.0000

> <Gold.Chemscore.DEClash.Weighted>
0.0089

> <Gold.Chemscore.DEInternal.Weighted>
1.4663

> <Gold.Chemscore.Rot.Weighted>
5.4254

> <Gold.Chemscore.Internal.Correction.Weighted>
   9.000000E+99

> <Gold.Protein.RotatedTorsions>
[ 6907 6896 6895 6894 ] final -125.14 input  -60.11 | X-H torsion
[ 7974 7965 7964 7962 ] final  -11.83 input  175.53 | X-H torsion
[ 8008 7997 7996 7995 ] final   46.21 input   59.86 | X-H torsion
[ 10167 10162 10161 10158 ] final -144.37 input  -65.29 | X-H torsion
[ 10718 10713 10712 10709 ] final  -24.61 input   66.30 | X-H torsion
[ 10763 10752 10751 10750 ] final   34.34 input  -60.55 | X-H torsion
[ 11005 11000 10999 10996 ] final  -65.16 input  -57.11 | X-H torsion

> <Gold.Protein.ActiveResidues>
 VAL166  LYS551  ARG553  GLY616  TRP617  ASP618  TYR619  PRO620  LYS621  CYS622 
 ASP623  PHE694  ASN695  SER759  ASP760  ASP761  ALA762  ILE779  LEU786  VAL792 
 PHE793  MET794  SER795  GLU796  ALA797  LYS798  CYS799  TRP800  GLU811  SER814 

> <Gold.Protein.RotatedAtoms>
  150.8838  133.7336  159.2924 H   0  0  0  0  0  0  0  0  0  0  0  0  # atno 6907 bound_to 6896
  151.4909  135.1056  159.9813 H   0  0  0  0  0  0  0  0  0  0  0  0  # atno 6908 bound_to 6896
  152.4776  133.8131  159.7069 H   0  0  0  0  0  0  0  0  0  0  0  0  # atno 6909 bound_to 6896
  146.2173  140.2969  142.8372 H   0  0  0  0  0  0  0  0  0  0  0  0  # atno 7974 bound_to 7965
  155.3487  140.3412  155.4239 H   0  0  0  0  0  0  0  0  0  0  0  0  # atno 8008 bound_to 7997
  156.1775  140.1652  156.8370 H   0  0  0  0  0  0  0  0  0  0  0  0  # atno 8009 bound_to 7997
  154.5298  140.0748  156.8307 H   0  0  0  0  0  0  0  0  0  0  0  0  # atno 8010 bound_to 7997
  139.7905  143.7973  152.2649 H   0  0  0  0  0  0  0  0  0  0  0  0  # atno 10167 bound_to 10162
  156.4754  130.4533  149.6844 H   0  0  0  0  0  0  0  0  0  0  0  0  # atno 10718 bound_to 10713
  153.0169  135.6363  154.1653 H   0  0  0  0  0  0  0  0  0  0  0  0  # atno 10763 bound_to 10752
  154.1391  135.2836  155.3167 H   0  0  0  0  0  0  0  0  0  0  0  0  # atno 10764 bound_to 10752
  154.6138  135.5547  153.7563 H   0  0  0  0  0  0  0  0  0  0  0  0  # atno 10765 bound_to 10752
  141.1446  133.6677  156.5943 H   0  0  0  0  0  0  0  0  0  0  0  0  # atno 11005 bound_to 11000
  144.9086  140.7730  143.5822 LP  0  0  0  0  0  0  0  0  0  0  0  0  # atno 17320 bound_to 7965
  145.2898  139.1888  143.4746 LP  0  0  0  0  0  0  0  0  0  0  0  0  # atno 17321 bound_to 7965
  139.8063  144.7354  150.9757 LP  0  0  0  0  0  0  0  0  0  0  0  0  # atno 17342 bound_to 10162
  140.7820  143.4295  151.0716 LP  0  0  0  0  0  0  0  0  0  0  0  0  # atno 17343 bound_to 10162
  156.3576  130.7464  151.2432 LP  0  0  0  0  0  0  0  0  0  0  0  0  # atno 17370 bound_to 10713
  157.7488  131.0359  150.4386 LP  0  0  0  0  0  0  0  0  0  0  0  0  # atno 17371 bound_to 10713
  140.3738  134.7582  157.4616 LP  0  0  0  0  0  0  0  0  0  0  0  0  # atno 17394 bound_to 11000
  140.0690  134.5889  155.8663 LP  0  0  0  0  0  0  0  0  0  0  0  0  # atno 17395 bound_to 11000

$$$$
