AV-unprocessed.smi:3287|AV-procd|sdf|12603|dock1
  -GOLD-   2272018533D 1   1.00000     0.00000
 Structure written by MMmdl.
 43 44  0  0  0  0  0  0  0  0  2 V2000
  147.7312  141.0830  156.8259 C   0  0  0  0  0  0  0  0  0  0  0  0
  147.8992  140.6970  155.3456 C   0  0  1  0  0  0  0  0  0  0  0  0
  148.0251  139.1653  155.2168 C   0  0  0  0  0  0  0  0  0  0  0  0
  148.2016  138.7162  153.7575 C   0  0  0  0  0  0  0  0  0  0  0  0
  147.0674  139.2302  152.8551 C   0  0  1  0  0  0  0  0  0  0  0  0
  145.8011  138.5260  153.1648 N   0  3  0  0  0  0  0  0  0  0  0  0
  145.7897  137.0743  152.8824 C   0  0  0  0  0  0  0  0  0  0  0  0
  145.3785  136.7910  151.4274 C   0  0  1  0  0  0  0  0  0  0  0  0
  146.2999  137.4264  150.5621 O   0  0  0  0  0  0  0  0  0  0  0  0
  145.2933  135.2958  151.1635 C   0  0  0  0  0  0  0  0  0  0  0  0
  144.0865  134.6934  150.7451 C   0  0  0  0  0  0  0  0  0  0  0  0
  144.0733  133.3041  150.5092 C   0  0  0  0  0  0  0  0  0  0  0  0
  145.1595  132.5164  150.6597 N   0  0  0  0  0  0  0  0  0  0  0  0
  146.3113  133.0978  151.0573 C   0  0  0  0  0  0  0  0  0  0  0  0
  146.4315  134.4772  151.3201 C   0  0  0  0  0  0  0  0  0  0  0  0
  146.9393  140.7622  152.9872 C   0  0  0  0  0  0  0  0  0  0  0  0
  146.7524  141.2314  154.4468 C   0  0  2  0  0  0  0  0  0  0  0  0
  146.6259  142.7648  154.4872 C   0  0  0  0  0  0  0  0  0  0  0  0
  146.7758  140.7367  157.2211 H   0  0  0  0  0  0  0  0  0  0  0  0
  147.7846  142.1615  156.9725 H   0  0  0  0  0  0  0  0  0  0  0  0
  148.5206  140.6435  157.4366 H   0  0  0  0  0  0  0  0  0  0  0  0
  148.8359  141.1357  154.9976 H   0  0  0  0  0  0  0  0  0  0  0  0
  148.8739  138.8129  155.8041 H   0  0  0  0  0  0  0  0  0  0  0  0
  147.1427  138.6864  155.6435 H   0  0  0  0  0  0  0  0  0  0  0  0
  149.1552  139.0923  153.3844 H   0  0  0  0  0  0  0  0  0  0  0  0
  148.2647  137.6287  153.7053 H   0  0  0  0  0  0  0  0  0  0  0  0
  147.3299  138.9873  151.8245 H   0  0  0  0  0  0  0  0  0  0  0  0
  145.6201  138.6408  154.1516 H   0  0  0  0  0  0  0  0  0  0  0  0
  146.7699  136.6412  153.0822 H   0  0  0  0  0  0  0  0  0  0  0  0
  145.0832  136.5940  153.5610 H   0  0  0  0  0  0  0  0  0  0  0  0
  144.3979  137.2302  151.2373 H   0  0  0  0  0  0  0  0  0  0  0  0
  145.8179  137.9769  149.9629 H   0  0  0  0  0  0  0  0  0  0  0  0
  143.1887  135.2777  150.6055 H   0  0  0  0  0  0  0  0  0  0  0  0
  143.1660  132.8133  150.1892 H   0  0  0  0  0  0  0  0  0  0  0  0
  147.1641  132.4442  151.1682 H   0  0  0  0  0  0  0  0  0  0  0  0
  147.3786  134.8913  151.6339 H   0  0  0  0  0  0  0  0  0  0  0  0
  147.8442  141.2202  152.5849 H   0  0  0  0  0  0  0  0  0  0  0  0
  146.1268  141.1356  152.3645 H   0  0  0  0  0  0  0  0  0  0  0  0
  145.8114  140.8192  154.8140 H   0  0  0  0  0  0  0  0  0  0  0  0
  147.5611  143.2484  154.2033 H   0  0  0  0  0  0  0  0  0  0  0  0
  146.3495  143.1236  155.4782 H   0  0  0  0  0  0  0  0  0  0  0  0
  145.8532  143.1116  153.8004 H   0  0  0  0  0  0  0  0  0  0  0  0
  145.0497  138.9643  152.6510 H   0  0  0  0  0  0  0  0  0  0  0  0
  1  2  1  0  0  0  0
  1 19  1  0  0  0  0
  1 20  1  0  0  0  0
  1 21  1  0  0  0  0
  2 17  1  0  0  0  0
  2  3  1  0  0  0  0
  2 22  1  0  0  0  0
  3  4  1  0  0  0  0
  3 23  1  0  0  0  0
  3 24  1  0  0  0  0
  4  5  1  0  0  0  0
  4 25  1  0  0  0  0
  4 26  1  0  0  0  0
  5  6  1  0  0  0  0
  5 16  1  0  0  0  0
  5 27  1  0  0  0  0
  6  7  1  0  0  0  0
  6 28  1  0  0  0  0
  6 43  1  0  0  0  0
  7  8  1  0  0  0  0
  7 29  1  0  0  0  0
  7 30  1  0  0  0  0
  8  9  1  0  0  0  0
  8 10  1  0  0  0  0
  8 31  1  0  0  0  0
  9 32  1  0  0  0  0
 10 15  1  0  0  0  0
 10 11  2  0  0  0  0
 11 12  1  0  0  0  0
 11 33  1  0  0  0  0
 12 13  2  0  0  0  0
 12 34  1  0  0  0  0
 13 14  1  0  0  0  0
 14 15  2  0  0  0  0
 14 35  1  0  0  0  0
 15 36  1  0  0  0  0
 16 17  1  0  0  0  0
 16 37  1  0  0  0  0
 16 38  1  0  0  0  0
 17 18  1  0  0  0  0
 17 39  1  0  0  0  0
 18 40  1  0  0  0  0
 18 41  1  0  0  0  0
 18 42  1  0  0  0  0
M  CHG  1   6   1
M  END
> <s_m_source_file>
AV-unprocessed.smi

> <i_m_source_file_index>
3287

> <i_lp_mmshare_version>
43012

> <i_f3d_flags>
0

> <s_epik_input>
W0NIM11bQ0BASF0xW0NIMl1bQ0gyXVtDQEhdKFtDSDJdW0NASF0xW0NIM10pW05IXVtDSDJdW0NASF0oW09IXSljMltjSF1bY0hdbltjSF1bY0hdMg==

> <s_epik_cmdline>
J2VwaWtfcHl0aG9uJywgJy1waCcsICc3LjAnLCAnLXRuJywgJzgnLCAnLW1hJywgJzIwMCcsICctbWV0YWxfYmluZGluZycsICctaW1hZScsICc8aW5maWxlLm1hZT4nLCAnLW9tYWUnLCAnPG91dGZpbGUubWFlPic=

> <r_lp_tautomer_probability>
1

> <r_epik_Ionization_Penalty>
0.00537262

> <r_epik_Ionization_Penalty_Charging>
0.00321624

> <r_epik_Ionization_Penalty_Neutral>
0.00215638

> <r_epik_State_Penalty>
-0

> <r_epik_Charging_Adjusted_Penalty>
0.00321624

> <i_epik_Tot_Q>
1

> <i_epik_Tot_abs_Q>
1

> <r_epik_Metal_State_Penalty>
-0

> <b_epik_Metal_Only>
0

> <s_lp_Force_Field>
OPLS_2005

> <r_lp_Energy>
19.4184

> <b_lp_Chiralities_Consistent>
1

> <s_lp_Variant>
AV-unprocessed.smi:3287-14

> <Gold.Version>
5.8.1

> <Gold.Id.Protein>
6NUR|6NUR_protein|mol2

> <Gold.PLP.Fitness>
43.3559

> <Gold.PLP.PLP>
-28.7994

> <Gold.PLP.part.hbond>
-3.5057

> <Gold.PLP.part.metal>
0.0000

> <Gold.PLP.part.buried>
0.5931

> <Gold.PLP.part.nonpolar>
-26.0669

> <Gold.PLP.part.repulsive>
0.1180

> <Gold.PLP.ligand.clash>
0.0000

> <Gold.PLP.ligand.torsion>
0.1888

> <Gold.PLP.Chemscore.Hbond>
3.6640

> <Gold.PLP.Chemscore.CHOScore>
1.3090

> <Gold.PLP.Chemscore.Metal>
0.0000

> <Gold.Chemscore.Hbonds>
donor molecule, donor type, donor heavy atom, donor atom, acceptor molecule, acceptor atom, score
      L1  H     6    43       P1 10175  1.98
      L1  H     9    32       P1 10171  0.72
      P1  H  7954  7966       L1     9  0.79
      L1  C    12    34       P1 10186  0.31
      L1  C    14    35       P1 10747  0.91

> <Gold.PLP.Chemscore.Internal.Correction>
0.0152

> <Gold.Rescore>
     Score         DG    S(hbond)    S(metal)    S(lipo)     H(rot)  DE(clash)    DE(int)     intcor
     15.69     -17.27       2.00        0.00      85.32       1.90       0.71       0.87       ----

> <Gold.Chemscore.Fitness>
15.6924

> <Gold.Chemscore.DG>
-17.2737

> <Gold.Chemscore.ZeroCoef>
-5.4800

> <Gold.Chemscore.Hbond>
2.0011

> <Gold.Chemscore.Metal>
0.0000

> <Gold.Chemscore.Lipo>
85.3236

> <Gold.Chemscore.Internal_Hbond>
0.0000

> <Gold.Chemscore.DEClash>
0.7093

> <Gold.Chemscore.DEInternal>
0.8720

> <Gold.Chemscore.Rot>
1.9035

> <Gold.Chemscore.Internal.Correction>
   9.000000E+99

> <Gold.Chemscore.Hbonds>
donor molecule, donor type, donor heavy atom, donor atom, acceptor molecule, acceptor atom, score
      L1  H     6    43       P1 10175  0.87
      L1  H     9    32       P1 10171  0.67
      P1  H  7954  7966       L1     9  0.13

> <Gold.Chemscore.Hbond.Weighted>
-6.6837

> <Gold.Chemscore.Metal.Weighted>
-0.0000

> <Gold.Chemscore.Lipo.Weighted>
-9.9829

> <Gold.Chemscore.Internal_Hbond.Weighted>
0.0000

> <Gold.Chemscore.DEClash.Weighted>
0.7093

> <Gold.Chemscore.DEInternal.Weighted>
0.8720

> <Gold.Chemscore.Rot.Weighted>
4.8729

> <Gold.Chemscore.Internal.Correction.Weighted>
   9.000000E+99

> <Gold.Protein.RotatedTorsions>
[ 6907 6896 6895 6894 ] final  -39.67 input  -60.11 | X-H torsion
[ 7974 7965 7964 7962 ] final   59.89 input  175.53 | X-H torsion
[ 8008 7997 7996 7995 ] final -165.22 input   59.86 | X-H torsion
[ 10167 10162 10161 10158 ] final   75.45 input  -65.29 | X-H torsion
[ 10718 10713 10712 10709 ] final  113.63 input   66.30 | X-H torsion
[ 10763 10752 10751 10750 ] final  -21.82 input  -60.55 | X-H torsion
[ 11005 11000 10999 10996 ] final  -63.11 input  -57.11 | X-H torsion

> <Gold.Protein.ActiveResidues>
 VAL166  LYS551  ARG553  GLY616  TRP617  ASP618  TYR619  PRO620  LYS621  CYS622 
 ASP623  PHE694  ASN695  SER759  ASP760  ASP761  ALA762  ILE779  LEU786  VAL792 
 PHE793  MET794  SER795  GLU796  ALA797  LYS798  CYS799  TRP800  GLU811  SER814 

> <Gold.Protein.RotatedAtoms>
  150.9875  134.9217  159.7880 H   0  0  0  0  0  0  0  0  0  0  0  0  # atno 6907 bound_to 6896
  152.5241  134.3326  159.9198 H   0  0  0  0  0  0  0  0  0  0  0  0  # atno 6908 bound_to 6896
  151.3332  133.3951  159.2699 H   0  0  0  0  0  0  0  0  0  0  0  0  # atno 6909 bound_to 6896
  145.9022  139.3589  143.0586 H   0  0  0  0  0  0  0  0  0  0  0  0  # atno 7974 bound_to 7965
  155.8467  140.0957  157.1700 H   0  0  0  0  0  0  0  0  0  0  0  0  # atno 8008 bound_to 7997
  154.3984  140.1391  156.3856 H   0  0  0  0  0  0  0  0  0  0  0  0  # atno 8009 bound_to 7997
  155.8005  140.3453  155.5402 H   0  0  0  0  0  0  0  0  0  0  0  0  # atno 8010 bound_to 7997
  140.0028  144.5673  150.7723 H   0  0  0  0  0  0  0  0  0  0  0  0  # atno 10167 bound_to 10162
  157.6327  131.0986  150.7069 H   0  0  0  0  0  0  0  0  0  0  0  0  # atno 10718 bound_to 10713
  153.6422  135.6984  153.5237 H   0  0  0  0  0  0  0  0  0  0  0  0  # atno 10763 bound_to 10752
  153.2773  135.4196  155.1045 H   0  0  0  0  0  0  0  0  0  0  0  0  # atno 10764 bound_to 10752
  154.8497  135.3593  154.5966 H   0  0  0  0  0  0  0  0  0  0  0  0  # atno 10765 bound_to 10752
  141.1382  133.6648  156.5629 H   0  0  0  0  0  0  0  0  0  0  0  0  # atno 11005 bound_to 11000
  145.8777  140.9382  143.0617 LP  0  0  0  0  0  0  0  0  0  0  0  0  # atno 17320 bound_to 7965
  144.6736  140.0738  143.7472 LP  0  0  0  0  0  0  0  0  0  0  0  0  # atno 17321 bound_to 7965
  140.7412  143.2815  151.3585 LP  0  0  0  0  0  0  0  0  0  0  0  0  # atno 17342 bound_to 10162
  139.6260  144.0814  152.2434 LP  0  0  0  0  0  0  0  0  0  0  0  0  # atno 17343 bound_to 10162
  156.7405  130.4737  149.5478 LP  0  0  0  0  0  0  0  0  0  0  0  0  # atno 17370 bound_to 10713
  156.1543  130.6331  151.0636 LP  0  0  0  0  0  0  0  0  0  0  0  0  # atno 17371 bound_to 10713
  140.3973  134.7387  157.4758 LP  0  0  0  0  0  0  0  0  0  0  0  0  # atno 17394 bound_to 11000
  140.0521  134.6115  155.8848 LP  0  0  0  0  0  0  0  0  0  0  0  0  # atno 17395 bound_to 11000

$$$$
