AV-unprocessed.smi:35|AV-procd|sdf|267|dock10
  -GOLD-   2262016 33D 1   1.00000     0.00000
 Structure written by MMmdl.
 28 29  0  0  0  0  0  0  0  0  2 V2000
  147.6856  135.8426  160.1523 O   0  0  0  0  0  0  0  0  0  0  0  0
  148.3867  136.3763  159.2946 C   0  0  0  0  0  0  0  0  0  0  0  0
  149.7439  136.4655  159.3973 N   0  5  0  0  0  0  0  0  0  0  0  0
  150.5190  137.0486  158.4364 C   0  0  0  0  0  0  0  0  0  0  0  0
  151.7421  137.1536  158.5334 O   0  0  0  0  0  0  0  0  0  0  0  0
  149.8974  137.5647  157.2644 N   0  0  0  0  0  0  0  0  0  0  0  0
  150.7693  138.2247  156.2090 C   0  0  2  0  0  0  0  0  0  0  0  0
  150.4890  139.5912  156.1427 O   0  0  0  0  0  0  0  0  0  0  0  0
  149.5272  139.8307  155.1230 C   0  0  1  0  0  0  0  0  0  0  0  0
  149.5650  141.3079  154.7039 C   0  0  0  0  0  0  0  0  0  0  0  0
  149.1989  141.4353  153.3462 O   0  0  0  0  0  0  0  0  0  0  0  0
  149.9843  138.8687  154.0254 C   0  0  2  0  0  0  0  0  0  0  0  0
  148.8979  138.5211  153.1902 O   0  0  0  0  0  0  0  0  0  0  0  0
  150.4785  137.6517  154.8038 C   0  0  1  0  0  0  0  0  0  0  0  0
  151.6457  137.1281  154.2042 O   0  0  0  0  0  0  0  0  0  0  0  0
  148.5160  137.5195  157.1518 C   0  0  0  0  0  0  0  0  0  0  0  0
  147.7566  136.9497  158.1090 C   0  0  0  0  0  0  0  0  0  0  0  0
  145.7973  136.9546  157.8113 Br  0  0  0  0  0  0  0  0  0  0  0  0
  151.7921  138.0744  156.5596 H   0  0  0  0  0  0  0  0  0  0  0  0
  148.5320  139.5464  155.4709 H   0  0  0  0  0  0  0  0  0  0  0  0
  148.9146  141.9164  155.3328 H   0  0  0  0  0  0  0  0  0  0  0  0
  150.5768  141.7009  154.8078 H   0  0  0  0  0  0  0  0  0  0  0  0
  149.3927  140.6227  152.9050 H   0  0  0  0  0  0  0  0  0  0  0  0
  150.7907  139.3166  153.4418 H   0  0  0  0  0  0  0  0  0  0  0  0
  148.8737  139.1293  152.4671 H   0  0  0  0  0  0  0  0  0  0  0  0
  149.7104  136.8788  154.8642 H   0  0  0  0  0  0  0  0  0  0  0  0
  151.7671  137.5619  153.3724 H   0  0  0  0  0  0  0  0  0  0  0  0
  148.0183  137.9461  156.2947 H   0  0  0  0  0  0  0  0  0  0  0  0
  1  2  2  0  0  0  0
  2 17  1  0  0  0  0
  2  3  1  0  0  0  0
  3  4  1  0  0  0  0
  4  5  2  0  0  0  0
  4  6  1  0  0  0  0
  6  7  1  0  0  0  0
  6 16  1  0  0  0  0
  7 14  1  0  0  0  0
  7  8  1  0  0  0  0
  7 19  1  0  0  0  0
  8  9  1  0  0  0  0
  9 10  1  0  0  0  0
  9 12  1  0  0  0  0
  9 20  1  0  0  0  0
 10 11  1  0  0  0  0
 10 21  1  0  0  0  0
 10 22  1  0  0  0  0
 11 23  1  0  0  0  0
 12 13  1  0  0  0  0
 12 14  1  0  0  0  0
 12 24  1  0  0  0  0
 13 25  1  0  0  0  0
 14 15  1  0  0  0  0
 14 26  1  0  0  0  0
 15 27  1  0  0  0  0
 16 17  2  0  0  0  0
 16 28  1  0  0  0  0
 17 18  1  0  0  0  0
M  CHG  1   3  -1
M  END
> <s_m_source_file>
AV-unprocessed.smi

> <i_m_source_file_index>
35

> <i_lp_mmshare_version>
43012

> <i_f3d_flags>
0

> <s_epik_input>
Tz1jMVtuSF1jKD1PKW4oW2NIXWMxQnIpW0NAQEhdMk9bQ0BASF0oW0NIMl1bT0hdKVtDQEBIXShbT0hdKVtDQEhdMltPSF0=

> <s_epik_cmdline>
J2VwaWtfcHl0aG9uJywgJy1waCcsICc3LjAnLCAnLXRuJywgJzgnLCAnLW1hJywgJzIwMCcsICctbWV0YWxfYmluZGluZycsICctaW1hZScsICc8aW5maWxlLm1hZT4nLCAnLW9tYWUnLCAnPG91dGZpbGUubWFlPic=

> <r_epik_Ionization_Penalty>
1.06112

> <r_epik_Ionization_Penalty_Charging>
2.1796e-09

> <r_epik_Ionization_Penalty_Neutral>
1.06112

> <r_epik_State_Penalty>
1.11484

> <r_epik_Charging_Adjusted_Penalty>
1.11484

> <i_epik_Tot_Q>
-1

> <i_epik_Tot_abs_Q>
1

> <r_epik_Metal_State_Penalty>
0.0032876

> <b_epik_Metal_Only>
0

> <s_epik_Chemistry_Notes>
This compound contains an acetal/aminal-like group ( X-CH(R)-Y where X, Y are N, S, or O) that may be acid/base labile, releasing an aldehyde.

> <s_lp_Force_Field>
OPLS_2005

> <r_lp_Energy>
34.7757

> <b_lp_Chiralities_Consistent>
1

> <s_lp_Variant>
AV-unprocessed.smi:35-21

> <Gold.Version>
5.8.1

> <Gold.Id.Protein>
6NUR|6NUR_protein|mol2

> <Gold.PLP.Fitness>
40.8708

> <Gold.PLP.PLP>
-24.7504

> <Gold.PLP.part.hbond>
-7.8800

> <Gold.PLP.part.metal>
0.0000

> <Gold.PLP.part.buried>
-3.1457

> <Gold.PLP.part.nonpolar>
-13.0252

> <Gold.PLP.part.repulsive>
0.0000

> <Gold.PLP.ligand.clash>
0.0000

> <Gold.PLP.ligand.torsion>
0.4149

> <Gold.PLP.Chemscore.Hbond>
5.6400

> <Gold.PLP.Chemscore.CHOScore>
0.0000

> <Gold.PLP.Chemscore.Metal>
0.0000

> <Gold.Chemscore.Hbonds>
donor molecule, donor type, donor heavy atom, donor atom, acceptor molecule, acceptor atom, score
      L1  H    11    23       P1  7957  0.74
      L1  H    13    25       P1  7957  1.00
      P1  H  6896  6907       L1     3  1.60
      P1  H  8011  8017       L1    11  0.90
      P1  H 10752 10765       L1    15  0.90

> <Gold.PLP.Chemscore.Internal.Correction>
0.0303

> <Gold.Rescore>
     Score         DG    S(hbond)    S(metal)    S(lipo)     H(rot)  DE(clash)    DE(int)     intcor
     12.22     -12.88       3.84        0.00      33.04       3.63       0.13       0.53       ----

> <Gold.Chemscore.Fitness>
12.2171

> <Gold.Chemscore.DG>
-12.8751

> <Gold.Chemscore.ZeroCoef>
-5.4800

> <Gold.Chemscore.Hbond>
3.8359

> <Gold.Chemscore.Metal>
0.0000

> <Gold.Chemscore.Lipo>
33.0423

> <Gold.Chemscore.Internal_Hbond>
0.0000

> <Gold.Chemscore.DEClash>
0.1302

> <Gold.Chemscore.DEInternal>
0.5278

> <Gold.Chemscore.Rot>
3.6261

> <Gold.Chemscore.Internal.Correction>
   9.000000E+99

> <Gold.Chemscore.Hbonds>
donor molecule, donor type, donor heavy atom, donor atom, acceptor molecule, acceptor atom, score
      L1  H    11    23       P1  7957  0.74
      L1  H    13    25       P1  7957  0.97
      P1  H  6896  6907       L1     3  0.12
      P1  H  8011  8017       L1    11  0.19
      P1  H 10752 10765       L1    15  0.16

> <Gold.Chemscore.Hbond.Weighted>
-12.8119

> <Gold.Chemscore.Metal.Weighted>
-0.0000

> <Gold.Chemscore.Lipo.Weighted>
-3.8660

> <Gold.Chemscore.Internal_Hbond.Weighted>
0.0000

> <Gold.Chemscore.DEClash.Weighted>
0.1302

> <Gold.Chemscore.DEInternal.Weighted>
0.5278

> <Gold.Chemscore.Rot.Weighted>
9.2828

> <Gold.Chemscore.Internal.Correction.Weighted>
   9.000000E+99

> <Gold.Protein.RotatedTorsions>
[ 6907 6896 6895 6894 ] final  -39.28 input  -60.11 | X-H torsion
[ 7974 7965 7964 7962 ] final  136.50 input  175.53 | X-H torsion
[ 8008 7997 7996 7995 ] final   15.60 input   59.86 | X-H torsion
[ 10167 10162 10161 10158 ] final   57.15 input  -65.29 | X-H torsion
[ 10718 10713 10712 10709 ] final   76.01 input   66.30 | X-H torsion
[ 10763 10752 10751 10750 ] final  141.98 input  -60.55 | X-H torsion
[ 11005 11000 10999 10996 ] final  -25.77 input  -57.11 | X-H torsion

> <Gold.Protein.ActiveResidues>
 VAL166  LYS551  ARG553  GLY616  TRP617  ASP618  TYR619  PRO620  LYS621  CYS622 
 ASP623  PHE694  ASN695  SER759  ASP760  ASP761  ALA762  ILE779  LEU786  VAL792 
 PHE793  MET794  SER795  GLU796  ALA797  LYS798  CYS799  TRP800  GLU811  SER814 

> <Gold.Protein.RotatedAtoms>
  150.9922  134.9254  159.7905 H   0  0  0  0  0  0  0  0  0  0  0  0  # atno 6907 bound_to 6896
  152.5254  134.3266  159.9178 H   0  0  0  0  0  0  0  0  0  0  0  0  # atno 6908 bound_to 6896
  151.3272  133.3974  159.2694 H   0  0  0  0  0  0  0  0  0  0  0  0  # atno 6909 bound_to 6896
  144.9558  139.4766  143.5503 H   0  0  0  0  0  0  0  0  0  0  0  0  # atno 7974 bound_to 7965
  154.8650  140.2950  155.5516 H   0  0  0  0  0  0  0  0  0  0  0  0  # atno 8008 bound_to 7997
  156.3020  140.2471  156.3563 H   0  0  0  0  0  0  0  0  0  0  0  0  # atno 8009 bound_to 7997
  154.8878  140.0395  157.1809 H   0  0  0  0  0  0  0  0  0  0  0  0  # atno 8010 bound_to 7997
  140.2011  144.3987  150.6528 H   0  0  0  0  0  0  0  0  0  0  0  0  # atno 10167 bound_to 10162
  157.6657  130.9754  150.1435 H   0  0  0  0  0  0  0  0  0  0  0  0  # atno 10718 bound_to 10713
  153.9482  135.2973  155.3440 H   0  0  0  0  0  0  0  0  0  0  0  0  # atno 10763 bound_to 10752
  154.7441  135.5011  153.9176 H   0  0  0  0  0  0  0  0  0  0  0  0  # atno 10764 bound_to 10752
  153.1007  135.6733  153.9785 H   0  0  0  0  0  0  0  0  0  0  0  0  # atno 10765 bound_to 10752
  140.8968  133.7551  156.0492 H   0  0  0  0  0  0  0  0  0  0  0  0  # atno 11005 bound_to 11000
  146.3337  139.8675  142.8845 LP  0  0  0  0  0  0  0  0  0  0  0  0  # atno 17320 bound_to 7965
  145.2774  141.0128  143.3737 LP  0  0  0  0  0  0  0  0  0  0  0  0  # atno 17321 bound_to 7965
  140.6389  143.2200  151.6333 LP  0  0  0  0  0  0  0  0  0  0  0  0  # atno 17342 bound_to 10162
  139.5217  144.3186  152.0931 LP  0  0  0  0  0  0  0  0  0  0  0  0  # atno 17343 bound_to 10162
  156.2252  130.3677  149.8509 LP  0  0  0  0  0  0  0  0  0  0  0  0  # atno 17370 bound_to 10713
  156.6351  130.8682  151.3503 LP  0  0  0  0  0  0  0  0  0  0  0  0  # atno 17371 bound_to 10713
  140.8279  134.3213  157.5359 LP  0  0  0  0  0  0  0  0  0  0  0  0  # atno 17394 bound_to 11000
  139.8736  134.9346  156.3613 LP  0  0  0  0  0  0  0  0  0  0  0  0  # atno 17395 bound_to 11000

$$$$
