AV-unprocessed.smi:35|AV-procd|sdf|274|dock10
  -GOLD-   2262016 43D 1   1.00000     0.00000
 Structure written by MMmdl.
 28 29  0  0  0  0  0  0  0  0  2 V2000
  148.3812  136.6120  160.7207 O   0  0  0  0  0  0  0  0  0  0  0  0
  148.6152  136.6297  159.5136 C   0  0  0  0  0  0  0  0  0  0  0  0
  149.8087  136.2363  158.9840 N   0  5  0  0  0  0  0  0  0  0  0  0
  150.0675  136.2687  157.6435 C   0  0  0  0  0  0  0  0  0  0  0  0
  151.1311  135.8845  157.1577 O   0  0  0  0  0  0  0  0  0  0  0  0
  149.0688  136.7616  156.7564 N   0  0  0  0  0  0  0  0  0  0  0  0
  149.3610  136.7773  155.2636 C   0  0  1  0  0  0  0  0  0  0  0  0
  148.2588  137.2720  154.5632 O   0  0  0  0  0  0  0  0  0  0  0  0
  148.4121  138.6696  154.3559 C   0  0  2  0  0  0  0  0  0  0  0  0
  147.5028  139.1126  153.1990 C   0  0  0  0  0  0  0  0  0  0  0  0
  147.8414  138.4304  152.0099 O   0  0  0  0  0  0  0  0  0  0  0  0
  149.9122  138.8197  154.0888 C   0  0  1  0  0  0  0  0  0  0  0  0
  150.3574  140.0886  154.5257 O   0  0  0  0  0  0  0  0  0  0  0  0
  150.5482  137.7084  154.9252 C   0  0  2  0  0  0  0  0  0  0  0  0
  151.5315  137.0341  154.1657 O   0  0  0  0  0  0  0  0  0  0  0  0
  147.8320  137.1282  157.2658 C   0  0  0  0  0  0  0  0  0  0  0  0
  147.5802  137.0832  158.5896 C   0  0  0  0  0  0  0  0  0  0  0  0
  145.7692  137.6405  159.1701 Br  0  0  0  0  0  0  0  0  0  0  0  0
  149.5212  135.7285  155.0063 H   0  0  0  0  0  0  0  0  0  0  0  0
  148.1355  139.1898  155.2745 H   0  0  0  0  0  0  0  0  0  0  0  0
  146.4532  138.9367  153.4361 H   0  0  0  0  0  0  0  0  0  0  0  0
  147.6180  140.1827  153.0237 H   0  0  0  0  0  0  0  0  0  0  0  0
  148.2058  137.5892  152.2400 H   0  0  0  0  0  0  0  0  0  0  0  0
  150.1254  138.6875  153.0267 H   0  0  0  0  0  0  0  0  0  0  0  0
  149.5999  140.6120  154.7394 H   0  0  0  0  0  0  0  0  0  0  0  0
  150.9966  138.0993  155.8402 H   0  0  0  0  0  0  0  0  0  0  0  0
  151.1393  136.7490  153.3551 H   0  0  0  0  0  0  0  0  0  0  0  0
  147.0388  137.4511  156.6101 H   0  0  0  0  0  0  0  0  0  0  0  0
  1  2  2  0  0  0  0
  2 17  1  0  0  0  0
  2  3  1  0  0  0  0
  3  4  1  0  0  0  0
  4  5  2  0  0  0  0
  4  6  1  0  0  0  0
  6  7  1  0  0  0  0
  6 16  1  0  0  0  0
  7 14  1  0  0  0  0
  7  8  1  0  0  0  0
  7 19  1  0  0  0  0
  8  9  1  0  0  0  0
  9 10  1  0  0  0  0
  9 12  1  0  0  0  0
  9 20  1  0  0  0  0
 10 11  1  0  0  0  0
 10 21  1  0  0  0  0
 10 22  1  0  0  0  0
 11 23  1  0  0  0  0
 12 13  1  0  0  0  0
 12 14  1  0  0  0  0
 12 24  1  0  0  0  0
 13 25  1  0  0  0  0
 14 15  1  0  0  0  0
 14 26  1  0  0  0  0
 15 27  1  0  0  0  0
 16 17  2  0  0  0  0
 16 28  1  0  0  0  0
 17 18  1  0  0  0  0
M  CHG  1   3  -1
M  END
> <s_m_source_file>
AV-unprocessed.smi

> <i_m_source_file_index>
35

> <i_lp_mmshare_version>
43012

> <i_f3d_flags>
0

> <s_epik_input>
Tz1jMVtuSF1jKD1PKW4oW2NIXWMxQnIpW0NAQEhdMk9bQ0BASF0oW0NIMl1bT0hdKVtDQEBIXShbT0hdKVtDQEhdMltPSF0=

> <s_epik_cmdline>
J2VwaWtfcHl0aG9uJywgJy1waCcsICc3LjAnLCAnLXRuJywgJzgnLCAnLW1hJywgJzIwMCcsICctbWV0YWxfYmluZGluZycsICctaW1hZScsICc8aW5maWxlLm1hZT4nLCAnLW9tYWUnLCAnPG91dGZpbGUubWFlPic=

> <r_epik_Ionization_Penalty>
1.06112

> <r_epik_Ionization_Penalty_Charging>
2.1796e-09

> <r_epik_Ionization_Penalty_Neutral>
1.06112

> <r_epik_State_Penalty>
1.11484

> <r_epik_Charging_Adjusted_Penalty>
1.11484

> <i_epik_Tot_Q>
-1

> <i_epik_Tot_abs_Q>
1

> <r_epik_Metal_State_Penalty>
0.0032876

> <b_epik_Metal_Only>
0

> <s_epik_Chemistry_Notes>
This compound contains an acetal/aminal-like group ( X-CH(R)-Y where X, Y are N, S, or O) that may be acid/base labile, releasing an aldehyde.

> <s_lp_Force_Field>
OPLS_2005

> <r_lp_Energy>
36.7062

> <b_lp_Chiralities_Consistent>
1

> <s_lp_Variant>
AV-unprocessed.smi:35-28

> <Gold.Version>
5.8.1

> <Gold.Id.Protein>
6NUR|6NUR_protein|mol2

> <Gold.PLP.Fitness>
43.3354

> <Gold.PLP.PLP>
-21.9482

> <Gold.PLP.part.hbond>
-7.4724

> <Gold.PLP.part.metal>
0.0000

> <Gold.PLP.part.buried>
-3.5436

> <Gold.PLP.part.nonpolar>
-11.0179

> <Gold.PLP.part.repulsive>
0.7506

> <Gold.PLP.ligand.clash>
0.0000

> <Gold.PLP.ligand.torsion>
0.0175

> <Gold.PLP.Chemscore.Hbond>
7.1310

> <Gold.PLP.Chemscore.CHOScore>
0.0000

> <Gold.PLP.Chemscore.Metal>
0.0000

> <Gold.Chemscore.Hbonds>
donor molecule, donor type, donor heavy atom, donor atom, acceptor molecule, acceptor atom, score
      L1  H    11    23       P1  7948  0.99
      L1  H    15    27       P1  7949  1.00
      P1  H  6896  6909       L1     3  2.00
      P1  H  6931  6943       L1     1  0.78
      P1  H  7954  7966       L1    11  0.19
      P1  H  7989  7998       L1    13  1.00
      P1  H 10752 10765       L1    15  0.90

> <Gold.PLP.Chemscore.Internal.Correction>
0.0291

> <Gold.Rescore>
     Score         DG    S(hbond)    S(metal)    S(lipo)     H(rot)  DE(clash)    DE(int)     intcor
     13.29     -15.04       4.62        0.00      29.30       3.63       0.56       1.19       ----

> <Gold.Chemscore.Fitness>
13.2894

> <Gold.Chemscore.DG>
-15.0407

> <Gold.Chemscore.ZeroCoef>
-5.4800

> <Gold.Chemscore.Hbond>
4.6153

> <Gold.Chemscore.Metal>
0.0000

> <Gold.Chemscore.Lipo>
29.3013

> <Gold.Chemscore.Internal_Hbond>
0.0000

> <Gold.Chemscore.DEClash>
0.5569

> <Gold.Chemscore.DEInternal>
1.1943

> <Gold.Chemscore.Rot>
3.6261

> <Gold.Chemscore.Internal.Correction>
   9.000000E+99

> <Gold.Chemscore.Hbonds>
donor molecule, donor type, donor heavy atom, donor atom, acceptor molecule, acceptor atom, score
      L1  H    11    23       P1  7948  0.92
      L1  H    15    27       P1  7949  0.42
      P1  H  6896  6909       L1     3  0.55
      P1  H  6931  6943       L1     1  0.71
      P1  H  7989  7998       L1    13  0.87
      P1  H 10752 10765       L1    15  0.18

> <Gold.Chemscore.Hbond.Weighted>
-15.4152

> <Gold.Chemscore.Metal.Weighted>
-0.0000

> <Gold.Chemscore.Lipo.Weighted>
-3.4283

> <Gold.Chemscore.Internal_Hbond.Weighted>
0.0000

> <Gold.Chemscore.DEClash.Weighted>
0.5569

> <Gold.Chemscore.DEInternal.Weighted>
1.1943

> <Gold.Chemscore.Rot.Weighted>
9.2828

> <Gold.Chemscore.Internal.Correction.Weighted>
   9.000000E+99

> <Gold.Protein.RotatedTorsions>
[ 6907 6896 6895 6894 ] final   64.10 input  -60.11 | X-H torsion
[ 7974 7965 7964 7962 ] final  122.52 input  175.53 | X-H torsion
[ 8008 7997 7996 7995 ] final  -56.46 input   59.86 | X-H torsion
[ 10167 10162 10161 10158 ] final -172.06 input  -65.29 | X-H torsion
[ 10718 10713 10712 10709 ] final  125.52 input   66.30 | X-H torsion
[ 10763 10752 10751 10750 ] final  162.85 input  -60.55 | X-H torsion
[ 11005 11000 10999 10996 ] final  -22.13 input  -57.11 | X-H torsion

> <Gold.Protein.ActiveResidues>
 VAL166  LYS551  ARG553  GLY616  TRP617  ASP618  TYR619  PRO620  LYS621  CYS622 
 ASP623  PHE694  ASN695  SER759  ASP760  ASP761  ALA762  ILE779  LEU786  VAL792 
 PHE793  MET794  SER795  GLU796  ALA797  LYS798  CYS799  TRP800  GLU811  SER814 

> <Gold.Protein.RotatedAtoms>
  152.4305  134.5786  159.9941 H   0  0  0  0  0  0  0  0  0  0  0  0  # atno 6907 bound_to 6896
  151.5911  133.3361  159.3036 H   0  0  0  0  0  0  0  0  0  0  0  0  # atno 6908 bound_to 6896
  150.8198  134.7435  159.6827 H   0  0  0  0  0  0  0  0  0  0  0  0  # atno 6909 bound_to 6896
  145.1066  139.3481  143.4784 H   0  0  0  0  0  0  0  0  0  0  0  0  # atno 7974 bound_to 7965
  154.4231  140.1129  156.5641 H   0  0  0  0  0  0  0  0  0  0  0  0  # atno 8008 bound_to 7997
  155.6280  140.3495  155.4654 H   0  0  0  0  0  0  0  0  0  0  0  0  # atno 8009 bound_to 7997
  155.9970  140.1191  157.0573 H   0  0  0  0  0  0  0  0  0  0  0  0  # atno 8010 bound_to 7997
  139.5766  144.1518  152.1459 H   0  0  0  0  0  0  0  0  0  0  0  0  # atno 10167 bound_to 10162
  157.5496  131.1094  150.8724 H   0  0  0  0  0  0  0  0  0  0  0  0  # atno 10718 bound_to 10713
  154.2847  135.2762  155.2681 H   0  0  0  0  0  0  0  0  0  0  0  0  # atno 10763 bound_to 10752
  154.5187  135.5762  153.6666 H   0  0  0  0  0  0  0  0  0  0  0  0  # atno 10764 bound_to 10752
  152.9923  135.6199  154.3009 H   0  0  0  0  0  0  0  0  0  0  0  0  # atno 10765 bound_to 10752
  140.8627  133.7776  156.0094 H   0  0  0  0  0  0  0  0  0  0  0  0  # atno 11005 bound_to 11000
  146.3528  140.0967  142.8610 LP  0  0  0  0  0  0  0  0  0  0  0  0  # atno 17320 bound_to 7965
  145.0894  140.9274  143.4778 LP  0  0  0  0  0  0  0  0  0  0  0  0  # atno 17321 bound_to 7965
  140.1062  144.5497  150.6955 LP  0  0  0  0  0  0  0  0  0  0  0  0  # atno 17342 bound_to 10162
  140.7048  143.2460  151.4758 LP  0  0  0  0  0  0  0  0  0  0  0  0  # atno 17343 bound_to 10162
  156.9253  130.5330  149.5279 LP  0  0  0  0  0  0  0  0  0  0  0  0  # atno 17370 bound_to 10713
  156.0565  130.5626  150.9103 LP  0  0  0  0  0  0  0  0  0  0  0  0  # atno 17371 bound_to 10713
  140.8664  134.2779  157.5211 LP  0  0  0  0  0  0  0  0  0  0  0  0  # atno 17394 bound_to 11000
  139.8708  134.9545  156.4177 LP  0  0  0  0  0  0  0  0  0  0  0  0  # atno 17395 bound_to 11000

$$$$
