AV-unprocessed.smi:887|AV-procd|sdf|4052|dock9
  -GOLD-   22720 1543D 1   1.00000     0.00000
 Structure written by MMmdl.
 31 32  0  0  0  0  0  0  0  0  1 V2000
  147.0852  140.7190  153.2408 C   0  0  0  0  0  0  0  0  0  0  0  0
  148.4290  140.1793  153.3815 N   0  0  0  0  0  0  0  0  0  0  0  0
  148.8650  139.5102  154.4590 C   0  0  0  0  0  0  0  0  0  0  0  0
  148.1622  139.2863  155.4448 O   0  0  0  0  0  0  0  0  0  0  0  0
  150.3129  139.0154  154.4204 C   0  0  0  0  0  0  0  0  0  0  0  0
  151.1020  139.5929  155.5517 C   0  0  0  0  0  0  0  0  0  0  0  0
  152.3250  139.1582  155.8338 N   0  0  0  0  0  0  0  0  0  0  0  0
  152.6934  139.9279  156.9463 O   0  0  0  0  0  0  0  0  0  0  0  0
  151.6518  140.7617  157.1844 C   0  0  0  0  0  0  0  0  0  0  0  0
  151.7078  141.6578  158.3822 C   0  0  2  0  0  0  0  0  0  0  0  0
  151.5230  143.1418  157.9975 C   0  0  0  0  0  0  0  0  0  0  0  0
  151.8693  144.0894  159.1329 C   0  0  0  0  0  0  0  0  0  0  0  0
  152.5132  143.7093  160.2496 C   0  0  0  0  0  0  0  0  0  0  0  0
  152.9805  142.2879  160.5021 C   0  0  0  0  0  0  0  0  0  0  0  0
  152.9856  141.4412  159.2162 C   0  0  0  0  0  0  0  0  0  0  0  0
  150.6151  140.5649  156.3716 N   0  0  0  0  0  0  0  0  0  0  0  0
  146.9916  141.2389  152.2874 H   0  0  0  0  0  0  0  0  0  0  0  0
  146.8648  141.4286  154.0392 H   0  0  0  0  0  0  0  0  0  0  0  0
  146.3422  139.9211  153.2688 H   0  0  0  0  0  0  0  0  0  0  0  0
  149.0678  140.3233  152.6124 H   0  0  0  0  0  0  0  0  0  0  0  0
  150.3214  137.9268  154.4851 H   0  0  0  0  0  0  0  0  0  0  0  0
  150.7842  139.2790  153.4722 H   0  0  0  0  0  0  0  0  0  0  0  0
  150.8671  141.3808  159.0203 H   0  0  0  0  0  0  0  0  0  0  0  0
  152.1704  143.3976  157.1580 H   0  0  0  0  0  0  0  0  0  0  0  0
  150.4975  143.3199  157.6726 H   0  0  0  0  0  0  0  0  0  0  0  0
  151.5756  145.1216  159.0095 H   0  0  0  0  0  0  0  0  0  0  0  0
  152.7105  144.4321  161.0276 H   0  0  0  0  0  0  0  0  0  0  0  0
  153.9807  142.3089  160.9356 H   0  0  0  0  0  0  0  0  0  0  0  0
  152.3203  141.8416  161.2465 H   0  0  0  0  0  0  0  0  0  0  0  0
  153.0973  140.3876  159.4749 H   0  0  0  0  0  0  0  0  0  0  0  0
  153.8576  141.7047  158.6156 H   0  0  0  0  0  0  0  0  0  0  0  0
  1  2  1  0  0  0  0
  1 17  1  0  0  0  0
  1 18  1  0  0  0  0
  1 19  1  0  0  0  0
  2  3  1  0  0  0  0
  2 20  1  0  0  0  0
  3  4  2  0  0  0  0
  3  5  1  0  0  0  0
  5  6  1  0  0  0  0
  5 21  1  0  0  0  0
  5 22  1  0  0  0  0
  6 16  1  0  0  0  0
  6  7  2  0  0  0  0
  7  8  1  0  0  0  0
  8  9  1  0  0  0  0
  9 10  1  0  0  0  0
  9 16  2  0  0  0  0
 10 15  1  0  0  0  0
 10 11  1  0  0  0  0
 10 23  1  0  0  0  0
 11 12  1  0  0  0  0
 11 24  1  0  0  0  0
 11 25  1  0  0  0  0
 12 13  2  0  0  0  0
 12 26  1  0  0  0  0
 13 14  1  0  0  0  0
 13 27  1  0  0  0  0
 14 15  1  0  0  0  0
 14 28  1  0  0  0  0
 14 29  1  0  0  0  0
 15 30  1  0  0  0  0
 15 31  1  0  0  0  0
M  END
> <s_m_source_file>
AV-unprocessed.smi

> <i_m_source_file_index>
887

> <i_lp_mmshare_version>
43012

> <i_f3d_flags>
0

> <s_epik_input>
W0NIM11bTkhdQyg9TylbQ0gyXWMxbm9jKG4xKVtDQEBIXTJbQ0gyXVtDSF09W0NIXVtDSDJdW0NIMl0y

> <s_epik_cmdline>
J2VwaWtfcHl0aG9uJywgJy1waCcsICc3LjAnLCAnLXRuJywgJzgnLCAnLW1hJywgJzIwMCcsICctbWV0YWxfYmluZGluZycsICctaW1hZScsICc8aW5maWxlLm1hZT4nLCAnLW9tYWUnLCAnPG91dGZpbGUubWFlPic=

> <r_lp_tautomer_probability>
1

> <r_epik_Ionization_Penalty>
1.02915e-07

> <r_epik_Ionization_Penalty_Charging>
0

> <r_epik_Ionization_Penalty_Neutral>
1.02915e-07

> <r_epik_State_Penalty>
-0

> <r_epik_Charging_Adjusted_Penalty>
0

> <i_epik_Tot_Q>
0

> <i_epik_Tot_abs_Q>
0

> <r_epik_Metal_State_Penalty>
-0

> <b_epik_Metal_Only>
0

> <s_lp_Force_Field>
OPLS_2005

> <r_lp_Energy>
6.3781

> <b_lp_Chiralities_Consistent>
1

> <s_lp_Variant>
AV-unprocessed.smi:887-1

> <Gold.Version>
5.8.1

> <Gold.Id.Protein>
6NUR|6NUR_protein|mol2

> <Gold.PLP.Fitness>
40.6984

> <Gold.PLP.PLP>
-34.8822

> <Gold.PLP.part.hbond>
-1.8933

> <Gold.PLP.part.metal>
0.0000

> <Gold.PLP.part.buried>
-4.9287

> <Gold.PLP.part.nonpolar>
-28.5376

> <Gold.PLP.part.repulsive>
0.1890

> <Gold.PLP.ligand.clash>
0.0000

> <Gold.PLP.ligand.torsion>
0.1451

> <Gold.PLP.Chemscore.Hbond>
2.0000

> <Gold.PLP.Chemscore.CHOScore>
0.0000

> <Gold.PLP.Chemscore.Metal>
0.0000

> <Gold.Chemscore.Hbonds>
donor molecule, donor type, donor heavy atom, donor atom, acceptor molecule, acceptor atom, score
      L1  H     2    20       P1  7957  1.00
      P1  H  7997  8009       L1     8  1.00

> <Gold.PLP.Chemscore.Internal.Correction>
0.1064

> <Gold.Rescore>
     Score         DG    S(hbond)    S(metal)    S(lipo)     H(rot)  DE(clash)    DE(int)     intcor
     15.61     -17.01       1.92        0.00      79.47       1.63       0.04       1.36       ----

> <Gold.Chemscore.Fitness>
15.6080

> <Gold.Chemscore.DG>
-17.0107

> <Gold.Chemscore.ZeroCoef>
-5.4800

> <Gold.Chemscore.Hbond>
1.9186

> <Gold.Chemscore.Metal>
0.0000

> <Gold.Chemscore.Lipo>
79.4734

> <Gold.Chemscore.Internal_Hbond>
0.0000

> <Gold.Chemscore.DEClash>
0.0417

> <Gold.Chemscore.DEInternal>
1.3609

> <Gold.Chemscore.Rot>
1.6312

> <Gold.Chemscore.Internal.Correction>
   9.000000E+99

> <Gold.Chemscore.Hbonds>
donor molecule, donor type, donor heavy atom, donor atom, acceptor molecule, acceptor atom, score
      L1  H     2    20       P1  7957  0.94
      P1  H  7997  8009       L1     8  0.34

> <Gold.Chemscore.Hbond.Weighted>
-6.4081

> <Gold.Chemscore.Metal.Weighted>
-0.0000

> <Gold.Chemscore.Lipo.Weighted>
-9.2984

> <Gold.Chemscore.Internal_Hbond.Weighted>
0.0000

> <Gold.Chemscore.DEClash.Weighted>
0.0417

> <Gold.Chemscore.DEInternal.Weighted>
1.3609

> <Gold.Chemscore.Rot.Weighted>
4.1758

> <Gold.Chemscore.Internal.Correction.Weighted>
   9.000000E+99

> <Gold.Protein.RotatedTorsions>
[ 6907 6896 6895 6894 ] final  -95.21 input  -60.11 | X-H torsion
[ 7974 7965 7964 7962 ] final  150.12 input  175.53 | X-H torsion
[ 8008 7997 7996 7995 ] final  174.71 input   59.86 | X-H torsion
[ 10167 10162 10161 10158 ] final -156.82 input  -65.29 | X-H torsion
[ 10718 10713 10712 10709 ] final  -70.66 input   66.30 | X-H torsion
[ 10763 10752 10751 10750 ] final   60.29 input  -60.55 | X-H torsion
[ 11005 11000 10999 10996 ] final   -9.49 input  -57.11 | X-H torsion

> <Gold.Protein.ActiveResidues>
 VAL166  LYS551  ARG553  GLY616  TRP617  ASP618  TYR619  PRO620  LYS621  CYS622 
 ASP623  PHE694  ASN695  SER759  ASP760  ASP761  ALA762  ILE779  LEU786  VAL792 
 PHE793  MET794  SER795  GLU796  ALA797  LYS798  CYS799  TRP800  GLU811  SER814 

> <Gold.Protein.RotatedAtoms>
  150.6959  134.1693  159.4205 H   0  0  0  0  0  0  0  0  0  0  0  0  # atno 6907 bound_to 6896
  151.9671  135.0093  160.0560 H   0  0  0  0  0  0  0  0  0  0  0  0  # atno 6908 bound_to 6896
  152.1875  133.4715  159.5027 H   0  0  0  0  0  0  0  0  0  0  0  0  # atno 6909 bound_to 6896
  144.8388  139.6367  143.6026 H   0  0  0  0  0  0  0  0  0  0  0  0  # atno 7974 bound_to 7965
  156.0946  140.1427  156.9547 H   0  0  0  0  0  0  0  0  0  0  0  0  # atno 8008 bound_to 7997
  154.4663  140.0925  156.7075 H   0  0  0  0  0  0  0  0  0  0  0  0  # atno 8009 bound_to 7997
  155.4862  140.3446  155.4350 H   0  0  0  0  0  0  0  0  0  0  0  0  # atno 8010 bound_to 7997
  139.6819  143.9566  152.2341 H   0  0  0  0  0  0  0  0  0  0  0  0  # atno 10167 bound_to 10162
  156.0398  130.4336  150.2328 H   0  0  0  0  0  0  0  0  0  0  0  0  # atno 10718 bound_to 10713
  152.9917  135.5541  154.5850 H   0  0  0  0  0  0  0  0  0  0  0  0  # atno 10763 bound_to 10752
  154.5224  135.2808  155.1253 H   0  0  0  0  0  0  0  0  0  0  0  0  # atno 10764 bound_to 10752
  154.2602  135.6382  153.5324 H   0  0  0  0  0  0  0  0  0  0  0  0  # atno 10765 bound_to 10752
  140.7347  133.8719  155.8920 H   0  0  0  0  0  0  0  0  0  0  0  0  # atno 11005 bound_to 11000
  146.2683  139.6573  142.9314 LP  0  0  0  0  0  0  0  0  0  0  0  0  # atno 17320 bound_to 7965
  145.4738  141.0436  143.2684 LP  0  0  0  0  0  0  0  0  0  0  0  0  # atno 17321 bound_to 7965
  139.9358  144.6712  150.8316 LP  0  0  0  0  0  0  0  0  0  0  0  0  # atno 17342 bound_to 10162
  140.7655  143.3277  151.2478 LP  0  0  0  0  0  0  0  0  0  0  0  0  # atno 17343 bound_to 10162
  157.0425  131.0039  151.3279 LP  0  0  0  0  0  0  0  0  0  0  0  0  # atno 17370 bound_to 10713
  157.5199  130.7991  149.7798 LP  0  0  0  0  0  0  0  0  0  0  0  0  # atno 17371 bound_to 10713
  140.9890  134.1304  157.4426 LP  0  0  0  0  0  0  0  0  0  0  0  0  # atno 17394 bound_to 11000
  139.8818  135.0034  156.6187 LP  0  0  0  0  0  0  0  0  0  0  0  0  # atno 17395 bound_to 11000

$$$$
