#       Name:                AV-unprocessed.smi:3112
#       Creating user name   scv26
#       Creation time:       Fri Mar 27 17:21:10 2020


#       File generated by GOLD software.
#

@<TRIPOS>MOLECULE
AV-unprocessed.smi:3112
    40    40     1
SMALL
NO_CHARGES


@<TRIPOS>ATOM
      1 ****        -3.6324   3.2239   1.2881 C.3            1 S1                 0.0000
      2 ****        -3.1347   1.7783   1.1529 C.3            1 S1                 0.0000
      3 ****        -1.6167   1.6715   0.9192 C.3            1 S1                 0.0000
      4 ****        -1.3095   2.2184  -0.3486 O.3            1 S1                 0.0000
      5 ****        -1.1330   0.2124   0.9439 C.3            1 S1                 0.0000
      6 ****         0.3431   0.1416   0.8892 N.4            1 S1                 1.0000
      7 ****         0.9240  -1.2210   0.8783 C.3            1 S1                 0.0000
      8 ****         2.3776  -1.1370   1.3789 C.3            1 S1                 0.0000
      9 ****         0.7676  -1.9000  -0.5137 C.3            1 S1                 0.0000
     10 ****         1.1522  -3.3927  -0.4972 C.3            1 S1                 0.0000
     11 ****         1.4510  -1.1714  -1.5800 N.pl3          1 S1                 0.0000
     12 ****         0.9246  -0.2044  -2.4132 C.2            1 S1                 0.0000
     13 ****         1.9281   0.2233  -3.2340 C.2            1 S1                 0.0000
     14 ****         3.0522  -0.5432  -2.8202 C.2            1 S1                 0.0000
     15 ****         2.7665  -1.3692  -1.8273 N.2            1 S1                 0.0000
     16 ****        -4.7050   3.2463   1.4808 H              1 S1                 0.0000
     17 ****        -3.4495   3.7967   0.3787 H              1 S1                 0.0000
     18 ****        -3.1373   3.7363   2.1133 H              1 S1                 0.0000
     19 ****        -3.3949   1.2416   2.0660 H              1 S1                 0.0000
     20 ****        -3.6736   1.2797   0.3458 H              1 S1                 0.0000
     21 ****        -1.0923   2.2435   1.6860 H              1 S1                 0.0000
     22 ****        -1.6115   3.1143  -0.3709 H              1 S1                 0.0000
     23 ****        -1.4649  -0.2714   1.8634 H              1 S1                 0.0000
     24 ****        -1.5798  -0.3379   0.1161 H              1 S1                 0.0000
     25 ****         0.6649   0.6362   0.0691 H              1 S1                 0.0000
     26 ****         0.3722  -1.8138   1.6095 H              1 S1                 0.0000
     27 ****         2.8482  -2.1187   1.4230 H              1 S1                 0.0000
     28 ****         2.4152  -0.7206   2.3861 H              1 S1                 0.0000
     29 ****         2.9914  -0.4989   0.7434 H              1 S1                 0.0000
     30 ****        -0.2901  -1.8903  -0.7753 H              1 S1                 0.0000
     31 ****         0.5710  -3.9367   0.2476 H              1 S1                 0.0000
     32 ****         2.2066  -3.5491  -0.2700 H              1 S1                 0.0000
     33 ****         0.9549  -3.8550  -1.4650 H              1 S1                 0.0000
     34 ****        -0.1111   0.0969  -2.3543 H              1 S1                 0.0000
     35 ****         1.8685   0.9710  -4.0111 H              1 S1                 0.0000
     36 ****         4.0609  -0.5211  -3.2058 H              1 S1                 0.0000
     37 ****         0.6954   0.6204   1.7056 H              1 S1                 0.0000
     38 ****        -1.7677   1.6903  -1.0635 LP             1 S1                 0.0000
     39 ****        -0.3208   2.1921  -0.4965 LP             1 S1                 0.0000
     40 ****         3.3864  -2.0009  -1.3618 LP             1 S1                 0.0000
@<TRIPOS>BOND
    1    1    2 1     
    2    1   16 1     
    3    1   17 1     
    4    1   18 1     
    5    2    3 1     
    6    2   19 1     
    7    2   20 1     
    8    3    4 1     
    9    3    5 1     
   10    3   21 1     
   11    4   22 1     
   12    5    6 1     
   13    5   23 1     
   14    5   24 1     
   15    6    7 1     
   16    6   25 1     
   17    6   37 1     
   18    7    8 1     
   19    7    9 1     
   20    7   26 1     
   21    8   27 1     
   22    8   28 1     
   23    8   29 1     
   24    9   10 1     
   25    9   11 1     
   26    9   30 1     
   27   10   31 1     
   28   10   32 1     
   29   10   33 1     
   30   11   15 1     
   31   11   12 1     
   32   12   13 2     
   33   12   34 1     
   34   13   14 1     
   35   13   35 1     
   36   14   15 2     
   37   14   36 1     
   38    4   38 1     
   39    4   39 1     
   40   15   40 1     
@<TRIPOS>SUBSTRUCTURE
      1 S1             1
@<TRIPOS>SET
LONE_PAIRS      STATIC     ATOMS    <user>   **** ""
3 38 39 40
DONOR_HYDROGENS      STATIC     ATOMS    <user>   **** ""
3 22 25 37
ATOM$BLUE        STATIC     ATOMS    COLORGROUP SYSTEM
3 38 39 40
ATOM$RED        STATIC     ATOMS    COLORGROUP SYSTEM
3 22 25 37
