#       Name:                AV-unprocessed.smi:1570
#       Creating user name   scv26
#       Creation time:       Fri Mar 27 06:52:48 2020


#       File generated by GOLD software.
#

@<TRIPOS>MOLECULE
AV-unprocessed.smi:1570
    58    60     1
SMALL
NO_CHARGES


@<TRIPOS>ATOM
      1 ****        -2.3955   3.4744   1.8887 C.3            1 S1                 0.0000
      2 ****        -3.6047   2.8506   1.1797 C.3            1 S1                 0.0000
      3 ****        -3.1842   1.8528   0.1994 N.am           1 S1                 0.0000
      4 ****        -2.9899   0.5326   0.4271 C.2            1 S1                 0.0000
      5 ****        -3.1489  -0.0479   1.5007 O.2            1 S1                 0.0000
      6 ****        -2.5505  -0.0331  -0.7223 N.am           1 S1                 0.0000
      7 ****        -2.1709  -1.4316  -0.9195 C.3            1 S1                 0.0000
      8 ****        -0.6433  -1.6336  -0.8512 C.3            1 S1                 0.0000
      9 ****        -0.3643  -2.9594  -1.2531 O.3            1 S1                 0.0000
     10 ****        -0.0618  -1.4144   0.5625 C.3            1 S1                 0.0000
     11 ****         1.4190  -1.5086   0.5918 N.4            1 S1                 1.0000
     12 ****         2.1000  -0.2981   0.0694 C.3            1 S1                 0.0000
     13 ****         3.6305  -0.4787   0.0728 C.3            1 S1                 0.0000
     14 ****         4.1389  -1.4258  -1.0286 C.3            1 S1                 0.0000
     15 ****         4.0785  -0.8674   1.3716 O.3            1 S1                 0.0000
     16 ****         3.4638  -2.0444   1.8898 C.3            1 S1                 0.0000
     17 ****         4.0518  -2.3116   3.2798 C.3            1 S1                 0.0000
     18 ****         1.9383  -1.8479   1.9364 C.3            1 S1                 0.0000
     19 ****        -2.4480   0.9574  -1.7094 C.ar           1 S1                 0.0000
     20 ****        -2.0299   0.8860  -3.0496 C.ar           1 S1                 0.0000
     21 ****        -2.0277   2.0907  -3.7910 C.ar           1 S1                 0.0000
     22 ****        -2.4323   3.3127  -3.1935 C.ar           1 S1                 0.0000
     23 ****        -2.8488   3.3560  -1.8421 C.ar           1 S1                 0.0000
     24 ****        -2.8439   2.1442  -1.1293 C.ar           1 S1                 0.0000
     25 ****        -2.7150   4.2182   2.6188 H              1 S1                 0.0000
     26 ****        -1.7335   3.9698   1.1777 H              1 S1                 0.0000
     27 ****        -1.8148   2.7180   2.4178 H              1 S1                 0.0000
     28 ****        -4.2684   2.3916   1.9143 H              1 S1                 0.0000
     29 ****        -4.1910   3.6262   0.6866 H              1 S1                 0.0000
     30 ****        -2.6715  -2.0678  -0.1874 H              1 S1                 0.0000
     31 ****        -2.5462  -1.7481  -1.8937 H              1 S1                 0.0000
     32 ****        -0.1707  -0.9661  -1.5709 H              1 S1                 0.0000
     33 ****        -0.7217  -3.0945  -2.1180 H              1 S1                 0.0000
     34 ****        -0.3523  -0.4427   0.9619 H              1 S1                 0.0000
     35 ****        -0.4946  -2.1586   1.2331 H              1 S1                 0.0000
     36 ****         1.7616  -0.0637  -0.9394 H              1 S1                 0.0000
     37 ****         1.8339   0.5568   0.6932 H              1 S1                 0.0000
     38 ****         4.0788   0.4964  -0.1205 H              1 S1                 0.0000
     39 ****         3.8959  -1.0338  -2.0165 H              1 S1                 0.0000
     40 ****         3.6971  -2.4195  -0.9587 H              1 S1                 0.0000
     41 ****         5.2222  -1.5363  -0.9765 H              1 S1                 0.0000
     42 ****         3.7040  -2.8963   1.2535 H              1 S1                 0.0000
     43 ****         3.6202  -3.2098   3.7228 H              1 S1                 0.0000
     44 ****         3.8601  -1.4789   3.9574 H              1 S1                 0.0000
     45 ****         5.1313  -2.4547   3.2253 H              1 S1                 0.0000
     46 ****         1.6761  -1.0550   2.6390 H              1 S1                 0.0000
     47 ****         1.4649  -2.7630   2.2940 H              1 S1                 0.0000
     48 ****        -1.7207  -0.0465  -3.4979 H              1 S1                 0.0000
     49 ****        -1.7132   2.0803  -4.8242 H              1 S1                 0.0000
     50 ****        -2.4213   4.2213  -3.7775 H              1 S1                 0.0000
     51 ****        -3.1544   4.2837  -1.3816 H              1 S1                 0.0000
     52 ****         1.6673  -2.2795  -0.0121 H              1 S1                 0.0000
     53 ****        -3.4486   0.4635   2.3061 LP             1 S1                 0.0000
     54 ****        -2.9784  -1.0310   1.5676 LP             1 S1                 0.0000
     55 ****        -0.7840  -3.6013  -0.6113 LP             1 S1                 0.0000
     56 ****         0.6249  -3.1048  -1.2710 LP             1 S1                 0.0000
     57 ****         3.8911  -0.1151   2.0031 LP             1 S1                 0.0000
     58 ****         5.0647  -1.0263   1.3256 LP             1 S1                 0.0000
@<TRIPOS>BOND
    1    1    2 1     
    2    1   25 1     
    3    1   26 1     
    4    1   27 1     
    5    2    3 1     
    6    2   28 1     
    7    2   29 1     
    8    3   24 1     
    9    3    4 am    
   10    4    5 2     
   11    4    6 am    
   12    6    7 1     
   13    6   19 1     
   14    7    8 1     
   15    7   30 1     
   16    7   31 1     
   17    8    9 1     
   18    8   10 1     
   19    8   32 1     
   20    9   33 1     
   21   10   11 1     
   22   10   34 1     
   23   10   35 1     
   24   11   18 1     
   25   11   12 1     
   26   11   52 1     
   27   12   13 1     
   28   12   36 1     
   29   12   37 1     
   30   13   14 1     
   31   13   15 1     
   32   13   38 1     
   33   14   39 1     
   34   14   40 1     
   35   14   41 1     
   36   15   16 1     
   37   16   17 1     
   38   16   18 1     
   39   16   42 1     
   40   17   43 1     
   41   17   44 1     
   42   17   45 1     
   43   18   46 1     
   44   18   47 1     
   45   19   24 ar    
   46   19   20 ar    
   47   20   21 ar    
   48   20   48 1     
   49   21   22 ar    
   50   21   49 1     
   51   22   23 ar    
   52   22   50 1     
   53   23   24 ar    
   54   23   51 1     
   55    5   53 1     
   56    5   54 1     
   57    9   55 1     
   58    9   56 1     
   59   15   57 1     
   60   15   58 1     
@<TRIPOS>SUBSTRUCTURE
      1 S1             1
@<TRIPOS>SET
LONE_PAIRS      STATIC     ATOMS    <user>   **** ""
6 53 54 55 56 57 58
DONOR_HYDROGENS      STATIC     ATOMS    <user>   **** ""
2 33 52
ATOM$BLUE        STATIC     ATOMS    COLORGROUP SYSTEM
6 53 54 55 56 57 58
ATOM$RED        STATIC     ATOMS    COLORGROUP SYSTEM
2 33 52
