AV-unprocessed.smi:1464|AV-procd|sdf|5943|dock6
  -GOLD-   22720 6 23D 1   1.00000     0.00000
 Structure written by MMmdl.
 41 42  0  0  0  0  0  0  0  0  1 V2000
  148.9796  141.5838  154.5364 C   0  0  0  0  0  0  0  0  0  0  0  0
  149.3755  140.7962  155.7984 C   0  0  2  0  0  0  0  0  0  0  0  0
  150.4995  141.5424  156.5470 C   0  0  0  0  0  0  0  0  0  0  0  0
  150.9289  140.8114  157.8262 C   0  0  0  0  0  0  0  0  0  0  0  0
  151.3577  139.3697  157.5173 C   0  0  0  0  0  0  0  0  0  0  0  0
  150.2569  138.5895  156.7757 C   0  0  1  0  0  0  0  0  0  0  0  0
  149.1352  138.3318  157.6821 N   0  0  0  0  0  0  0  0  0  0  0  0
  149.0007  137.2768  158.5003 C   0  0  0  0  0  0  0  0  0  0  0  0
  149.8245  136.3638  158.5731 O   0  0  0  0  0  0  0  0  0  0  0  0
  147.7182  137.2484  159.3448 C   0  0  0  0  0  0  0  0  0  0  0  0
  147.5999  136.0504  160.1881 N   0  0  0  0  0  0  0  0  0  0  0  0
  147.5663  134.8591  159.4788 N   0  0  0  0  0  0  0  0  0  0  0  0
  147.4791  133.7363  160.1083 C   0  0  0  0  0  0  0  0  0  0  0  0
  147.4522  132.5800  159.3677 O   0  0  0  0  0  0  0  0  0  0  0  0
  147.4104  133.6910  161.5526 C   0  0  0  0  0  0  0  0  0  0  0  0
  147.4383  134.8570  162.2345 C   0  0  0  0  0  0  0  0  0  0  0  0
  147.5366  136.1485  161.5517 C   0  0  0  0  0  0  0  0  0  0  0  0
  147.5610  137.2256  162.1470 O   0  0  0  0  0  0  0  0  0  0  0  0
  149.7993  139.3324  155.4918 C   0  0  1  0  0  0  0  0  0  0  0  0
  148.7186  138.5349  154.7337 C   0  0  0  0  0  0  0  0  0  0  0  0
  146.5594  132.2743  159.4106 H   0  0  0  0  0  0  0  0  0  0  0  0
  149.7849  141.5871  153.8013 H   0  0  0  0  0  0  0  0  0  0  0  0
  148.7496  142.6216  154.7796 H   0  0  0  0  0  0  0  0  0  0  0  0
  148.0920  141.1666  154.0617 H   0  0  0  0  0  0  0  0  0  0  0  0
  148.5015  140.7707  156.4509 H   0  0  0  0  0  0  0  0  0  0  0  0
  151.3634  141.6577  155.8909 H   0  0  0  0  0  0  0  0  0  0  0  0
  150.1726  142.5511  156.8020 H   0  0  0  0  0  0  0  0  0  0  0  0
  151.7511  141.3476  158.3010 H   0  0  0  0  0  0  0  0  0  0  0  0
  150.1078  140.8114  158.5439 H   0  0  0  0  0  0  0  0  0  0  0  0
  152.2587  139.3897  156.9030 H   0  0  0  0  0  0  0  0  0  0  0  0
  151.6311  138.8543  158.4390 H   0  0  0  0  0  0  0  0  0  0  0  0
  150.6969  137.6386  156.4705 H   0  0  0  0  0  0  0  0  0  0  0  0
  148.3995  139.0233  157.6892 H   0  0  0  0  0  0  0  0  0  0  0  0
  147.6698  138.1456  159.9653 H   0  0  0  0  0  0  0  0  0  0  0  0
  146.8669  137.3175  158.6652 H   0  0  0  0  0  0  0  0  0  0  0  0
  147.3384  132.7432  162.0657 H   0  0  0  0  0  0  0  0  0  0  0  0
  147.3880  134.8386  163.3133 H   0  0  0  0  0  0  0  0  0  0  0  0
  150.6681  139.3792  154.8333 H   0  0  0  0  0  0  0  0  0  0  0  0
  147.7630  138.5517  155.2583 H   0  0  0  0  0  0  0  0  0  0  0  0
  149.0143  137.4919  154.6161 H   0  0  0  0  0  0  0  0  0  0  0  0
  148.5545  138.9314  153.7319 H   0  0  0  0  0  0  0  0  0  0  0  0
  1  2  1  0  0  0  0
  1 22  1  0  0  0  0
  1 23  1  0  0  0  0
  1 24  1  0  0  0  0
  2 19  1  0  0  0  0
  2  3  1  0  0  0  0
  2 25  1  0  0  0  0
  3  4  1  0  0  0  0
  3 26  1  0  0  0  0
  3 27  1  0  0  0  0
  4  5  1  0  0  0  0
  4 28  1  0  0  0  0
  4 29  1  0  0  0  0
  5  6  1  0  0  0  0
  5 30  1  0  0  0  0
  5 31  1  0  0  0  0
  6  7  1  0  0  0  0
  6 19  1  0  0  0  0
  6 32  1  0  0  0  0
  7  8  1  0  0  0  0
  7 33  1  0  0  0  0
  8  9  2  0  0  0  0
  8 10  1  0  0  0  0
 10 34  1  0  0  0  0
 10 35  1  0  0  0  0
 10 11  1  0  0  0  0
 11 12  1  0  0  0  0
 11 17  1  0  0  0  0
 12 13  2  0  0  0  0
 13 14  1  0  0  0  0
 13 15  1  0  0  0  0
 14 21  1  0  0  0  0
 15 36  1  0  0  0  0
 15 16  2  0  0  0  0
 16 37  1  0  0  0  0
 16 17  1  0  0  0  0
 17 18  2  0  0  0  0
 19 20  1  0  0  0  0
 19 38  1  0  0  0  0
 20 39  1  0  0  0  0
 20 40  1  0  0  0  0
 20 41  1  0  0  0  0
M  END
> <s_m_source_file>
AV-unprocessed.smi

> <i_m_source_file_index>
1464

> <i_lp_mmshare_version>
43012

> <i_f3d_flags>
0

> <s_epik_input>
W0NIM11bQ0BASF0xW0NIMl1bQ0gyXVtDSDJdW0NASF0oW0NASF0xW0NIM10pW05IXUMoPU8pW0NIMl1uMltuSF1jKD1PKVtjSF1bY0hdYzI9Tw==

> <s_epik_cmdline>
J2VwaWtfcHl0aG9uJywgJy1waCcsICc3LjAnLCAnLXRuJywgJzgnLCAnLW1hJywgJzIwMCcsICctbWV0YWxfYmluZGluZycsICctaW1hZScsICc8aW5maWxlLm1hZT4nLCAnLW9tYWUnLCAnPG91dGZpbGUubWFlPic=

> <r_lp_tautomer_probability>
0.9996

> <r_epik_Ionization_Penalty>
2.10335

> <r_epik_Ionization_Penalty_Charging>
3.98079e-08

> <r_epik_Ionization_Penalty_Neutral>
2.10335

> <r_epik_State_Penalty>
1.67957

> <r_epik_Charging_Adjusted_Penalty>
1.67957

> <i_epik_Tot_Q>
0

> <i_epik_Tot_abs_Q>
0

> <r_epik_Metal_State_Penalty>
1.67957

> <b_epik_Metal_Only>
0

> <s_lp_Force_Field>
OPLS_2005

> <r_lp_Energy>
20.9709

> <b_lp_Chiralities_Consistent>
1

> <s_lp_Variant>
AV-unprocessed.smi:1464-9

> <Gold.Version>
5.8.1

> <Gold.Id.Protein>
6NUR|6NUR_protein|mol2

> <Gold.PLP.Fitness>
39.3203

> <Gold.PLP.PLP>
-32.5363

> <Gold.PLP.part.hbond>
-3.0000

> <Gold.PLP.part.metal>
0.0000

> <Gold.PLP.part.buried>
-3.4261

> <Gold.PLP.part.nonpolar>
-25.1819

> <Gold.PLP.part.repulsive>
0.0826

> <Gold.PLP.ligand.clash>
0.0000

> <Gold.PLP.ligand.torsion>
0.3737

> <Gold.PLP.Chemscore.Hbond>
2.5070

> <Gold.PLP.Chemscore.CHOScore>
0.0000

> <Gold.PLP.Chemscore.Metal>
0.0000

> <Gold.Chemscore.Hbonds>
donor molecule, donor type, donor heavy atom, donor atom, acceptor molecule, acceptor atom, score
      P1  H  6896  6909       L1     9  0.73
      P1  H  6931  6943       L1    18  0.91
      P1  H  6934  6947       L1    18  0.37

> <Gold.PLP.Chemscore.Internal.Correction>
0.0104

> <Gold.Rescore>
     Score         DG    S(hbond)    S(metal)    S(lipo)     H(rot)  DE(clash)    DE(int)     intcor
     13.56     -15.21       2.39        0.00      63.59       2.22       0.06       1.60       ----

> <Gold.Chemscore.Fitness>
13.5559

> <Gold.Chemscore.DG>
-15.2140

> <Gold.Chemscore.ZeroCoef>
-5.4800

> <Gold.Chemscore.Hbond>
2.3904

> <Gold.Chemscore.Metal>
0.0000

> <Gold.Chemscore.Lipo>
63.5853

> <Gold.Chemscore.Internal_Hbond>
0.0000

> <Gold.Chemscore.DEClash>
0.0610

> <Gold.Chemscore.DEInternal>
1.5971

> <Gold.Chemscore.Rot>
2.2224

> <Gold.Chemscore.Internal.Correction>
   9.000000E+99

> <Gold.Chemscore.Hbonds>
donor molecule, donor type, donor heavy atom, donor atom, acceptor molecule, acceptor atom, score
      P1  H  6896  6909       L1     9  0.72
      P1  H  6931  6943       L1    18  0.84
      P1  H  6934  6947       L1    18  0.34

> <Gold.Chemscore.Hbond.Weighted>
-7.9838

> <Gold.Chemscore.Metal.Weighted>
-0.0000

> <Gold.Chemscore.Lipo.Weighted>
-7.4395

> <Gold.Chemscore.Internal_Hbond.Weighted>
0.0000

> <Gold.Chemscore.DEClash.Weighted>
0.0610

> <Gold.Chemscore.DEInternal.Weighted>
1.5971

> <Gold.Chemscore.Rot.Weighted>
5.6893

> <Gold.Chemscore.Internal.Correction.Weighted>
   9.000000E+99

> <Gold.Protein.RotatedTorsions>
[ 6907 6896 6895 6894 ] final   77.65 input  -60.11 | X-H torsion
[ 7974 7965 7964 7962 ] final  178.78 input  175.53 | X-H torsion
[ 8008 7997 7996 7995 ] final  -51.52 input   59.86 | X-H torsion
[ 10167 10162 10161 10158 ] final   -0.39 input  -65.29 | X-H torsion
[ 10718 10713 10712 10709 ] final -105.46 input   66.30 | X-H torsion
[ 10763 10752 10751 10750 ] final  127.88 input  -60.55 | X-H torsion
[ 11005 11000 10999 10996 ] final   62.03 input  -57.11 | X-H torsion

> <Gold.Protein.ActiveResidues>
 VAL166  LYS551  ARG553  GLY616  TRP617  ASP618  TYR619  PRO620  LYS621  CYS622 
 ASP623  PHE694  ASN695  SER759  ASP760  ASP761  ALA762  ILE779  LEU786  VAL792 
 PHE793  MET794  SER795  GLU796  ALA797  LYS798  CYS799  TRP800  GLU811  SER814 

> <Gold.Protein.RotatedAtoms>
  152.5126  134.3785  159.9342 H   0  0  0  0  0  0  0  0  0  0  0  0  # atno 6907 bound_to 6896
  151.3741  133.3838  159.2710 H   0  0  0  0  0  0  0  0  0  0  0  0  # atno 6908 bound_to 6896
  150.9555  134.8969  159.7757 H   0  0  0  0  0  0  0  0  0  0  0  0  # atno 6909 bound_to 6896
  144.7152  140.0449  143.6436 H   0  0  0  0  0  0  0  0  0  0  0  0  # atno 7974 bound_to 7965
  154.4085  140.1246  156.4843 H   0  0  0  0  0  0  0  0  0  0  0  0  # atno 8008 bound_to 7997
  155.7054  140.3494  155.4931 H   0  0  0  0  0  0  0  0  0  0  0  0  # atno 8009 bound_to 7997
  155.9348  140.1076  157.1093 H   0  0  0  0  0  0  0  0  0  0  0  0  # atno 8010 bound_to 7997
  140.6765  143.6901  150.8035 H   0  0  0  0  0  0  0  0  0  0  0  0  # atno 10167 bound_to 10162
  156.0347  130.5565  150.7542 H   0  0  0  0  0  0  0  0  0  0  0  0  # atno 10718 bound_to 10713
  153.7165  135.3260  155.3257 H   0  0  0  0  0  0  0  0  0  0  0  0  # atno 10763 bound_to 10752
  154.8369  135.4489  154.1261 H   0  0  0  0  0  0  0  0  0  0  0  0  # atno 10764 bound_to 10752
  153.2369  135.6966  153.7906 H   0  0  0  0  0  0  0  0  0  0  0  0  # atno 10765 bound_to 10752
  140.0120  134.6282  155.9766 H   0  0  0  0  0  0  0  0  0  0  0  0  # atno 11005 bound_to 11000
  145.9992  139.3077  143.0938 LP  0  0  0  0  0  0  0  0  0  0  0  0  # atno 17320 bound_to 7965
  145.8813  140.9361  143.0600 LP  0  0  0  0  0  0  0  0  0  0  0  0  # atno 17321 bound_to 7965
  140.0594  143.5169  152.2635 LP  0  0  0  0  0  0  0  0  0  0  0  0  # atno 17342 bound_to 10162
  139.6061  144.7596  151.3060 LP  0  0  0  0  0  0  0  0  0  0  0  0  # atno 17343 bound_to 10162
  157.5078  131.0923  151.0235 LP  0  0  0  0  0  0  0  0  0  0  0  0  # atno 17370 bound_to 10713
  157.0599  130.5821  149.5384 LP  0  0  0  0  0  0  0  0  0  0  0  0  # atno 17371 bound_to 10713
  141.1717  133.6538  156.4677 LP  0  0  0  0  0  0  0  0  0  0  0  0  # atno 17394 bound_to 11000
  140.4537  134.6905  157.5052 LP  0  0  0  0  0  0  0  0  0  0  0  0  # atno 17395 bound_to 11000

$$$$
