AV-unprocessed.smi:910|AV-procd|sdf|4134|dock1
  -GOLD-   22720 2 43D 1   1.00000     0.00000
 Structure written by MMmdl.
 45 46  0  0  0  0  0  0  0  0  2 V2000
  151.3511  144.2943  158.6275 C   0  0  0  0  0  0  0  0  0  0  0  0
  151.8403  142.8824  158.7008 C   0  0  0  0  0  0  0  0  0  0  0  0
  151.7540  142.0153  157.6229 N   0  0  0  0  0  0  0  0  0  0  0  0
  152.2858  140.8642  158.0390 C   0  0  0  0  0  0  0  0  0  0  0  0
  152.4174  139.7439  157.3111 N   0  5  0  0  0  0  0  0  0  0  0  0
  151.8828  139.6899  156.0708 C   0  0  0  0  0  0  0  0  0  0  0  0
  151.3584  140.6254  155.4615 O   0  0  0  0  0  0  0  0  0  0  0  0
  151.9361  138.4718  155.5122 N   0  0  0  0  0  0  0  0  0  0  0  0
  151.3110  138.0819  154.2520 C   0  0  0  0  0  0  0  0  0  0  0  0
  149.7828  138.0120  154.3950 C   0  0  0  0  0  0  0  0  0  0  0  0
  149.2681  139.3295  154.5137 O   0  0  0  0  0  0  0  0  0  0  0  0
  147.8889  139.4139  154.8487 C   0  0  2  0  0  0  0  0  0  0  0  0
  147.0906  139.2260  153.5454 C   0  0  0  0  0  0  0  0  0  0  0  0
  147.3275  140.3810  152.5568 C   0  0  0  0  0  0  0  0  0  0  0  0
  147.0158  141.7401  153.2008 C   0  0  0  0  0  0  0  0  0  0  0  0
  147.8138  141.9394  154.4989 C   0  0  0  0  0  0  0  0  0  0  0  0
  147.5732  140.7863  155.4943 C   0  0  2  0  0  0  0  0  0  0  0  0
  148.3210  141.0173  156.8160 C   0  0  0  0  0  0  0  0  0  0  0  0
  152.7008  140.9294  159.3359 O   0  0  0  0  0  0  0  0  0  0  0  0
  152.4180  142.2053  159.7410 C   0  0  0  0  0  0  0  0  0  0  0  0
  152.7698  142.5894  161.1378 C   0  0  0  0  0  0  0  0  0  0  0  0
  150.2845  144.3504  158.8452 H   0  0  0  0  0  0  0  0  0  0  0  0
  151.5108  144.7175  157.6355 H   0  0  0  0  0  0  0  0  0  0  0  0
  151.8700  144.9309  159.3442 H   0  0  0  0  0  0  0  0  0  0  0  0
  152.3833  137.7398  156.0440 H   0  0  0  0  0  0  0  0  0  0  0  0
  151.5958  138.7568  153.4434 H   0  0  0  0  0  0  0  0  0  0  0  0
  151.6957  137.0980  153.9836 H   0  0  0  0  0  0  0  0  0  0  0  0
  149.3428  137.5361  153.5180 H   0  0  0  0  0  0  0  0  0  0  0  0
  149.5185  137.4036  155.2608 H   0  0  0  0  0  0  0  0  0  0  0  0
  147.6089  138.6123  155.5353 H   0  0  0  0  0  0  0  0  0  0  0  0
  147.3582  138.2776  153.0787 H   0  0  0  0  0  0  0  0  0  0  0  0
  146.0271  139.1639  153.7787 H   0  0  0  0  0  0  0  0  0  0  0  0
  148.3645  140.3680  152.2185 H   0  0  0  0  0  0  0  0  0  0  0  0
  146.7123  140.2409  151.6679 H   0  0  0  0  0  0  0  0  0  0  0  0
  147.2423  142.5441  152.5000 H   0  0  0  0  0  0  0  0  0  0  0  0
  145.9485  141.8072  153.4144 H   0  0  0  0  0  0  0  0  0  0  0  0
  148.8764  142.0141  154.2661 H   0  0  0  0  0  0  0  0  0  0  0  0
  147.5355  142.8904  154.9542 H   0  0  0  0  0  0  0  0  0  0  0  0
  146.5097  140.7868  155.7375 H   0  0  0  0  0  0  0  0  0  0  0  0
  149.3974  141.0858  156.6595 H   0  0  0  0  0  0  0  0  0  0  0  0
  148.1340  140.2079  157.5219 H   0  0  0  0  0  0  0  0  0  0  0  0
  148.0011  141.9465  157.2876 H   0  0  0  0  0  0  0  0  0  0  0  0
  153.6037  143.2910  161.1448 H   0  0  0  0  0  0  0  0  0  0  0  0
  153.0571  141.7163  161.7240 H   0  0  0  0  0  0  0  0  0  0  0  0
  151.9225  143.0644  161.6321 H   0  0  0  0  0  0  0  0  0  0  0  0
  1 22  1  0  0  0  0
  1 23  1  0  0  0  0
  1 24  1  0  0  0  0
  1  2  1  0  0  0  0
  2  3  1  0  0  0  0
  2 20  2  0  0  0  0
  3  4  2  0  0  0  0
  4 19  1  0  0  0  0
  4  5  1  0  0  0  0
  5  6  1  0  0  0  0
  6  8  1  0  0  0  0
  6  7  2  0  0  0  0
  8  9  1  0  0  0  0
  8 25  1  0  0  0  0
  9 10  1  0  0  0  0
  9 26  1  0  0  0  0
  9 27  1  0  0  0  0
 10 11  1  0  0  0  0
 10 28  1  0  0  0  0
 10 29  1  0  0  0  0
 11 12  1  0  0  0  0
 12 17  1  0  0  0  0
 12 13  1  0  0  0  0
 12 30  1  0  0  0  0
 13 14  1  0  0  0  0
 13 31  1  0  0  0  0
 13 32  1  0  0  0  0
 14 15  1  0  0  0  0
 14 33  1  0  0  0  0
 14 34  1  0  0  0  0
 15 16  1  0  0  0  0
 15 35  1  0  0  0  0
 15 36  1  0  0  0  0
 16 17  1  0  0  0  0
 16 37  1  0  0  0  0
 16 38  1  0  0  0  0
 17 18  1  0  0  0  0
 17 39  1  0  0  0  0
 18 40  1  0  0  0  0
 18 41  1  0  0  0  0
 18 42  1  0  0  0  0
 19 20  1  0  0  0  0
 20 21  1  0  0  0  0
 21 43  1  0  0  0  0
 21 44  1  0  0  0  0
 21 45  1  0  0  0  0
M  CHG  1   5  -1
M  END
> <s_m_source_file>
AV-unprocessed.smi

> <i_m_source_file_index>
910

> <i_lp_mmshare_version>
43012

> <i_f3d_flags>
0

> <s_epik_input>
W0NIM11jMW5jKG9jMVtDSDNdKVtOSF1DKD1PKVtOSF1bQ0gyXVtDSDJdT1tDQEBIXTJbQ0gyXVtDSDJdW0NIMl1bQ0gyXVtDQEhdMltDSDNd

> <s_epik_cmdline>
J2VwaWtfcHl0aG9uJywgJy1waCcsICc3LjAnLCAnLXRuJywgJzgnLCAnLW1hJywgJzIwMCcsICctbWV0YWxfYmluZGluZycsICctaW1hZScsICc8aW5maWxlLm1hZT4nLCAnLW9tYWUnLCAnPG91dGZpbGUubWFlPic=

> <r_lp_tautomer_probability>
0.107061

> <r_epik_Ionization_Penalty>
10.1763

> <r_epik_Ionization_Penalty_Charging>
7.13067

> <r_epik_Ionization_Penalty_Neutral>
3.04564

> <r_epik_State_Penalty>
5.57927

> <r_epik_Charging_Adjusted_Penalty>
12.7099

> <i_epik_Tot_Q>
-1

> <i_epik_Tot_abs_Q>
1

> <r_epik_Metal_State_Penalty>
1.52303

> <b_epik_Metal_Only>
1

> <s_lp_Force_Field>
OPLS_2005

> <r_lp_Energy>
5.26856

> <b_lp_Chiralities_Consistent>
1

> <s_lp_Variant>
AV-unprocessed.smi:910-19

> <Gold.Version>
5.8.1

> <Gold.Id.Protein>
6NUR|6NUR_protein|mol2

> <Gold.PLP.Fitness>
42.6472

> <Gold.PLP.PLP>
-35.5599

> <Gold.PLP.part.hbond>
-2.0000

> <Gold.PLP.part.metal>
0.0000

> <Gold.PLP.part.buried>
-2.8969

> <Gold.PLP.part.nonpolar>
-29.3617

> <Gold.PLP.part.repulsive>
0.3177

> <Gold.PLP.ligand.clash>
0.0000

> <Gold.PLP.ligand.torsion>
0.3541

> <Gold.PLP.Chemscore.Hbond>
2.5616

> <Gold.PLP.Chemscore.CHOScore>
0.0000

> <Gold.PLP.Chemscore.Metal>
0.0000

> <Gold.Chemscore.Hbonds>
donor molecule, donor type, donor heavy atom, donor atom, acceptor molecule, acceptor atom, score
      P1  H  7989  7998       L1     7  0.80
      P1  H  7997  8009       L1     5  1.23

> <Gold.PLP.Chemscore.Internal.Correction>
0.1106

> <Gold.Rescore>
     Score         DG    S(hbond)    S(metal)    S(lipo)     H(rot)  DE(clash)    DE(int)     intcor
     11.09     -14.84       0.82        0.00      91.95       1.62       0.13       3.62       ----

> <Gold.Chemscore.Fitness>
11.0912

> <Gold.Chemscore.DG>
-14.8421

> <Gold.Chemscore.ZeroCoef>
-5.4800

> <Gold.Chemscore.Hbond>
0.8213

> <Gold.Chemscore.Metal>
0.0000

> <Gold.Chemscore.Lipo>
91.9519

> <Gold.Chemscore.Internal_Hbond>
0.0000

> <Gold.Chemscore.DEClash>
0.1346

> <Gold.Chemscore.DEInternal>
3.6164

> <Gold.Chemscore.Rot>
1.6169

> <Gold.Chemscore.Internal.Correction>
   9.000000E+99

> <Gold.Chemscore.Hbonds>
donor molecule, donor type, donor heavy atom, donor atom, acceptor molecule, acceptor atom, score
      P1  H  7989  7998       L1     7  0.77
      P1  H  7997  8009       L1     5  0.02

> <Gold.Chemscore.Hbond.Weighted>
-2.7430

> <Gold.Chemscore.Metal.Weighted>
-0.0000

> <Gold.Chemscore.Lipo.Weighted>
-10.7584

> <Gold.Chemscore.Internal_Hbond.Weighted>
0.0000

> <Gold.Chemscore.DEClash.Weighted>
0.1346

> <Gold.Chemscore.DEInternal.Weighted>
3.6164

> <Gold.Chemscore.Rot.Weighted>
4.1393

> <Gold.Chemscore.Internal.Correction.Weighted>
   9.000000E+99

> <Gold.Protein.RotatedTorsions>
[ 6907 6896 6895 6894 ] final   58.76 input  -60.11 | X-H torsion
[ 7974 7965 7964 7962 ] final   48.15 input  175.53 | X-H torsion
[ 8008 7997 7996 7995 ] final  169.93 input   59.86 | X-H torsion
[ 10167 10162 10161 10158 ] final  179.44 input  -65.29 | X-H torsion
[ 10718 10713 10712 10709 ] final   -6.97 input   66.30 | X-H torsion
[ 10763 10752 10751 10750 ] final  124.73 input  -60.55 | X-H torsion
[ 11005 11000 10999 10996 ] final  141.72 input  -57.11 | X-H torsion

> <Gold.Protein.ActiveResidues>
 VAL166  LYS551  ARG553  GLY616  TRP617  ASP618  TYR619  PRO620  LYS621  CYS622 
 ASP623  PHE694  ASN695  SER759  ASP760  ASP761  ALA762  ILE779  LEU786  VAL792 
 PHE793  MET794  SER795  GLU796  ALA797  LYS798  CYS799  TRP800  GLU811  SER814 

> <Gold.Protein.RotatedAtoms>
  152.3854  134.6526  160.0127 H   0  0  0  0  0  0  0  0  0  0  0  0  # atno 6907 bound_to 6896
  151.6776  133.3307  159.3219 H   0  0  0  0  0  0  0  0  0  0  0  0  # atno 6908 bound_to 6896
  150.7781  134.6745  159.6454 H   0  0  0  0  0  0  0  0  0  0  0  0  # atno 6909 bound_to 6896
  146.0231  139.4675  142.9884 H   0  0  0  0  0  0  0  0  0  0  0  0  # atno 7974 bound_to 7965
  156.1412  140.1551  156.8917 H   0  0  0  0  0  0  0  0  0  0  0  0  # atno 8008 bound_to 7997
  154.4989  140.0830  156.7794 H   0  0  0  0  0  0  0  0  0  0  0  0  # atno 8009 bound_to 7997
  155.4075  140.3417  155.4263 H   0  0  0  0  0  0  0  0  0  0  0  0  # atno 8010 bound_to 7997
  139.5336  144.2561  152.0745 H   0  0  0  0  0  0  0  0  0  0  0  0  # atno 10167 bound_to 10162
  156.7241  130.5160  149.5861 H   0  0  0  0  0  0  0  0  0  0  0  0  # atno 10718 bound_to 10713
  153.6661  135.3338  155.3140 H   0  0  0  0  0  0  0  0  0  0  0  0  # atno 10763 bound_to 10752
  154.8503  135.4375  154.1754 H   0  0  0  0  0  0  0  0  0  0  0  0  # atno 10764 bound_to 10752
  153.2733  135.7002  153.7534 H   0  0  0  0  0  0  0  0  0  0  0  0  # atno 10765 bound_to 10752
  140.0423  134.9298  157.0865 H   0  0  0  0  0  0  0  0  0  0  0  0  # atno 11005 bound_to 11000
  145.7161  141.0090  143.1427 LP  0  0  0  0  0  0  0  0  0  0  0  0  # atno 17320 bound_to 7965
  144.6998  139.8814  143.7447 LP  0  0  0  0  0  0  0  0  0  0  0  0  # atno 17321 bound_to 7965
  140.2028  144.4640  150.6423 LP  0  0  0  0  0  0  0  0  0  0  0  0  # atno 17342 bound_to 10162
  140.6530  143.2230  151.6034 LP  0  0  0  0  0  0  0  0  0  0  0  0  # atno 17343 bound_to 10162
  156.1574  130.6351  151.0675 LP  0  0  0  0  0  0  0  0  0  0  0  0  # atno 17370 bound_to 10713
  157.6886  131.0817  150.7172 LP  0  0  0  0  0  0  0  0  0  0  0  0  # atno 17371 bound_to 10713
  140.4050  134.2042  155.7163 LP  0  0  0  0  0  0  0  0  0  0  0  0  # atno 17394 bound_to 11000
  141.1889  133.8250  157.0977 LP  0  0  0  0  0  0  0  0  0  0  0  0  # atno 17395 bound_to 11000

$$$$
