#       Name:                AV-unprocessed.smi:783
#       Creating user name   scv26
#       Creation time:       Fri Mar 27 01:14:12 2020


#       File generated by GOLD software.
#

@<TRIPOS>MOLECULE
AV-unprocessed.smi:783
    50    51     1
SMALL
NO_CHARGES


@<TRIPOS>ATOM
      1 ****        -4.1850  -0.2419  -0.2412 C.3            1 S1                 0.0000
      2 ****        -2.9823   0.2325   0.6001 C.3            1 S1                 0.0000
      3 ****        -1.8293   0.7664  -0.2637 C.2            1 S1                 0.0000
      4 ****        -2.0504   1.2726  -1.3644 O.2            1 S1                 0.0000
      5 ****        -0.5969   0.6391   0.2532 N.am           1 S1                 0.0000
      6 ****         0.6510   1.0520  -0.3894 C.3            1 S1                 0.0000
      7 ****         1.3919  -0.1145  -1.1135 C.3            1 S1                 0.0000
      8 ****         1.5713  -1.3593  -0.1776 C.2            1 S1                 0.0000
      9 ****         0.8747  -2.3523  -0.4029 O.2            1 S1                 0.0000
     10 ****         2.4508  -1.3791   0.8609 N.am           1 S1                 0.0000
     11 ****         2.6039  -2.6056   1.6513 C.3            1 S1                 0.0000
     12 ****         3.3099  -0.2928   1.3401 C.3            1 S1                 0.0000
     13 ****         0.5936  -0.4965  -2.3919 C.3            1 S1                 0.0000
     14 ****         1.5746  -1.1882  -3.3442 C.3            1 S1                 0.0000
     15 ****         2.9541  -0.6464  -2.9633 C.3            1 S1                 0.0000
     16 ****         2.7172   0.3173  -1.7928 C.3            1 S1                 0.0000
     17 ****        -3.3596   1.2197   1.6052 N.pl3          1 S1                 0.0000
     18 ****        -2.9461   1.2894   2.9203 C.2            1 S1                 0.0000
     19 ****        -3.5170   2.3997   3.4733 C.2            1 S1                 0.0000
     20 ****        -4.2637   2.9640   2.4023 C.2            1 S1                 0.0000
     21 ****        -4.1604   2.2632   1.2852 N.2            1 S1                 0.0000
     22 ****        -3.8860  -1.0125  -0.9526 H              1 S1                 0.0000
     23 ****        -4.6380   0.5720  -0.8088 H              1 S1                 0.0000
     24 ****        -4.9588  -0.6700   0.3966 H              1 S1                 0.0000
     25 ****        -2.6070  -0.6408   1.1366 H              1 S1                 0.0000
     26 ****        -0.5143   0.2096   1.1631 H              1 S1                 0.0000
     27 ****         0.4574   1.8657  -1.0904 H              1 S1                 0.0000
     28 ****         1.2625   1.5082   0.3835 H              1 S1                 0.0000
     29 ****         2.8580  -3.4514   1.0104 H              1 S1                 0.0000
     30 ****         1.6773  -2.8410   2.1766 H              1 S1                 0.0000
     31 ****         3.3935  -2.5251   2.3998 H              1 S1                 0.0000
     32 ****         3.0901   0.6888   0.9368 H              1 S1                 0.0000
     33 ****         4.3502  -0.5172   1.1025 H              1 S1                 0.0000
     34 ****         3.2310  -0.2002   2.4240 H              1 S1                 0.0000
     35 ****        -0.2937  -1.1029  -2.2057 H              1 S1                 0.0000
     36 ****         0.2319   0.4094  -2.8810 H              1 S1                 0.0000
     37 ****         1.5461  -2.2692  -3.2015 H              1 S1                 0.0000
     38 ****         1.3278  -0.9887  -4.3874 H              1 S1                 0.0000
     39 ****         3.6009  -1.4681  -2.6529 H              1 S1                 0.0000
     40 ****         3.4419  -0.1436  -3.7990 H              1 S1                 0.0000
     41 ****         2.6048   1.3283  -2.1872 H              1 S1                 0.0000
     42 ****         3.5914   0.3425  -1.1482 H              1 S1                 0.0000
     43 ****        -2.2857   0.5502   3.3491 H              1 S1                 0.0000
     44 ****        -3.4128   2.7576   4.4868 H              1 S1                 0.0000
     45 ****        -4.8693   3.8582   2.4015 H              1 S1                 0.0000
     46 ****        -2.9884   1.3395  -1.7046 LP             1 S1                 0.0000
     47 ****        -1.2920   1.6168  -1.9179 LP             1 S1                 0.0000
     48 ****         0.2232  -2.3444  -1.1615 LP             1 S1                 0.0000
     49 ****         0.9615  -3.1651   0.1731 LP             1 S1                 0.0000
     50 ****        -4.5811   2.4607   0.3997 LP             1 S1                 0.0000
@<TRIPOS>BOND
    1    1    2 1     
    2    1   22 1     
    3    1   23 1     
    4    1   24 1     
    5    2    3 1     
    6    2   17 1     
    7    2   25 1     
    8    3    4 2     
    9    3    5 am    
   10    5    6 1     
   11    5   26 1     
   12    6    7 1     
   13    6   27 1     
   14    6   28 1     
   15    7   16 1     
   16    7    8 1     
   17    7   13 1     
   18    8    9 2     
   19    8   10 am    
   20   10   11 1     
   21   10   12 1     
   22   11   29 1     
   23   11   30 1     
   24   11   31 1     
   25   12   32 1     
   26   12   33 1     
   27   12   34 1     
   28   13   14 1     
   29   13   35 1     
   30   13   36 1     
   31   14   15 1     
   32   14   37 1     
   33   14   38 1     
   34   15   16 1     
   35   15   39 1     
   36   15   40 1     
   37   16   41 1     
   38   16   42 1     
   39   17   21 1     
   40   17   18 1     
   41   18   19 2     
   42   18   43 1     
   43   19   20 1     
   44   19   44 1     
   45   20   21 2     
   46   20   45 1     
   47    4   46 1     
   48    4   47 1     
   49    9   48 1     
   50    9   49 1     
   51   21   50 1     
@<TRIPOS>SUBSTRUCTURE
      1 S1             1
@<TRIPOS>SET
LONE_PAIRS      STATIC     ATOMS    <user>   **** ""
5 46 47 48 49 50
DONOR_HYDROGENS      STATIC     ATOMS    <user>   **** ""
1 26
ATOM$BLUE        STATIC     ATOMS    COLORGROUP SYSTEM
5 46 47 48 49 50
ATOM$RED        STATIC     ATOMS    COLORGROUP SYSTEM
1 26
