AV-unprocessed.smi:654|AV-procd|sdf|3212|dock9
  -GOLD-   22720 0153D 1   1.00000     0.00000
 Structure written by MMmdl.
 47 49  0  0  0  0  0  0  0  0  1 V2000
  151.1083  136.8480  159.4674 O   0  0  0  0  0  0  0  0  0  0  0  0
  150.2885  137.1593  158.6025 C   0  0  0  0  0  0  0  0  0  0  0  0
  150.4717  138.2181  157.7962 N   0  0  0  0  0  0  0  0  0  0  0  0
  151.6592  139.0657  157.7721 C   0  0  0  0  0  0  0  0  0  0  0  0
  151.3170  140.5465  157.5166 C   0  0  0  0  0  0  0  0  0  0  0  0
  151.9412  141.4897  158.5311 C   0  0  0  0  0  0  0  0  0  0  0  0
  152.6804  140.9899  159.6226 C   0  0  0  0  0  0  0  0  0  0  0  0
  153.2245  141.9017  160.5476 C   0  0  0  0  0  0  0  0  0  0  0  0
  153.0065  143.2785  160.3397 C   0  0  0  0  0  0  0  0  0  0  0  0
  152.3011  143.7688  159.2978 N   0  0  0  0  0  0  0  0  0  0  0  0
  151.7840  142.8878  158.4149 C   0  0  0  0  0  0  0  0  0  0  0  0
  149.1307  136.4811  158.3947 N   0  0  0  0  0  0  0  0  0  0  0  0
  147.9948  136.9337  157.5770 C   0  0  0  0  0  0  0  0  0  0  0  0
  146.8670  137.3976  158.5073 C   0  0  0  0  0  0  0  0  0  0  0  0
  146.2653  136.0192  159.5311 S   0  0  0  0  0  0  0  0  0  0  0  0
  147.8325  135.3497  160.2093 C   0  0  0  0  0  0  0  0  0  0  0  0
  148.3869  136.2785  161.3237 C   0  0  0  0  0  0  0  0  0  0  0  0
  147.5123  136.3045  162.5899 C   0  0  0  0  0  0  0  0  0  0  0  0
  147.2917  134.8920  163.1463 C   0  0  0  0  0  0  0  0  0  0  0  0
  146.6925  133.9712  162.0757 C   0  0  0  0  0  0  0  0  0  0  0  0
  147.5685  133.9457  160.8098 C   0  0  0  0  0  0  0  0  0  0  0  0
  148.8503  135.1936  159.0466 C   0  0  0  0  0  0  0  0  0  0  0  0
  149.7525  138.4238  157.1184 H   0  0  0  0  0  0  0  0  0  0  0  0
  152.1466  138.9679  158.7425 H   0  0  0  0  0  0  0  0  0  0  0  0
  152.3739  138.7040  157.0313 H   0  0  0  0  0  0  0  0  0  0  0  0
  151.6437  140.8330  156.5164 H   0  0  0  0  0  0  0  0  0  0  0  0
  150.2344  140.6804  157.5289 H   0  0  0  0  0  0  0  0  0  0  0  0
  152.8238  139.9272  159.7526 H   0  0  0  0  0  0  0  0  0  0  0  0
  153.7941  141.5546  161.3970 H   0  0  0  0  0  0  0  0  0  0  0  0
  153.4089  144.0056  161.0297 H   0  0  0  0  0  0  0  0  0  0  0  0
  151.2188  143.3116  157.5977 H   0  0  0  0  0  0  0  0  0  0  0  0
  148.2531  137.7307  156.8795 H   0  0  0  0  0  0  0  0  0  0  0  0
  147.6432  136.1163  156.9459 H   0  0  0  0  0  0  0  0  0  0  0  0
  147.2095  138.2074  159.1522 H   0  0  0  0  0  0  0  0  0  0  0  0
  146.0318  137.7873  157.9253 H   0  0  0  0  0  0  0  0  0  0  0  0
  149.3878  135.9451  161.6018 H   0  0  0  0  0  0  0  0  0  0  0  0
  148.5049  137.2979  160.9577 H   0  0  0  0  0  0  0  0  0  0  0  0
  147.9840  136.9294  163.3485 H   0  0  0  0  0  0  0  0  0  0  0  0
  146.5499  136.7673  162.3696 H   0  0  0  0  0  0  0  0  0  0  0  0
  148.2412  134.4820  163.4927 H   0  0  0  0  0  0  0  0  0  0  0  0
  146.6348  134.9313  164.0158 H   0  0  0  0  0  0  0  0  0  0  0  0
  146.5916  132.9611  162.4736 H   0  0  0  0  0  0  0  0  0  0  0  0
  145.6832  134.3020  161.8288 H   0  0  0  0  0  0  0  0  0  0  0  0
  147.1065  133.3000  160.0622 H   0  0  0  0  0  0  0  0  0  0  0  0
  148.5204  133.4760  161.0628 H   0  0  0  0  0  0  0  0  0  0  0  0
  148.4620  134.4941  158.3045 H   0  0  0  0  0  0  0  0  0  0  0  0
  149.7642  134.7246  159.4146 H   0  0  0  0  0  0  0  0  0  0  0  0
  1  2  2  0  0  0  0
  2  3  1  0  0  0  0
  2 12  1  0  0  0  0
  3  4  1  0  0  0  0
  3 23  1  0  0  0  0
  4  5  1  0  0  0  0
  4 24  1  0  0  0  0
  4 25  1  0  0  0  0
  5  6  1  0  0  0  0
  5 26  1  0  0  0  0
  5 27  1  0  0  0  0
  6 11  1  0  0  0  0
  6  7  2  0  0  0  0
  7  8  1  0  0  0  0
  7 28  1  0  0  0  0
  8  9  2  0  0  0  0
  8 29  1  0  0  0  0
  9 10  1  0  0  0  0
  9 30  1  0  0  0  0
 10 11  2  0  0  0  0
 11 31  1  0  0  0  0
 12 22  1  0  0  0  0
 12 13  1  0  0  0  0
 13 14  1  0  0  0  0
 13 32  1  0  0  0  0
 13 33  1  0  0  0  0
 14 15  1  0  0  0  0
 14 34  1  0  0  0  0
 14 35  1  0  0  0  0
 15 16  1  0  0  0  0
 16 21  1  0  0  0  0
 16 17  1  0  0  0  0
 16 22  1  0  0  0  0
 17 18  1  0  0  0  0
 17 36  1  0  0  0  0
 17 37  1  0  0  0  0
 18 19  1  0  0  0  0
 18 38  1  0  0  0  0
 18 39  1  0  0  0  0
 19 20  1  0  0  0  0
 19 40  1  0  0  0  0
 19 41  1  0  0  0  0
 20 21  1  0  0  0  0
 20 42  1  0  0  0  0
 20 43  1  0  0  0  0
 21 44  1  0  0  0  0
 21 45  1  0  0  0  0
 22 46  1  0  0  0  0
 22 47  1  0  0  0  0
M  END
> <s_m_source_file>
AV-unprocessed.smi

> <i_m_source_file_index>
654

> <i_lp_mmshare_version>
43012

> <i_f3d_flags>
0

> <s_epik_input>
W2NIXTFuW2NIXVtjSF1bY0hdYzFbQ0gyXVtDSDJdW05IXUMoPU8pTihbQ0gyXTIpW0NIMl1bQ0gyXVNDMjNbQ0gyXVtDSDJdW0NIMl1bQ0gyXVtDSDJdMw==

> <s_epik_cmdline>
J2VwaWtfcHl0aG9uJywgJy1waCcsICc3LjAnLCAnLXRuJywgJzgnLCAnLW1hJywgJzIwMCcsICctbWV0YWxfYmluZGluZycsICctaW1hZScsICc8aW5maWxlLm1hZT4nLCAnLW9tYWUnLCAnPG91dGZpbGUubWFlPic=

> <r_epik_Ionization_Penalty>
0.0144586

> <r_epik_Ionization_Penalty_Charging>
0

> <r_epik_Ionization_Penalty_Neutral>
0.0144586

> <r_epik_State_Penalty>
0.0112665

> <r_epik_Charging_Adjusted_Penalty>
0.0112665

> <i_epik_Tot_Q>
0

> <i_epik_Tot_abs_Q>
0

> <r_epik_Metal_State_Penalty>
0.0109983

> <b_epik_Metal_Only>
0

> <s_lp_Force_Field>
OPLS_2005

> <r_lp_Energy>
31.4252

> <b_lp_Chiralities_Consistent>
1

> <s_lp_Variant>
AV-unprocessed.smi:654-1

> <Gold.Version>
5.8.1

> <Gold.Id.Protein>
6NUR|6NUR_protein|mol2

> <Gold.PLP.Fitness>
42.2943

> <Gold.PLP.PLP>
-40.4649

> <Gold.PLP.part.hbond>
-1.0000

> <Gold.PLP.part.metal>
0.0000

> <Gold.PLP.part.buried>
-5.1745

> <Gold.PLP.part.nonpolar>
-34.4515

> <Gold.PLP.part.repulsive>
0.0510

> <Gold.PLP.ligand.clash>
0.0000

> <Gold.PLP.ligand.torsion>
0.5874

> <Gold.PLP.Chemscore.Hbond>
1.0000

> <Gold.PLP.Chemscore.CHOScore>
0.0000

> <Gold.PLP.Chemscore.Metal>
0.0000

> <Gold.Chemscore.Hbonds>
donor molecule, donor type, donor heavy atom, donor atom, acceptor molecule, acceptor atom, score
      P1  H  6896  6908       L1     1  1.00

> <Gold.PLP.Chemscore.Internal.Correction>
0.0042

> <Gold.Rescore>
     Score         DG    S(hbond)    S(metal)    S(lipo)     H(rot)  DE(clash)    DE(int)     intcor
     18.46     -19.17       1.00        0.00     115.46       1.23       0.15       0.56       ----

> <Gold.Chemscore.Fitness>
18.4612

> <Gold.Chemscore.DG>
-19.1731

> <Gold.Chemscore.ZeroCoef>
-5.4800

> <Gold.Chemscore.Hbond>
0.9961

> <Gold.Chemscore.Metal>
0.0000

> <Gold.Chemscore.Lipo>
115.4591

> <Gold.Chemscore.Internal_Hbond>
0.0000

> <Gold.Chemscore.DEClash>
0.1530

> <Gold.Chemscore.DEInternal>
0.5589

> <Gold.Chemscore.Rot>
1.2276

> <Gold.Chemscore.Internal.Correction>
   9.000000E+99

> <Gold.Chemscore.Hbonds>
donor molecule, donor type, donor heavy atom, donor atom, acceptor molecule, acceptor atom, score
      P1  H  6896  6908       L1     1  0.74

> <Gold.Chemscore.Hbond.Weighted>
-3.3271

> <Gold.Chemscore.Metal.Weighted>
-0.0000

> <Gold.Chemscore.Lipo.Weighted>
-13.5087

> <Gold.Chemscore.Internal_Hbond.Weighted>
0.0000

> <Gold.Chemscore.DEClash.Weighted>
0.1530

> <Gold.Chemscore.DEInternal.Weighted>
0.5589

> <Gold.Chemscore.Rot.Weighted>
3.1427

> <Gold.Chemscore.Internal.Correction.Weighted>
   9.000000E+99

> <Gold.Protein.RotatedTorsions>
[ 6907 6896 6895 6894 ] final -154.00 input  -60.11 | X-H torsion
[ 7974 7965 7964 7962 ] final  -47.58 input  175.53 | X-H torsion
[ 8008 7997 7996 7995 ] final  -71.84 input   59.86 | X-H torsion
[ 10167 10162 10161 10158 ] final  142.82 input  -65.29 | X-H torsion
[ 10718 10713 10712 10709 ] final  118.31 input   66.30 | X-H torsion
[ 10763 10752 10751 10750 ] final   41.24 input  -60.55 | X-H torsion
[ 11005 11000 10999 10996 ] final  -10.65 input  -57.11 | X-H torsion

> <Gold.Protein.ActiveResidues>
 VAL166  LYS551  ARG553  GLY616  TRP617  ASP618  TYR619  PRO620  LYS621  CYS622 
 ASP623  PHE694  ASN695  SER759  ASP760  ASP761  ALA762  ILE779  LEU786  VAL792 
 PHE793  MET794  SER795  GLU796  ALA797  LYS798  CYS799  TRP800  GLU811  SER814 

> <Gold.Protein.RotatedAtoms>
  151.2509  133.4351  159.2611 H   0  0  0  0  0  0  0  0  0  0  0  0  # atno 6907 bound_to 6896
  151.0618  134.9742  159.8274 H   0  0  0  0  0  0  0  0  0  0  0  0  # atno 6908 bound_to 6896
  152.5399  134.2459  159.8932 H   0  0  0  0  0  0  0  0  0  0  0  0  # atno 6909 bound_to 6896
  145.9601  140.7488  142.9462 H   0  0  0  0  0  0  0  0  0  0  0  0  # atno 7974 bound_to 7965
  154.5119  140.0808  156.8007 H   0  0  0  0  0  0  0  0  0  0  0  0  # atno 8008 bound_to 7997
  155.3765  140.3425  155.4227 H   0  0  0  0  0  0  0  0  0  0  0  0  # atno 8009 bound_to 7997
  156.1583  140.1580  156.8642 H   0  0  0  0  0  0  0  0  0  0  0  0  # atno 8010 bound_to 7997
  139.4984  144.6081  151.6333 H   0  0  0  0  0  0  0  0  0  0  0  0  # atno 10167 bound_to 10162
  157.6038  131.1046  150.7738 H   0  0  0  0  0  0  0  0  0  0  0  0  # atno 10718 bound_to 10713
  152.9913  135.6167  154.2756 H   0  0  0  0  0  0  0  0  0  0  0  0  # atno 10763 bound_to 10752
  154.2488  135.2786  155.2827 H   0  0  0  0  0  0  0  0  0  0  0  0  # atno 10764 bound_to 10752
  154.5306  135.5789  153.6813 H   0  0  0  0  0  0  0  0  0  0  0  0  # atno 10765 bound_to 10752
  140.7470  133.8623  155.9014 H   0  0  0  0  0  0  0  0  0  0  0  0  # atno 11005 bound_to 11000
  144.6813  140.2577  143.7323 LP  0  0  0  0  0  0  0  0  0  0  0  0  # atno 17320 bound_to 7965
  145.8052  139.1980  143.2025 LP  0  0  0  0  0  0  0  0  0  0  0  0  # atno 17321 bound_to 7965
  140.5748  144.0046  150.6236 LP  0  0  0  0  0  0  0  0  0  0  0  0  # atno 17342 bound_to 10162
  140.3176  143.3158  152.0816 LP  0  0  0  0  0  0  0  0  0  0  0  0  # atno 17343 bound_to 10162
  156.8131  130.4959  149.5353 LP  0  0  0  0  0  0  0  0  0  0  0  0  # atno 17370 bound_to 10713
  156.1119  130.6046  151.0060 LP  0  0  0  0  0  0  0  0  0  0  0  0  # atno 17371 bound_to 10713
  140.9785  134.1437  157.4515 LP  0  0  0  0  0  0  0  0  0  0  0  0  # atno 17394 bound_to 11000
  139.8795  135.0002  156.6000 LP  0  0  0  0  0  0  0  0  0  0  0  0  # atno 17395 bound_to 11000

$$$$
