AV-unprocessed.smi:2691|AV-procd|sdf|10390|dock8
  -GOLD-   2272014423D 1   1.00000     0.00000
 Structure written by MMmdl.
 49 51  0  0  0  0  0  0  0  0  1 V2000
  152.8520  142.9580  161.0387 C   0  0  0  0  0  0  0  0  0  0  0  0
  152.2270  142.5475  159.7172 C   0  0  0  0  0  0  0  0  0  0  0  0
  152.7515  141.4322  159.0262 C   0  0  0  0  0  0  0  0  0  0  0  0
  152.2025  141.0206  157.7923 C   0  0  0  0  0  0  0  0  0  0  0  0
  152.5530  139.9728  156.9581 N   0  0  0  0  0  0  0  0  0  0  0  0
  151.6771  140.1152  155.9679 C   0  0  0  0  0  0  0  0  0  0  0  0
  150.8052  141.1381  156.0570 N   0  0  0  0  0  0  0  0  0  0  0  0
  149.7764  141.4993  155.0980 C   0  0  0  0  0  0  0  0  0  0  0  0
  149.0904  140.2652  154.4783 C   0  0  2  0  0  0  0  0  0  0  0  0
  149.9809  139.7386  153.5162 O   0  0  0  0  0  0  0  0  0  0  0  0
  147.7429  140.5837  153.7840 C   0  0  0  0  0  0  0  0  0  0  0  0
  146.9902  139.3607  153.4657 N   0  0  0  0  0  0  0  0  0  0  0  0
  146.8976  139.0197  152.1035 C   0  0  0  0  0  0  0  0  0  0  0  0
  146.2691  137.9589  151.7082 N   0  0  0  0  0  0  0  0  0  0  0  0
  145.6618  137.1180  152.6492 C   0  0  0  0  0  0  0  0  0  0  0  0
  144.9416  135.8800  152.1309 C   0  0  0  0  0  0  0  0  0  0  0  0
  145.1575  135.6868  150.6211 C   0  0  0  0  0  0  0  0  0  0  0  0
  143.4476  135.9142  152.4874 C   0  0  0  0  0  0  0  0  0  0  0  0
  145.7301  137.4014  153.9720 C   0  0  0  0  0  0  0  0  0  0  0  0
  146.4333  138.5927  154.4476 C   0  0  0  0  0  0  0  0  0  0  0  0
  146.5212  138.8784  155.6419 O   0  0  0  0  0  0  0  0  0  0  0  0
  151.1062  141.7622  157.2628 C   0  0  0  0  0  0  0  0  0  0  0  0
  150.5716  142.8702  157.9437 C   0  0  0  0  0  0  0  0  0  0  0  0
  151.1318  143.2676  159.1757 C   0  0  0  0  0  0  0  0  0  0  0  0
  150.5499  144.4678  159.9011 C   0  0  0  0  0  0  0  0  0  0  0  0
  153.7006  142.3219  161.2924 H   0  0  0  0  0  0  0  0  0  0  0  0
  152.1232  142.8817  161.8459 H   0  0  0  0  0  0  0  0  0  0  0  0
  153.2094  143.9866  160.9892 H   0  0  0  0  0  0  0  0  0  0  0  0
  153.5846  140.8824  159.4387 H   0  0  0  0  0  0  0  0  0  0  0  0
  151.6762  139.4434  155.1221 H   0  0  0  0  0  0  0  0  0  0  0  0
  149.0415  142.1358  155.5936 H   0  0  0  0  0  0  0  0  0  0  0  0
  150.2422  142.1051  154.3194 H   0  0  0  0  0  0  0  0  0  0  0  0
  148.9544  139.5137  155.2570 H   0  0  0  0  0  0  0  0  0  0  0  0
  149.5995  139.8522  152.6591 H   0  0  0  0  0  0  0  0  0  0  0  0
  147.1151  141.2006  154.4276 H   0  0  0  0  0  0  0  0  0  0  0  0
  147.9001  141.2124  152.9048 H   0  0  0  0  0  0  0  0  0  0  0  0
  147.3924  139.7052  151.4134 H   0  0  0  0  0  0  0  0  0  0  0  0
  145.3732  135.0117  152.6307 H   0  0  0  0  0  0  0  0  0  0  0  0
  146.2198  135.6396  150.3798 H   0  0  0  0  0  0  0  0  0  0  0  0
  144.7201  136.5025  150.0445 H   0  0  0  0  0  0  0  0  0  0  0  0
  144.7008  134.7586  150.2766 H   0  0  0  0  0  0  0  0  0  0  0  0
  143.3036  136.0255  153.5625 H   0  0  0  0  0  0  0  0  0  0  0  0
  142.9518  134.9921  152.1831 H   0  0  0  0  0  0  0  0  0  0  0  0
  142.9370  136.7428  151.9955 H   0  0  0  0  0  0  0  0  0  0  0  0
  145.2632  136.7461  154.6928 H   0  0  0  0  0  0  0  0  0  0  0  0
  149.7397  143.4120  157.5189 H   0  0  0  0  0  0  0  0  0  0  0  0
  149.6791  144.8645  159.3784 H   0  0  0  0  0  0  0  0  0  0  0  0
  151.2903  145.2648  159.9731 H   0  0  0  0  0  0  0  0  0  0  0  0
  150.2367  144.1929  160.9086 H   0  0  0  0  0  0  0  0  0  0  0  0
  1  2  1  0  0  0  0
  1 26  1  0  0  0  0
  1 27  1  0  0  0  0
  1 28  1  0  0  0  0
  2 24  1  0  0  0  0
  2  3  2  0  0  0  0
  3  4  1  0  0  0  0
  3 29  1  0  0  0  0
  4 22  2  0  0  0  0
  4  5  1  0  0  0  0
  5  6  2  0  0  0  0
  6  7  1  0  0  0  0
  6 30  1  0  0  0  0
  7  8  1  0  0  0  0
  7 22  1  0  0  0  0
  8  9  1  0  0  0  0
  8 31  1  0  0  0  0
  8 32  1  0  0  0  0
  9 10  1  0  0  0  0
  9 11  1  0  0  0  0
  9 33  1  0  0  0  0
 10 34  1  0  0  0  0
 11 12  1  0  0  0  0
 11 35  1  0  0  0  0
 11 36  1  0  0  0  0
 12 20  1  0  0  0  0
 12 13  1  0  0  0  0
 13 14  2  0  0  0  0
 13 37  1  0  0  0  0
 14 15  1  0  0  0  0
 15 16  1  0  0  0  0
 15 19  2  0  0  0  0
 16 17  1  0  0  0  0
 16 18  1  0  0  0  0
 16 38  1  0  0  0  0
 17 39  1  0  0  0  0
 17 40  1  0  0  0  0
 17 41  1  0  0  0  0
 18 42  1  0  0  0  0
 18 43  1  0  0  0  0
 18 44  1  0  0  0  0
 19 20  1  0  0  0  0
 19 45  1  0  0  0  0
 20 21  2  0  0  0  0
 22 23  1  0  0  0  0
 23 24  2  0  0  0  0
 23 46  1  0  0  0  0
 24 25  1  0  0  0  0
 25 47  1  0  0  0  0
 25 48  1  0  0  0  0
 25 49  1  0  0  0  0
M  END
> <s_m_source_file>
AV-unprocessed.smi

> <i_m_source_file_index>
2691

> <i_lp_mmshare_version>
43012

> <i_f3d_flags>
0

> <s_epik_input>
W0NIM11jKFtjSF0xKWMoW0NIM10pW2NIXWMoYzEyKW4oW2NIXW4yKVtDSDJdW0NASF0oW09IXSlbQ0gyXW4zW2NIXW5jKFtDSF0oW0NIM10pW0NIM10pW2NIXWMzPU8=

> <s_epik_cmdline>
J2VwaWtfcHl0aG9uJywgJy1waCcsICc3LjAnLCAnLXRuJywgJzgnLCAnLW1hJywgJzIwMCcsICctbWV0YWxfYmluZGluZycsICctaW1hZScsICc8aW5maWxlLm1hZT4nLCAnLW9tYWUnLCAnPG91dGZpbGUubWFlPic=

> <r_lp_tautomer_probability>
1

> <r_epik_Ionization_Penalty>
0.113357

> <r_epik_Ionization_Penalty_Charging>
3.84185e-08

> <r_epik_Ionization_Penalty_Neutral>
0.113357

> <r_epik_State_Penalty>
0.103025

> <r_epik_Charging_Adjusted_Penalty>
0.103025

> <i_epik_Tot_Q>
0

> <i_epik_Tot_abs_Q>
0

> <r_epik_Metal_State_Penalty>
0.0863451

> <b_epik_Metal_Only>
0

> <s_lp_Force_Field>
OPLS_2005

> <r_lp_Energy>
18.3457

> <b_lp_Chiralities_Consistent>
1

> <s_lp_Variant>
AV-unprocessed.smi:2691-1

> <Gold.Version>
5.8.1

> <Gold.Id.Protein>
6NUR|6NUR_protein|mol2

> <Gold.PLP.Fitness>
60.1753

> <Gold.PLP.PLP>
-50.1095

> <Gold.PLP.part.hbond>
-2.7783

> <Gold.PLP.part.metal>
0.0000

> <Gold.PLP.part.buried>
-4.7932

> <Gold.PLP.part.nonpolar>
-42.7894

> <Gold.PLP.part.repulsive>
0.4436

> <Gold.PLP.ligand.clash>
0.0000

> <Gold.PLP.ligand.torsion>
0.6642

> <Gold.PLP.Chemscore.Hbond>
2.7771

> <Gold.PLP.Chemscore.CHOScore>
1.0000

> <Gold.PLP.Chemscore.Metal>
0.0000

> <Gold.Chemscore.Hbonds>
donor molecule, donor type, donor heavy atom, donor atom, acceptor molecule, acceptor atom, score
      L1  H    10    34       P1  7957  0.94
      P1  H  7989  7998       L1    10  0.74
      P1  H  7997  8010       L1     5  1.00
      L1  C    13    37       P1  7957  0.97

> <Gold.PLP.Chemscore.Internal.Correction>
0.0627

> <Gold.Rescore>
     Score         DG    S(hbond)    S(metal)    S(lipo)     H(rot)  DE(clash)    DE(int)     intcor
     17.10     -19.02       2.03        0.00     111.46       2.45       0.26       1.66       ----

> <Gold.Chemscore.Fitness>
17.1015

> <Gold.Chemscore.DG>
-19.0163

> <Gold.Chemscore.ZeroCoef>
-5.4800

> <Gold.Chemscore.Hbond>
2.0290

> <Gold.Chemscore.Metal>
0.0000

> <Gold.Chemscore.Lipo>
111.4585

> <Gold.Chemscore.Internal_Hbond>
0.0000

> <Gold.Chemscore.DEClash>
0.2595

> <Gold.Chemscore.DEInternal>
1.6554

> <Gold.Chemscore.Rot>
2.4536

> <Gold.Chemscore.Internal.Correction>
   9.000000E+99

> <Gold.Chemscore.Hbonds>
donor molecule, donor type, donor heavy atom, donor atom, acceptor molecule, acceptor atom, score
      L1  H    10    34       P1  7957  0.88
      P1  H  7989  7998       L1    10  0.20
      P1  H  7997  8010       L1     5  0.65

> <Gold.Chemscore.Hbond.Weighted>
-6.7769

> <Gold.Chemscore.Metal.Weighted>
-0.0000

> <Gold.Chemscore.Lipo.Weighted>
-13.0406

> <Gold.Chemscore.Internal_Hbond.Weighted>
0.0000

> <Gold.Chemscore.DEClash.Weighted>
0.2595

> <Gold.Chemscore.DEInternal.Weighted>
1.6554

> <Gold.Chemscore.Rot.Weighted>
6.2812

> <Gold.Chemscore.Internal.Correction.Weighted>
   9.000000E+99

> <Gold.Protein.RotatedTorsions>
[ 6907 6896 6895 6894 ] final  175.31 input  -60.11 | X-H torsion
[ 7974 7965 7964 7962 ] final  -95.45 input  175.53 | X-H torsion
[ 8008 7997 7996 7995 ] final   76.55 input   59.86 | X-H torsion
[ 10167 10162 10161 10158 ] final -128.17 input  -65.29 | X-H torsion
[ 10718 10713 10712 10709 ] final  111.83 input   66.30 | X-H torsion
[ 10763 10752 10751 10750 ] final  162.40 input  -60.55 | X-H torsion
[ 11005 11000 10999 10996 ] final  161.53 input  -57.11 | X-H torsion

> <Gold.Protein.ActiveResidues>
 VAL166  LYS551  ARG553  GLY616  TRP617  ASP618  TYR619  PRO620  LYS621  CYS622 
 ASP623  PHE694  ASN695  SER759  ASP760  ASP761  ALA762  ILE779  LEU786  VAL792 
 PHE793  MET794  SER795  GLU796  ALA797  LYS798  CYS799  TRP800  GLU811  SER814 

> <Gold.Protein.RotatedAtoms>
  151.7383  133.3321  159.3358 H   0  0  0  0  0  0  0  0  0  0  0  0  # atno 6907 bound_to 6896
  150.7584  134.6301  159.6191 H   0  0  0  0  0  0  0  0  0  0  0  0  # atno 6908 bound_to 6896
  152.3547  134.6959  160.0277 H   0  0  0  0  0  0  0  0  0  0  0  0  # atno 6909 bound_to 6896
  145.3599  140.9490  143.2506 H   0  0  0  0  0  0  0  0  0  0  0  0  # atno 7974 bound_to 7965
  155.8289  140.3467  155.5560 H   0  0  0  0  0  0  0  0  0  0  0  0  # atno 8008 bound_to 7997
  155.8263  140.0920  157.1839 H   0  0  0  0  0  0  0  0  0  0  0  0  # atno 8009 bound_to 7997
  154.4004  140.1420  156.3547 H   0  0  0  0  0  0  0  0  0  0  0  0  # atno 8010 bound_to 7997
  139.9532  143.6033  152.2469 H   0  0  0  0  0  0  0  0  0  0  0  0  # atno 10167 bound_to 10162
  157.6424  131.0957  150.6806 H   0  0  0  0  0  0  0  0  0  0  0  0  # atno 10718 bound_to 10713
  154.2777  135.2764  155.2710 H   0  0  0  0  0  0  0  0  0  0  0  0  # atno 10763 bound_to 10752
  154.5245  135.5747  153.6711 H   0  0  0  0  0  0  0  0  0  0  0  0  # atno 10764 bound_to 10752
  152.9934  135.6212  154.2935 H   0  0  0  0  0  0  0  0  0  0  0  0  # atno 10765 bound_to 10752
  140.2167  134.8227  157.3178 H   0  0  0  0  0  0  0  0  0  0  0  0  # atno 11005 bound_to 11000
  144.8654  139.5116  143.6793 LP  0  0  0  0  0  0  0  0  0  0  0  0  # atno 17320 bound_to 7965
  146.2931  139.7199  142.9146 LP  0  0  0  0  0  0  0  0  0  0  0  0  # atno 17321 bound_to 7965
  139.6612  144.7662  151.1959 LP  0  0  0  0  0  0  0  0  0  0  0  0  # atno 17342 bound_to 10162
  140.7576  143.6007  150.8702 LP  0  0  0  0  0  0  0  0  0  0  0  0  # atno 17343 bound_to 10162
  156.7128  130.4657  149.5543 LP  0  0  0  0  0  0  0  0  0  0  0  0  # atno 17370 bound_to 10713
  156.1718  130.6442  151.0846 LP  0  0  0  0  0  0  0  0  0  0  0  0  # atno 17371 bound_to 10713
  140.1893  134.4392  155.7725 LP  0  0  0  0  0  0  0  0  0  0  0  0  # atno 17394 bound_to 11000
  141.2224  133.7019  156.8000 LP  0  0  0  0  0  0  0  0  0  0  0  0  # atno 17395 bound_to 11000

$$$$
