#       Name:                AV-unprocessed.smi:1406
#       Creating user name   scv26
#       Creation time:       Fri Mar 27 05:35:47 2020


#       File generated by GOLD software.
#

@<TRIPOS>MOLECULE
AV-unprocessed.smi:1406
    45    47     1
SMALL
NO_CHARGES


@<TRIPOS>ATOM
      1 ****        -3.2856  -2.2072   1.3278 C.3            1 S1                 0.0000
      2 ****        -2.8634  -1.3322   0.1302 C.3            1 S1                 0.0000
      3 ****        -1.3379  -1.1951   0.0116 C.2            1 S1                 0.0000
      4 ****        -0.5955  -2.1106   0.3683 O.2            1 S1                 0.0000
      5 ****        -0.8828  -0.0371  -0.4925 N.am           1 S1                 0.0000
      6 ****         0.5232   0.3031  -0.6878 C.3            1 S1                 0.0000
      7 ****         0.7464   1.2851  -1.8315 C.3            1 S1                 0.0000
      8 ****         2.1351   1.8408  -1.5125 C.3            1 S1                 0.0000
      9 ****         2.2289   1.8765  -0.0351 N.4            1 S1                 1.0000
     10 ****         3.5825   1.5991   0.5047 C.3            1 S1                 0.0000
     11 ****         3.5802   1.6751   2.0425 C.3            1 S1                 0.0000
     12 ****         2.4578   0.8351   2.6875 C.3            1 S1                 0.0000
     13 ****         1.6100   0.0885   1.6457 C.3            1 S1                 0.0000
     14 ****         1.1310   1.0353   0.5214 C.3            1 S1                 0.0000
     15 ****        -3.4255  -1.8058  -1.1287 N.pl3          1 S1                 0.0000
     16 ****        -3.9647  -1.1192  -2.1384 C.2            1 S1                 0.0000
     17 ****        -4.3354  -1.8713  -3.1649 N.2            1 S1                 0.0000
     18 ****        -3.9622  -3.0983  -2.6948 C.2            1 S1                 0.0000
     19 ****        -3.4013  -3.1143  -1.4858 N.2            1 S1                 0.0000
     20 ****        -2.8902  -1.8090   2.2629 H              1 S1                 0.0000
     21 ****        -2.9323  -3.2348   1.2322 H              1 S1                 0.0000
     22 ****        -4.3714  -2.2392   1.4208 H              1 S1                 0.0000
     23 ****        -3.2702  -0.3346   0.3049 H              1 S1                 0.0000
     24 ****        -1.5627   0.6589  -0.7628 H              1 S1                 0.0000
     25 ****         1.1035  -0.5963  -0.9057 H              1 S1                 0.0000
     26 ****         0.6946   0.8142  -2.8137 H              1 S1                 0.0000
     27 ****         0.0066   2.0869  -1.7987 H              1 S1                 0.0000
     28 ****         2.8928   1.1676  -1.9172 H              1 S1                 0.0000
     29 ****         2.3010   2.8270  -1.9465 H              1 S1                 0.0000
     30 ****         3.9147   0.6123   0.1778 H              1 S1                 0.0000
     31 ****         4.2919   2.3196   0.0963 H              1 S1                 0.0000
     32 ****         4.5502   1.3541   2.4236 H              1 S1                 0.0000
     33 ****         3.4675   2.7154   2.3507 H              1 S1                 0.0000
     34 ****         2.8817   0.1230   3.3964 H              1 S1                 0.0000
     35 ****         1.8104   1.4914   3.2706 H              1 S1                 0.0000
     36 ****         2.1978  -0.7274   1.2226 H              1 S1                 0.0000
     37 ****         0.7553  -0.3799   2.1340 H              1 S1                 0.0000
     38 ****         0.3971   1.7315   0.9310 H              1 S1                 0.0000
     39 ****        -4.0847  -0.0459  -2.1245 H              1 S1                 0.0000
     40 ****        -4.1004  -4.0060  -3.2635 H              1 S1                 0.0000
     41 ****         2.0057   2.8220   0.2416 H              1 S1                 0.0000
     42 ****        -0.9843  -2.9538   0.7395 LP             1 S1                 0.0000
     43 ****         0.3962  -2.0108   0.2867 LP             1 S1                 0.0000
     44 ****        -4.7637  -1.6150  -4.0314 LP             1 S1                 0.0000
     45 ****        -3.0502  -3.8960  -0.9704 LP             1 S1                 0.0000
@<TRIPOS>BOND
    1    1    2 1     
    2    1   20 1     
    3    1   21 1     
    4    1   22 1     
    5    2    3 1     
    6    2   15 1     
    7    2   23 1     
    8    3    4 2     
    9    3    5 am    
   10    5    6 1     
   11    5   24 1     
   12    6   14 1     
   13    6    7 1     
   14    6   25 1     
   15    7    8 1     
   16    7   26 1     
   17    7   27 1     
   18    8    9 1     
   19    8   28 1     
   20    8   29 1     
   21    9   14 1     
   22    9   10 1     
   23    9   41 1     
   24   10   11 1     
   25   10   30 1     
   26   10   31 1     
   27   11   12 1     
   28   11   32 1     
   29   11   33 1     
   30   12   13 1     
   31   12   34 1     
   32   12   35 1     
   33   13   14 1     
   34   13   36 1     
   35   13   37 1     
   36   14   38 1     
   37   15   19 1     
   38   15   16 1     
   39   16   17 2     
   40   16   39 1     
   41   17   18 1     
   42   18   19 2     
   43   18   40 1     
   44    4   42 1     
   45    4   43 1     
   46   17   44 1     
   47   19   45 1     
@<TRIPOS>SUBSTRUCTURE
      1 S1             1
@<TRIPOS>SET
LONE_PAIRS      STATIC     ATOMS    <user>   **** ""
4 42 43 44 45
DONOR_HYDROGENS      STATIC     ATOMS    <user>   **** ""
2 24 41
ATOM$BLUE        STATIC     ATOMS    COLORGROUP SYSTEM
4 42 43 44 45
ATOM$RED        STATIC     ATOMS    COLORGROUP SYSTEM
2 24 41
