#       Name:                AV-unprocessed.smi:1087
#       Creating user name   scv26
#       Creation time:       Fri Mar 27 03:25:44 2020


#       File generated by GOLD software.
#

@<TRIPOS>MOLECULE
AV-unprocessed.smi:1087
    54    55     1
SMALL
NO_CHARGES


@<TRIPOS>ATOM
      1 ****        -5.1574   2.7491  -2.1222 C.3            1 S1                 0.0000
      2 ****        -4.7709   3.0742  -0.7963 O.3            1 S1                 0.0000
      3 ****        -5.0440   2.0561   0.1583 C.3            1 S1                 0.0000
      4 ****        -4.0639   0.8653   0.0954 C.3            1 S1                 0.0000
      5 ****        -2.7449   1.0914   0.6900 N.3            1 S1                 0.0000
      6 ****        -1.9456   2.0642  -0.0591 C.3            1 S1                 0.0000
      7 ****        -0.5756   2.3299   0.5882 C.3            1 S1                 0.0000
      8 ****         0.2261   1.0259   0.7486 C.3            1 S1                 0.0000
      9 ****         1.5768   1.2819   1.4503 C.3            1 S1                 0.0000
     10 ****         2.3712   0.0662   1.5893 N.am           1 S1                 0.0000
     11 ****         3.0862  -0.5051   0.6089 C.2            1 S1                 0.0000
     12 ****         3.1816  -0.0292  -0.5230 O.2            1 S1                 0.0000
     13 ****         3.8126  -1.8064   0.9766 C.3            1 S1                 0.0000
     14 ****         3.9891  -2.7131  -0.1696 N.am           1 S1                 0.0000
     15 ****         5.2493  -2.7397  -0.7907 C.2            1 S1                 0.0000
     16 ****         5.4819  -3.5399  -1.8410 C.2            1 S1                 0.0000
     17 ****         4.3569  -4.3699  -2.2914 C.2            1 S1                 0.0000
     18 ****         3.2064  -4.3462  -1.7292 N.2            1 S1                 0.0000
     19 ****         2.9636  -3.5029  -0.6283 C.2            1 S1                 0.0000
     20 ****         1.8586  -3.4714  -0.0857 O.2            1 S1                 0.0000
     21 ****        -0.6462  -0.0109   1.4853 C.3            1 S1                 0.0000
     22 ****        -2.0092  -0.1695   0.7918 C.3            1 S1                 0.0000
     23 ****        -4.9550   3.5977  -2.7757 H              1 S1                 0.0000
     24 ****        -6.2246   2.5310  -2.1807 H              1 S1                 0.0000
     25 ****        -4.6028   1.8953  -2.5110 H              1 S1                 0.0000
     26 ****        -5.0041   2.5022   1.1527 H              1 S1                 0.0000
     27 ****        -6.0687   1.7044   0.0295 H              1 S1                 0.0000
     28 ****        -4.5410   0.0503   0.6413 H              1 S1                 0.0000
     29 ****        -3.9587   0.5012  -0.9264 H              1 S1                 0.0000
     30 ****        -1.8067   1.7201  -1.0852 H              1 S1                 0.0000
     31 ****        -2.4707   3.0158  -0.1181 H              1 S1                 0.0000
     32 ****        -0.0149   3.0428  -0.0171 H              1 S1                 0.0000
     33 ****        -0.7215   2.7981   1.5627 H              1 S1                 0.0000
     34 ****         0.4298   0.6408  -0.2519 H              1 S1                 0.0000
     35 ****         2.1505   2.0348   0.9072 H              1 S1                 0.0000
     36 ****         1.4070   1.6880   2.4480 H              1 S1                 0.0000
     37 ****         2.3548  -0.3881   2.4908 H              1 S1                 0.0000
     38 ****         4.7776  -1.5433   1.4117 H              1 S1                 0.0000
     39 ****         3.2684  -2.3197   1.7719 H              1 S1                 0.0000
     40 ****         5.9926  -2.0785  -0.3696 H              1 S1                 0.0000
     41 ****         6.4240  -3.6074  -2.3648 H              1 S1                 0.0000
     42 ****         4.5664  -5.0166  -3.1473 H              1 S1                 0.0000
     43 ****        -0.1449  -0.9786   1.5183 H              1 S1                 0.0000
     44 ****        -0.7973   0.2974   2.5208 H              1 S1                 0.0000
     45 ****        -2.6009  -0.8956   1.3507 H              1 S1                 0.0000
     46 ****        -1.8623  -0.5935  -0.2029 H              1 S1                 0.0000
     47 ****        -5.2608   3.9014  -0.5210 LP             1 S1                 0.0000
     48 ****        -3.7869   3.2524  -0.7916 LP             1 S1                 0.0000
     49 ****        -2.9036   1.4701   1.6018 LP             1 S1                 0.0000
     50 ****         2.7122   0.8248  -0.7476 LP             1 S1                 0.0000
     51 ****         3.7285  -0.4967  -1.2175 LP             1 S1                 0.0000
     52 ****         2.4737  -4.9321  -2.0754 LP             1 S1                 0.0000
     53 ****         1.7023  -2.8672   0.6956 LP             1 S1                 0.0000
     54 ****         1.1176  -4.0500  -0.4265 LP             1 S1                 0.0000
@<TRIPOS>BOND
    1    1    2 1     
    2    1   23 1     
    3    1   24 1     
    4    1   25 1     
    5    2    3 1     
    6    3    4 1     
    7    3   26 1     
    8    3   27 1     
    9    4    5 1     
   10    4   28 1     
   11    4   29 1     
   12    5   22 1     
   13    5    6 1     
   14    6    7 1     
   15    6   30 1     
   16    6   31 1     
   17    7    8 1     
   18    7   32 1     
   19    7   33 1     
   20    8    9 1     
   21    8   21 1     
   22    8   34 1     
   23    9   10 1     
   24    9   35 1     
   25    9   36 1     
   26   10   11 am    
   27   10   37 1     
   28   11   12 2     
   29   11   13 1     
   30   13   14 1     
   31   13   38 1     
   32   13   39 1     
   33   14   19 am    
   34   14   15 1     
   35   15   16 2     
   36   15   40 1     
   37   16   17 1     
   38   16   41 1     
   39   17   18 2     
   40   17   42 1     
   41   18   19 1     
   42   19   20 2     
   43   21   22 1     
   44   21   43 1     
   45   21   44 1     
   46   22   45 1     
   47   22   46 1     
   48    2   47 1     
   49    2   48 1     
   50    5   49 1     
   51   12   50 1     
   52   12   51 1     
   53   18   52 1     
   54   20   53 1     
   55   20   54 1     
@<TRIPOS>SUBSTRUCTURE
      1 S1             1
@<TRIPOS>SET
LONE_PAIRS      STATIC     ATOMS    <user>   **** ""
8 47 48 49 50 51 52 53 54
DONOR_HYDROGENS      STATIC     ATOMS    <user>   **** ""
1 37
ATOM$BLUE        STATIC     ATOMS    COLORGROUP SYSTEM
8 47 48 49 50 51 52 53 54
ATOM$RED        STATIC     ATOMS    COLORGROUP SYSTEM
1 37
