AV-unprocessed.smi:1426|AV-procd|sdf|5805|dock9
  -GOLD-   22720 5453D 1   1.00000     0.00000
 Structure written by MMmdl.
 43 45  0  0  0  0  0  0  0  0  1 V2000
  145.0200  138.0781  152.9814 O   0  0  0  0  0  0  0  0  0  0  0  0
  146.0776  137.5447  152.6480 C   0  0  0  0  0  0  0  0  0  0  0  0
  146.1446  136.3459  152.0512 N   0  0  0  0  0  0  0  0  0  0  0  0
  145.0025  135.4967  151.7269 C   0  0  0  0  0  0  0  0  0  0  0  0
  145.4059  134.3214  150.8173 C   0  0  2  0  0  0  0  0  0  0  0  0
  144.2486  133.4255  150.4255 C   0  0  0  0  0  0  0  0  0  0  0  0
  144.9671  132.1625  149.9594 C   0  0  0  0  0  0  0  0  0  0  0  0
  146.1735  132.0967  150.7149 O   0  0  0  0  0  0  0  0  0  0  0  0
  146.3572  133.3033  151.4493 C   0  0  0  0  0  0  0  0  0  0  0  0
  147.3045  138.0676  152.8142 N   0  0  0  0  0  0  0  0  0  0  0  0
  147.6886  139.3216  153.3747 C   0  0  0  0  0  0  0  0  0  0  0  0
  146.9268  140.5035  153.1945 C   0  0  0  0  0  0  0  0  0  0  0  0
  147.3812  141.7108  153.7526 C   0  0  0  0  0  0  0  0  0  0  0  0
  148.5838  141.6978  154.4775 C   0  0  0  0  0  0  0  0  0  0  0  0
  149.3099  140.5803  154.6764 N   0  0  0  0  0  0  0  0  0  0  0  0
  148.8773  139.4054  154.1564 C   0  0  0  0  0  0  0  0  0  0  0  0
  149.6631  138.2612  154.4245 N   0  0  0  0  0  0  0  0  0  0  0  0
  151.0278  138.4009  154.9224 C   0  0  0  0  0  0  0  0  0  0  0  0
  151.3894  137.0243  155.4724 C   0  0  0  0  0  0  0  0  0  0  0  0
  150.0624  136.5537  156.0593 C   0  0  0  0  0  0  0  0  0  0  0  0
  149.0167  137.1442  155.1076 C   0  0  0  0  0  0  0  0  0  0  0  0
  147.0570  135.9894  151.8066 H   0  0  0  0  0  0  0  0  0  0  0  0
  144.5153  135.1318  152.6330 H   0  0  0  0  0  0  0  0  0  0  0  0
  144.2648  136.1156  151.2154 H   0  0  0  0  0  0  0  0  0  0  0  0
  145.8651  134.7096  149.9063 H   0  0  0  0  0  0  0  0  0  0  0  0
  143.6290  133.2015  151.2951 H   0  0  0  0  0  0  0  0  0  0  0  0
  143.6105  133.8592  149.6550 H   0  0  0  0  0  0  0  0  0  0  0  0
  144.3618  131.2660  150.0959 H   0  0  0  0  0  0  0  0  0  0  0  0
  145.2245  132.2390  148.9022 H   0  0  0  0  0  0  0  0  0  0  0  0
  147.3973  133.6294  151.4230 H   0  0  0  0  0  0  0  0  0  0  0  0
  146.0877  133.1168  152.4896 H   0  0  0  0  0  0  0  0  0  0  0  0
  148.0639  137.5306  152.4219 H   0  0  0  0  0  0  0  0  0  0  0  0
  145.9981  140.5132  152.6466 H   0  0  0  0  0  0  0  0  0  0  0  0
  146.8212  142.6253  153.6250 H   0  0  0  0  0  0  0  0  0  0  0  0
  148.9687  142.6058  154.9175 H   0  0  0  0  0  0  0  0  0  0  0  0
  151.7097  138.7134  154.1313 H   0  0  0  0  0  0  0  0  0  0  0  0
  151.0772  139.1345  155.7282 H   0  0  0  0  0  0  0  0  0  0  0  0
  151.6937  136.3640  154.6589 H   0  0  0  0  0  0  0  0  0  0  0  0
  152.1954  137.0567  156.2059 H   0  0  0  0  0  0  0  0  0  0  0  0
  149.9937  135.4692  156.1459 H   0  0  0  0  0  0  0  0  0  0  0  0
  149.9334  136.9792  157.0554 H   0  0  0  0  0  0  0  0  0  0  0  0
  148.1189  137.4537  155.6448 H   0  0  0  0  0  0  0  0  0  0  0  0
  148.7276  136.3989  154.3662 H   0  0  0  0  0  0  0  0  0  0  0  0
  1  2  2  0  0  0  0
  2  3  1  0  0  0  0
  2 10  1  0  0  0  0
  3  4  1  0  0  0  0
  3 22  1  0  0  0  0
  4  5  1  0  0  0  0
  4 23  1  0  0  0  0
  4 24  1  0  0  0  0
  5  9  1  0  0  0  0
  5  6  1  0  0  0  0
  5 25  1  0  0  0  0
  6  7  1  0  0  0  0
  6 26  1  0  0  0  0
  6 27  1  0  0  0  0
  7  8  1  0  0  0  0
  7 28  1  0  0  0  0
  7 29  1  0  0  0  0
  8  9  1  0  0  0  0
  9 30  1  0  0  0  0
  9 31  1  0  0  0  0
 10 11  1  0  0  0  0
 10 32  1  0  0  0  0
 11 16  1  0  0  0  0
 11 12  2  0  0  0  0
 12 13  1  0  0  0  0
 12 33  1  0  0  0  0
 13 14  2  0  0  0  0
 13 34  1  0  0  0  0
 14 15  1  0  0  0  0
 14 35  1  0  0  0  0
 15 16  2  0  0  0  0
 16 17  1  0  0  0  0
 17 21  1  0  0  0  0
 17 18  1  0  0  0  0
 18 19  1  0  0  0  0
 18 36  1  0  0  0  0
 18 37  1  0  0  0  0
 19 20  1  0  0  0  0
 19 38  1  0  0  0  0
 19 39  1  0  0  0  0
 20 21  1  0  0  0  0
 20 40  1  0  0  0  0
 20 41  1  0  0  0  0
 21 42  1  0  0  0  0
 21 43  1  0  0  0  0
M  END
> <s_m_source_file>
AV-unprocessed.smi

> <i_m_source_file_index>
1426

> <i_lp_mmshare_version>
43012

> <i_f3d_flags>
0

> <s_epik_input>
W0NIMl0xT1tDSDJdW0NIMl1bQ0BIXTFbQ0gyXVtOSF1DKD1PKVtOSF1jMltjSF1bY0hdW2NIXW5jMk4zW0NIMl1bQ0gyXVtDSDJdW0NIMl0z

> <s_epik_cmdline>
J2VwaWtfcHl0aG9uJywgJy1waCcsICc3LjAnLCAnLXRuJywgJzgnLCAnLW1hJywgJzIwMCcsICctbWV0YWxfYmluZGluZycsICctaW1hZScsICc8aW5maWxlLm1hZT4nLCAnLW9tYWUnLCAnPG91dGZpbGUubWFlPic=

> <r_lp_tautomer_probability>
1

> <r_epik_Ionization_Penalty>
0.0999657

> <r_epik_Ionization_Penalty_Charging>
0

> <r_epik_Ionization_Penalty_Neutral>
0.0999657

> <r_epik_State_Penalty>
0.0894442

> <r_epik_Charging_Adjusted_Penalty>
0.0894442

> <i_epik_Tot_Q>
0

> <i_epik_Tot_abs_Q>
0

> <r_epik_Metal_State_Penalty>
0.076486

> <b_epik_Metal_Only>
0

> <s_lp_Force_Field>
OPLS_2005

> <r_lp_Energy>
47.443

> <b_lp_Chiralities_Consistent>
1

> <s_lp_Variant>
AV-unprocessed.smi:1426-1

> <Gold.Version>
5.8.1

> <Gold.Id.Protein>
6NUR|6NUR_protein|mol2

> <Gold.PLP.Fitness>
41.0596

> <Gold.PLP.PLP>
-32.8832

> <Gold.PLP.part.hbond>
-2.0000

> <Gold.PLP.part.metal>
0.0000

> <Gold.PLP.part.buried>
-2.6724

> <Gold.PLP.part.nonpolar>
-30.0765

> <Gold.PLP.part.repulsive>
2.9511

> <Gold.PLP.ligand.clash>
0.0000

> <Gold.PLP.ligand.torsion>
0.5278

> <Gold.PLP.Chemscore.Hbond>
1.9760

> <Gold.PLP.Chemscore.CHOScore>
1.0000

> <Gold.PLP.Chemscore.Metal>
0.0000

> <Gold.Chemscore.Hbonds>
donor molecule, donor type, donor heavy atom, donor atom, acceptor molecule, acceptor atom, score
      L1  H     3    22       P1  7948  0.98
      L1  H    10    32       P1  7948  1.00
      L1  C    14    35       P1  8028  1.00

> <Gold.PLP.Chemscore.Internal.Correction>
0.3041

> <Gold.Rescore>
     Score         DG    S(hbond)    S(metal)    S(lipo)     H(rot)  DE(clash)    DE(int)     intcor
     15.33     -17.88       1.94        0.00      80.88       1.38       0.94       1.60       ----

> <Gold.Chemscore.Fitness>
15.3297

> <Gold.Chemscore.DG>
-17.8768

> <Gold.Chemscore.ZeroCoef>
-5.4800

> <Gold.Chemscore.Hbond>
1.9356

> <Gold.Chemscore.Metal>
0.0000

> <Gold.Chemscore.Lipo>
80.8848

> <Gold.Chemscore.Internal_Hbond>
0.0000

> <Gold.Chemscore.DEClash>
0.9437

> <Gold.Chemscore.DEInternal>
1.6034

> <Gold.Chemscore.Rot>
1.3796

> <Gold.Chemscore.Internal.Correction>
   9.000000E+99

> <Gold.Chemscore.Hbonds>
donor molecule, donor type, donor heavy atom, donor atom, acceptor molecule, acceptor atom, score
      L1  H     3    22       P1  7948  0.93
      L1  H    10    32       P1  7948  1.00

> <Gold.Chemscore.Hbond.Weighted>
-6.4649

> <Gold.Chemscore.Metal.Weighted>
-0.0000

> <Gold.Chemscore.Lipo.Weighted>
-9.4635

> <Gold.Chemscore.Internal_Hbond.Weighted>
0.0000

> <Gold.Chemscore.DEClash.Weighted>
0.9437

> <Gold.Chemscore.DEInternal.Weighted>
1.6034

> <Gold.Chemscore.Rot.Weighted>
3.5317

> <Gold.Chemscore.Internal.Correction.Weighted>
   9.000000E+99

> <Gold.Protein.RotatedTorsions>
[ 6907 6896 6895 6894 ] final   88.25 input  -60.11 | X-H torsion
[ 7974 7965 7964 7962 ] final   -2.09 input  175.53 | X-H torsion
[ 8008 7997 7996 7995 ] final   67.17 input   59.86 | X-H torsion
[ 10167 10162 10161 10158 ] final  109.05 input  -65.29 | X-H torsion
[ 10718 10713 10712 10709 ] final   41.92 input   66.30 | X-H torsion
[ 10763 10752 10751 10750 ] final   51.37 input  -60.55 | X-H torsion
[ 11005 11000 10999 10996 ] final   -2.84 input  -57.11 | X-H torsion

> <Gold.Protein.ActiveResidues>
 VAL166  LYS551  ARG553  GLY616  TRP617  ASP618  TYR619  PRO620  LYS621  CYS622 
 ASP623  PHE694  ASN695  SER759  ASP760  ASP761  ALA762  ILE779  LEU786  VAL792 
 PHE793  MET794  SER795  GLU796  ALA797  LYS798  CYS799  TRP800  GLU811  SER814 

> <Gold.Protein.RotatedAtoms>
  152.5422  134.2151  159.8764 H   0  0  0  0  0  0  0  0  0  0  0  0  # atno 6907 bound_to 6896
  151.2131  133.4538  159.2606 H   0  0  0  0  0  0  0  0  0  0  0  0  # atno 6908 bound_to 6896
  151.0877  134.9910  159.8443 H   0  0  0  0  0  0  0  0  0  0  0  0  # atno 6909 bound_to 6896
  146.2409  140.1518  142.8334 H   0  0  0  0  0  0  0  0  0  0  0  0  # atno 7974 bound_to 7965
  155.6888  140.3496  155.4885 H   0  0  0  0  0  0  0  0  0  0  0  0  # atno 8008 bound_to 7997
  155.9542  140.1125  157.0973 H   0  0  0  0  0  0  0  0  0  0  0  0  # atno 8009 bound_to 7997
  154.4128  140.1188  156.5080 H   0  0  0  0  0  0  0  0  0  0  0  0  # atno 8010 bound_to 7997
  139.6797  144.7119  151.1537 H   0  0  0  0  0  0  0  0  0  0  0  0  # atno 10167 bound_to 10162
  157.3990  130.7849  149.7332 H   0  0  0  0  0  0  0  0  0  0  0  0  # atno 10718 bound_to 10713
  152.9785  135.5848  154.4404 H   0  0  0  0  0  0  0  0  0  0  0  0  # atno 10763 bound_to 10752
  154.4006  135.2768  155.2101 H   0  0  0  0  0  0  0  0  0  0  0  0  # atno 10764 bound_to 10752
  154.3933  135.6120  153.5910 H   0  0  0  0  0  0  0  0  0  0  0  0  # atno 10765 bound_to 10752
  140.6628  133.9305  155.8446 H   0  0  0  0  0  0  0  0  0  0  0  0  # atno 11005 bound_to 11000
  145.0161  140.8755  143.5194 LP  0  0  0  0  0  0  0  0  0  0  0  0  # atno 17320 bound_to 7965
  145.1559  139.2487  143.5417 LP  0  0  0  0  0  0  0  0  0  0  0  0  # atno 17321 bound_to 7965
  140.7648  143.5717  150.8988 LP  0  0  0  0  0  0  0  0  0  0  0  0  # atno 17342 bound_to 10162
  139.9389  143.6406  152.3058 LP  0  0  0  0  0  0  0  0  0  0  0  0  # atno 17343 bound_to 10162
  155.9818  130.4016  150.3452 LP  0  0  0  0  0  0  0  0  0  0  0  0  # atno 17370 bound_to 10713
  157.1577  131.0337  151.2855 LP  0  0  0  0  0  0  0  0  0  0  0  0  # atno 17371 bound_to 10713
  141.0452  134.0564  157.3852 LP  0  0  0  0  0  0  0  0  0  0  0  0  # atno 17394 bound_to 11000
  139.9007  135.0163  156.7255 LP  0  0  0  0  0  0  0  0  0  0  0  0  # atno 17395 bound_to 11000

$$$$
