AV-unprocessed.smi:1404|AV-procd|sdf|5705|dock2
  -GOLD-   22720 5333D 1   1.00000     0.00000
 Structure written by MMmdl.
 47 48  0  0  0  0  0  0  0  0  1 V2000
  154.1729  140.6445  160.6800 C   0  0  0  0  0  0  0  0  0  0  0  0
  153.4819  141.8666  161.0343 N   0  0  0  0  0  0  0  0  0  0  0  0
  153.5679  142.3504  162.3625 C   0  0  0  0  0  0  0  0  0  0  0  0
  154.2112  141.7741  163.2403 O   0  0  0  0  0  0  0  0  0  0  0  0
  152.8341  143.5873  162.6017 C   0  0  0  0  0  0  0  0  0  0  0  0
  152.1448  144.1897  161.6082 C   0  0  0  0  0  0  0  0  0  0  0  0
  152.0809  143.6972  160.3175 N   0  0  0  0  0  0  0  0  0  0  0  0
  151.3021  144.4147  159.3001 C   0  0  0  0  0  0  0  0  0  0  0  0
  150.0589  143.6398  158.8447 C   0  0  0  0  0  0  0  0  0  0  0  0
  149.0766  143.5369  159.5808 O   0  0  0  0  0  0  0  0  0  0  0  0
  150.1120  143.1132  157.6144 N   0  0  0  0  0  0  0  0  0  0  0  0
  149.0504  142.3185  157.0051 C   0  0  0  0  0  0  0  0  0  0  0  0
  149.5187  140.8753  156.6631 C   0  0  0  0  0  0  0  0  0  0  0  0
  150.9490  140.9866  156.0826 C   0  0  0  0  0  0  0  0  0  0  0  0
  149.6261  140.1207  158.0126 C   0  0  0  0  0  0  0  0  0  0  0  0
  148.5662  140.1906  155.7438 N   0  0  0  0  0  0  0  0  0  0  0  0
  148.3719  140.8533  154.4486 C   0  0  0  0  0  0  0  0  0  0  0  0
  147.2886  140.1634  153.6022 C   0  0  0  0  0  0  0  0  0  0  0  0
  147.6251  138.7937  153.4171 O   0  0  0  0  0  0  0  0  0  0  0  0
  147.7631  138.0982  154.6500 C   0  0  0  0  0  0  0  0  0  0  0  0
  148.8494  138.7705  155.5068 C   0  0  0  0  0  0  0  0  0  0  0  0
  152.7617  142.5026  159.9995 C   0  0  0  0  0  0  0  0  0  0  0  0
  152.7226  142.0396  158.8562 O   0  0  0  0  0  0  0  0  0  0  0  0
  154.6604  140.1972  161.5455 H   0  0  0  0  0  0  0  0  0  0  0  0
  154.9167  140.9037  159.9245 H   0  0  0  0  0  0  0  0  0  0  0  0
  153.4273  139.9528  160.2835 H   0  0  0  0  0  0  0  0  0  0  0  0
  152.8429  144.0262  163.5885 H   0  0  0  0  0  0  0  0  0  0  0  0
  151.6151  145.1027  161.8383 H   0  0  0  0  0  0  0  0  0  0  0  0
  150.9761  145.3796  159.6902 H   0  0  0  0  0  0  0  0  0  0  0  0
  151.9347  144.6425  158.4400 H   0  0  0  0  0  0  0  0  0  0  0  0
  150.9548  143.2408  157.0730 H   0  0  0  0  0  0  0  0  0  0  0  0
  148.1810  142.2968  157.6639 H   0  0  0  0  0  0  0  0  0  0  0  0
  148.7134  142.8342  156.1044 H   0  0  0  0  0  0  0  0  0  0  0  0
  151.6161  141.4911  156.7828 H   0  0  0  0  0  0  0  0  0  0  0  0
  150.9730  141.5616  155.1571 H   0  0  0  0  0  0  0  0  0  0  0  0
  151.3895  140.0110  155.8789 H   0  0  0  0  0  0  0  0  0  0  0  0
  150.1801  140.6998  158.7523 H   0  0  0  0  0  0  0  0  0  0  0  0
  150.1533  139.1719  157.9152 H   0  0  0  0  0  0  0  0  0  0  0  0
  148.6432  139.9095  158.4356 H   0  0  0  0  0  0  0  0  0  0  0  0
  148.0717  141.8908  154.5832 H   0  0  0  0  0  0  0  0  0  0  0  0
  149.3051  140.8632  153.8855 H   0  0  0  0  0  0  0  0  0  0  0  0
  146.3123  140.2451  154.0829 H   0  0  0  0  0  0  0  0  0  0  0  0
  147.2067  140.6444  152.6275 H   0  0  0  0  0  0  0  0  0  0  0  0
  146.8083  138.0842  155.1778 H   0  0  0  0  0  0  0  0  0  0  0  0
  148.0311  137.0616  154.4452 H   0  0  0  0  0  0  0  0  0  0  0  0
  149.8107  138.6561  155.0058 H   0  0  0  0  0  0  0  0  0  0  0  0
  148.9144  138.2246  156.4460 H   0  0  0  0  0  0  0  0  0  0  0  0
  1  2  1  0  0  0  0
  1 24  1  0  0  0  0
  1 25  1  0  0  0  0
  1 26  1  0  0  0  0
  2 22  1  0  0  0  0
  2  3  1  0  0  0  0
  3  4  2  0  0  0  0
  3  5  1  0  0  0  0
  5  6  2  0  0  0  0
  5 27  1  0  0  0  0
  6  7  1  0  0  0  0
  6 28  1  0  0  0  0
  7  8  1  0  0  0  0
  7 22  1  0  0  0  0
  8  9  1  0  0  0  0
  8 29  1  0  0  0  0
  8 30  1  0  0  0  0
  9 10  2  0  0  0  0
  9 11  1  0  0  0  0
 11 12  1  0  0  0  0
 11 31  1  0  0  0  0
 12 13  1  0  0  0  0
 12 32  1  0  0  0  0
 12 33  1  0  0  0  0
 13 14  1  0  0  0  0
 13 15  1  0  0  0  0
 13 16  1  0  0  0  0
 14 34  1  0  0  0  0
 14 35  1  0  0  0  0
 14 36  1  0  0  0  0
 15 37  1  0  0  0  0
 15 38  1  0  0  0  0
 15 39  1  0  0  0  0
 16 21  1  0  0  0  0
 16 17  1  0  0  0  0
 17 18  1  0  0  0  0
 17 40  1  0  0  0  0
 17 41  1  0  0  0  0
 18 19  1  0  0  0  0
 18 42  1  0  0  0  0
 18 43  1  0  0  0  0
 19 20  1  0  0  0  0
 20 21  1  0  0  0  0
 20 44  1  0  0  0  0
 20 45  1  0  0  0  0
 21 46  1  0  0  0  0
 21 47  1  0  0  0  0
 22 23  2  0  0  0  0
M  END
> <s_m_source_file>
AV-unprocessed.smi

> <i_m_source_file_index>
1404

> <i_lp_mmshare_version>
43012

> <i_f3d_flags>
0

> <s_epik_input>
W0NIM11uMWMoPU8pW2NIXVtjSF1uKGMxPU8pW0NIMl1DKD1PKVtOSF1bQ0gyXUMoW0NIM10pKFtDSDNdKU4yW0NIMl1bQ0gyXU9bQ0gyXVtDSDJdMg==

> <s_epik_cmdline>
J2VwaWtfcHl0aG9uJywgJy1waCcsICc3LjAnLCAnLXRuJywgJzgnLCAnLW1hJywgJzIwMCcsICctbWV0YWxfYmluZGluZycsICctaW1hZScsICc8aW5maWxlLm1hZT4nLCAnLW9tYWUnLCAnPG91dGZpbGUubWFlPic=

> <r_lp_tautomer_probability>
1

> <r_epik_Ionization_Penalty>
0.237382

> <r_epik_Ionization_Penalty_Charging>
1.16427e-08

> <r_epik_Ionization_Penalty_Neutral>
0.237382

> <r_epik_State_Penalty>
0.228245

> <r_epik_Charging_Adjusted_Penalty>
0.228245

> <i_epik_Tot_Q>
0

> <i_epik_Tot_abs_Q>
0

> <r_epik_Metal_State_Penalty>
0.22822

> <b_epik_Metal_Only>
0

> <s_lp_Force_Field>
OPLS_2005

> <r_lp_Energy>
49.615

> <b_lp_Chiralities_Consistent>
1

> <s_lp_Variant>
AV-unprocessed.smi:1404-1

> <Gold.Version>
5.8.1

> <Gold.Id.Protein>
6NUR|6NUR_protein|mol2

> <Gold.PLP.Fitness>
43.4248

> <Gold.PLP.PLP>
-43.3931

> <Gold.PLP.part.hbond>
-3.0000

> <Gold.PLP.part.metal>
0.0000

> <Gold.PLP.part.buried>
-2.4311

> <Gold.PLP.part.nonpolar>
-37.6190

> <Gold.PLP.part.repulsive>
0.9013

> <Gold.PLP.ligand.clash>
0.0000

> <Gold.PLP.ligand.torsion>
0.4129

> <Gold.PLP.Chemscore.Hbond>
0.2470

> <Gold.PLP.Chemscore.CHOScore>
0.0000

> <Gold.PLP.Chemscore.Metal>
0.0000

> <Gold.Chemscore.Hbonds>
donor molecule, donor type, donor heavy atom, donor atom, acceptor molecule, acceptor atom, score
      P1  H  6933  6944       L1    10  0.20

> <Gold.PLP.Chemscore.Internal.Correction>
0.1166

> <Gold.Rescore>
     Score         DG    S(hbond)    S(metal)    S(lipo)     H(rot)  DE(clash)    DE(int)     intcor
      9.52     -10.66       0.36        0.00      79.28       2.07       0.81       0.34       ----

> <Gold.Chemscore.Fitness>
9.5186

> <Gold.Chemscore.DG>
-10.6612

> <Gold.Chemscore.ZeroCoef>
-5.4800

> <Gold.Chemscore.Hbond>
0.3578

> <Gold.Chemscore.Metal>
0.0000

> <Gold.Chemscore.Lipo>
79.2825

> <Gold.Chemscore.Internal_Hbond>
0.0000

> <Gold.Chemscore.DEClash>
0.8065

> <Gold.Chemscore.DEInternal>
0.3362

> <Gold.Chemscore.Rot>
2.0664

> <Gold.Chemscore.Internal.Correction>
   9.000000E+99

> <Gold.Chemscore.Hbonds>
donor molecule, donor type, donor heavy atom, donor atom, acceptor molecule, acceptor atom, score
      P1  H  6933  6944       L1    10  0.20

> <Gold.Chemscore.Hbond.Weighted>
-1.1951

> <Gold.Chemscore.Metal.Weighted>
-0.0000

> <Gold.Chemscore.Lipo.Weighted>
-9.2760

> <Gold.Chemscore.Internal_Hbond.Weighted>
0.0000

> <Gold.Chemscore.DEClash.Weighted>
0.8065

> <Gold.Chemscore.DEInternal.Weighted>
0.3362

> <Gold.Chemscore.Rot.Weighted>
5.2899

> <Gold.Chemscore.Internal.Correction.Weighted>
   9.000000E+99

> <Gold.Protein.RotatedTorsions>
[ 6907 6896 6895 6894 ] final -129.33 input  -60.11 | X-H torsion
[ 7974 7965 7964 7962 ] final   75.47 input  175.53 | X-H torsion
[ 8008 7997 7996 7995 ] final -127.90 input   59.86 | X-H torsion
[ 10167 10162 10161 10158 ] final   83.80 input  -65.29 | X-H torsion
[ 10718 10713 10712 10709 ] final  132.13 input   66.30 | X-H torsion
[ 10763 10752 10751 10750 ] final  -70.05 input  -60.55 | X-H torsion
[ 11005 11000 10999 10996 ] final   78.32 input  -57.11 | X-H torsion

> <Gold.Protein.ActiveResidues>
 VAL166  LYS551  ARG553  GLY616  TRP617  ASP618  TYR619  PRO620  LYS621  CYS622 
 ASP623  PHE694  ASN695  SER759  ASP760  ASP761  ALA762  ILE779  LEU786  VAL792 
 PHE793  MET794  SER795  GLU796  ALA797  LYS798  CYS799  TRP800  GLU811  SER814 

> <Gold.Protein.RotatedAtoms>
  150.9276  133.6805  159.2817 H   0  0  0  0  0  0  0  0  0  0  0  0  # atno 6907 bound_to 6896
  151.4238  135.1000  159.9631 H   0  0  0  0  0  0  0  0  0  0  0  0  # atno 6908 bound_to 6896
  152.5010  133.8722  159.7359 H   0  0  0  0  0  0  0  0  0  0  0  0  # atno 6909 bound_to 6896
  145.7152  139.2629  143.1627 H   0  0  0  0  0  0  0  0  0  0  0  0  # atno 7974 bound_to 7965
  155.2539  140.0433  157.2990 H   0  0  0  0  0  0  0  0  0  0  0  0  # atno 8008 bound_to 7997
  154.5752  140.2385  155.8102 H   0  0  0  0  0  0  0  0  0  0  0  0  # atno 8009 bound_to 7997
  156.2153  140.2986  155.9832 H   0  0  0  0  0  0  0  0  0  0  0  0  # atno 8010 bound_to 7997
  139.9147  144.6250  150.8502 H   0  0  0  0  0  0  0  0  0  0  0  0  # atno 10167 bound_to 10162
  157.4901  131.1090  150.9567 H   0  0  0  0  0  0  0  0  0  0  0  0  # atno 10718 bound_to 10713
  154.4122  135.6006  153.5959 H   0  0  0  0  0  0  0  0  0  0  0  0  # atno 10763 bound_to 10752
  152.9790  135.5932  154.4056 H   0  0  0  0  0  0  0  0  0  0  0  0  # atno 10764 bound_to 10752
  154.3870  135.2841  155.2156 H   0  0  0  0  0  0  0  0  0  0  0  0  # atno 10765 bound_to 10752
  139.9217  134.7754  156.1634 H   0  0  0  0  0  0  0  0  0  0  0  0  # atno 11005 bound_to 11000
  146.0676  140.7904  142.9704 LP  0  0  0  0  0  0  0  0  0  0  0  0  # atno 17320 bound_to 7965
  144.6931  140.3292  143.7219 LP  0  0  0  0  0  0  0  0  0  0  0  0  # atno 17321 bound_to 7965
  140.7677  143.3340  151.2348 LP  0  0  0  0  0  0  0  0  0  0  0  0  # atno 17342 bound_to 10162
  139.6913  143.9688  152.2860 LP  0  0  0  0  0  0  0  0  0  0  0  0  # atno 17343 bound_to 10162
  157.0272  130.5697  149.5338 LP  0  0  0  0  0  0  0  0  0  0  0  0  # atno 17370 bound_to 10713
  156.0169  130.5263  150.8160 LP  0  0  0  0  0  0  0  0  0  0  0  0  # atno 17371 bound_to 10713
  141.0744  133.6782  156.2206 LP  0  0  0  0  0  0  0  0  0  0  0  0  # atno 17394 bound_to 11000
  140.6453  134.5123  157.5573 LP  0  0  0  0  0  0  0  0  0  0  0  0  # atno 17395 bound_to 11000

$$$$
