AV-unprocessed.smi:2467|AV-procd|sdf|9726|dock9
  -GOLD-   2272013363D 1   1.00000     0.00000
 Structure written by MMmdl.
 46 47  0  0  0  0  0  0  0  0  1 V2000
  149.4610  141.3897  154.3804 C   0  0  0  0  0  0  0  0  0  0  0  0
  148.9122  141.0473  155.7739 C   0  0  0  0  0  0  0  0  0  0  0  0
  149.9966  140.6535  156.8087 C   0  0  0  0  0  0  0  0  0  0  0  0
  150.9082  141.8600  157.1466 C   0  0  0  0  0  0  0  0  0  0  0  0
  151.7193  141.7089  158.4427 C   0  0  0  0  0  0  0  0  0  0  0  0
  150.8280  139.4260  156.3505 C   0  0  1  0  0  0  0  0  0  0  0  0
  150.0020  138.3123  155.6685 C   0  0  0  0  0  0  0  0  0  0  0  0
  150.9104  137.1420  155.2641 C   0  0  1  0  0  0  0  0  0  0  0  0
  150.1425  136.1512  154.5162 N   0  0  0  0  0  0  0  0  0  0  0  0
  149.9516  134.8725  154.8805 C   0  0  0  0  0  0  0  0  0  0  0  0
  150.4105  134.4026  155.9206 O   0  0  0  0  0  0  0  0  0  0  0  0
  149.2194  134.1114  154.0387 N   0  0  0  0  0  0  0  0  0  0  0  0
  148.8229  132.7428  154.0998 C   0  0  0  0  0  0  0  0  0  0  0  0
  147.7562  132.4049  153.2359 C   0  0  0  0  0  0  0  0  0  0  0  0
  147.2707  131.0832  153.2113 C   0  0  0  0  0  0  0  0  0  0  0  0
  147.8647  130.1279  154.0544 C   0  0  0  0  0  0  0  0  0  0  0  0
  148.9208  130.5436  154.8854 C   0  0  0  0  0  0  0  0  0  0  0  0
  149.3870  131.8102  154.9097 N   0  0  0  0  0  0  0  0  0  0  0  0
  152.0787  137.6769  154.4195 C   0  0  0  0  0  0  0  0  0  0  0  0
  152.7945  138.8252  155.1483 C   0  0  0  0  0  0  0  0  0  0  0  0
  151.8679  139.8562  155.4743 O   0  0  0  0  0  0  0  0  0  0  0  0
  148.6587  141.7361  153.7286 H   0  0  0  0  0  0  0  0  0  0  0  0
  149.9195  140.5294  153.8947 H   0  0  0  0  0  0  0  0  0  0  0  0
  150.2061  142.1840  154.4346 H   0  0  0  0  0  0  0  0  0  0  0  0
  148.3620  141.9209  156.1168 H   0  0  0  0  0  0  0  0  0  0  0  0
  148.1733  140.2496  155.6897 H   0  0  0  0  0  0  0  0  0  0  0  0
  149.4808  140.3673  157.7265 H   0  0  0  0  0  0  0  0  0  0  0  0
  151.5838  142.0605  156.3141 H   0  0  0  0  0  0  0  0  0  0  0  0
  150.3042  142.7590  157.2567 H   0  0  0  0  0  0  0  0  0  0  0  0
  152.2445  142.6359  158.6741 H   0  0  0  0  0  0  0  0  0  0  0  0
  152.4724  140.9254  158.3690 H   0  0  0  0  0  0  0  0  0  0  0  0
  151.0718  141.4781  159.2892 H   0  0  0  0  0  0  0  0  0  0  0  0
  151.2893  138.9774  157.2298 H   0  0  0  0  0  0  0  0  0  0  0  0
  149.2196  137.9612  156.3422 H   0  0  0  0  0  0  0  0  0  0  0  0
  149.5002  138.6923  154.7793 H   0  0  0  0  0  0  0  0  0  0  0  0
  151.3057  136.6841  156.1729 H   0  0  0  0  0  0  0  0  0  0  0  0
  149.7305  136.4560  153.6453 H   0  0  0  0  0  0  0  0  0  0  0  0
  148.8689  134.6075  153.2325 H   0  0  0  0  0  0  0  0  0  0  0  0
  147.3091  133.1503  152.5939 H   0  0  0  0  0  0  0  0  0  0  0  0
  146.4563  130.8088  152.5571 H   0  0  0  0  0  0  0  0  0  0  0  0
  147.5200  129.1044  154.0641 H   0  0  0  0  0  0  0  0  0  0  0  0
  149.4048  129.8416  155.5482 H   0  0  0  0  0  0  0  0  0  0  0  0
  152.7876  136.8779  154.1993 H   0  0  0  0  0  0  0  0  0  0  0  0
  151.7068  138.0385  153.4596 H   0  0  0  0  0  0  0  0  0  0  0  0
  153.2852  138.4640  156.0535 H   0  0  0  0  0  0  0  0  0  0  0  0
  153.5741  139.2431  154.5113 H   0  0  0  0  0  0  0  0  0  0  0  0
  1  2  1  0  0  0  0
  1 22  1  0  0  0  0
  1 23  1  0  0  0  0
  1 24  1  0  0  0  0
  2  3  1  0  0  0  0
  2 25  1  0  0  0  0
  2 26  1  0  0  0  0
  3  4  1  0  0  0  0
  3  6  1  0  0  0  0
  3 27  1  0  0  0  0
  4  5  1  0  0  0  0
  4 28  1  0  0  0  0
  4 29  1  0  0  0  0
  5 30  1  0  0  0  0
  5 31  1  0  0  0  0
  5 32  1  0  0  0  0
  6 21  1  0  0  0  0
  6  7  1  0  0  0  0
  6 33  1  0  0  0  0
  7  8  1  0  0  0  0
  7 34  1  0  0  0  0
  7 35  1  0  0  0  0
  8  9  1  0  0  0  0
  8 19  1  0  0  0  0
  8 36  1  0  0  0  0
  9 10  1  0  0  0  0
  9 37  1  0  0  0  0
 10 11  2  0  0  0  0
 10 12  1  0  0  0  0
 12 13  1  0  0  0  0
 12 38  1  0  0  0  0
 13 18  1  0  0  0  0
 13 14  2  0  0  0  0
 14 15  1  0  0  0  0
 14 39  1  0  0  0  0
 15 16  2  0  0  0  0
 15 40  1  0  0  0  0
 16 17  1  0  0  0  0
 16 41  1  0  0  0  0
 17 18  2  0  0  0  0
 17 42  1  0  0  0  0
 19 20  1  0  0  0  0
 19 43  1  0  0  0  0
 19 44  1  0  0  0  0
 20 21  1  0  0  0  0
 20 45  1  0  0  0  0
 20 46  1  0  0  0  0
M  END
> <s_m_source_file>
AV-unprocessed.smi

> <i_m_source_file_index>
2467

> <i_lp_mmshare_version>
43012

> <i_f3d_flags>
0

> <s_epik_input>
W0NIM11bQ0gyXVtDSF0oW0NIMl1bQ0gzXSlbQ0BASF0xW0NIMl1bQ0BIXShbQ0gyXVtDSDJdTzEpW05IXUMoPU8pW05IXWMyW2NIXVtjSF1bY0hdW2NIXW4y

> <s_epik_cmdline>
J2VwaWtfcHl0aG9uJywgJy1waCcsICc3LjAnLCAnLXRuJywgJzgnLCAnLW1hJywgJzIwMCcsICctbWV0YWxfYmluZGluZycsICctaW1hZScsICc8aW5maWxlLm1hZT4nLCAnLW9tYWUnLCAnPG91dGZpbGUubWFlPic=

> <r_lp_tautomer_probability>
1

> <r_epik_Ionization_Penalty>
4.80427e-05

> <r_epik_Ionization_Penalty_Charging>
0

> <r_epik_Ionization_Penalty_Neutral>
4.80427e-05

> <r_epik_State_Penalty>
-0

> <r_epik_Charging_Adjusted_Penalty>
0

> <i_epik_Tot_Q>
0

> <i_epik_Tot_abs_Q>
0

> <r_epik_Metal_State_Penalty>
-0

> <b_epik_Metal_Only>
0

> <s_lp_Force_Field>
OPLS_2005

> <r_lp_Energy>
20.6132

> <b_lp_Chiralities_Consistent>
1

> <s_lp_Variant>
AV-unprocessed.smi:2467-2

> <Gold.Version>
5.8.1

> <Gold.Id.Protein>
6NUR|6NUR_protein|mol2

> <Gold.PLP.Fitness>
42.7997

> <Gold.PLP.PLP>
-36.5974

> <Gold.PLP.part.hbond>
-3.9860

> <Gold.PLP.part.metal>
0.0000

> <Gold.PLP.part.buried>
-2.6303

> <Gold.PLP.part.nonpolar>
-29.9702

> <Gold.PLP.part.repulsive>
0.1693

> <Gold.PLP.ligand.clash>
0.0000

> <Gold.PLP.ligand.torsion>
0.5300

> <Gold.PLP.Chemscore.Hbond>
2.3920

> <Gold.PLP.Chemscore.CHOScore>
0.0000

> <Gold.PLP.Chemscore.Metal>
0.0000

> <Gold.Chemscore.Hbonds>
donor molecule, donor type, donor heavy atom, donor atom, acceptor molecule, acceptor atom, score
      L1  H     9    37       P1  7948  1.00
      L1  H    12    38       P1  7948  0.75
      P1  H  7989  7998       L1    21  0.47

> <Gold.PLP.Chemscore.Internal.Correction>
0.0863

> <Gold.Rescore>
     Score         DG    S(hbond)    S(metal)    S(lipo)     H(rot)  DE(clash)    DE(int)     intcor
     13.49     -15.48       1.26        0.00      81.89       1.49       0.41       1.58       ----

> <Gold.Chemscore.Fitness>
13.4871

> <Gold.Chemscore.DG>
-15.4798

> <Gold.Chemscore.ZeroCoef>
-5.4800

> <Gold.Chemscore.Hbond>
1.2640

> <Gold.Chemscore.Metal>
0.0000

> <Gold.Chemscore.Lipo>
81.8914

> <Gold.Chemscore.Internal_Hbond>
0.0000

> <Gold.Chemscore.DEClash>
0.4142

> <Gold.Chemscore.DEInternal>
1.5785

> <Gold.Chemscore.Rot>
1.4856

> <Gold.Chemscore.Internal.Correction>
   9.000000E+99

> <Gold.Chemscore.Hbonds>
donor molecule, donor type, donor heavy atom, donor atom, acceptor molecule, acceptor atom, score
      L1  H     9    37       P1  7948  0.44
      L1  H    12    38       P1  7948  0.12
      P1  H  7989  7998       L1    21  0.14

> <Gold.Chemscore.Hbond.Weighted>
-4.2216

> <Gold.Chemscore.Metal.Weighted>
-0.0000

> <Gold.Chemscore.Lipo.Weighted>
-9.5813

> <Gold.Chemscore.Internal_Hbond.Weighted>
0.0000

> <Gold.Chemscore.DEClash.Weighted>
0.4142

> <Gold.Chemscore.DEInternal.Weighted>
1.5785

> <Gold.Chemscore.Rot.Weighted>
3.8031

> <Gold.Chemscore.Internal.Correction.Weighted>
   9.000000E+99

> <Gold.Protein.RotatedTorsions>
[ 6907 6896 6895 6894 ] final   33.31 input  -60.11 | X-H torsion
[ 7974 7965 7964 7962 ] final   -6.56 input  175.53 | X-H torsion
[ 8008 7997 7996 7995 ] final   33.75 input   59.86 | X-H torsion
[ 10167 10162 10161 10158 ] final -129.37 input  -65.29 | X-H torsion
[ 10718 10713 10712 10709 ] final  -55.04 input   66.30 | X-H torsion
[ 10763 10752 10751 10750 ] final  -35.09 input  -60.55 | X-H torsion
[ 11005 11000 10999 10996 ] final  167.56 input  -57.11 | X-H torsion

> <Gold.Protein.ActiveResidues>
 VAL166  LYS551  ARG553  GLY616  TRP617  ASP618  TYR619  PRO620  LYS621  CYS622 
 ASP623  PHE694  ASN695  SER759  ASP760  ASP761  ALA762  ILE779  LEU786  VAL792 
 PHE793  MET794  SER795  GLU796  ALA797  LYS798  CYS799  TRP800  GLU811  SER814 

> <Gold.Protein.RotatedAtoms>
  152.0867  134.9435  160.0572 H   0  0  0  0  0  0  0  0  0  0  0  0  # atno 6907 bound_to 6896
  152.0702  133.4098  159.4464 H   0  0  0  0  0  0  0  0  0  0  0  0  # atno 6908 bound_to 6896
  150.6836  134.3020  159.4754 H   0  0  0  0  0  0  0  0  0  0  0  0  # atno 6909 bound_to 6896
  146.2328  140.2189  142.8337 H   0  0  0  0  0  0  0  0  0  0  0  0  # atno 7974 bound_to 7965
  155.1436  140.3268  155.4446 H   0  0  0  0  0  0  0  0  0  0  0  0  # atno 8008 bound_to 7997
  156.2597  140.1989  156.6501 H   0  0  0  0  0  0  0  0  0  0  0  0  # atno 8009 bound_to 7997
  154.6524  140.0557  156.9957 H   0  0  0  0  0  0  0  0  0  0  0  0  # atno 8010 bound_to 7997
  139.9404  143.6169  152.2505 H   0  0  0  0  0  0  0  0  0  0  0  0  # atno 10167 bound_to 10162
  156.1401  130.4155  150.0117 H   0  0  0  0  0  0  0  0  0  0  0  0  # atno 10718 bound_to 10713
  153.8575  135.6843  153.4786 H   0  0  0  0  0  0  0  0  0  0  0  0  # atno 10763 bound_to 10752
  153.1361  135.4677  154.9422 H   0  0  0  0  0  0  0  0  0  0  0  0  # atno 10764 bound_to 10752
  154.7774  135.3257  154.8012 H   0  0  0  0  0  0  0  0  0  0  0  0  # atno 10765 bound_to 10752
  140.2780  134.7773  157.3734 H   0  0  0  0  0  0  0  0  0  0  0  0  # atno 11005 bound_to 11000
  144.9647  140.8310  143.5492 LP  0  0  0  0  0  0  0  0  0  0  0  0  # atno 17320 bound_to 7965
  145.2164  139.2180  143.5116 LP  0  0  0  0  0  0  0  0  0  0  0  0  # atno 17321 bound_to 7965
  139.6709  144.7661  151.1785 LP  0  0  0  0  0  0  0  0  0  0  0  0  # atno 17342 bound_to 10162
  140.7612  143.5867  150.8838 LP  0  0  0  0  0  0  0  0  0  0  0  0  # atno 17343 bound_to 10162
  156.8005  130.9289  151.3646 LP  0  0  0  0  0  0  0  0  0  0  0  0  # atno 17370 bound_to 10713
  157.6568  130.8931  149.9746 LP  0  0  0  0  0  0  0  0  0  0  0  0  # atno 17371 bound_to 10713
  140.1310  134.5095  155.8106 LP  0  0  0  0  0  0  0  0  0  0  0  0  # atno 17394 bound_to 11000
  141.2167  133.6790  156.7039 LP  0  0  0  0  0  0  0  0  0  0  0  0  # atno 17395 bound_to 11000

$$$$
