AV-unprocessed.smi:546|AV-procd|sdf|2886|dock10
  -GOLD-   2262023383D 1   1.00000     0.00000
 Structure written by MMmdl.
 51 53  0  0  0  0  0  0  0  0  2 V2000
  146.7373  139.0295  152.9421 C   0  0  0  0  0  0  0  0  0  0  0  0
  147.8713  138.7474  153.9305 C   0  0  0  0  0  0  0  0  0  0  0  0
  147.3199  138.2857  155.1521 O   0  0  0  0  0  0  0  0  0  0  0  0
  148.2872  137.6692  155.9879 C   0  0  0  0  0  0  0  0  0  0  0  0
  148.0312  138.0556  157.4512 C   0  0  0  0  0  0  0  0  0  0  0  0
  149.1371  137.6579  158.3215 N   0  0  0  0  0  0  0  0  0  0  0  0
  149.1097  136.8862  159.4443 C   0  0  0  0  0  0  0  0  0  0  0  0
  147.9434  136.2847  159.9232 N   0  0  0  0  0  0  0  0  0  0  0  0
  147.8102  134.8425  160.1215 C   0  0  0  0  0  0  0  0  0  0  0  0
  147.2146  134.5106  161.5030 C   0  0  2  0  0  0  0  0  0  0  0  0
  147.1289  132.9960  161.7309 C   0  0  0  0  0  0  0  0  0  0  0  0
  145.8439  135.1889  161.6626 C   0  0  0  0  0  0  0  0  0  0  0  0
  145.9540  136.6935  161.3647 C   0  0  2  0  0  0  0  0  0  0  0  0
  144.5867  137.3854  161.4383 C   0  0  0  0  0  0  0  0  0  0  0  0
  146.6190  136.9033  159.9892 C   0  0  0  0  0  0  0  0  0  0  0  0
  150.2831  136.7795  160.0714 N   0  0  0  0  0  0  0  0  0  0  0  0
  151.1377  137.5164  159.2678 C   0  0  0  0  0  0  0  0  0  0  0  0
  150.4743  138.0565  158.2114 C   0  0  0  0  0  0  0  0  0  0  0  0
  151.1158  138.9188  157.1931 C   0  0  0  0  0  0  0  0  0  0  0  0
  150.4693  139.3893  156.2591 O   0  0  0  0  0  0  0  0  0  0  0  0
  152.4518  139.1025  157.4379 N   0  5  0  0  0  0  0  0  0  0  0  0
  153.1624  138.5739  158.4939 C   0  0  0  0  0  0  0  0  0  0  0  0
  154.3647  138.7957  158.6444 O   0  0  0  0  0  0  0  0  0  0  0  0
  152.5274  137.7790  159.4116 N   0  0  0  0  0  0  0  0  0  0  0  0
  153.2560  137.2032  160.5456 C   0  0  0  0  0  0  0  0  0  0  0  0
  147.1283  139.4171  152.0012 H   0  0  0  0  0  0  0  0  0  0  0  0
  146.0411  139.7658  153.3448 H   0  0  0  0  0  0  0  0  0  0  0  0
  146.1770  138.1212  152.7201 H   0  0  0  0  0  0  0  0  0  0  0  0
  148.5481  137.9995  153.5145 H   0  0  0  0  0  0  0  0  0  0  0  0
  148.4487  139.6572  154.1019 H   0  0  0  0  0  0  0  0  0  0  0  0
  148.2338  136.5854  155.8772 H   0  0  0  0  0  0  0  0  0  0  0  0
  149.2908  137.9766  155.6901 H   0  0  0  0  0  0  0  0  0  0  0  0
  147.8571  139.1237  157.5128 H   0  0  0  0  0  0  0  0  0  0  0  0
  147.1106  137.6010  157.8138 H   0  0  0  0  0  0  0  0  0  0  0  0
  147.1913  134.4241  159.3266 H   0  0  0  0  0  0  0  0  0  0  0  0
  148.7915  134.3750  160.0288 H   0  0  0  0  0  0  0  0  0  0  0  0
  147.8818  134.9204  162.2608 H   0  0  0  0  0  0  0  0  0  0  0  0
  146.4855  132.5191  160.9908 H   0  0  0  0  0  0  0  0  0  0  0  0
  146.7271  132.7701  162.7190 H   0  0  0  0  0  0  0  0  0  0  0  0
  148.1145  132.5344  161.6632 H   0  0  0  0  0  0  0  0  0  0  0  0
  145.1252  134.7299  160.9820 H   0  0  0  0  0  0  0  0  0  0  0  0
  145.4629  135.0331  162.6725 H   0  0  0  0  0  0  0  0  0  0  0  0
  146.5912  137.1406  162.1290 H   0  0  0  0  0  0  0  0  0  0  0  0
  143.8966  136.9803  160.6975 H   0  0  0  0  0  0  0  0  0  0  0  0
  144.6803  138.4565  161.2564 H   0  0  0  0  0  0  0  0  0  0  0  0
  144.1343  137.2563  162.4219 H   0  0  0  0  0  0  0  0  0  0  0  0
  146.6878  137.9638  159.7482 H   0  0  0  0  0  0  0  0  0  0  0  0
  145.9942  136.4690  159.2074 H   0  0  0  0  0  0  0  0  0  0  0  0
  153.6044  137.9931  161.2118 H   0  0  0  0  0  0  0  0  0  0  0  0
  154.1238  136.6393  160.2011 H   0  0  0  0  0  0  0  0  0  0  0  0
  152.6442  136.5217  161.1358 H   0  0  0  0  0  0  0  0  0  0  0  0
  1  2  1  0  0  0  0
  1 26  1  0  0  0  0
  1 27  1  0  0  0  0
  1 28  1  0  0  0  0
  2  3  1  0  0  0  0
  2 29  1  0  0  0  0
  2 30  1  0  0  0  0
  3  4  1  0  0  0  0
  4  5  1  0  0  0  0
  4 31  1  0  0  0  0
  4 32  1  0  0  0  0
  5  6  1  0  0  0  0
  5 33  1  0  0  0  0
  5 34  1  0  0  0  0
  6 18  1  0  0  0  0
  6  7  1  0  0  0  0
  7  8  1  0  0  0  0
  7 16  2  0  0  0  0
  8 15  1  0  0  0  0
  8  9  1  0  0  0  0
  9 10  1  0  0  0  0
  9 35  1  0  0  0  0
  9 36  1  0  0  0  0
 10 11  1  0  0  0  0
 10 12  1  0  0  0  0
 10 37  1  0  0  0  0
 11 38  1  0  0  0  0
 11 39  1  0  0  0  0
 11 40  1  0  0  0  0
 12 13  1  0  0  0  0
 12 41  1  0  0  0  0
 12 42  1  0  0  0  0
 13 14  1  0  0  0  0
 13 15  1  0  0  0  0
 13 43  1  0  0  0  0
 14 44  1  0  0  0  0
 14 45  1  0  0  0  0
 14 46  1  0  0  0  0
 15 47  1  0  0  0  0
 15 48  1  0  0  0  0
 16 17  1  0  0  0  0
 17 24  1  0  0  0  0
 17 18  2  0  0  0  0
 18 19  1  0  0  0  0
 19 20  2  0  0  0  0
 19 21  1  0  0  0  0
 21 22  1  0  0  0  0
 22 23  2  0  0  0  0
 22 24  1  0  0  0  0
 24 25  1  0  0  0  0
 25 49  1  0  0  0  0
 25 50  1  0  0  0  0
 25 51  1  0  0  0  0
M  CHG  1  21  -1
M  END
> <s_m_source_file>
AV-unprocessed.smi

> <i_m_source_file_index>
546

> <i_lp_mmshare_version>
43012

> <i_f3d_flags>
0

> <s_epik_input>
W0NIM11uMWMoPU8pW25IXWMoPU8pYyhjMTIpbihbQ0gyXVtDSDJdT1tDSDJdW0NIM10pYyhuMilOM1tDSDJdW0NAQEhdKFtDSDNdKVtDSDJdW0NAQEhdKFtDSDNdKVtDSDJdMw==

> <s_epik_cmdline>
J2VwaWtfcHl0aG9uJywgJy1waCcsICc3LjAnLCAnLXRuJywgJzgnLCAnLW1hJywgJzIwMCcsICctbWV0YWxfYmluZGluZycsICctaW1hZScsICc8aW5maWxlLm1hZT4nLCAnLW9tYWUnLCAnPG91dGZpbGUubWFlPic=

> <r_lp_tautomer_probability>
1

> <r_epik_Ionization_Penalty>
5.12825

> <r_epik_Ionization_Penalty_Charging>
0.0743105

> <r_epik_Ionization_Penalty_Neutral>
5.05394

> <r_epik_State_Penalty>
5.04406

> <r_epik_Charging_Adjusted_Penalty>
5.11837

> <i_epik_Tot_Q>
-1

> <i_epik_Tot_abs_Q>
1

> <r_epik_Metal_State_Penalty>
1.15122

> <b_epik_Metal_Only>
1

> <s_lp_Force_Field>
OPLS_2005

> <r_lp_Energy>
39.602

> <b_lp_Chiralities_Consistent>
1

> <s_lp_Variant>
AV-unprocessed.smi:546-4

> <Gold.Version>
5.8.1

> <Gold.Id.Protein>
6NUR|6NUR_protein|mol2

> <Gold.PLP.Fitness>
38.6015

> <Gold.PLP.PLP>
-31.0663

> <Gold.PLP.part.hbond>
-3.3360

> <Gold.PLP.part.metal>
0.0000

> <Gold.PLP.part.buried>
-1.6037

> <Gold.PLP.part.nonpolar>
-25.7628

> <Gold.PLP.part.repulsive>
0.0490

> <Gold.PLP.ligand.clash>
0.0000

> <Gold.PLP.ligand.torsion>
1.2701

> <Gold.PLP.Chemscore.Hbond>
3.2437

> <Gold.PLP.Chemscore.CHOScore>
0.0000

> <Gold.PLP.Chemscore.Metal>
0.0000

> <Gold.Chemscore.Hbonds>
donor molecule, donor type, donor heavy atom, donor atom, acceptor molecule, acceptor atom, score
      P1  H  6896  6908       L1    16  1.00
      P1  H  7997  8008       L1    21  0.23
      P1  H  7997  8010       L1    23  0.01

> <Gold.PLP.Chemscore.Internal.Correction>
0.3441

> <Gold.Rescore>
     Score         DG    S(hbond)    S(metal)    S(lipo)     H(rot)  DE(clash)    DE(int)     intcor
     11.34     -14.00       1.67        0.00      58.49       1.52       0.02       2.64       ----

> <Gold.Chemscore.Fitness>
11.3412

> <Gold.Chemscore.DG>
-14.0050

> <Gold.Chemscore.ZeroCoef>
-5.4800

> <Gold.Chemscore.Hbond>
1.6690

> <Gold.Chemscore.Metal>
0.0000

> <Gold.Chemscore.Lipo>
58.4888

> <Gold.Chemscore.Internal_Hbond>
0.0000

> <Gold.Chemscore.DEClash>
0.0226

> <Gold.Chemscore.DEInternal>
2.6412

> <Gold.Chemscore.Rot>
1.5206

> <Gold.Chemscore.Internal.Correction>
   9.000000E+99

> <Gold.Chemscore.Hbonds>
donor molecule, donor type, donor heavy atom, donor atom, acceptor molecule, acceptor atom, score
      P1  H  6896  6908       L1    16  0.20
      P1  H  7997  8008       L1    21  0.01
      P1  H  7997  8010       L1    23  0.02

> <Gold.Chemscore.Hbond.Weighted>
-5.5744

> <Gold.Chemscore.Metal.Weighted>
-0.0000

> <Gold.Chemscore.Lipo.Weighted>
-6.8432

> <Gold.Chemscore.Internal_Hbond.Weighted>
0.0000

> <Gold.Chemscore.DEClash.Weighted>
0.0226

> <Gold.Chemscore.DEInternal.Weighted>
2.6412

> <Gold.Chemscore.Rot.Weighted>
3.8926

> <Gold.Chemscore.Internal.Correction.Weighted>
   9.000000E+99

> <Gold.Protein.RotatedTorsions>
[ 6907 6896 6895 6894 ] final -153.28 input  -60.11 | X-H torsion
[ 7974 7965 7964 7962 ] final   -5.71 input  175.53 | X-H torsion
[ 8008 7997 7996 7995 ] final  -47.00 input   59.86 | X-H torsion
[ 10167 10162 10161 10158 ] final   48.04 input  -65.29 | X-H torsion
[ 10718 10713 10712 10709 ] final  -78.12 input   66.30 | X-H torsion
[ 10763 10752 10751 10750 ] final   86.16 input  -60.55 | X-H torsion
[ 11005 11000 10999 10996 ] final -178.10 input  -57.11 | X-H torsion

> <Gold.Protein.ActiveResidues>
 VAL166  LYS551  ARG553  GLY616  TRP617  ASP618  TYR619  PRO620  LYS621  CYS622 
 ASP623  PHE694  ASN695  SER759  ASP760  ASP761  ALA762  ILE779  LEU786  VAL792 
 PHE793  MET794  SER795  GLU796  ALA797  LYS798  CYS799  TRP800  GLU811  SER814 

> <Gold.Protein.RotatedAtoms>
  151.2402  133.4403  159.2606 H   0  0  0  0  0  0  0  0  0  0  0  0  # atno 6907 bound_to 6896
  151.0712  134.9800  159.8320 H   0  0  0  0  0  0  0  0  0  0  0  0  # atno 6908 bound_to 6896
  152.5412  134.2348  159.8891 H   0  0  0  0  0  0  0  0  0  0  0  0  # atno 6909 bound_to 6896
  146.2347  140.2062  142.8334 H   0  0  0  0  0  0  0  0  0  0  0  0  # atno 7974 bound_to 7965
  154.4012  140.1357  156.4103 H   0  0  0  0  0  0  0  0  0  0  0  0  # atno 8008 bound_to 7997
  155.7740  140.3483  155.5241 H   0  0  0  0  0  0  0  0  0  0  0  0  # atno 8009 bound_to 7997
  155.8739  140.0976  157.1522 H   0  0  0  0  0  0  0  0  0  0  0  0  # atno 8010 bound_to 7997
  140.2974  144.2974  150.6226 H   0  0  0  0  0  0  0  0  0  0  0  0  # atno 10167 bound_to 10162
  156.0126  130.4509  150.3449 H   0  0  0  0  0  0  0  0  0  0  0  0  # atno 10718 bound_to 10713
  153.1544  135.4590  154.9682 H   0  0  0  0  0  0  0  0  0  0  0  0  # atno 10763 bound_to 10752
  154.7849  135.3201  154.7910 H   0  0  0  0  0  0  0  0  0  0  0  0  # atno 10764 bound_to 10752
  153.8410  135.6930  153.4857 H   0  0  0  0  0  0  0  0  0  0  0  0  # atno 10765 bound_to 10752
  140.4335  134.6497  157.4723 H   0  0  0  0  0  0  0  0  0  0  0  0  # atno 11005 bound_to 11000
  144.9743  140.8398  143.5436 LP  0  0  0  0  0  0  0  0  0  0  0  0  # atno 17320 bound_to 7965
  145.2047  139.2234  143.5174 LP  0  0  0  0  0  0  0  0  0  0  0  0  # atno 17321 bound_to 7965
  140.5680  143.2184  151.7649 LP  0  0  0  0  0  0  0  0  0  0  0  0  # atno 17342 bound_to 10162
  139.4923  144.4257  151.9929 LP  0  0  0  0  0  0  0  0  0  0  0  0  # atno 17343 bound_to 10162
  157.1543  131.0329  151.2870 LP  0  0  0  0  0  0  0  0  0  0  0  0  # atno 17370 bound_to 10713
  157.4365  130.7520  149.7034 LP  0  0  0  0  0  0  0  0  0  0  0  0  # atno 17371 bound_to 10713
  140.0118  134.6679  155.9369 LP  0  0  0  0  0  0  0  0  0  0  0  0  # atno 17394 bound_to 11000
  141.1735  133.6538  156.4742 LP  0  0  0  0  0  0  0  0  0  0  0  0  # atno 17395 bound_to 11000

$$$$
