AV-unprocessed.smi:1448|AV-procd|sdf|5894|dock1
  -GOLD-   22720 5573D 1   1.00000     0.00000
 Structure written by MMmdl.
 49 50  0  0  0  0  0  0  0  0  2 V2000
  151.0271  142.3531  156.2706 C   0  0  0  0  0  0  0  0  0  0  0  0
  150.6672  141.1193  155.4964 C   0  0  0  0  0  0  0  0  0  0  0  0
  149.4067  140.7776  154.9257 C   0  0  0  0  0  0  0  0  0  0  0  0
  149.6570  139.5630  154.3478 C   0  0  0  0  0  0  0  0  0  0  0  0
  148.8122  138.7566  153.6515 N   0  0  0  0  0  0  0  0  0  0  0  0
  147.4695  138.7953  153.5981 C   0  0  0  0  0  0  0  0  0  0  0  0
  146.7545  139.6074  154.1843 O   0  0  0  0  0  0  0  0  0  0  0  0
  146.9864  137.8114  152.8257 N   0  0  0  0  0  0  0  0  0  0  0  0
  145.5732  137.5570  152.5411 C   0  0  0  0  0  0  0  0  0  0  0  0
  145.1685  136.0534  152.6830 C   0  0  0  0  0  0  0  0  0  0  0  0
  146.0293  135.2428  151.7401 N   0  3  0  0  0  0  0  0  0  0  0  0
  145.7626  135.4036  150.2877 C   0  0  0  0  0  0  0  0  0  0  0  0
  146.1609  133.8010  152.0783 C   0  0  0  0  0  0  0  0  0  0  0  0
  145.3689  135.5829  154.1562 C   0  0  0  0  0  0  0  0  0  0  0  0
  144.4189  136.2557  155.1670 C   0  0  0  0  0  0  0  0  0  0  0  0
  142.9471  136.0981  154.7634 C   0  0  0  0  0  0  0  0  0  0  0  0
  142.7056  136.6008  153.3345 C   0  0  0  0  0  0  0  0  0  0  0  0
  143.6483  135.8965  152.3420 C   0  0  0  0  0  0  0  0  0  0  0  0
  150.9744  139.2281  154.5688 N   0  0  0  0  0  0  0  0  0  0  0  0
  151.7070  138.0477  154.1536 C   0  0  0  0  0  0  0  0  0  0  0  0
  151.5946  140.1931  155.2814 N   0  0  0  0  0  0  0  0  0  0  0  0
  150.1823  143.0391  156.3342 H   0  0  0  0  0  0  0  0  0  0  0  0
  151.8522  142.8870  155.7983 H   0  0  0  0  0  0  0  0  0  0  0  0
  151.3289  142.1038  157.2882 H   0  0  0  0  0  0  0  0  0  0  0  0
  148.4887  141.3449  154.9475 H   0  0  0  0  0  0  0  0  0  0  0  0
  149.2600  138.0248  153.1197 H   0  0  0  0  0  0  0  0  0  0  0  0
  147.6509  137.1929  152.3831 H   0  0  0  0  0  0  0  0  0  0  0  0
  144.9453  138.1977  153.1600 H   0  0  0  0  0  0  0  0  0  0  0  0
  145.3979  137.9185  151.5300 H   0  0  0  0  0  0  0  0  0  0  0  0
  144.7245  135.1736  150.0458 H   0  0  0  0  0  0  0  0  0  0  0  0
  146.3959  134.7360  149.7022 H   0  0  0  0  0  0  0  0  0  0  0  0
  145.9926  136.4122  149.9452 H   0  0  0  0  0  0  0  0  0  0  0  0
  145.2514  133.2505  151.8354 H   0  0  0  0  0  0  0  0  0  0  0  0
  146.3887  133.6338  153.1294 H   0  0  0  0  0  0  0  0  0  0  0  0
  146.9759  133.3559  151.5067 H   0  0  0  0  0  0  0  0  0  0  0  0
  145.2212  134.5041  154.2175 H   0  0  0  0  0  0  0  0  0  0  0  0
  146.3913  135.7669  154.4864 H   0  0  0  0  0  0  0  0  0  0  0  0
  144.5726  135.8213  156.1554 H   0  0  0  0  0  0  0  0  0  0  0  0
  144.6620  137.3134  155.2674 H   0  0  0  0  0  0  0  0  0  0  0  0
  142.6622  135.0474  154.8331 H   0  0  0  0  0  0  0  0  0  0  0  0
  142.3082  136.6375  155.4634 H   0  0  0  0  0  0  0  0  0  0  0  0
  141.6700  136.4067  153.0538 H   0  0  0  0  0  0  0  0  0  0  0  0
  142.8267  137.6827  153.2884 H   0  0  0  0  0  0  0  0  0  0  0  0
  143.4384  136.2400  151.3286 H   0  0  0  0  0  0  0  0  0  0  0  0
  143.3571  134.8468  152.3684 H   0  0  0  0  0  0  0  0  0  0  0  0
  151.1898  137.1536  154.5020 H   0  0  0  0  0  0  0  0  0  0  0  0
  152.7157  138.0554  154.5685 H   0  0  0  0  0  0  0  0  0  0  0  0
  151.7719  138.0216  153.0657 H   0  0  0  0  0  0  0  0  0  0  0  0
  146.9576  135.6207  151.8667 H   0  0  0  0  0  0  0  0  0  0  0  0
  1  2  1  0  0  0  0
  1 22  1  0  0  0  0
  1 23  1  0  0  0  0
  1 24  1  0  0  0  0
  2 21  2  0  0  0  0
  2  3  1  0  0  0  0
  3  4  2  0  0  0  0
  3 25  1  0  0  0  0
  4  5  1  0  0  0  0
  4 19  1  0  0  0  0
  5  6  1  0  0  0  0
  5 26  1  0  0  0  0
  6  7  2  0  0  0  0
  6  8  1  0  0  0  0
  8  9  1  0  0  0  0
  8 27  1  0  0  0  0
  9 10  1  0  0  0  0
  9 28  1  0  0  0  0
  9 29  1  0  0  0  0
 10 18  1  0  0  0  0
 10 11  1  0  0  0  0
 10 14  1  0  0  0  0
 11 12  1  0  0  0  0
 11 13  1  0  0  0  0
 11 49  1  0  0  0  0
 12 30  1  0  0  0  0
 12 31  1  0  0  0  0
 12 32  1  0  0  0  0
 13 33  1  0  0  0  0
 13 34  1  0  0  0  0
 13 35  1  0  0  0  0
 14 15  1  0  0  0  0
 14 36  1  0  0  0  0
 14 37  1  0  0  0  0
 15 16  1  0  0  0  0
 15 38  1  0  0  0  0
 15 39  1  0  0  0  0
 16 17  1  0  0  0  0
 16 40  1  0  0  0  0
 16 41  1  0  0  0  0
 17 18  1  0  0  0  0
 17 42  1  0  0  0  0
 17 43  1  0  0  0  0
 18 44  1  0  0  0  0
 18 45  1  0  0  0  0
 19 20  1  0  0  0  0
 19 21  1  0  0  0  0
 20 46  1  0  0  0  0
 20 47  1  0  0  0  0
 20 48  1  0  0  0  0
M  CHG  1  11   1
M  END
> <s_m_source_file>
AV-unprocessed.smi

> <i_m_source_file_index>
1448

> <i_lp_mmshare_version>
43012

> <i_f3d_flags>
0

> <s_epik_input>
W0NIM11jMVtjSF1jKG4objEpW0NIM10pW05IXUMoPU8pW05IXVtDSDJdQzIoTihbQ0gzXSlbQ0gzXSlbQ0gyXVtDSDJdW0NIMl1bQ0gyXVtDSDJdMg==

> <s_epik_cmdline>
J2VwaWtfcHl0aG9uJywgJy1waCcsICc3LjAnLCAnLXRuJywgJzgnLCAnLW1hJywgJzIwMCcsICctbWV0YWxfYmluZGluZycsICctaW1hZScsICc8aW5maWxlLm1hZT4nLCAnLW9tYWUnLCAnPG91dGZpbGUubWFlPic=

> <r_lp_tautomer_probability>
1

> <r_epik_Ionization_Penalty>
0.00238996

> <r_epik_Ionization_Penalty_Charging>
0.00230992

> <r_epik_Ionization_Penalty_Neutral>
8.00361e-05

> <r_epik_State_Penalty>
0.00159337

> <r_epik_Charging_Adjusted_Penalty>
0.00390329

> <i_epik_Tot_Q>
1

> <i_epik_Tot_abs_Q>
1

> <r_epik_Metal_State_Penalty>
-0

> <b_epik_Metal_Only>
0

> <s_lp_Force_Field>
OPLS_2005

> <r_lp_Energy>
34.408

> <b_lp_Chiralities_Consistent>
1

> <s_lp_Variant>
AV-unprocessed.smi:1448-1

> <Gold.Version>
5.8.1

> <Gold.Id.Protein>
6NUR|6NUR_protein|mol2

> <Gold.PLP.Fitness>
40.7235

> <Gold.PLP.PLP>
-30.9592

> <Gold.PLP.part.hbond>
-4.8155

> <Gold.PLP.part.metal>
0.0000

> <Gold.PLP.part.buried>
-1.9293

> <Gold.PLP.part.nonpolar>
-22.9481

> <Gold.PLP.part.repulsive>
0.2831

> <Gold.PLP.ligand.clash>
0.0000

> <Gold.PLP.ligand.torsion>
0.5595

> <Gold.PLP.Chemscore.Hbond>
3.5555

> <Gold.PLP.Chemscore.CHOScore>
0.0000

> <Gold.PLP.Chemscore.Metal>
0.0000

> <Gold.Chemscore.Hbonds>
donor molecule, donor type, donor heavy atom, donor atom, acceptor molecule, acceptor atom, score
      L1  H     5    26       P1  7948  0.60
      L1  H     8    27       P1  7948  1.00
      L1  H    11    49       P1  7948  1.89

> <Gold.PLP.Chemscore.Internal.Correction>
0.2166

> <Gold.Rescore>
     Score         DG    S(hbond)    S(metal)    S(lipo)     H(rot)  DE(clash)    DE(int)     intcor
     14.53     -19.01       2.76        0.00      69.18       1.47       3.03       1.45       ----

> <Gold.Chemscore.Fitness>
14.5278

> <Gold.Chemscore.DG>
-19.0077

> <Gold.Chemscore.ZeroCoef>
-5.4800

> <Gold.Chemscore.Hbond>
2.7556

> <Gold.Chemscore.Metal>
0.0000

> <Gold.Chemscore.Lipo>
69.1803

> <Gold.Chemscore.Internal_Hbond>
0.0000

> <Gold.Chemscore.DEClash>
3.0280

> <Gold.Chemscore.DEInternal>
1.4518

> <Gold.Chemscore.Rot>
1.4727

> <Gold.Chemscore.Internal.Correction>
   9.000000E+99

> <Gold.Chemscore.Hbonds>
donor molecule, donor type, donor heavy atom, donor atom, acceptor molecule, acceptor atom, score
      L1  H     5    26       P1  7948  0.56
      L1  H     8    27       P1  7948  1.00
      L1  H    11    49       P1  7948  0.90

> <Gold.Chemscore.Hbond.Weighted>
-9.2036

> <Gold.Chemscore.Metal.Weighted>
-0.0000

> <Gold.Chemscore.Lipo.Weighted>
-8.0941

> <Gold.Chemscore.Internal_Hbond.Weighted>
0.0000

> <Gold.Chemscore.DEClash.Weighted>
3.0280

> <Gold.Chemscore.DEInternal.Weighted>
1.4518

> <Gold.Chemscore.Rot.Weighted>
3.7700

> <Gold.Chemscore.Internal.Correction.Weighted>
   9.000000E+99

> <Gold.Protein.RotatedTorsions>
[ 6907 6896 6895 6894 ] final -134.46 input  -60.11 | X-H torsion
[ 7974 7965 7964 7962 ] final  114.05 input  175.53 | X-H torsion
[ 8008 7997 7996 7995 ] final  -28.65 input   59.86 | X-H torsion
[ 10167 10162 10161 10158 ] final  -91.55 input  -65.29 | X-H torsion
[ 10718 10713 10712 10709 ] final  169.26 input   66.30 | X-H torsion
[ 10763 10752 10751 10750 ] final  156.93 input  -60.55 | X-H torsion
[ 11005 11000 10999 10996 ] final  178.58 input  -57.11 | X-H torsion

> <Gold.Protein.ActiveResidues>
 VAL166  LYS551  ARG553  GLY616  TRP617  ASP618  TYR619  PRO620  LYS621  CYS622 
 ASP623  PHE694  ASN695  SER759  ASP760  ASP761  ALA762  ILE779  LEU786  VAL792 
 PHE793  MET794  SER795  GLU796  ALA797  LYS798  CYS799  TRP800  GLU811  SER814 

> <Gold.Protein.RotatedAtoms>
  150.9862  133.6196  159.2714 H   0  0  0  0  0  0  0  0  0  0  0  0  # atno 6907 bound_to 6896
  151.3433  135.0867  159.9388 H   0  0  0  0  0  0  0  0  0  0  0  0  # atno 6908 bound_to 6896
  152.5231  133.9469  159.7707 H   0  0  0  0  0  0  0  0  0  0  0  0  # atno 6909 bound_to 6896
  145.2092  139.2914  143.4277 H   0  0  0  0  0  0  0  0  0  0  0  0  # atno 7974 bound_to 7965
  154.4323  140.1839  156.1122 H   0  0  0  0  0  0  0  0  0  0  0  0  # atno 8008 bound_to 7997
  156.0208  140.3341  155.7012 H   0  0  0  0  0  0  0  0  0  0  0  0  # atno 8009 bound_to 7997
  155.5978  140.0637  157.2732 H   0  0  0  0  0  0  0  0  0  0  0  0  # atno 8010 bound_to 7997
  140.3438  143.2928  151.9805 H   0  0  0  0  0  0  0  0  0  0  0  0  # atno 10167 bound_to 10162
  157.0253  131.0243  151.2762 H   0  0  0  0  0  0  0  0  0  0  0  0  # atno 10718 bound_to 10713
  154.1922  135.2794  155.3018 H   0  0  0  0  0  0  0  0  0  0  0  0  # atno 10763 bound_to 10752
  154.5920  135.5557  153.7291 H   0  0  0  0  0  0  0  0  0  0  0  0  # atno 10764 bound_to 10752
  153.0109  135.6370  154.2060 H   0  0  0  0  0  0  0  0  0  0  0  0  # atno 10765 bound_to 10752
  140.3967  134.6814  157.4538 H   0  0  0  0  0  0  0  0  0  0  0  0  # atno 11005 bound_to 11000
  146.3401  140.2362  142.8594 LP  0  0  0  0  0  0  0  0  0  0  0  0  # atno 17320 bound_to 7965
  144.9872  140.8514  143.5361 LP  0  0  0  0  0  0  0  0  0  0  0  0  # atno 17321 bound_to 7965
  139.4836  144.6134  151.7391 LP  0  0  0  0  0  0  0  0  0  0  0  0  # atno 17342 bound_to 10162
  140.5284  144.0769  150.6045 LP  0  0  0  0  0  0  0  0  0  0  0  0  # atno 17343 bound_to 10162
  157.5219  130.8003  149.7818 LP  0  0  0  0  0  0  0  0  0  0  0  0  # atno 17370 bound_to 10713
  156.0088  130.3843  150.2336 LP  0  0  0  0  0  0  0  0  0  0  0  0  # atno 17371 bound_to 10713
  140.0367  134.6327  155.9035 LP  0  0  0  0  0  0  0  0  0  0  0  0  # atno 17394 bound_to 11000
  141.1871  133.6559  156.5270 LP  0  0  0  0  0  0  0  0  0  0  0  0  # atno 17395 bound_to 11000

$$$$
