AV-unprocessed.smi:2309|AV-procd|sdf|9254|dock1
  -GOLD-   2272012473D 1   1.00000     0.00000
 Structure written by MMmdl.
 34 35  0  0  0  0  0  0  0  0  1 V2000
  152.7008  143.1432  161.3317 C   0  0  0  0  0  0  0  0  0  0  0  0
  152.3140  142.2321  160.1802 C   0  0  0  0  0  0  0  0  0  0  0  0
  151.0429  142.4473  159.6398 N   0  0  0  0  0  0  0  0  0  0  0  0
  150.6273  141.7160  158.6579 C   0  0  0  0  0  0  0  0  0  0  0  0
  151.4235  140.6986  158.1065 N   0  0  0  0  0  0  0  0  0  0  0  0
  150.8288  139.9342  156.9965 C   0  0  0  0  0  0  0  0  0  0  0  0
  150.7747  140.7485  155.6842 C   0  0  1  0  0  0  0  0  0  0  0  0
  151.9116  140.4217  154.9072 O   0  0  0  0  0  0  0  0  0  0  0  0
  149.4766  140.4705  154.9282 C   0  0  0  0  0  0  0  0  0  0  0  0
  148.5020  141.4896  154.8163 C   0  0  0  0  0  0  0  0  0  0  0  0
  147.3010  141.2626  154.1180 C   0  0  0  0  0  0  0  0  0  0  0  0
  146.1239  142.5177  153.9963 Cl  0  0  0  0  0  0  0  0  0  0  0  0
  147.0628  140.0131  153.5181 C   0  0  0  0  0  0  0  0  0  0  0  0
  148.0292  138.9955  153.6131 C   0  0  0  0  0  0  0  0  0  0  0  0
  149.2342  139.2170  154.3097 C   0  0  0  0  0  0  0  0  0  0  0  0
  150.3897  137.9322  154.3716 Cl  0  0  0  0  0  0  0  0  0  0  0  0
  152.6749  140.4217  158.5748 C   0  0  0  0  0  0  0  0  0  0  0  0
  153.3642  139.5238  158.0878 O   0  0  0  0  0  0  0  0  0  0  0  0
  153.1344  141.2619  159.6925 C   0  0  0  0  0  0  0  0  0  0  0  0
  154.5269  140.9793  160.2423 C   0  0  0  0  0  0  0  0  0  0  0  0
  153.5915  143.7195  161.0804 H   0  0  0  0  0  0  0  0  0  0  0  0
  152.9044  142.5586  162.2293 H   0  0  0  0  0  0  0  0  0  0  0  0
  151.9023  143.8484  161.5661 H   0  0  0  0  0  0  0  0  0  0  0  0
  149.6420  141.8392  158.2050 H   0  0  0  0  0  0  0  0  0  0  0  0
  151.3327  138.9792  156.8332 H   0  0  0  0  0  0  0  0  0  0  0  0
  149.8138  139.6543  157.2856 H   0  0  0  0  0  0  0  0  0  0  0  0
  150.8496  141.8140  155.8963 H   0  0  0  0  0  0  0  0  0  0  0  0
  152.1684  139.5351  155.1102 H   0  0  0  0  0  0  0  0  0  0  0  0
  148.6732  142.4575  155.2645 H   0  0  0  0  0  0  0  0  0  0  0  0
  146.1427  139.8348  152.9810 H   0  0  0  0  0  0  0  0  0  0  0  0
  147.8456  138.0398  153.1444 H   0  0  0  0  0  0  0  0  0  0  0  0
  154.5821  139.9565  160.6165 H   0  0  0  0  0  0  0  0  0  0  0  0
  154.8098  141.6424  161.0582 H   0  0  0  0  0  0  0  0  0  0  0  0
  155.2727  141.0928  159.4550 H   0  0  0  0  0  0  0  0  0  0  0  0
  1  2  1  0  0  0  0
  1 21  1  0  0  0  0
  1 22  1  0  0  0  0
  1 23  1  0  0  0  0
  2 19  2  0  0  0  0
  2  3  1  0  0  0  0
  3  4  2  0  0  0  0
  4  5  1  0  0  0  0
  4 24  1  0  0  0  0
  5  6  1  0  0  0  0
  5 17  1  0  0  0  0
  6  7  1  0  0  0  0
  6 25  1  0  0  0  0
  6 26  1  0  0  0  0
  7  8  1  0  0  0  0
  7  9  1  0  0  0  0
  7 27  1  0  0  0  0
  8 28  1  0  0  0  0
  9 15  1  0  0  0  0
  9 10  2  0  0  0  0
 10 11  1  0  0  0  0
 10 29  1  0  0  0  0
 11 12  1  0  0  0  0
 11 13  2  0  0  0  0
 13 14  1  0  0  0  0
 13 30  1  0  0  0  0
 14 15  2  0  0  0  0
 14 31  1  0  0  0  0
 15 16  1  0  0  0  0
 17 18  2  0  0  0  0
 17 19  1  0  0  0  0
 19 20  1  0  0  0  0
 20 32  1  0  0  0  0
 20 33  1  0  0  0  0
 20 34  1  0  0  0  0
M  END
> <s_m_source_file>
AV-unprocessed.smi

> <i_m_source_file_index>
2309

> <i_lp_mmshare_version>
43012

> <i_f3d_flags>
0

> <s_epik_input>
W0NIM11jMW5bY0hdbihjKD1PKWMxW0NIM10pW0NIMl1bQ0BIXShbT0hdKWMyW2NIXWMoQ2wpW2NIXVtjSF1jMkNs

> <s_epik_cmdline>
J2VwaWtfcHl0aG9uJywgJy1waCcsICc3LjAnLCAnLXRuJywgJzgnLCAnLW1hJywgJzIwMCcsICctbWV0YWxfYmluZGluZycsICctaW1hZScsICc8aW5maWxlLm1hZT4nLCAnLW9tYWUnLCAnPG91dGZpbGUubWFlPic=

> <r_lp_tautomer_probability>
1

> <r_epik_Ionization_Penalty>
5.09224e-05

> <r_epik_Ionization_Penalty_Charging>
7.56727e-08

> <r_epik_Ionization_Penalty_Neutral>
5.08468e-05

> <r_epik_State_Penalty>
-0

> <r_epik_Charging_Adjusted_Penalty>
7.56727e-08

> <i_epik_Tot_Q>
0

> <i_epik_Tot_abs_Q>
0

> <r_epik_Metal_State_Penalty>
-0

> <b_epik_Metal_Only>
0

> <s_lp_Force_Field>
OPLS_2005

> <r_lp_Energy>
18.7705

> <b_lp_Chiralities_Consistent>
1

> <s_lp_Variant>
AV-unprocessed.smi:2309-2

> <Gold.Version>
5.8.1

> <Gold.Id.Protein>
6NUR|6NUR_protein|mol2

> <Gold.PLP.Fitness>
48.3925

> <Gold.PLP.PLP>
-44.5109

> <Gold.PLP.part.hbond>
-2.7005

> <Gold.PLP.part.metal>
0.0000

> <Gold.PLP.part.buried>
-5.0040

> <Gold.PLP.part.nonpolar>
-37.8544

> <Gold.PLP.part.repulsive>
0.0000

> <Gold.PLP.ligand.clash>
0.0000

> <Gold.PLP.ligand.torsion>
0.8146

> <Gold.PLP.Chemscore.Hbond>
1.8320

> <Gold.PLP.Chemscore.CHOScore>
0.0000

> <Gold.PLP.Chemscore.Metal>
0.0000

> <Gold.Chemscore.Hbonds>
donor molecule, donor type, donor heavy atom, donor atom, acceptor molecule, acceptor atom, score
      P1  H  7989  7998       L1     8  0.66
      P1  H  7997  8008       L1    18  1.00

> <Gold.PLP.Chemscore.Internal.Correction>
0.0148

> <Gold.Rescore>
     Score         DG    S(hbond)    S(metal)    S(lipo)     H(rot)  DE(clash)    DE(int)     intcor
     17.30     -18.07       1.80        0.00      98.43       1.93       0.02       0.75       ----

> <Gold.Chemscore.Fitness>
17.2961

> <Gold.Chemscore.DG>
-18.0664

> <Gold.Chemscore.ZeroCoef>
-5.4800

> <Gold.Chemscore.Hbond>
1.7971

> <Gold.Chemscore.Metal>
0.0000

> <Gold.Chemscore.Lipo>
98.4265

> <Gold.Chemscore.Internal_Hbond>
0.0000

> <Gold.Chemscore.DEClash>
0.0219

> <Gold.Chemscore.DEInternal>
0.7483

> <Gold.Chemscore.Rot>
1.9265

> <Gold.Chemscore.Internal.Correction>
   9.000000E+99

> <Gold.Chemscore.Hbonds>
donor molecule, donor type, donor heavy atom, donor atom, acceptor molecule, acceptor atom, score
      P1  H  7989  7998       L1     8  0.42
      P1  H  7997  8008       L1    18  0.91

> <Gold.Chemscore.Hbond.Weighted>
-6.0022

> <Gold.Chemscore.Metal.Weighted>
-0.0000

> <Gold.Chemscore.Lipo.Weighted>
-11.5159

> <Gold.Chemscore.Internal_Hbond.Weighted>
0.0000

> <Gold.Chemscore.DEClash.Weighted>
0.0219

> <Gold.Chemscore.DEInternal.Weighted>
0.7483

> <Gold.Chemscore.Rot.Weighted>
4.9317

> <Gold.Chemscore.Internal.Correction.Weighted>
   9.000000E+99

> <Gold.Protein.RotatedTorsions>
[ 6907 6896 6895 6894 ] final -140.42 input  -60.11 | X-H torsion
[ 7974 7965 7964 7962 ] final  -48.42 input  175.53 | X-H torsion
[ 8008 7997 7996 7995 ] final  -83.77 input   59.86 | X-H torsion
[ 10167 10162 10161 10158 ] final -155.87 input  -65.29 | X-H torsion
[ 10718 10713 10712 10709 ] final  178.07 input   66.30 | X-H torsion
[ 10763 10752 10751 10750 ] final  167.82 input  -60.55 | X-H torsion
[ 11005 11000 10999 10996 ] final  -52.16 input  -57.11 | X-H torsion

> <Gold.Protein.ActiveResidues>
 VAL166  LYS551  ARG553  GLY616  TRP617  ASP618  TYR619  PRO620  LYS621  CYS622 
 ASP623  PHE694  ASN695  SER759  ASP760  ASP761  ALA762  ILE779  LEU786  VAL792 
 PHE793  MET794  SER795  GLU796  ALA797  LYS798  CYS799  TRP800  GLU811  SER814 

> <Gold.Protein.RotatedAtoms>
  151.0605  133.5548  159.2634 H   0  0  0  0  0  0  0  0  0  0  0  0  # atno 6907 bound_to 6896
  151.2525  135.0626  159.9077 H   0  0  0  0  0  0  0  0  0  0  0  0  # atno 6908 bound_to 6896
  152.5397  134.0364  159.8101 H   0  0  0  0  0  0  0  0  0  0  0  0  # atno 6909 bound_to 6896
  145.9514  140.7569  142.9503 H   0  0  0  0  0  0  0  0  0  0  0  0  # atno 7974 bound_to 7965
  154.6226  140.0614  156.9634 H   0  0  0  0  0  0  0  0  0  0  0  0  # atno 8008 bound_to 7997
  155.1793  140.3297  155.4360 H   0  0  0  0  0  0  0  0  0  0  0  0  # atno 8009 bound_to 7997
  156.2440  140.1900  156.6890 H   0  0  0  0  0  0  0  0  0  0  0  0  # atno 8010 bound_to 7997
  139.6896  143.9443  152.2378 H   0  0  0  0  0  0  0  0  0  0  0  0  # atno 10167 bound_to 10162
  156.8960  130.9863  151.3042 H   0  0  0  0  0  0  0  0  0  0  0  0  # atno 10718 bound_to 10713
  154.3595  135.2753  155.2328 H   0  0  0  0  0  0  0  0  0  0  0  0  # atno 10763 bound_to 10752
  154.4522  135.5928  153.6203 H   0  0  0  0  0  0  0  0  0  0  0  0  # atno 10764 bound_to 10752
  152.9844  135.6044  154.3814 H   0  0  0  0  0  0  0  0  0  0  0  0  # atno 10765 bound_to 10752
  141.0910  133.6633  156.3984 H   0  0  0  0  0  0  0  0  0  0  0  0  # atno 11005 bound_to 11000
  144.6796  140.2440  143.7340 LP  0  0  0  0  0  0  0  0  0  0  0  0  # atno 17320 bound_to 7965
  145.8166  139.2026  143.1962 LP  0  0  0  0  0  0  0  0  0  0  0  0  # atno 17321 bound_to 7965
  139.9255  144.6773  150.8417 LP  0  0  0  0  0  0  0  0  0  0  0  0  # atno 17342 bound_to 10162
  140.7678  143.3345  151.2339 LP  0  0  0  0  0  0  0  0  0  0  0  0  # atno 17343 bound_to 10162
  157.6055  130.8544  149.8868 LP  0  0  0  0  0  0  0  0  0  0  0  0  # atno 17370 bound_to 10713
  156.0605  130.3700  150.0992 LP  0  0  0  0  0  0  0  0  0  0  0  0  # atno 17371 bound_to 10713
  140.5253  134.6265  157.5332 LP  0  0  0  0  0  0  0  0  0  0  0  0  # atno 17394 bound_to 11000
  139.9736  134.7253  155.9994 LP  0  0  0  0  0  0  0  0  0  0  0  0  # atno 17395 bound_to 11000

$$$$
