#       Name:                AV-unprocessed.smi:266
#       Creating user name   scv26
#       Creation time:       Thu Mar 26 21:24:39 2020


#       File generated by GOLD software.
#

@<TRIPOS>MOLECULE
AV-unprocessed.smi:266
    60    63     1
SMALL
NO_CHARGES


@<TRIPOS>ATOM
      1 ****        -5.7478   1.0671   0.2397 C.3            1 S1                 0.0000
      2 ****        -4.9047   2.3401   0.0669 C.3            1 S1                 0.0000
      3 ****        -5.2123   2.8950  -1.2092 O.3            1 S1                 0.0000
      4 ****        -4.0717   3.5797  -1.6955 C.3            1 S1                 0.0000
      5 ****        -2.9381   2.6479  -1.2959 C.3            1 S1                 0.0000
      6 ****        -3.3591   2.1677   0.0908 C.3            1 S1                 0.0000
      7 ****        -2.8409   3.0829   1.0423 O.3            1 S1                 0.0000
      8 ****        -2.8278   0.7540   0.4471 C.3            1 S1                 0.0000
      9 ****        -1.3777   0.6470   0.3867 N.pl3          1 S1                 0.0000
     10 ****        -0.4861   0.9640   1.3860 C.2            1 S1                 0.0000
     11 ****         0.7708   0.7819   1.0878 N.2            1 S1                 0.0000
     12 ****         0.7474   0.2908  -0.2126 C.ar           1 S1                 0.0000
     13 ****         1.7443  -0.1194  -1.1458 C.ar           1 S1                 0.0000
     14 ****         3.0799  -0.1206  -0.9196 N.3            1 S1                 0.0000
     15 ****         3.7483   1.0034  -1.5606 C.3            1 S1                 0.0000
     16 ****         3.5724  -0.5226   0.3979 C.3            1 S1                 0.0000
     17 ****         3.0767  -1.9116   0.8549 C.3            1 S1                 0.0000
     18 ****         3.5564  -3.0554  -0.0620 C.3            1 S1                 0.0000
     19 ****         3.2695  -4.3903   0.6318 C.3            1 S1                 0.0000
     20 ****         3.4880  -4.0718   2.4217 S.o2           1 S1                 0.0000
     21 ****         2.2701  -4.4871   3.1338 O.2            1 S1                 0.0000
     22 ****         4.8134  -4.5470   2.8471 O.2            1 S1                 0.0000
     23 ****         3.5265  -2.2441   2.2854 C.3            1 S1                 0.0000
     24 ****         1.3301  -0.5334  -2.3697 N.ar           1 S1                 0.0000
     25 ****         0.0270  -0.5692  -2.6622 C.ar           1 S1                 0.0000
     26 ****        -1.0101  -0.2334  -1.8931 N.ar           1 S1                 0.0000
     27 ****        -0.5991   0.2015  -0.6676 C.ar           1 S1                 0.0000
     28 ****        -5.5632   0.5939   1.2043 H              1 S1                 0.0000
     29 ****        -5.5397   0.3394  -0.5450 H              1 S1                 0.0000
     30 ****        -6.8111   1.3026   0.1914 H              1 S1                 0.0000
     31 ****        -5.2176   3.0633   0.8225 H              1 S1                 0.0000
     32 ****        -4.1271   3.7418  -2.7721 H              1 S1                 0.0000
     33 ****        -3.9807   4.5480  -1.2007 H              1 S1                 0.0000
     34 ****        -2.9175   1.8100  -1.9935 H              1 S1                 0.0000
     35 ****        -1.9575   3.1254  -1.3211 H              1 S1                 0.0000
     36 ****        -3.1871   2.8592   1.8925 H              1 S1                 0.0000
     37 ****        -3.1457   0.4695   1.4511 H              1 S1                 0.0000
     38 ****        -3.2426   0.0078  -0.2307 H              1 S1                 0.0000
     39 ****        -0.7992   1.3436   2.3478 H              1 S1                 0.0000
     40 ****         3.6239   0.9647  -2.6433 H              1 S1                 0.0000
     41 ****         4.8177   0.9902  -1.3489 H              1 S1                 0.0000
     42 ****         3.3430   1.9499  -1.2004 H              1 S1                 0.0000
     43 ****         4.6626  -0.5304   0.3676 H              1 S1                 0.0000
     44 ****         3.3046   0.2366   1.1323 H              1 S1                 0.0000
     45 ****         1.9867  -1.9342   0.8608 H              1 S1                 0.0000
     46 ****         3.0861  -3.0126  -1.0450 H              1 S1                 0.0000
     47 ****         4.6317  -2.9628  -0.2196 H              1 S1                 0.0000
     48 ****         2.2364  -4.6973   0.4668 H              1 S1                 0.0000
     49 ****         3.9301  -5.1936   0.3055 H              1 S1                 0.0000
     50 ****         4.5524  -1.9196   2.4614 H              1 S1                 0.0000
     51 ****         2.8862  -1.7963   3.0457 H              1 S1                 0.0000
     52 ****        -0.2203  -0.9172  -3.6543 H              1 S1                 0.0000
     53 ****        -5.9765   3.5342  -1.1226 LP             1 S1                 0.0000
     54 ****        -5.4605   2.1627  -1.8433 LP             1 S1                 0.0000
     55 ****        -3.1161   4.0133   0.8001 LP             1 S1                 0.0000
     56 ****        -1.8427   3.0241   1.0582 LP             1 S1                 0.0000
     57 ****         1.5696   0.9560   1.6637 LP             1 S1                 0.0000
     58 ****         3.3928  -0.9388  -1.4020 LP             1 S1                 0.0000
     59 ****         2.0025  -0.8129  -3.0552 LP             1 S1                 0.0000
     60 ****        -1.9665  -0.2929  -2.1787 LP             1 S1                 0.0000
@<TRIPOS>BOND
    1    1    2 1     
    2    1   28 1     
    3    1   29 1     
    4    1   30 1     
    5    2    6 1     
    6    2    3 1     
    7    2   31 1     
    8    3    4 1     
    9    4    5 1     
   10    4   32 1     
   11    4   33 1     
   12    5    6 1     
   13    5   34 1     
   14    5   35 1     
   15    6    7 1     
   16    6    8 1     
   17    7   36 1     
   18    8    9 1     
   19    8   37 1     
   20    8   38 1     
   21    9   27 1     
   22    9   10 1     
   23   10   11 2     
   24   10   39 1     
   25   11   12 1     
   26   12   27 ar    
   27   12   13 ar    
   28   13   14 1     
   29   13   24 ar    
   30   14   15 1     
   31   14   16 1     
   32   15   40 1     
   33   15   41 1     
   34   15   42 1     
   35   16   17 1     
   36   16   43 1     
   37   16   44 1     
   38   17   23 1     
   39   17   18 1     
   40   17   45 1     
   41   18   19 1     
   42   18   46 1     
   43   18   47 1     
   44   19   20 1     
   45   19   48 1     
   46   19   49 1     
   47   20   21 2     
   48   20   22 2     
   49   20   23 1     
   50   23   50 1     
   51   23   51 1     
   52   24   25 ar    
   53   25   26 ar    
   54   25   52 1     
   55   26   27 ar    
   56    3   53 1     
   57    3   54 1     
   58    7   55 1     
   59    7   56 1     
   60   11   57 1     
   61   14   58 1     
   62   24   59 1     
   63   26   60 1     
@<TRIPOS>SUBSTRUCTURE
      1 S1             1
@<TRIPOS>SET
LONE_PAIRS      STATIC     ATOMS    <user>   **** ""
10 53 54 55 56 57 58 21 22 59 60
DONOR_HYDROGENS      STATIC     ATOMS    <user>   **** ""
1 36
ATOM$BLUE        STATIC     ATOMS    COLORGROUP SYSTEM
10 53 54 55 56 57 58 21 22 59 60
ATOM$RED        STATIC     ATOMS    COLORGROUP SYSTEM
1 36
