AV-unprocessed.smi:1554|AV-procd|sdf|6241|dock10
  -GOLD-   22720 6423D 1   1.00000     0.00000
 Structure written by MMmdl.
 47 49  0  0  0  0  0  0  0  0  1 V2000
  151.3790  144.4526  157.9251 C   0  0  0  0  0  0  0  0  0  0  0  0
  152.0623  143.4086  158.7906 C   0  0  0  0  0  0  0  0  0  0  0  0
  152.3627  142.1446  158.2345 C   0  0  0  0  0  0  0  0  0  0  0  0
  153.0007  141.1478  159.0046 C   0  0  0  0  0  0  0  0  0  0  0  0
  153.3873  139.8618  158.6675 N   0  0  0  0  0  0  0  0  0  0  0  0
  153.9269  139.4370  159.8063 C   0  0  0  0  0  0  0  0  0  0  0  0
  153.9363  140.2967  160.8430 N   0  0  0  0  0  0  0  0  0  0  0  0
  154.4678  140.0531  162.1725 C   0  0  0  0  0  0  0  0  0  0  0  0
  155.9136  139.5221  162.1427 C   0  0  1  0  0  0  0  0  0  0  0  0
  156.7711  140.5410  161.6659 O   0  0  0  0  0  0  0  0  0  0  0  0
  156.3864  139.0978  163.5483 C   0  0  0  0  0  0  0  0  0  0  0  0
  155.7677  139.8087  164.6692 N   0  0  0  0  0  0  0  0  0  0  0  0
  156.3732  139.4081  165.9345 C   0  0  0  0  0  0  0  0  0  0  0  0
  155.7412  140.1369  167.1319 C   0  0  0  0  0  0  0  0  0  0  0  0
  155.8536  141.5433  166.9430 O   0  0  0  0  0  0  0  0  0  0  0  0
  155.2305  141.9924  165.7430 C   0  0  1  0  0  0  0  0  0  0  0  0
  155.3987  143.5128  165.6517 C   0  0  0  0  0  0  0  0  0  0  0  0
  155.8613  141.2623  164.5405 C   0  0  0  0  0  0  0  0  0  0  0  0
  153.3307  141.4513  160.3581 C   0  0  0  0  0  0  0  0  0  0  0  0
  153.0373  142.7052  160.9224 C   0  0  0  0  0  0  0  0  0  0  0  0
  152.4009  143.6902  160.1385 C   0  0  0  0  0  0  0  0  0  0  0  0
  152.0912  145.0424  160.7561 C   0  0  0  0  0  0  0  0  0  0  0  0
  151.1770  144.0698  156.9242 H   0  0  0  0  0  0  0  0  0  0  0  0
  152.0091  145.3366  157.8244 H   0  0  0  0  0  0  0  0  0  0  0  0
  150.4280  144.7529  158.3658 H   0  0  0  0  0  0  0  0  0  0  0  0
  152.1061  141.9299  157.2076 H   0  0  0  0  0  0  0  0  0  0  0  0
  154.3410  138.4430  159.8927 H   0  0  0  0  0  0  0  0  0  0  0  0
  154.4091  140.9774  162.7489 H   0  0  0  0  0  0  0  0  0  0  0  0
  153.8153  139.3353  162.6713 H   0  0  0  0  0  0  0  0  0  0  0  0
  155.9544  138.6840  161.4484 H   0  0  0  0  0  0  0  0  0  0  0  0
  157.5380  140.1360  161.2904 H   0  0  0  0  0  0  0  0  0  0  0  0
  156.2034  138.0273  163.6548 H   0  0  0  0  0  0  0  0  0  0  0  0
  157.4691  139.2167  163.6115 H   0  0  0  0  0  0  0  0  0  0  0  0
  156.2639  138.3318  166.0729 H   0  0  0  0  0  0  0  0  0  0  0  0
  157.4448  139.6131  165.9136 H   0  0  0  0  0  0  0  0  0  0  0  0
  154.6920  139.8596  167.2448 H   0  0  0  0  0  0  0  0  0  0  0  0
  156.2480  139.8591  168.0561 H   0  0  0  0  0  0  0  0  0  0  0  0
  154.1651  141.7607  165.7913 H   0  0  0  0  0  0  0  0  0  0  0  0
  154.9240  143.9064  164.7526 H   0  0  0  0  0  0  0  0  0  0  0  0
  156.4522  143.7925  165.6246 H   0  0  0  0  0  0  0  0  0  0  0  0
  154.9444  144.0070  166.5105 H   0  0  0  0  0  0  0  0  0  0  0  0
  156.9077  141.5570  164.4444 H   0  0  0  0  0  0  0  0  0  0  0  0
  155.3584  141.5969  163.6346 H   0  0  0  0  0  0  0  0  0  0  0  0
  153.3031  142.9076  161.9495 H   0  0  0  0  0  0  0  0  0  0  0  0
  152.4046  145.0842  161.7996 H   0  0  0  0  0  0  0  0  0  0  0  0
  151.0201  145.2433  160.7208 H   0  0  0  0  0  0  0  0  0  0  0  0
  152.6112  145.8352  160.2181 H   0  0  0  0  0  0  0  0  0  0  0  0
  1  2  1  0  0  0  0
  1 23  1  0  0  0  0
  1 24  1  0  0  0  0
  1 25  1  0  0  0  0
  2 21  1  0  0  0  0
  2  3  2  0  0  0  0
  3  4  1  0  0  0  0
  3 26  1  0  0  0  0
  4 19  2  0  0  0  0
  4  5  1  0  0  0  0
  5  6  2  0  0  0  0
  6  7  1  0  0  0  0
  6 27  1  0  0  0  0
  7  8  1  0  0  0  0
  7 19  1  0  0  0  0
  8  9  1  0  0  0  0
  8 28  1  0  0  0  0
  8 29  1  0  0  0  0
  9 10  1  0  0  0  0
  9 11  1  0  0  0  0
  9 30  1  0  0  0  0
 10 31  1  0  0  0  0
 11 12  1  0  0  0  0
 11 32  1  0  0  0  0
 11 33  1  0  0  0  0
 12 18  1  0  0  0  0
 12 13  1  0  0  0  0
 13 14  1  0  0  0  0
 13 34  1  0  0  0  0
 13 35  1  0  0  0  0
 14 15  1  0  0  0  0
 14 36  1  0  0  0  0
 14 37  1  0  0  0  0
 15 16  1  0  0  0  0
 16 17  1  0  0  0  0
 16 18  1  0  0  0  0
 16 38  1  0  0  0  0
 17 39  1  0  0  0  0
 17 40  1  0  0  0  0
 17 41  1  0  0  0  0
 18 42  1  0  0  0  0
 18 43  1  0  0  0  0
 19 20  1  0  0  0  0
 20 21  2  0  0  0  0
 20 44  1  0  0  0  0
 21 22  1  0  0  0  0
 22 45  1  0  0  0  0
 22 46  1  0  0  0  0
 22 47  1  0  0  0  0
M  END
> <s_m_source_file>
AV-unprocessed.smi

> <i_m_source_file_index>
1554

> <i_lp_mmshare_version>
43012

> <i_f3d_flags>
0

> <s_epik_input>
W0NIM11jKFtjSF0xKWMoW0NIM10pW2NIXWMoYzEyKW4oW2NIXW4yKVtDSDJdW0NASF0oW09IXSlbQ0gyXU4zW0NIMl1bQ0gyXU9bQ0BASF0oW0NIM10pW0NIMl0z

> <s_epik_cmdline>
J2VwaWtfcHl0aG9uJywgJy1waCcsICc3LjAnLCAnLXRuJywgJzgnLCAnLW1hJywgJzIwMCcsICctbWV0YWxfYmluZGluZycsICctaW1hZScsICc8aW5maWxlLm1hZT4nLCAnLW9tYWUnLCAnPG91dGZpbGUubWFlPic=

> <r_epik_Ionization_Penalty>
0.345108

> <r_epik_Ionization_Penalty_Charging>
0

> <r_epik_Ionization_Penalty_Neutral>
0.345108

> <r_epik_State_Penalty>
0.314544

> <r_epik_Charging_Adjusted_Penalty>
0.314544

> <i_epik_Tot_Q>
0

> <i_epik_Tot_abs_Q>
0

> <r_epik_Metal_State_Penalty>
0.239719

> <b_epik_Metal_Only>
0

> <s_lp_Force_Field>
OPLS_2005

> <r_lp_Energy>
29.8053

> <b_lp_Chiralities_Consistent>
1

> <s_lp_Variant>
AV-unprocessed.smi:1554-2

> <Gold.Version>
5.8.1

> <Gold.Id.Protein>
6NUR|6NUR_protein|mol2

> <Gold.PLP.Fitness>
47.5715

> <Gold.PLP.PLP>
-45.5863

> <Gold.PLP.part.hbond>
-1.3659

> <Gold.PLP.part.metal>
0.0000

> <Gold.PLP.part.buried>
-4.1835

> <Gold.PLP.part.nonpolar>
-39.1897

> <Gold.PLP.part.repulsive>
0.0254

> <Gold.PLP.ligand.clash>
0.0000

> <Gold.PLP.ligand.torsion>
0.5194

> <Gold.PLP.Chemscore.Hbond>
1.0000

> <Gold.PLP.Chemscore.CHOScore>
0.0000

> <Gold.PLP.Chemscore.Metal>
0.0000

> <Gold.Chemscore.Hbonds>
donor molecule, donor type, donor heavy atom, donor atom, acceptor molecule, acceptor atom, score
      P1  H  7997  8009       L1     5  1.00

> <Gold.PLP.Chemscore.Internal.Correction>
0.0239

> <Gold.Rescore>
     Score         DG    S(hbond)    S(metal)    S(lipo)     H(rot)  DE(clash)    DE(int)     intcor
     16.48     -19.27       0.77        0.00     139.30       1.98       2.28       0.51       ----

> <Gold.Chemscore.Fitness>
16.4769

> <Gold.Chemscore.DG>
-19.2733

> <Gold.Chemscore.ZeroCoef>
-5.4800

> <Gold.Chemscore.Hbond>
0.7712

> <Gold.Chemscore.Metal>
0.0000

> <Gold.Chemscore.Lipo>
139.3020

> <Gold.Chemscore.Internal_Hbond>
0.0000

> <Gold.Chemscore.DEClash>
2.2844

> <Gold.Chemscore.DEInternal>
0.5120

> <Gold.Chemscore.Rot>
1.9848

> <Gold.Chemscore.Internal.Correction>
   9.000000E+99

> <Gold.Chemscore.Hbonds>
donor molecule, donor type, donor heavy atom, donor atom, acceptor molecule, acceptor atom, score
      P1  H  7997  8009       L1     5  0.47

> <Gold.Chemscore.Hbond.Weighted>
-2.5760

> <Gold.Chemscore.Metal.Weighted>
-0.0000

> <Gold.Chemscore.Lipo.Weighted>
-16.2983

> <Gold.Chemscore.Internal_Hbond.Weighted>
0.0000

> <Gold.Chemscore.DEClash.Weighted>
2.2844

> <Gold.Chemscore.DEInternal.Weighted>
0.5120

> <Gold.Chemscore.Rot.Weighted>
5.0810

> <Gold.Chemscore.Internal.Correction.Weighted>
   9.000000E+99

> <Gold.Protein.RotatedTorsions>
[ 6907 6896 6895 6894 ] final  100.26 input  -60.11 | X-H torsion
[ 7974 7965 7964 7962 ] final  116.04 input  175.53 | X-H torsion
[ 8008 7997 7996 7995 ] final  142.74 input   59.86 | X-H torsion
[ 10167 10162 10161 10158 ] final   86.86 input  -65.29 | X-H torsion
[ 10718 10713 10712 10709 ] final -126.09 input   66.30 | X-H torsion
[ 10763 10752 10751 10750 ] final -154.37 input  -60.55 | X-H torsion
[ 11005 11000 10999 10996 ] final  152.07 input  -57.11 | X-H torsion

> <Gold.Protein.ActiveResidues>
 VAL166  LYS551  ARG553  GLY616  TRP617  ASP618  TYR619  PRO620  LYS621  CYS622 
 ASP623  PHE694  ASN695  SER759  ASP760  ASP761  ALA762  ILE779  LEU786  VAL792 
 PHE793  MET794  SER795  GLU796  ALA797  LYS798  CYS799  TRP800  GLU811  SER814 

> <Gold.Protein.RotatedAtoms>
  152.5375  134.0303  159.8021 H   0  0  0  0  0  0  0  0  0  0  0  0  # atno 6907 bound_to 6896
  151.0475  133.5645  159.2652 H   0  0  0  0  0  0  0  0  0  0  0  0  # atno 6908 bound_to 6896
  151.2592  135.0656  159.9145 H   0  0  0  0  0  0  0  0  0  0  0  0  # atno 6909 bound_to 6896
  145.1845  139.3032  143.4400 H   0  0  0  0  0  0  0  0  0  0  0  0  # atno 7974 bound_to 7965
  156.2944  140.2281  156.4778 H   0  0  0  0  0  0  0  0  0  0  0  0  # atno 8008 bound_to 7997
  154.7879  140.0456  157.1199 H   0  0  0  0  0  0  0  0  0  0  0  0  # atno 8009 bound_to 7997
  154.9680  140.3063  155.5004 H   0  0  0  0  0  0  0  0  0  0  0  0  # atno 8010 bound_to 7997
  139.8832  144.6428  150.8820 H   0  0  0  0  0  0  0  0  0  0  0  0  # atno 10167 bound_to 10162
  156.1734  130.6683  151.0210 H   0  0  0  0  0  0  0  0  0  0  0  0  # atno 10718 bound_to 10713
  154.7863  135.3191  154.7878 H   0  0  0  0  0  0  0  0  0  0  0  0  # atno 10763 bound_to 10752
  153.8577  135.6856  153.4790 H   0  0  0  0  0  0  0  0  0  0  0  0  # atno 10764 bound_to 10752
  153.1516  135.4697  154.9584 H   0  0  0  0  0  0  0  0  0  0  0  0  # atno 10765 bound_to 10752
  140.1275  134.8824  157.2157 H   0  0  0  0  0  0  0  0  0  0  0  0  # atno 11005 bound_to 11000
  146.3447  140.2037  142.8589 LP  0  0  0  0  0  0  0  0  0  0  0  0  # atno 17320 bound_to 7965
  145.0102  140.8708  143.5228 LP  0  0  0  0  0  0  0  0  0  0  0  0  # atno 17321 bound_to 7965
  140.7740  143.3569  151.1904 LP  0  0  0  0  0  0  0  0  0  0  0  0  # atno 17342 bound_to 10162
  139.7177  143.9274  152.2973 LP  0  0  0  0  0  0  0  0  0  0  0  0  # atno 17343 bound_to 10162
  157.6819  131.0836  150.7348 LP  0  0  0  0  0  0  0  0  0  0  0  0  # atno 17370 bound_to 10713
  156.7406  130.4738  149.5478 LP  0  0  0  0  0  0  0  0  0  0  0  0  # atno 17371 bound_to 10713
  140.2885  134.3267  155.7322 LP  0  0  0  0  0  0  0  0  0  0  0  0  # atno 17394 bound_to 11000
  141.2164  133.7520  156.9469 LP  0  0  0  0  0  0  0  0  0  0  0  0  # atno 17395 bound_to 11000

$$$$
