AV-unprocessed.smi:2640|AV-procd|sdf|10268|dock8
  -GOLD-   2272014283D 1   1.00000     0.00000
 Structure written by MMmdl.
 42 43  0  0  0  0  0  0  0  0  2 V2000
  146.5180  140.0013  153.7627 O   0  0  0  0  0  0  0  0  0  0  0  0
  147.3238  139.4766  152.9934 C   0  0  0  0  0  0  0  0  0  0  0  0
  146.8598  138.9133  151.6500 C   0  0  0  0  0  0  0  0  0  0  0  0
  145.5155  138.3090  151.7440 N   0  3  0  0  0  0  0  0  0  0  0  0
  145.4835  137.0105  152.4431 C   0  0  0  0  0  0  0  0  0  0  0  0
  144.2988  136.1585  151.9641 C   0  0  0  0  0  0  0  0  0  0  0  0
  144.7010  134.8018  151.6471 N   0  0  0  0  0  0  0  0  0  0  0  0
  143.9467  133.7892  151.0928 C   0  0  0  0  0  0  0  0  0  0  0  0
  144.7576  132.6972  150.9745 C   0  0  0  0  0  0  0  0  0  0  0  0
  146.0073  133.1467  151.4849 C   0  0  0  0  0  0  0  0  0  0  0  0
  145.9701  134.4074  151.8861 N   0  0  0  0  0  0  0  0  0  0  0  0
  148.6353  139.3692  153.2614 N   0  0  0  0  0  0  0  0  0  0  0  0
  149.2887  139.8166  154.4942 C   0  0  2  0  0  0  0  0  0  0  0  0
  148.4792  139.2531  155.6844 C   0  0  0  0  0  0  0  0  0  0  0  0
  149.2847  139.1563  156.9920 C   0  0  0  0  0  0  0  0  0  0  0  0
  149.7374  140.5025  157.5776 C   0  0  0  0  0  0  0  0  0  0  0  0
  150.6931  141.2864  156.6620 C   0  0  0  0  0  0  0  0  0  0  0  0
  149.9885  141.9497  155.5727 N   0  0  0  0  0  0  0  0  0  0  0  0
  149.3088  141.3615  154.5768 C   0  0  0  0  0  0  0  0  0  0  0  0
  148.7095  142.0431  153.7446 O   0  0  0  0  0  0  0  0  0  0  0  0
  146.8485  139.7210  150.9171 H   0  0  0  0  0  0  0  0  0  0  0  0
  147.5697  138.1618  151.3009 H   0  0  0  0  0  0  0  0  0  0  0  0
  144.9110  138.9556  152.2305 H   0  0  0  0  0  0  0  0  0  0  0  0
  146.4233  136.4869  152.2623 H   0  0  0  0  0  0  0  0  0  0  0  0
  145.4100  137.1817  153.5179 H   0  0  0  0  0  0  0  0  0  0  0  0
  143.5244  136.1200  152.7316 H   0  0  0  0  0  0  0  0  0  0  0  0
  143.8433  136.5997  151.0762 H   0  0  0  0  0  0  0  0  0  0  0  0
  142.9079  133.9269  150.8312 H   0  0  0  0  0  0  0  0  0  0  0  0
  144.4987  131.7254  150.5809 H   0  0  0  0  0  0  0  0  0  0  0  0
  146.9337  132.5985  151.5742 H   0  0  0  0  0  0  0  0  0  0  0  0
  149.2268  138.9240  152.5747 H   0  0  0  0  0  0  0  0  0  0  0  0
  150.3080  139.4266  154.5157 H   0  0  0  0  0  0  0  0  0  0  0  0
  147.5667  139.8301  155.8451 H   0  0  0  0  0  0  0  0  0  0  0  0
  148.1456  138.2428  155.4415 H   0  0  0  0  0  0  0  0  0  0  0  0
  148.6750  138.6441  157.7370 H   0  0  0  0  0  0  0  0  0  0  0  0
  150.1555  138.5191  156.8340 H   0  0  0  0  0  0  0  0  0  0  0  0
  148.8708  141.1149  157.8301 H   0  0  0  0  0  0  0  0  0  0  0  0
  150.2483  140.3054  158.5206 H   0  0  0  0  0  0  0  0  0  0  0  0
  151.1880  142.0645  157.2436 H   0  0  0  0  0  0  0  0  0  0  0  0
  151.4850  140.6448  156.2731 H   0  0  0  0  0  0  0  0  0  0  0  0
  149.9902  142.9593  155.5920 H   0  0  0  0  0  0  0  0  0  0  0  0
  145.1599  138.1820  150.8070 H   0  0  0  0  0  0  0  0  0  0  0  0
  1  2  2  0  0  0  0
  2  3  1  0  0  0  0
  2 12  1  0  0  0  0
  3  4  1  0  0  0  0
  3 21  1  0  0  0  0
  3 22  1  0  0  0  0
  4  5  1  0  0  0  0
  4 23  1  0  0  0  0
  4 42  1  0  0  0  0
  5  6  1  0  0  0  0
  5 24  1  0  0  0  0
  5 25  1  0  0  0  0
  6  7  1  0  0  0  0
  6 26  1  0  0  0  0
  6 27  1  0  0  0  0
  7 11  1  0  0  0  0
  7  8  1  0  0  0  0
  8  9  2  0  0  0  0
  8 28  1  0  0  0  0
  9 10  1  0  0  0  0
  9 29  1  0  0  0  0
 10 11  2  0  0  0  0
 10 30  1  0  0  0  0
 12 13  1  0  0  0  0
 12 31  1  0  0  0  0
 13 19  1  0  0  0  0
 13 14  1  0  0  0  0
 13 32  1  0  0  0  0
 14 15  1  0  0  0  0
 14 33  1  0  0  0  0
 14 34  1  0  0  0  0
 15 16  1  0  0  0  0
 15 35  1  0  0  0  0
 15 36  1  0  0  0  0
 16 17  1  0  0  0  0
 16 37  1  0  0  0  0
 16 38  1  0  0  0  0
 17 18  1  0  0  0  0
 17 39  1  0  0  0  0
 17 40  1  0  0  0  0
 18 19  1  0  0  0  0
 18 41  1  0  0  0  0
 19 20  2  0  0  0  0
M  CHG  1   4   1
M  END
> <s_m_source_file>
AV-unprocessed.smi

> <i_m_source_file_index>
2640

> <i_lp_mmshare_version>
43012

> <i_f3d_flags>
0

> <s_epik_input>
Tz1DMVtOSF1bQ0gyXVtDSDJdW0NIMl1bQ0gyXVtDQEhdMVtOSF1DKD1PKVtDSDJdW05IXVtDSDJdW0NIMl1uMltjSF1bY0hdW2NIXW4y

> <s_epik_cmdline>
J2VwaWtfcHl0aG9uJywgJy1waCcsICc3LjAnLCAnLXRuJywgJzgnLCAnLW1hJywgJzIwMCcsICctbWV0YWxfYmluZGluZycsICctaW1hZScsICc8aW5maWxlLm1hZT4nLCAnLW9tYWUnLCAnPG91dGZpbGUubWFlPic=

> <r_lp_tautomer_probability>
1

> <r_epik_Ionization_Penalty>
0.245908

> <r_epik_Ionization_Penalty_Charging>
0.245903

> <r_epik_Ionization_Penalty_Neutral>
5.38378e-06

> <r_epik_State_Penalty>
0.237496

> <r_epik_Charging_Adjusted_Penalty>
0.483398

> <i_epik_Tot_Q>
1

> <i_epik_Tot_abs_Q>
1

> <r_epik_Metal_State_Penalty>
0.237698

> <b_epik_Metal_Only>
0

> <s_lp_Force_Field>
OPLS_2005

> <r_lp_Energy>
8.65948

> <b_lp_Chiralities_Consistent>
1

> <s_lp_Variant>
AV-unprocessed.smi:2640-1

> <Gold.Version>
5.8.1

> <Gold.Id.Protein>
6NUR|6NUR_protein|mol2

> <Gold.PLP.Fitness>
53.5024

> <Gold.PLP.PLP>
-35.4851

> <Gold.PLP.part.hbond>
-4.1955

> <Gold.PLP.part.metal>
0.0000

> <Gold.PLP.part.buried>
-3.3887

> <Gold.PLP.part.nonpolar>
-28.4566

> <Gold.PLP.part.repulsive>
0.8548

> <Gold.PLP.ligand.clash>
0.0000

> <Gold.PLP.ligand.torsion>
1.0059

> <Gold.PLP.Chemscore.Hbond>
4.6547

> <Gold.PLP.Chemscore.CHOScore>
2.0000

> <Gold.PLP.Chemscore.Metal>
0.0000

> <Gold.Chemscore.Hbonds>
donor molecule, donor type, donor heavy atom, donor atom, acceptor molecule, acceptor atom, score
      L1  H     4    23       P1 10175  2.00
      L1  H     4    42       P1 10171  0.85
      L1  H    12    31       P1  7957  0.27
      L1  H    18    41       P1  8028  0.86
      P1  H  8011  8017       L1    20  0.42
      L1  C     8    28       P1 10186  1.00

> <Gold.PLP.Chemscore.Internal.Correction>
0.0650

> <Gold.Rescore>
     Score         DG    S(hbond)    S(metal)    S(lipo)     H(rot)  DE(clash)    DE(int)     intcor
     13.47     -18.39       3.62        0.00      60.47       2.45       0.29       4.63       ----

> <Gold.Chemscore.Fitness>
13.4708

> <Gold.Chemscore.DG>
-18.3877

> <Gold.Chemscore.ZeroCoef>
-5.4800

> <Gold.Chemscore.Hbond>
3.6212

> <Gold.Chemscore.Metal>
0.0000

> <Gold.Chemscore.Lipo>
60.4704

> <Gold.Chemscore.Internal_Hbond>
0.0000

> <Gold.Chemscore.DEClash>
0.2899

> <Gold.Chemscore.DEInternal>
4.6270

> <Gold.Chemscore.Rot>
2.4462

> <Gold.Chemscore.Internal.Correction>
   9.000000E+99

> <Gold.Chemscore.Hbonds>
donor molecule, donor type, donor heavy atom, donor atom, acceptor molecule, acceptor atom, score
      L1  H     4    23       P1 10175  0.98
      L1  H     4    42       P1 10171  0.83
      L1  H    12    31       P1  7957  0.25
      L1  H    18    41       P1  8028  0.79
      P1  H  8011  8017       L1    20  0.33

> <Gold.Chemscore.Hbond.Weighted>
-12.0949

> <Gold.Chemscore.Metal.Weighted>
-0.0000

> <Gold.Chemscore.Lipo.Weighted>
-7.0750

> <Gold.Chemscore.Internal_Hbond.Weighted>
0.0000

> <Gold.Chemscore.DEClash.Weighted>
0.2899

> <Gold.Chemscore.DEInternal.Weighted>
4.6270

> <Gold.Chemscore.Rot.Weighted>
6.2623

> <Gold.Chemscore.Internal.Correction.Weighted>
   9.000000E+99

> <Gold.Protein.RotatedTorsions>
[ 6907 6896 6895 6894 ] final  -80.83 input  -60.11 | X-H torsion
[ 7974 7965 7964 7962 ] final  124.17 input  175.53 | X-H torsion
[ 8008 7997 7996 7995 ] final  -71.88 input   59.86 | X-H torsion
[ 10167 10162 10161 10158 ] final    7.16 input  -65.29 | X-H torsion
[ 10718 10713 10712 10709 ] final -126.90 input   66.30 | X-H torsion
[ 10763 10752 10751 10750 ] final  -33.68 input  -60.55 | X-H torsion
[ 11005 11000 10999 10996 ] final -137.45 input  -57.11 | X-H torsion

> <Gold.Protein.ActiveResidues>
 VAL166  LYS551  ARG553  GLY616  TRP617  ASP618  TYR619  PRO620  LYS621  CYS622 
 ASP623  PHE694  ASN695  SER759  ASP760  ASP761  ALA762  ILE779  LEU786  VAL792 
 PHE793  MET794  SER795  GLU796  ALA797  LYS798  CYS799  TRP800  GLU811  SER814 

> <Gold.Protein.RotatedAtoms>
  150.6922  134.3909  159.5075 H   0  0  0  0  0  0  0  0  0  0  0  0  # atno 6907 bound_to 6896
  152.1698  134.8841  160.0544 H   0  0  0  0  0  0  0  0  0  0  0  0  # atno 6908 bound_to 6896
  151.9871  133.3743  159.4167 H   0  0  0  0  0  0  0  0  0  0  0  0  # atno 6909 bound_to 6896
  145.0875  139.3611  143.4877 H   0  0  0  0  0  0  0  0  0  0  0  0  # atno 7974 bound_to 7965
  154.5123  140.0807  156.8013 H   0  0  0  0  0  0  0  0  0  0  0  0  # atno 8008 bound_to 7997
  155.3758  140.3425  155.4226 H   0  0  0  0  0  0  0  0  0  0  0  0  # atno 8009 bound_to 7997
  156.1587  140.1581  156.8636 H   0  0  0  0  0  0  0  0  0  0  0  0  # atno 8010 bound_to 7997
  140.6387  143.7825  150.7397 H   0  0  0  0  0  0  0  0  0  0  0  0  # atno 10167 bound_to 10162
  156.1807  130.6730  151.0301 H   0  0  0  0  0  0  0  0  0  0  0  0  # atno 10718 bound_to 10713
  153.8341  135.6863  153.4811 H   0  0  0  0  0  0  0  0  0  0  0  0  # atno 10763 bound_to 10752
  153.1493  135.4625  154.9611 H   0  0  0  0  0  0  0  0  0  0  0  0  # atno 10764 bound_to 10752
  154.7873  135.3289  154.7802 H   0  0  0  0  0  0  0  0  0  0  0  0  # atno 10765 bound_to 10752
  140.8710  134.2051  157.4651 H   0  0  0  0  0  0  0  0  0  0  0  0  # atno 11005 bound_to 11000
  146.3531  140.0694  142.8624 LP  0  0  0  0  0  0  0  0  0  0  0  0  # atno 17320 bound_to 7965
  145.1105  140.9402  143.4659 LP  0  0  0  0  0  0  0  0  0  0  0  0  # atno 17321 bound_to 7965
  140.1452  143.4406  152.2168 LP  0  0  0  0  0  0  0  0  0  0  0  0  # atno 17342 bound_to 10162
  139.5597  144.7397  151.4192 LP  0  0  0  0  0  0  0  0  0  0  0  0  # atno 17343 bound_to 10162
  157.6866  131.0823  150.7225 LP  0  0  0  0  0  0  0  0  0  0  0  0  # atno 17370 bound_to 10713
  156.7282  130.4701  149.5506 LP  0  0  0  0  0  0  0  0  0  0  0  0  # atno 17371 bound_to 10713
  139.8712  134.9774  156.4957 LP  0  0  0  0  0  0  0  0  0  0  0  0  # atno 17394 bound_to 11000
  140.8573  133.8086  155.9229 LP  0  0  0  0  0  0  0  0  0  0  0  0  # atno 17395 bound_to 11000

$$$$
