AV-unprocessed.smi:2670|AV-procd|sdf|10345|dock8
  -GOLD-   2272014373D 1   1.00000     0.00000
 Structure written by MMmdl.
 40 41  0  0  0  0  0  0  0  0  2 V2000
  154.1617  140.8194  160.7393 C   0  0  0  0  0  0  0  0  0  0  0  0
  153.2961  141.7985  160.0028 C   0  0  0  0  0  0  0  0  0  0  0  0
  153.0428  143.1625  160.3183 C   0  0  0  0  0  0  0  0  0  0  0  0
  152.1935  143.5853  159.3349 C   0  0  0  0  0  0  0  0  0  0  0  0
  151.5708  144.9268  159.1196 C   0  0  0  0  0  0  0  0  0  0  0  0
  151.9807  142.5036  158.4956 N   0  0  0  0  0  0  0  0  0  0  0  0
  151.1516  142.4082  157.3024 C   0  0  0  0  0  0  0  0  0  0  0  0
  150.9142  140.9521  156.8961 C   0  0  0  0  0  0  0  0  0  0  0  0
  150.5354  140.1436  157.7417 O   0  0  0  0  0  0  0  0  0  0  0  0
  151.1730  140.6663  155.6066 N   0  0  0  0  0  0  0  0  0  0  0  0
  151.0894  139.4212  154.8242 C   0  0  0  0  0  0  0  0  0  0  0  0
  152.5154  139.2125  154.2554 C   0  0  0  0  0  0  0  0  0  0  0  0
  153.4125  140.0115  154.6060 O   0  0  0  0  0  0  0  0  0  0  0  0
  152.6855  138.2833  153.4336 O   0  5  0  0  0  0  0  0  0  0  0  0
  150.6318  138.1421  155.6005 C   0  0  0  0  0  0  0  0  0  0  0  0
  149.1353  138.1296  155.9729 C   0  0  0  0  0  0  0  0  0  0  0  0
  148.2478  138.3689  154.7473 C   0  0  0  0  0  0  0  0  0  0  0  0
  148.6342  139.6792  154.0536 C   0  0  0  0  0  0  0  0  0  0  0  0
  150.1145  139.6703  153.6366 C   0  0  0  0  0  0  0  0  0  0  0  0
  152.6538  141.4092  158.9144 N   0  0  0  0  0  0  0  0  0  0  0  0
  154.6948  141.3028  161.5581 H   0  0  0  0  0  0  0  0  0  0  0  0
  154.9050  140.3752  160.0767 H   0  0  0  0  0  0  0  0  0  0  0  0
  153.5655  140.0113  161.1634 H   0  0  0  0  0  0  0  0  0  0  0  0
  153.4269  143.7438  161.1434 H   0  0  0  0  0  0  0  0  0  0  0  0
  151.6393  145.5365  160.0208 H   0  0  0  0  0  0  0  0  0  0  0  0
  150.5167  144.8374  158.8571 H   0  0  0  0  0  0  0  0  0  0  0  0
  152.0769  145.4622  158.3162 H   0  0  0  0  0  0  0  0  0  0  0  0
  150.1886  142.8876  157.4852 H   0  0  0  0  0  0  0  0  0  0  0  0
  151.6334  142.9657  156.4980 H   0  0  0  0  0  0  0  0  0  0  0  0
  151.5026  141.4503  155.0629 H   0  0  0  0  0  0  0  0  0  0  0  0
  150.8112  137.2689  154.9707 H   0  0  0  0  0  0  0  0  0  0  0  0
  151.2390  137.9719  156.4897 H   0  0  0  0  0  0  0  0  0  0  0  0
  148.8804  137.1741  156.4316 H   0  0  0  0  0  0  0  0  0  0  0  0
  148.9200  138.8901  156.7220 H   0  0  0  0  0  0  0  0  0  0  0  0
  148.3496  137.5371  154.0492 H   0  0  0  0  0  0  0  0  0  0  0  0
  147.1997  138.3990  155.0463 H   0  0  0  0  0  0  0  0  0  0  0  0
  148.0051  139.8317  153.1763 H   0  0  0  0  0  0  0  0  0  0  0  0
  148.4420  140.5204  154.7207 H   0  0  0  0  0  0  0  0  0  0  0  0
  150.3433  140.6151  153.1401 H   0  0  0  0  0  0  0  0  0  0  0  0
  150.2506  138.8951  152.8800 H   0  0  0  0  0  0  0  0  0  0  0  0
  1  2  1  0  0  0  0
  1 21  1  0  0  0  0
  1 22  1  0  0  0  0
  1 23  1  0  0  0  0
  2 20  2  0  0  0  0
  2  3  1  0  0  0  0
  3  4  2  0  0  0  0
  3 24  1  0  0  0  0
  4  5  1  0  0  0  0
  4  6  1  0  0  0  0
  5 25  1  0  0  0  0
  5 26  1  0  0  0  0
  5 27  1  0  0  0  0
  6  7  1  0  0  0  0
  6 20  1  0  0  0  0
  7  8  1  0  0  0  0
  7 28  1  0  0  0  0
  7 29  1  0  0  0  0
  8  9  2  0  0  0  0
  8 10  1  0  0  0  0
 10 11  1  0  0  0  0
 10 30  1  0  0  0  0
 11 19  1  0  0  0  0
 11 12  1  0  0  0  0
 11 15  1  0  0  0  0
 12 13  2  0  0  0  0
 12 14  1  0  0  0  0
 15 16  1  0  0  0  0
 15 31  1  0  0  0  0
 15 32  1  0  0  0  0
 16 17  1  0  0  0  0
 16 33  1  0  0  0  0
 16 34  1  0  0  0  0
 17 18  1  0  0  0  0
 17 35  1  0  0  0  0
 17 36  1  0  0  0  0
 18 19  1  0  0  0  0
 18 37  1  0  0  0  0
 18 38  1  0  0  0  0
 19 39  1  0  0  0  0
 19 40  1  0  0  0  0
M  CHG  1  14  -1
M  END
> <s_m_source_file>
AV-unprocessed.smi

> <i_m_source_file_index>
2670

> <i_lp_mmshare_version>
43012

> <i_f3d_flags>
0

> <s_epik_input>
W0NIM11jMVtjSF1jKFtDSDNdKW4objEpW0NIMl1DKD1PKVtOSF1DMihDKD1PKVtPSF0pW0NIMl1bQ0gyXVtDSDJdW0NIMl1bQ0gyXTI=

> <s_epik_cmdline>
J2VwaWtfcHl0aG9uJywgJy1waCcsICc3LjAnLCAnLXRuJywgJzgnLCAnLW1hJywgJzIwMCcsICctbWV0YWxfYmluZGluZycsICctaW1hZScsICc8aW5maWxlLm1hZT4nLCAnLW9tYWUnLCAnPG91dGZpbGUubWFlPic=

> <r_lp_tautomer_probability>
1

> <r_epik_Ionization_Penalty>
0.000789686

> <r_epik_Ionization_Penalty_Charging>
0.000323848

> <r_epik_Ionization_Penalty_Neutral>
0.000465838

> <r_epik_State_Penalty>
-0

> <r_epik_Charging_Adjusted_Penalty>
0.000323848

> <i_epik_Tot_Q>
-1

> <i_epik_Tot_abs_Q>
1

> <r_epik_Metal_State_Penalty>
-0

> <b_epik_Metal_Only>
0

> <s_lp_Force_Field>
OPLS_2005

> <r_lp_Energy>
8.13654

> <b_lp_Chiralities_Consistent>
1

> <s_lp_Variant>
AV-unprocessed.smi:2670-1

> <Gold.Version>
5.8.1

> <Gold.Id.Protein>
6NUR|6NUR_protein|mol2

> <Gold.PLP.Fitness>
49.1035

> <Gold.PLP.PLP>
-38.3846

> <Gold.PLP.part.hbond>
-2.0000

> <Gold.PLP.part.metal>
0.0000

> <Gold.PLP.part.buried>
-5.8679

> <Gold.PLP.part.nonpolar>
-32.1702

> <Gold.PLP.part.repulsive>
0.2743

> <Gold.PLP.ligand.clash>
0.0000

> <Gold.PLP.ligand.torsion>
0.3120

> <Gold.PLP.Chemscore.Hbond>
3.7600

> <Gold.PLP.Chemscore.CHOScore>
0.0000

> <Gold.PLP.Chemscore.Metal>
0.0000

> <Gold.Chemscore.Hbonds>
donor molecule, donor type, donor heavy atom, donor atom, acceptor molecule, acceptor atom, score
      P1  H  7997  8008       L1    13  1.12

> <Gold.PLP.Chemscore.Internal.Correction>
0.0628

> <Gold.Rescore>
     Score         DG    S(hbond)    S(metal)    S(lipo)     H(rot)  DE(clash)    DE(int)     intcor
     14.40     -17.47       1.90        0.00      90.20       1.91       0.00       3.07       ----

> <Gold.Chemscore.Fitness>
14.3994

> <Gold.Chemscore.DG>
-17.4719

> <Gold.Chemscore.ZeroCoef>
-5.4800

> <Gold.Chemscore.Hbond>
1.8983

> <Gold.Chemscore.Metal>
0.0000

> <Gold.Chemscore.Lipo>
90.2045

> <Gold.Chemscore.Internal_Hbond>
0.0000

> <Gold.Chemscore.DEClash>
0.0015

> <Gold.Chemscore.DEInternal>
3.0711

> <Gold.Chemscore.Rot>
1.9149

> <Gold.Chemscore.Internal.Correction>
   9.000000E+99

> <Gold.Chemscore.Hbonds>
donor molecule, donor type, donor heavy atom, donor atom, acceptor molecule, acceptor atom, score
      P1  H  7997  8008       L1    13  0.56

> <Gold.Chemscore.Hbond.Weighted>
-6.3403

> <Gold.Chemscore.Metal.Weighted>
-0.0000

> <Gold.Chemscore.Lipo.Weighted>
-10.5539

> <Gold.Chemscore.Internal_Hbond.Weighted>
0.0000

> <Gold.Chemscore.DEClash.Weighted>
0.0015

> <Gold.Chemscore.DEInternal.Weighted>
3.0711

> <Gold.Chemscore.Rot.Weighted>
4.9023

> <Gold.Chemscore.Internal.Correction.Weighted>
   9.000000E+99

> <Gold.Protein.RotatedTorsions>
[ 6907 6896 6895 6894 ] final  -38.52 input  -60.11 | X-H torsion
[ 7974 7965 7964 7962 ] final   58.33 input  175.53 | X-H torsion
[ 8008 7997 7996 7995 ] final  -38.92 input   59.86 | X-H torsion
[ 10167 10162 10161 10158 ] final   42.40 input  -65.29 | X-H torsion
[ 10718 10713 10712 10709 ] final  161.35 input   66.30 | X-H torsion
[ 10763 10752 10751 10750 ] final  157.86 input  -60.55 | X-H torsion
[ 11005 11000 10999 10996 ] final -143.27 input  -57.11 | X-H torsion

> <Gold.Protein.ActiveResidues>
 VAL166  LYS551  ARG553  GLY616  TRP617  ASP618  TYR619  PRO620  LYS621  CYS622 
 ASP623  PHE694  ASN695  SER759  ASP760  ASP761  ALA762  ILE779  LEU786  VAL792 
 PHE793  MET794  SER795  GLU796  ALA797  LYS798  CYS799  TRP800  GLU811  SER814 

> <Gold.Protein.RotatedAtoms>
  151.0014  134.9325  159.7955 H   0  0  0  0  0  0  0  0  0  0  0  0  # atno 6907 bound_to 6896
  152.5279  134.3149  159.9137 H   0  0  0  0  0  0  0  0  0  0  0  0  # atno 6908 bound_to 6896
  151.3154  133.4021  159.2684 H   0  0  0  0  0  0  0  0  0  0  0  0  # atno 6909 bound_to 6896
  145.9193  139.3717  143.0488 H   0  0  0  0  0  0  0  0  0  0  0  0  # atno 7974 bound_to 7965
  154.4030  140.1565  156.2778 H   0  0  0  0  0  0  0  0  0  0  0  0  # atno 8008 bound_to 7997
  155.8896  140.3439  155.5925 H   0  0  0  0  0  0  0  0  0  0  0  0  # atno 8009 bound_to 7997
  155.7573  140.0813  157.2163 H   0  0  0  0  0  0  0  0  0  0  0  0  # atno 8010 bound_to 7997
  140.3547  144.2305  150.6142 H   0  0  0  0  0  0  0  0  0  0  0  0  # atno 10167 bound_to 10162
  157.1377  131.0532  151.2342 H   0  0  0  0  0  0  0  0  0  0  0  0  # atno 10718 bound_to 10713
  154.2070  135.2788  155.2971 H   0  0  0  0  0  0  0  0  0  0  0  0  # atno 10763 bound_to 10752
  154.5809  135.5589  153.7188 H   0  0  0  0  0  0  0  0  0  0  0  0  # atno 10764 bound_to 10752
  153.0073  135.6344  154.2208 H   0  0  0  0  0  0  0  0  0  0  0  0  # atno 10765 bound_to 10752
  140.8141  134.2709  157.4928 H   0  0  0  0  0  0  0  0  0  0  0  0  # atno 11005 bound_to 11000
  145.8570  140.9497  143.0720 LP  0  0  0  0  0  0  0  0  0  0  0  0  # atno 17320 bound_to 7965
  144.6751  140.0481  143.7479 LP  0  0  0  0  0  0  0  0  0  0  0  0  # atno 17321 bound_to 7965
  140.5185  143.2272  151.8426 LP  0  0  0  0  0  0  0  0  0  0  0  0  # atno 17342 bound_to 10162
  139.4821  144.4865  151.9240 LP  0  0  0  0  0  0  0  0  0  0  0  0  # atno 17343 bound_to 10162
  157.4336  130.7504  149.7010 LP  0  0  0  0  0  0  0  0  0  0  0  0  # atno 17370 bound_to 10713
  155.9795  130.4039  150.3584 LP  0  0  0  0  0  0  0  0  0  0  0  0  # atno 17371 bound_to 10713
  139.8712  134.9499  156.4041 LP  0  0  0  0  0  0  0  0  0  0  0  0  # atno 17394 bound_to 11000
  140.9167  133.7674  155.9856 LP  0  0  0  0  0  0  0  0  0  0  0  0  # atno 17395 bound_to 11000

$$$$
