AV-unprocessed.smi:798|AV-procd|sdf|3783|dock3
  -GOLD-   22720 1213D 1   1.00000     0.00000
 Structure written by MMmdl.
 33 35  0  0  0  0  0  0  0  0  2 V2000
  151.4784  139.3158  158.6938 O   0  0  0  0  0  0  0  0  0  0  0  0
  152.5673  139.8058  158.3858 C   0  0  0  0  0  0  0  0  0  0  0  0
  153.6182  139.1481  157.8455 N   0  5  0  0  0  0  0  0  0  0  0  0
  153.9192  137.9071  158.2619 C   0  0  0  0  0  0  0  0  0  0  0  0
  153.2591  137.3066  159.2652 N   0  0  0  0  0  0  0  0  0  0  0  0
  153.7286  136.0294  159.5406 N   0  0  0  0  0  0  0  0  0  0  0  0
  154.7429  135.7018  158.7403 C   0  0  0  0  0  0  0  0  0  0  0  0
  155.2172  136.9237  157.5791 S   0  0  0  0  0  0  0  0  0  0  0  0
  152.7971  141.1108  158.5907 N   0  0  0  0  0  0  0  0  0  0  0  0
  151.8556  142.0767  159.1608 C   0  0  2  0  0  0  0  0  0  0  0  0
  151.6598  143.2635  158.1925 C   0  0  1  0  0  0  0  0  0  0  0  0
  150.4039  144.0510  158.6085 C   0  0  0  0  0  0  0  0  0  0  0  0
  150.8608  144.7459  159.9055 C   0  0  0  0  0  0  0  0  0  0  0  0
  152.3188  144.2677  160.0570 C   0  0  2  0  0  0  0  0  0  0  0  0
  152.7736  144.2187  158.6039 C   0  0  0  0  0  0  0  0  0  0  0  0
  152.3313  142.7754  160.4715 C   0  0  2  0  0  0  0  0  0  0  0  0
  153.6923  142.3096  161.0382 C   0  0  0  0  0  0  0  0  0  0  0  0
  153.7487  140.8996  161.0971 O   0  0  0  0  0  0  0  0  0  0  0  0
  155.2163  134.7362  158.8364 H   0  0  0  0  0  0  0  0  0  0  0  0
  153.7038  141.4653  158.3242 H   0  0  0  0  0  0  0  0  0  0  0  0
  150.8969  141.5797  159.3218 H   0  0  0  0  0  0  0  0  0  0  0  0
  151.6595  142.9815  157.1388 H   0  0  0  0  0  0  0  0  0  0  0  0
  150.1406  144.7898  157.8506 H   0  0  0  0  0  0  0  0  0  0  0  0
  149.5378  143.4061  158.7613 H   0  0  0  0  0  0  0  0  0  0  0  0
  150.8187  145.8299  159.7923 H   0  0  0  0  0  0  0  0  0  0  0  0
  150.2431  144.4769  160.7631 H   0  0  0  0  0  0  0  0  0  0  0  0
  152.9146  144.9155  160.7005 H   0  0  0  0  0  0  0  0  0  0  0  0
  153.7736  143.8035  158.4713 H   0  0  0  0  0  0  0  0  0  0  0  0
  152.7215  145.1860  158.1011 H   0  0  0  0  0  0  0  0  0  0  0  0
  151.5844  142.6071  161.2492 H   0  0  0  0  0  0  0  0  0  0  0  0
  154.5079  142.6430  160.3967 H   0  0  0  0  0  0  0  0  0  0  0  0
  153.8739  142.7164  162.0332 H   0  0  0  0  0  0  0  0  0  0  0  0
  154.5906  140.6218  160.7697 H   0  0  0  0  0  0  0  0  0  0  0  0
  1  2  2  0  0  0  0
  2  3  1  0  0  0  0
  2  9  1  0  0  0  0
  3  4  1  0  0  0  0
  4  8  1  0  0  0  0
  4  5  2  0  0  0  0
  5  6  1  0  0  0  0
  6  7  2  0  0  0  0
  7  8  1  0  0  0  0
  7 19  1  0  0  0  0
  9 10  1  0  0  0  0
  9 20  1  0  0  0  0
 10 16  1  0  0  0  0
 10 11  1  0  0  0  0
 10 21  1  0  0  0  0
 11 15  1  0  0  0  0
 11 12  1  0  0  0  0
 11 22  1  0  0  0  0
 12 13  1  0  0  0  0
 12 23  1  0  0  0  0
 12 24  1  0  0  0  0
 13 14  1  0  0  0  0
 13 25  1  0  0  0  0
 13 26  1  0  0  0  0
 14 15  1  0  0  0  0
 14 16  1  0  0  0  0
 14 27  1  0  0  0  0
 15 28  1  0  0  0  0
 15 29  1  0  0  0  0
 16 17  1  0  0  0  0
 16 30  1  0  0  0  0
 17 18  1  0  0  0  0
 17 31  1  0  0  0  0
 17 32  1  0  0  0  0
 18 33  1  0  0  0  0
M  CHG  1   3  -1
M  END
> <s_m_source_file>
AV-unprocessed.smi

> <i_m_source_file_index>
798

> <i_lp_mmshare_version>
43012

> <i_f3d_flags>
0

> <s_epik_input>
W0NIMl0xW0NIMl1bQ0BASF0oW0NIMl0yKVtDQEBIXShbQ0gyXVtPSF0pW0NAQEhdKFtDQEhdMTIpW05IXUMoPU8pW05IXWMzbm5bY0hdczM=

> <s_epik_cmdline>
J2VwaWtfcHl0aG9uJywgJy1waCcsICc3LjAnLCAnLXRuJywgJzgnLCAnLW1hJywgJzIwMCcsICctbWV0YWxfYmluZGluZycsICctaW1hZScsICc8aW5maWxlLm1hZT4nLCAnLW9tYWUnLCAnPG91dGZpbGUubWFlPic=

> <r_lp_tautomer_probability>
1

> <r_epik_Ionization_Penalty>
4.53732

> <r_epik_Ionization_Penalty_Charging>
4.48632

> <r_epik_Ionization_Penalty_Neutral>
0.0510007

> <r_epik_State_Penalty>
4.48602

> <r_epik_Charging_Adjusted_Penalty>
8.97234

> <i_epik_Tot_Q>
-1

> <i_epik_Tot_abs_Q>
1

> <r_epik_Metal_State_Penalty>
0.812492

> <b_epik_Metal_Only>
1

> <s_lp_Force_Field>
OPLS_2005

> <r_lp_Energy>
47.4456

> <b_lp_Chiralities_Consistent>
1

> <s_lp_Variant>
AV-unprocessed.smi:798-15

> <Gold.Version>
5.8.1

> <Gold.Id.Protein>
6NUR|6NUR_protein|mol2

> <Gold.PLP.Fitness>
40.5844

> <Gold.PLP.PLP>
-32.3462

> <Gold.PLP.part.hbond>
-2.0000

> <Gold.PLP.part.metal>
0.0000

> <Gold.PLP.part.buried>
-4.8892

> <Gold.PLP.part.nonpolar>
-24.7797

> <Gold.PLP.part.repulsive>
0.0947

> <Gold.PLP.ligand.clash>
0.0000

> <Gold.PLP.ligand.torsion>
0.3914

> <Gold.PLP.Chemscore.Hbond>
3.0000

> <Gold.PLP.Chemscore.CHOScore>
0.0000

> <Gold.PLP.Chemscore.Metal>
0.0000

> <Gold.Chemscore.Hbonds>
donor molecule, donor type, donor heavy atom, donor atom, acceptor molecule, acceptor atom, score
      P1  H  6896  6909       L1     6  1.00
      P1  H  7997  8008       L1     3  2.00

> <Gold.PLP.Chemscore.Internal.Correction>
0.0210

> <Gold.Rescore>
     Score         DG    S(hbond)    S(metal)    S(lipo)     H(rot)  DE(clash)    DE(int)     intcor
     13.92     -17.21       1.76        0.00      91.95       1.92       0.00       3.28       ----

> <Gold.Chemscore.Fitness>
13.9230

> <Gold.Chemscore.DG>
-17.2094

> <Gold.Chemscore.ZeroCoef>
-5.4800

> <Gold.Chemscore.Hbond>
1.7628

> <Gold.Chemscore.Metal>
0.0000

> <Gold.Chemscore.Lipo>
91.9536

> <Gold.Chemscore.Internal_Hbond>
0.0000

> <Gold.Chemscore.DEClash>
0.0015

> <Gold.Chemscore.DEInternal>
3.2850

> <Gold.Chemscore.Rot>
1.9207

> <Gold.Chemscore.Internal.Correction>
   9.000000E+99

> <Gold.Chemscore.Hbonds>
donor molecule, donor type, donor heavy atom, donor atom, acceptor molecule, acceptor atom, score
      P1  H  6896  6909       L1     6  0.84
      P1  H  7997  8008       L1     3  0.89

> <Gold.Chemscore.Hbond.Weighted>
-5.8877

> <Gold.Chemscore.Metal.Weighted>
-0.0000

> <Gold.Chemscore.Lipo.Weighted>
-10.7586

> <Gold.Chemscore.Internal_Hbond.Weighted>
0.0000

> <Gold.Chemscore.DEClash.Weighted>
0.0015

> <Gold.Chemscore.DEInternal.Weighted>
3.2850

> <Gold.Chemscore.Rot.Weighted>
4.9169

> <Gold.Chemscore.Internal.Correction.Weighted>
   9.000000E+99

> <Gold.Protein.RotatedTorsions>
[ 6907 6896 6895 6894 ] final -171.75 input  -60.11 | X-H torsion
[ 7974 7965 7964 7962 ] final   12.59 input  175.53 | X-H torsion
[ 8008 7997 7996 7995 ] final  -94.32 input   59.86 | X-H torsion
[ 10167 10162 10161 10158 ] final  146.09 input  -65.29 | X-H torsion
[ 10718 10713 10712 10709 ] final   -5.63 input   66.30 | X-H torsion
[ 10763 10752 10751 10750 ] final  134.16 input  -60.55 | X-H torsion
[ 11005 11000 10999 10996 ] final -146.44 input  -57.11 | X-H torsion

> <Gold.Protein.ActiveResidues>
 VAL166  LYS551  ARG553  GLY616  TRP617  ASP618  TYR619  PRO620  LYS621  CYS622 
 ASP623  PHE694  ASN695  SER759  ASP760  ASP761  ALA762  ILE779  LEU786  VAL792 
 PHE793  MET794  SER795  GLU796  ALA797  LYS798  CYS799  TRP800  GLU811  SER814 

> <Gold.Protein.RotatedAtoms>
  151.5288  133.3453  159.2914 H   0  0  0  0  0  0  0  0  0  0  0  0  # atno 6907 bound_to 6896
  150.8606  134.7960  159.7091 H   0  0  0  0  0  0  0  0  0  0  0  0  # atno 6908 bound_to 6896
  152.4627  134.5156  159.9819 H   0  0  0  0  0  0  0  0  0  0  0  0  # atno 6909 bound_to 6896
  146.2348  139.9314  142.8496 H   0  0  0  0  0  0  0  0  0  0  0  0  # atno 7974 bound_to 7965
  154.7469  140.0490  157.0860 H   0  0  0  0  0  0  0  0  0  0  0  0  # atno 8008 bound_to 7997
  155.0107  140.3135  155.4811 H   0  0  0  0  0  0  0  0  0  0  0  0  # atno 8009 bound_to 7997
  156.2877  140.2185  156.5221 H   0  0  0  0  0  0  0  0  0  0  0  0  # atno 8010 bound_to 7997
  139.4913  144.5854  151.6788 H   0  0  0  0  0  0  0  0  0  0  0  0  # atno 10167 bound_to 10162
  156.7438  130.5218  149.5818 H   0  0  0  0  0  0  0  0  0  0  0  0  # atno 10718 bound_to 10713
  153.8191  135.3118  155.3408 H   0  0  0  0  0  0  0  0  0  0  0  0  # atno 10763 bound_to 10752
  154.8020  135.4721  154.0302 H   0  0  0  0  0  0  0  0  0  0  0  0  # atno 10764 bound_to 10752
  153.1705  135.6877  153.8704 H   0  0  0  0  0  0  0  0  0  0  0  0  # atno 10765 bound_to 10752
  140.7820  134.3068  157.5042 H   0  0  0  0  0  0  0  0  0  0  0  0  # atno 11005 bound_to 11000
  145.2040  140.9867  143.4139 LP  0  0  0  0  0  0  0  0  0  0  0  0  # atno 17320 bound_to 7965
  144.9748  139.3843  143.6291 LP  0  0  0  0  0  0  0  0  0  0  0  0  # atno 17321 bound_to 7965
  140.5469  144.0488  150.6111 LP  0  0  0  0  0  0  0  0  0  0  0  0  # atno 17342 bound_to 10162
  140.3529  143.2952  152.0467 LP  0  0  0  0  0  0  0  0  0  0  0  0  # atno 17343 bound_to 10162
  156.1447  130.6268  151.0515 LP  0  0  0  0  0  0  0  0  0  0  0  0  # atno 17370 bound_to 10713
  157.6807  131.0839  150.7377 LP  0  0  0  0  0  0  0  0  0  0  0  0  # atno 17371 bound_to 10713
  139.8741  134.9324  156.3553 LP  0  0  0  0  0  0  0  0  0  0  0  0  # atno 17394 bound_to 11000
  140.9473  133.7474  156.0225 LP  0  0  0  0  0  0  0  0  0  0  0  0  # atno 17395 bound_to 11000

$$$$
