#       Name:                AV-unprocessed.smi:2966
#       Creating user name   scv26
#       Creation time:       Fri Mar 27 16:23:16 2020


#       File generated by GOLD software.
#

@<TRIPOS>MOLECULE
AV-unprocessed.smi:2966
    45    47     1
SMALL
NO_CHARGES


@<TRIPOS>ATOM
      1 ****        -1.1995   4.0347   1.9818 C.3            1 S1                 0.0000
      2 ****        -0.9186   2.6647   1.7571 O.3            1 S1                 0.0000
      3 ****        -1.2545   2.2488   0.4434 C.3            1 S1                 0.0000
      4 ****        -0.9113   0.7642   0.2607 C.3            1 S1                 0.0000
      5 ****         0.5140   0.4885   0.4927 N.pl3          1 S1                 0.0000
      6 ****         1.5688   0.5343  -0.3666 C.2            1 S1                 0.0000
      7 ****         1.5046   0.9444  -2.0793 S.3            1 S1                 0.0000
      8 ****         1.7996  -0.6324  -2.9275 C.3            1 S1                 0.0000
      9 ****         0.8240  -1.7224  -2.4868 C.2            1 S1                 0.0000
     10 ****         1.2279  -2.6730  -1.8175 O.2            1 S1                 0.0000
     11 ****        -0.4569  -1.5562  -2.8477 N.am           1 S1                 0.0000
     12 ****        -1.5351  -2.4233  -2.5006 C.3            1 S1                 0.0000
     13 ****        -2.7023  -2.5110  -3.4595 C.3            1 S1                 0.0000
     14 ****        -2.8627  -1.7861  -2.1517 C.3            1 S1                 0.0000
     15 ****         2.6854   0.1759   0.3233 N.pl3          1 S1                 1.0000
     16 ****         2.3440  -0.0924   1.6499 C.ar           1 S1                 0.0000
     17 ****         3.1288  -0.4853   2.7297 C.ar           1 S1                 0.0000
     18 ****         2.4643  -0.6751   3.9591 C.ar           1 S1                 0.0000
     19 ****         1.0740  -0.4746   4.0812 C.ar           1 S1                 0.0000
     20 ****         0.2880  -0.0777   2.9794 C.ar           1 S1                 0.0000
     21 ****         0.9515   0.1072   1.7667 C.ar           1 S1                 0.0000
     22 ****        -0.9206   4.3034   3.0006 H              1 S1                 0.0000
     23 ****        -2.2624   4.2450   1.8564 H              1 S1                 0.0000
     24 ****        -0.6335   4.6703   1.2996 H              1 S1                 0.0000
     25 ****        -2.3189   2.4054   0.2624 H              1 S1                 0.0000
     26 ****        -0.7079   2.8469  -0.2877 H              1 S1                 0.0000
     27 ****        -1.5121   0.1372   0.9194 H              1 S1                 0.0000
     28 ****        -1.1478   0.4510  -0.7560 H              1 S1                 0.0000
     29 ****         1.7175  -0.4807  -4.0041 H              1 S1                 0.0000
     30 ****         2.8223  -0.9538  -2.7269 H              1 S1                 0.0000
     31 ****        -0.6897  -0.7413  -3.3968 H              1 S1                 0.0000
     32 ****        -1.2886  -3.3396  -1.9656 H              1 S1                 0.0000
     33 ****        -2.6643  -1.9087  -4.3653 H              1 S1                 0.0000
     34 ****        -3.1957  -3.4754  -3.5627 H              1 S1                 0.0000
     35 ****        -3.4612  -2.2662  -1.3802 H              1 S1                 0.0000
     36 ****        -2.9333  -0.7004  -2.1866 H              1 S1                 0.0000
     37 ****         4.1943  -0.6384   2.6394 H              1 S1                 0.0000
     38 ****         3.0325  -0.9793   4.8263 H              1 S1                 0.0000
     39 ****         0.5998  -0.6273   5.0399 H              1 S1                 0.0000
     40 ****        -0.7753   0.0779   3.0861 H              1 S1                 0.0000
     41 ****         3.6096   0.1207  -0.0844 H              1 S1                 0.0000
     42 ****        -1.4432   2.1186   2.4101 LP             1 S1                 0.0000
     43 ****         0.0586   2.5099   1.9023 LP             1 S1                 0.0000
     44 ****         2.1933  -2.7310  -1.5631 LP             1 S1                 0.0000
     45 ****         0.5908  -3.3874  -1.5282 LP             1 S1                 0.0000
@<TRIPOS>BOND
    1    1    2 1     
    2    1   22 1     
    3    1   23 1     
    4    1   24 1     
    5    2    3 1     
    6    3    4 1     
    7    3   25 1     
    8    3   26 1     
    9    4    5 1     
   10    4   27 1     
   11    4   28 1     
   12    5   21 1     
   13    5    6 1     
   14    6    7 1     
   15    6   15 2     
   16    7    8 1     
   17    8    9 1     
   18    8   29 1     
   19    8   30 1     
   20    9   10 2     
   21    9   11 am    
   22   11   12 1     
   23   11   31 1     
   24   12   14 1     
   25   12   13 1     
   26   12   32 1     
   27   13   14 1     
   28   13   33 1     
   29   13   34 1     
   30   14   35 1     
   31   14   36 1     
   32   15   16 1     
   33   15   41 1     
   34   16   21 ar    
   35   16   17 ar    
   36   17   18 ar    
   37   17   37 1     
   38   18   19 ar    
   39   18   38 1     
   40   19   20 ar    
   41   19   39 1     
   42   20   21 ar    
   43   20   40 1     
   44    2   42 1     
   45    2   43 1     
   46   10   44 1     
   47   10   45 1     
@<TRIPOS>SUBSTRUCTURE
      1 S1             1
@<TRIPOS>SET
LONE_PAIRS      STATIC     ATOMS    <user>   **** ""
4 42 43 44 45
DONOR_HYDROGENS      STATIC     ATOMS    <user>   **** ""
2 31 41
ATOM$BLUE        STATIC     ATOMS    COLORGROUP SYSTEM
4 42 43 44 45
ATOM$RED        STATIC     ATOMS    COLORGROUP SYSTEM
2 31 41
