AV-unprocessed.smi:1005|AV-procd|sdf|4379|dock4
  -GOLD-   22720 2293D 1   1.00000     0.00000
 Structure written by MMmdl.
 58 60  0  0  0  0  0  0  0  0  4 V2000
  152.1999  143.6248  160.1540 C   0  0  0  0  0  0  0  0  0  0  0  0
  151.9896  142.6288  159.0259 C   0  0  0  0  0  0  0  0  0  0  0  0
  151.0464  142.9381  158.0205 C   0  0  0  0  0  0  0  0  0  0  0  0
  150.8796  142.0095  156.9998 C   0  0  0  0  0  0  0  0  0  0  0  0
  150.0447  142.0219  155.8808 N   0  3  0  0  0  0  0  0  0  0  0  0
  150.2348  140.8835  155.1585 C   0  0  0  0  0  0  0  0  0  0  0  0
  151.1829  140.1445  155.7972 N   0  0  0  0  0  0  0  0  0  0  0  0
  151.7501  138.8356  155.4394 C   0  0  0  0  0  0  0  0  0  0  0  0
  150.7804  137.9644  154.6157 C   0  0  1  0  0  0  0  0  0  0  0  0
  151.5164  137.0484  153.8287 O   0  0  0  0  0  0  0  0  0  0  0  0
  149.8167  137.1714  155.5221 C   0  0  0  0  0  0  0  0  0  0  0  0
  149.2145  135.9977  154.8386 N   0  3  1  0  0  0  0  0  0  0  0  0
  150.0021  134.7590  155.0409 C   0  0  0  0  0  0  0  0  0  0  0  0
  149.3790  133.5950  154.2541 C   0  0  0  0  0  0  0  0  0  0  0  0
  148.0248  133.4230  154.6543 O   0  0  0  0  0  0  0  0  0  0  0  0
  147.2273  134.5711  154.3821 C   0  0  1  0  0  0  0  0  0  0  0  0
  145.7759  134.2479  154.7844 C   0  0  0  0  0  0  0  0  0  0  0  0
  145.0873  133.3739  153.7998 N   0  3  0  0  0  0  0  0  0  0  0  0
  145.9135  132.2295  153.3498 C   0  0  0  0  0  0  0  0  0  0  0  0
  144.5538  134.1399  152.6516 C   0  0  0  0  0  0  0  0  0  0  0  0
  147.7900  135.7631  155.1835 C   0  0  0  0  0  0  0  0  0  0  0  0
  151.6106  140.8061  156.9556 C   0  0  0  0  0  0  0  0  0  0  0  0
  152.5417  140.4848  157.9411 C   0  0  0  0  0  0  0  0  0  0  0  0
  152.7262  141.4165  158.9877 C   0  0  0  0  0  0  0  0  0  0  0  0
  153.7366  141.0933  160.0753 C   0  0  0  0  0  0  0  0  0  0  0  0
  151.5943  144.5207  160.0139 H   0  0  0  0  0  0  0  0  0  0  0  0
  153.2439  143.9349  160.2033 H   0  0  0  0  0  0  0  0  0  0  0  0
  151.9240  143.1819  161.1112 H   0  0  0  0  0  0  0  0  0  0  0  0
  150.4808  143.8581  158.0446 H   0  0  0  0  0  0  0  0  0  0  0  0
  149.7242  140.6165  154.2443 H   0  0  0  0  0  0  0  0  0  0  0  0
  152.6953  138.9836  154.9166 H   0  0  0  0  0  0  0  0  0  0  0  0
  151.9970  138.3303  156.3740 H   0  0  0  0  0  0  0  0  0  0  0  0
  150.2217  138.6156  153.9442 H   0  0  0  0  0  0  0  0  0  0  0  0
  151.0136  136.8467  153.0537 H   0  0  0  0  0  0  0  0  0  0  0  0
  150.3710  136.8322  156.3989 H   0  0  0  0  0  0  0  0  0  0  0  0
  149.0222  137.8188  155.8965 H   0  0  0  0  0  0  0  0  0  0  0  0
  151.0305  134.9126  154.7116 H   0  0  0  0  0  0  0  0  0  0  0  0
  150.0379  134.5162  156.1043 H   0  0  0  0  0  0  0  0  0  0  0  0
  149.4346  133.7758  153.1792 H   0  0  0  0  0  0  0  0  0  0  0  0
  149.9259  132.6727  154.4506 H   0  0  0  0  0  0  0  0  0  0  0  0
  147.2778  134.8078  153.3188 H   0  0  0  0  0  0  0  0  0  0  0  0
  145.7939  133.7561  155.7584 H   0  0  0  0  0  0  0  0  0  0  0  0
  145.1999  135.1652  154.9168 H   0  0  0  0  0  0  0  0  0  0  0  0
  146.8173  132.5744  152.8457 H   0  0  0  0  0  0  0  0  0  0  0  0
  145.3549  131.6053  152.6515 H   0  0  0  0  0  0  0  0  0  0  0  0
  146.2091  131.5937  154.1833 H   0  0  0  0  0  0  0  0  0  0  0  0
  145.3599  134.6081  152.0853 H   0  0  0  0  0  0  0  0  0  0  0  0
  143.8726  134.9218  152.9889 H   0  0  0  0  0  0  0  0  0  0  0  0
  143.9962  133.4881  151.9779 H   0  0  0  0  0  0  0  0  0  0  0  0
  147.7019  135.5734  156.2546 H   0  0  0  0  0  0  0  0  0  0  0  0
  147.1967  136.6509  154.9675 H   0  0  0  0  0  0  0  0  0  0  0  0
  153.1073  139.5654  157.9130 H   0  0  0  0  0  0  0  0  0  0  0  0
  154.1693  140.1021  159.9367 H   0  0  0  0  0  0  0  0  0  0  0  0
  153.2639  141.1136  161.0575 H   0  0  0  0  0  0  0  0  0  0  0  0
  154.5511  141.8179  160.0670 H   0  0  0  0  0  0  0  0  0  0  0  0
  144.2809  132.9885  154.2711 H   0  0  0  0  0  0  0  0  0  0  0  0
  149.2540  136.1990  153.8489 H   0  0  0  0  0  0  0  0  0  0  0  0
  149.3901  142.7515  155.6278 H   0  0  0  0  0  0  0  0  0  0  0  0
  1  2  1  0  0  0  0
  1 26  1  0  0  0  0
  1 27  1  0  0  0  0
  1 28  1  0  0  0  0
  2 24  1  0  0  0  0
  2  3  2  0  0  0  0
  3  4  1  0  0  0  0
  3 29  1  0  0  0  0
  4 22  2  0  0  0  0
  4  5  1  0  0  0  0
  5  6  2  0  0  0  0
  5 58  1  0  0  0  0
  6  7  1  0  0  0  0
  6 30  1  0  0  0  0
  7  8  1  0  0  0  0
  7 22  1  0  0  0  0
  8  9  1  0  0  0  0
  8 31  1  0  0  0  0
  8 32  1  0  0  0  0
  9 10  1  0  0  0  0
  9 11  1  0  0  0  0
  9 33  1  0  0  0  0
 10 34  1  0  0  0  0
 11 12  1  0  0  0  0
 11 35  1  0  0  0  0
 11 36  1  0  0  0  0
 12 21  1  0  0  0  0
 12 13  1  0  0  0  0
 12 57  1  0  0  0  0
 13 14  1  0  0  0  0
 13 37  1  0  0  0  0
 13 38  1  0  0  0  0
 14 15  1  0  0  0  0
 14 39  1  0  0  0  0
 14 40  1  0  0  0  0
 15 16  1  0  0  0  0
 16 17  1  0  0  0  0
 16 21  1  0  0  0  0
 16 41  1  0  0  0  0
 17 18  1  0  0  0  0
 17 42  1  0  0  0  0
 17 43  1  0  0  0  0
 18 19  1  0  0  0  0
 18 20  1  0  0  0  0
 18 56  1  0  0  0  0
 19 44  1  0  0  0  0
 19 45  1  0  0  0  0
 19 46  1  0  0  0  0
 20 47  1  0  0  0  0
 20 48  1  0  0  0  0
 20 49  1  0  0  0  0
 21 50  1  0  0  0  0
 21 51  1  0  0  0  0
 22 23  1  0  0  0  0
 23 24  2  0  0  0  0
 23 52  1  0  0  0  0
 24 25  1  0  0  0  0
 25 53  1  0  0  0  0
 25 54  1  0  0  0  0
 25 55  1  0  0  0  0
M  CHG  1   5   1
M  CHG  1  12   1
M  CHG  1  18   1
M  END
> <s_m_source_file>
AV-unprocessed.smi

> <i_m_source_file_index>
1005

> <i_lp_mmshare_version>
43012

> <i_f3d_flags>
0

> <s_epik_input>
W0NIM11jKFtjSF0xKWMoW0NIM10pW2NIXWMoYzEyKW4oW2NIXW4yKVtDSDJdW0NASF0oW09IXSlbQ0gyXU4zW0NIMl1bQ0gyXU9bQ0BIXShbQ0gyXTMpW0NIMl1OKFtDSDNdKVtDSDNd

> <s_epik_cmdline>
J2VwaWtfcHl0aG9uJywgJy1waCcsICc3LjAnLCAnLXRuJywgJzgnLCAnLW1hJywgJzIwMCcsICctbWV0YWxfYmluZGluZycsICctaW1hZScsICc8aW5maWxlLm1hZT4nLCAnLW9tYWUnLCAnPG91dGZpbGUubWFlPic=

> <r_epik_Ionization_Penalty>
2.30802

> <r_epik_Ionization_Penalty_Charging>
2.30798

> <r_epik_Ionization_Penalty_Neutral>
3.4851e-05

> <r_epik_State_Penalty>
2.52618

> <r_epik_Charging_Adjusted_Penalty>
4.83416

> <i_epik_Tot_Q>
3

> <i_epik_Tot_abs_Q>
3

> <r_epik_Metal_State_Penalty>
6.53149

> <b_epik_Metal_Only>
0

> <s_lp_Force_Field>
OPLS_2005

> <r_lp_Energy>
42.4596

> <b_lp_Chiralities_Consistent>
1

> <s_lp_Variant>
AV-unprocessed.smi:1005-18

> <Gold.Version>
5.8.1

> <Gold.Id.Protein>
6NUR|6NUR_protein|mol2

> <Gold.PLP.Fitness>
64.2245

> <Gold.PLP.PLP>
-44.7512

> <Gold.PLP.part.hbond>
-5.0917

> <Gold.PLP.part.metal>
0.0000

> <Gold.PLP.part.buried>
-4.9112

> <Gold.PLP.part.nonpolar>
-35.5928

> <Gold.PLP.part.repulsive>
0.1863

> <Gold.PLP.ligand.clash>
0.0000

> <Gold.PLP.ligand.torsion>
1.6191

> <Gold.PLP.Chemscore.Hbond>
7.5235

> <Gold.PLP.Chemscore.CHOScore>
0.0000

> <Gold.PLP.Chemscore.Metal>
0.0000

> <Gold.Chemscore.Hbonds>
donor molecule, donor type, donor heavy atom, donor atom, acceptor molecule, acceptor atom, score
      L1  H     5    58       P1  8028  1.95
      L1  H    10    34       P1  7949  0.82
      L1  H    12    57       P1  7948  2.00
      L1  H    18    56       P1 10957  1.72
      P1  H 10752 10763       L1    10  1.00

> <Gold.PLP.Chemscore.Internal.Correction>
0.1410

> <Gold.Rescore>
     Score         DG    S(hbond)    S(metal)    S(lipo)     H(rot)  DE(clash)    DE(int)     intcor
     20.33     -24.88       3.85        0.00     111.89       2.56       0.48       4.06       ----

> <Gold.Chemscore.Fitness>
20.3310

> <Gold.Chemscore.DG>
-24.8751

> <Gold.Chemscore.ZeroCoef>
-5.4800

> <Gold.Chemscore.Hbond>
3.8470

> <Gold.Chemscore.Metal>
0.0000

> <Gold.Chemscore.Lipo>
111.8879

> <Gold.Chemscore.Internal_Hbond>
0.0000

> <Gold.Chemscore.DEClash>
0.4835

> <Gold.Chemscore.DEInternal>
4.0605

> <Gold.Chemscore.Rot>
2.5566

> <Gold.Chemscore.Internal.Correction>
   9.000000E+99

> <Gold.Chemscore.Hbonds>
donor molecule, donor type, donor heavy atom, donor atom, acceptor molecule, acceptor atom, score
      L1  H     5    58       P1  8028  0.87
      L1  H    10    34       P1  7949  0.21
      L1  H    12    57       P1  7948  0.86
      L1  H    18    56       P1 10957  0.82
      P1  H 10752 10763       L1    10  0.80

> <Gold.Chemscore.Hbond.Weighted>
-12.8491

> <Gold.Chemscore.Metal.Weighted>
-0.0000

> <Gold.Chemscore.Lipo.Weighted>
-13.0909

> <Gold.Chemscore.Internal_Hbond.Weighted>
0.0000

> <Gold.Chemscore.DEClash.Weighted>
0.4835

> <Gold.Chemscore.DEInternal.Weighted>
4.0605

> <Gold.Chemscore.Rot.Weighted>
6.5450

> <Gold.Chemscore.Internal.Correction.Weighted>
   9.000000E+99

> <Gold.Protein.RotatedTorsions>
[ 6907 6896 6895 6894 ] final  -22.80 input  -60.11 | X-H torsion
[ 7974 7965 7964 7962 ] final  -54.24 input  175.53 | X-H torsion
[ 8008 7997 7996 7995 ] final  -38.97 input   59.86 | X-H torsion
[ 10167 10162 10161 10158 ] final -166.72 input  -65.29 | X-H torsion
[ 10718 10713 10712 10709 ] final -150.96 input   66.30 | X-H torsion
[ 10763 10752 10751 10750 ] final   39.38 input  -60.55 | X-H torsion
[ 11005 11000 10999 10996 ] final  -68.33 input  -57.11 | X-H torsion

> <Gold.Protein.ActiveResidues>
 VAL166  LYS551  ARG553  GLY616  TRP617  ASP618  TYR619  PRO620  LYS621  CYS622 
 ASP623  PHE694  ASN695  SER759  ASP760  ASP761  ALA762  ILE779  LEU786  VAL792 
 PHE793  MET794  SER795  GLU796  ALA797  LYS798  CYS799  TRP800  GLU811  SER814 

> <Gold.Protein.RotatedAtoms>
  151.2134  135.0490  159.8919 H   0  0  0  0  0  0  0  0  0  0  0  0  # atno 6907 bound_to 6896
  152.5422  134.0720  159.8208 H   0  0  0  0  0  0  0  0  0  0  0  0  # atno 6908 bound_to 6896
  151.0876  133.5293  159.2648 H   0  0  0  0  0  0  0  0  0  0  0  0  # atno 6909 bound_to 6896
  145.8878  140.8095  142.9807 H   0  0  0  0  0  0  0  0  0  0  0  0  # atno 7974 bound_to 7965
  154.4029  140.1564  156.2787 H   0  0  0  0  0  0  0  0  0  0  0  0  # atno 8008 bound_to 7997
  155.8889  140.3440  155.5919 H   0  0  0  0  0  0  0  0  0  0  0  0  # atno 8009 bound_to 7997
  155.7581  140.0814  157.2159 H   0  0  0  0  0  0  0  0  0  0  0  0  # atno 8010 bound_to 7997
  139.6096  144.0842  152.1828 H   0  0  0  0  0  0  0  0  0  0  0  0  # atno 10167 bound_to 10162
  156.4529  130.8176  151.2407 H   0  0  0  0  0  0  0  0  0  0  0  0  # atno 10718 bound_to 10713
  152.9969  135.6222  154.2456 H   0  0  0  0  0  0  0  0  0  0  0  0  # atno 10763 bound_to 10752
  154.2196  135.2796  155.2931 H   0  0  0  0  0  0  0  0  0  0  0  0  # atno 10764 bound_to 10752
  154.5539  135.5725  153.7005 H   0  0  0  0  0  0  0  0  0  0  0  0  # atno 10765 bound_to 10752
  141.1529  133.6738  156.6430 H   0  0  0  0  0  0  0  0  0  0  0  0  # atno 11005 bound_to 11000
  144.6729  140.1482  143.7432 LP  0  0  0  0  0  0  0  0  0  0  0  0  # atno 17320 bound_to 7965
  145.8946  139.2395  143.1529 LP  0  0  0  0  0  0  0  0  0  0  0  0  # atno 17321 bound_to 7965
  140.0458  144.5972  150.7375 LP  0  0  0  0  0  0  0  0  0  0  0  0  # atno 17342 bound_to 10162
  140.7309  143.2689  151.3953 LP  0  0  0  0  0  0  0  0  0  0  0  0  # atno 17343 bound_to 10162
  157.7502  131.0132  150.3414 LP  0  0  0  0  0  0  0  0  0  0  0  0  # atno 17370 bound_to 10713
  156.3797  130.3878  149.7111 LP  0  0  0  0  0  0  0  0  0  0  0  0  # atno 17371 bound_to 10713
  140.3379  134.7874  157.4375 LP  0  0  0  0  0  0  0  0  0  0  0  0  # atno 17394 bound_to 11000
  140.0962  134.5533  155.8396 LP  0  0  0  0  0  0  0  0  0  0  0  0  # atno 17395 bound_to 11000

$$$$
