AV-unprocessed.smi:846|AV-procd|sdf|3935|dock2
  -GOLD-   22720 1393D 1   1.00000     0.00000
 Structure written by MMmdl.
 37 38  0  0  0  0  0  0  0  0  1 V2000
  146.0245  131.7474  150.6442 C   0  0  0  0  0  0  0  0  0  0  0  0
  145.7674  132.5336  151.9324 C   0  0  0  0  0  0  0  0  0  0  0  0
  147.0140  133.0260  152.4095 O   0  0  0  0  0  0  0  0  0  0  0  0
  147.8950  132.1478  153.0109 C   0  0  0  0  0  0  0  0  0  0  0  0
  147.6505  130.8168  152.9198 N   0  0  0  0  0  0  0  0  0  0  0  0
  148.5148  129.9659  153.5108 C   0  0  0  0  0  0  0  0  0  0  0  0
  149.6587  130.3913  154.2122 C   0  0  0  0  0  0  0  0  0  0  0  0
  149.9148  131.7722  154.3056 C   0  0  0  0  0  0  0  0  0  0  0  0
  149.0100  132.6765  153.7001 C   0  0  0  0  0  0  0  0  0  0  0  0
  149.1694  134.0877  153.7071 N   0  0  0  0  0  0  0  0  0  0  0  0
  149.6796  134.8859  154.6632 C   0  0  0  0  0  0  0  0  0  0  0  0
  150.1795  134.4922  155.7146 O   0  0  0  0  0  0  0  0  0  0  0  0
  149.5810  136.1988  154.3831 N   0  0  0  0  0  0  0  0  0  0  0  0
  150.0312  137.3296  155.1990 C   0  0  2  0  0  0  0  0  0  0  0  0
  149.4848  138.6624  154.6546 C   0  0  0  0  0  0  0  0  0  0  0  0
  150.2457  139.8184  155.3194 C   0  0  0  0  0  0  0  0  0  0  0  0
  151.9139  139.1710  155.7235 S   0  0  0  0  0  0  0  0  0  0  0  0
  152.9063  139.7410  154.7998 O   0  0  0  0  0  0  0  0  0  0  0  0
  152.1085  139.2357  157.1800 O   0  0  0  0  0  0  0  0  0  0  0  0
  151.5645  137.4411  155.2398 C   0  0  0  0  0  0  0  0  0  0  0  0
  145.0958  131.3402  150.2443 H   0  0  0  0  0  0  0  0  0  0  0  0
  146.7067  130.9157  150.8223 H   0  0  0  0  0  0  0  0  0  0  0  0
  146.4679  132.3846  149.8786 H   0  0  0  0  0  0  0  0  0  0  0  0
  145.0821  133.3578  151.7284 H   0  0  0  0  0  0  0  0  0  0  0  0
  145.3053  131.8825  152.6762 H   0  0  0  0  0  0  0  0  0  0  0  0
  148.2899  128.9137  153.4180 H   0  0  0  0  0  0  0  0  0  0  0  0
  150.3277  129.6741  154.6641 H   0  0  0  0  0  0  0  0  0  0  0  0
  150.8004  132.1058  154.8234 H   0  0  0  0  0  0  0  0  0  0  0  0
  148.7436  134.5649  152.9259 H   0  0  0  0  0  0  0  0  0  0  0  0
  149.1216  136.4386  153.5162 H   0  0  0  0  0  0  0  0  0  0  0  0
  149.6593  137.2180  156.2196 H   0  0  0  0  0  0  0  0  0  0  0  0
  149.6565  138.7069  153.5780 H   0  0  0  0  0  0  0  0  0  0  0  0
  148.4087  138.7531  154.8076 H   0  0  0  0  0  0  0  0  0  0  0  0
  150.3273  140.6956  154.6771 H   0  0  0  0  0  0  0  0  0  0  0  0
  149.7656  140.1143  156.2522 H   0  0  0  0  0  0  0  0  0  0  0  0
  152.0344  136.7555  155.9453 H   0  0  0  0  0  0  0  0  0  0  0  0
  151.9971  137.2765  154.2524 H   0  0  0  0  0  0  0  0  0  0  0  0
  1  2  1  0  0  0  0
  1 21  1  0  0  0  0
  1 22  1  0  0  0  0
  1 23  1  0  0  0  0
  2  3  1  0  0  0  0
  2 24  1  0  0  0  0
  2 25  1  0  0  0  0
  3  4  1  0  0  0  0
  4  9  1  0  0  0  0
  4  5  2  0  0  0  0
  5  6  1  0  0  0  0
  6  7  2  0  0  0  0
  6 26  1  0  0  0  0
  7  8  1  0  0  0  0
  7 27  1  0  0  0  0
  8  9  2  0  0  0  0
  8 28  1  0  0  0  0
  9 10  1  0  0  0  0
 10 11  1  0  0  0  0
 10 29  1  0  0  0  0
 11 12  2  0  0  0  0
 11 13  1  0  0  0  0
 13 14  1  0  0  0  0
 13 30  1  0  0  0  0
 14 20  1  0  0  0  0
 14 15  1  0  0  0  0
 14 31  1  0  0  0  0
 15 16  1  0  0  0  0
 15 32  1  0  0  0  0
 15 33  1  0  0  0  0
 16 17  1  0  0  0  0
 16 34  1  0  0  0  0
 16 35  1  0  0  0  0
 17 18  2  0  0  0  0
 17 19  2  0  0  0  0
 17 20  1  0  0  0  0
 20 36  1  0  0  0  0
 20 37  1  0  0  0  0
M  END
> <s_m_source_file>
AV-unprocessed.smi

> <i_m_source_file_index>
846

> <i_lp_mmshare_version>
43012

> <i_f3d_flags>
0

> <s_epik_input>
W0NIM11bQ0gyXU9jMW5bY0hdW2NIXVtjSF1jMVtOSF1DKD1PKVtOSF1bQ0BASF0oW0NIMl0yKVtDSDJdW0NIMl1TMig9Tyk9Tw==

> <s_epik_cmdline>
J2VwaWtfcHl0aG9uJywgJy1waCcsICc3LjAnLCAnLXRuJywgJzgnLCAnLW1hJywgJzIwMCcsICctbWV0YWxfYmluZGluZycsICctaW1hZScsICc8aW5maWxlLm1hZT4nLCAnLW9tYWUnLCAnPG91dGZpbGUubWFlPic=

> <r_lp_tautomer_probability>
1

> <r_epik_Ionization_Penalty>
9.45557e-05

> <r_epik_Ionization_Penalty_Charging>
0

> <r_epik_Ionization_Penalty_Neutral>
9.45557e-05

> <r_epik_State_Penalty>
-0

> <r_epik_Charging_Adjusted_Penalty>
0

> <i_epik_Tot_Q>
0

> <i_epik_Tot_abs_Q>
0

> <r_epik_Metal_State_Penalty>
-0

> <b_epik_Metal_Only>
0

> <s_lp_Force_Field>
OPLS_2005

> <r_lp_Energy>
17.4096

> <b_lp_Chiralities_Consistent>
1

> <s_lp_Variant>
AV-unprocessed.smi:846-1

> <Gold.Version>
5.8.1

> <Gold.Id.Protein>
6NUR|6NUR_protein|mol2

> <Gold.PLP.Fitness>
40.4878

> <Gold.PLP.PLP>
-32.3132

> <Gold.PLP.part.hbond>
-4.0000

> <Gold.PLP.part.metal>
0.0000

> <Gold.PLP.part.buried>
-2.2635

> <Gold.PLP.part.nonpolar>
-25.9775

> <Gold.PLP.part.repulsive>
0.3531

> <Gold.PLP.ligand.clash>
0.0000

> <Gold.PLP.ligand.torsion>
0.5208

> <Gold.PLP.Chemscore.Hbond>
3.0693

> <Gold.PLP.Chemscore.CHOScore>
0.0000

> <Gold.PLP.Chemscore.Metal>
0.0000

> <Gold.Chemscore.Hbonds>
donor molecule, donor type, donor heavy atom, donor atom, acceptor molecule, acceptor atom, score
      L1  H    10    29       P1  7948  0.60
      L1  H    13    30       P1  7948  0.96
      P1  H  7989  7998       L1    18  0.34
      P1  H  7997  8008       L1    18  1.00

> <Gold.PLP.Chemscore.Internal.Correction>
0.0083

> <Gold.Rescore>
     Score         DG    S(hbond)    S(metal)    S(lipo)     H(rot)  DE(clash)    DE(int)     intcor
     13.91     -16.26       2.44        0.00      55.47       1.50       0.05       2.30       ----

> <Gold.Chemscore.Fitness>
13.9057

> <Gold.Chemscore.DG>
-16.2575

> <Gold.Chemscore.ZeroCoef>
-5.4800

> <Gold.Chemscore.Hbond>
2.4359

> <Gold.Chemscore.Metal>
0.0000

> <Gold.Chemscore.Lipo>
55.4711

> <Gold.Chemscore.Internal_Hbond>
0.0000

> <Gold.Chemscore.DEClash>
0.0502

> <Gold.Chemscore.DEInternal>
2.3015

> <Gold.Chemscore.Rot>
1.5033

> <Gold.Chemscore.Internal.Correction>
   9.000000E+99

> <Gold.Chemscore.Hbonds>
donor molecule, donor type, donor heavy atom, donor atom, acceptor molecule, acceptor atom, score
      L1  H    10    29       P1  7948  0.07
      L1  H    13    30       P1  7948  0.90
      P1  H  7989  7998       L1    18  0.12
      P1  H  7997  8008       L1    18  0.83

> <Gold.Chemscore.Hbond.Weighted>
-8.1358

> <Gold.Chemscore.Metal.Weighted>
-0.0000

> <Gold.Chemscore.Lipo.Weighted>
-6.4901

> <Gold.Chemscore.Internal_Hbond.Weighted>
0.0000

> <Gold.Chemscore.DEClash.Weighted>
0.0502

> <Gold.Chemscore.DEInternal.Weighted>
2.3015

> <Gold.Chemscore.Rot.Weighted>
3.8484

> <Gold.Chemscore.Internal.Correction.Weighted>
   9.000000E+99

> <Gold.Protein.RotatedTorsions>
[ 6907 6896 6895 6894 ] final -106.04 input  -60.11 | X-H torsion
[ 7974 7965 7964 7962 ] final -108.78 input  175.53 | X-H torsion
[ 8008 7997 7996 7995 ] final   -0.13 input   59.86 | X-H torsion
[ 10167 10162 10161 10158 ] final  127.48 input  -65.29 | X-H torsion
[ 10718 10713 10712 10709 ] final -111.01 input   66.30 | X-H torsion
[ 10763 10752 10751 10750 ] final  156.02 input  -60.55 | X-H torsion
[ 11005 11000 10999 10996 ] final  -71.13 input  -57.11 | X-H torsion

> <Gold.Protein.ActiveResidues>
 VAL166  LYS551  ARG553  GLY616  TRP617  ASP618  TYR619  PRO620  LYS621  CYS622 
 ASP623  PHE694  ASN695  SER759  ASP760  ASP761  ALA762  ILE779  LEU786  VAL792 
 PHE793  MET794  SER795  GLU796  ALA797  LYS798  CYS799  TRP800  GLU811  SER814 

> <Gold.Protein.RotatedAtoms>
  150.7368  134.0036  159.3645 H   0  0  0  0  0  0  0  0  0  0  0  0  # atno 6907 bound_to 6896
  151.7991  135.0712  160.0407 H   0  0  0  0  0  0  0  0  0  0  0  0  # atno 6908 bound_to 6896
  152.3153  133.5760  159.5744 H   0  0  0  0  0  0  0  0  0  0  0  0  # atno 6909 bound_to 6896
  145.1886  140.9004  143.3438 H   0  0  0  0  0  0  0  0  0  0  0  0  # atno 7974 bound_to 7965
  154.6616  140.2592  155.7103 H   0  0  0  0  0  0  0  0  0  0  0  0  # atno 8008 bound_to 7997
  156.2621  140.2847  156.1012 H   0  0  0  0  0  0  0  0  0  0  0  0  # atno 8009 bound_to 7997
  155.1300  140.0378  157.2762 H   0  0  0  0  0  0  0  0  0  0  0  0  # atno 8010 bound_to 7997
  139.5576  144.6859  151.4137 H   0  0  0  0  0  0  0  0  0  0  0  0  # atno 10167 bound_to 10162
  156.0622  130.5845  150.8315 H   0  0  0  0  0  0  0  0  0  0  0  0  # atno 10718 bound_to 10713
  154.1777  135.2801  155.3061 H   0  0  0  0  0  0  0  0  0  0  0  0  # atno 10763 bound_to 10752
  154.6026  135.5524  153.7394 H   0  0  0  0  0  0  0  0  0  0  0  0  # atno 10764 bound_to 10752
  153.0147  135.6395  154.1917 H   0  0  0  0  0  0  0  0  0  0  0  0  # atno 10765 bound_to 10752
  141.1587  133.6809  156.6859 H   0  0  0  0  0  0  0  0  0  0  0  0  # atno 11005 bound_to 11000
  145.0064  139.3551  143.6142 LP  0  0  0  0  0  0  0  0  0  0  0  0  # atno 17320 bound_to 7965
  146.3440  139.9308  142.8754 LP  0  0  0  0  0  0  0  0  0  0  0  0  # atno 17321 bound_to 7965
  140.6851  143.7992  150.7175 LP  0  0  0  0  0  0  0  0  0  0  0  0  # atno 17342 bound_to 10162
  140.1457  143.4401  152.2164 LP  0  0  0  0  0  0  0  0  0  0  0  0  # atno 17343 bound_to 10162
  157.5640  131.0946  150.9518 LP  0  0  0  0  0  0  0  0  0  0  0  0  # atno 17370 bound_to 10713
  156.9749  130.5505  149.5292 LP  0  0  0  0  0  0  0  0  0  0  0  0  # atno 17371 bound_to 10713
  140.3067  134.8119  157.4143 LP  0  0  0  0  0  0  0  0  0  0  0  0  # atno 17394 bound_to 11000
  140.1214  134.5214  155.8180 LP  0  0  0  0  0  0  0  0  0  0  0  0  # atno 17395 bound_to 11000

$$$$
