#       Name:                AV-unprocessed.smi:915
#       Creating user name   scv26
#       Creation time:       Fri Mar 27 02:06:10 2020


#       File generated by GOLD software.
#

@<TRIPOS>MOLECULE
AV-unprocessed.smi:915
    37    38     1
SMALL
NO_CHARGES


@<TRIPOS>ATOM
      1 ****        -5.7870   0.9294  -2.6966 C.3            1 S1                 0.0000
      2 ****        -5.3888  -0.0479  -1.5847 C.3            1 S1                 0.0000
      3 ****        -4.1805   0.4122  -0.8271 C.2            1 S1                 0.0000
      4 ****        -4.1603   1.0197   0.4015 C.2            1 S1                 0.0000
      5 ****        -2.5375   1.3922   0.9082 S.3            1 S1                 0.0000
      6 ****        -1.9208   0.6899  -0.5891 C.2            1 S1                 0.0000
      7 ****        -0.6232   0.6196  -0.9279 N.pl3          1 S1                -1.0000
      8 ****         0.1496  -0.3751  -0.4355 C.2            1 S1                 0.0000
      9 ****        -0.2157  -1.2777   0.3213 O.2            1 S1                 0.0000
     10 ****         1.4263  -0.3182  -0.8403 N.am           1 S1                 0.0000
     11 ****         2.4862  -1.2448  -0.4546 C.3            1 S1                 0.0000
     12 ****         3.0040  -0.9774   0.9712 C.3            1 S1                 0.0000
     13 ****         3.5559   0.4405   1.1791 C.3            1 S1                 0.0000
     14 ****         4.4695   0.3823   2.4036 C.3            1 S1                 0.0000
     15 ****         5.3413  -0.8629   2.2342 C.3            1 S1                 0.0000
     16 ****         4.3252  -2.1317   1.4346 S.3            1 S1                 0.0000
     17 ****        -2.9062   0.2408  -1.3743 N.2            1 S1                 0.0000
     18 ****        -6.6690   0.5738  -3.2293 H              1 S1                 0.0000
     19 ****        -4.9831   1.0471  -3.4241 H              1 S1                 0.0000
     20 ****        -6.0171   1.9143  -2.2891 H              1 S1                 0.0000
     21 ****        -6.2300  -0.1771  -0.9030 H              1 S1                 0.0000
     22 ****        -5.2032  -1.0309  -2.0193 H              1 S1                 0.0000
     23 ****        -4.9964   1.2712   1.0361 H              1 S1                 0.0000
     24 ****         1.6815   0.4351  -1.4617 H              1 S1                 0.0000
     25 ****         2.1281  -2.2716  -0.5425 H              1 S1                 0.0000
     26 ****         3.3008  -1.1415  -1.1719 H              1 S1                 0.0000
     27 ****         2.1974  -1.1376   1.6878 H              1 S1                 0.0000
     28 ****         4.1384   0.7462   0.3087 H              1 S1                 0.0000
     29 ****         2.7560   1.1708   1.3061 H              1 S1                 0.0000
     30 ****         5.0695   1.2865   2.5091 H              1 S1                 0.0000
     31 ****         3.8629   0.2866   3.3051 H              1 S1                 0.0000
     32 ****         6.1858  -0.6423   1.5808 H              1 S1                 0.0000
     33 ****         5.7389  -1.2199   3.1846 H              1 S1                 0.0000
     34 ****        -0.2288   1.3018  -1.5435 LP             1 S1                 0.0000
     35 ****        -1.1667  -1.3192   0.6276 LP             1 S1                 0.0000
     36 ****         0.4392  -1.9682   0.6286 LP             1 S1                 0.0000
     37 ****        -2.7461  -0.1780  -2.2682 LP             1 S1                 0.0000
@<TRIPOS>BOND
    1    1    2 1     
    2    1   18 1     
    3    1   19 1     
    4    1   20 1     
    5    2    3 1     
    6    2   21 1     
    7    2   22 1     
    8    3   17 1     
    9    3    4 2     
   10    4    5 1     
   11    4   23 1     
   12    5    6 1     
   13    6    7 1     
   14    6   17 2     
   15    7    8 1     
   16    8    9 2     
   17    8   10 am    
   18   10   11 1     
   19   10   24 1     
   20   11   12 1     
   21   11   25 1     
   22   11   26 1     
   23   12   16 1     
   24   12   13 1     
   25   12   27 1     
   26   13   14 1     
   27   13   28 1     
   28   13   29 1     
   29   14   15 1     
   30   14   30 1     
   31   14   31 1     
   32   15   16 1     
   33   15   32 1     
   34   15   33 1     
   35    7   34 1     
   36    9   35 1     
   37    9   36 1     
   38   17   37 1     
@<TRIPOS>SUBSTRUCTURE
      1 S1             1
@<TRIPOS>SET
LONE_PAIRS      STATIC     ATOMS    <user>   **** ""
4 34 35 36 37
DONOR_HYDROGENS      STATIC     ATOMS    <user>   **** ""
1 24
ATOM$BLUE        STATIC     ATOMS    COLORGROUP SYSTEM
4 34 35 36 37
ATOM$RED        STATIC     ATOMS    COLORGROUP SYSTEM
1 24
