AV-unprocessed.smi:1330|AV-procd|sdf|5486|dock8
  -GOLD-   22720 5 63D 1   1.00000     0.00000
 Structure written by MMmdl.
 42 43  0  0  0  0  0  0  0  0  1 V2000
  150.5986  144.2466  158.9113 C   0  0  0  0  0  0  0  0  0  0  0  0
  151.5074  143.0514  159.0119 C   0  0  0  0  0  0  0  0  0  0  0  0
  151.4996  142.2300  158.0139 N   0  0  0  0  0  0  0  0  0  0  0  0
  152.2936  141.1004  158.0059 N   0  0  0  0  0  0  0  0  0  0  0  0
  152.1412  140.2739  156.8019 C   0  0  0  0  0  0  0  0  0  0  0  0
  150.9312  140.7147  155.9482 C   0  0  1  0  0  0  0  0  0  0  0  0
  150.8731  139.8712  154.8144 O   0  0  0  0  0  0  0  0  0  0  0  0
  149.6022  140.5532  156.7048 C   0  0  0  0  0  0  0  0  0  0  0  0
  148.5332  140.6421  155.7773 O   0  0  0  0  0  0  0  0  0  0  0  0
  147.2674  140.7649  156.4023 C   0  0  0  0  0  0  0  0  0  0  0  0
  146.4509  141.8721  155.7678 C   0  0  0  0  0  0  0  0  0  0  0  0
  146.7151  142.2814  154.4440 C   0  0  0  0  0  0  0  0  0  0  0  0
  145.9479  143.3049  153.8539 C   0  0  0  0  0  0  0  0  0  0  0  0
  144.9138  143.9218  154.5852 C   0  0  0  0  0  0  0  0  0  0  0  0
  143.9736  145.1744  153.8614 Cl  0  0  0  0  0  0  0  0  0  0  0  0
  144.6471  143.5141  155.9069 C   0  0  0  0  0  0  0  0  0  0  0  0
  145.4141  142.4904  156.4972 C   0  0  0  0  0  0  0  0  0  0  0  0
  153.1443  140.7417  159.0098 C   0  0  0  0  0  0  0  0  0  0  0  0
  153.8321  139.7208  158.9621 O   0  0  0  0  0  0  0  0  0  0  0  0
  153.1498  141.6772  160.1368 C   0  0  0  0  0  0  0  0  0  0  0  0
  154.0252  141.3375  161.2117 C   0  0  0  0  0  0  0  0  0  0  0  0
  154.7448  141.0806  162.0814 N   0  0  0  0  0  0  0  0  0  0  0  0
  152.3722  142.7887  160.1578 C   0  0  0  0  0  0  0  0  0  0  0  0
  152.3383  143.7898  161.3043 C   0  0  0  0  0  0  0  0  0  0  0  0
  151.1725  145.1728  158.9441 H   0  0  0  0  0  0  0  0  0  0  0  0
  149.8852  144.2609  159.7352 H   0  0  0  0  0  0  0  0  0  0  0  0
  150.0269  144.2467  157.9820 H   0  0  0  0  0  0  0  0  0  0  0  0
  153.0552  140.2802  156.2040 H   0  0  0  0  0  0  0  0  0  0  0  0
  152.0208  139.2339  157.1106 H   0  0  0  0  0  0  0  0  0  0  0  0
  151.0433  141.7532  155.6337 H   0  0  0  0  0  0  0  0  0  0  0  0
  149.9654  139.7368  154.5885 H   0  0  0  0  0  0  0  0  0  0  0  0
  149.5727  139.6148  157.2618 H   0  0  0  0  0  0  0  0  0  0  0  0
  149.4877  141.3620  157.4283 H   0  0  0  0  0  0  0  0  0  0  0  0
  146.7173  139.8260  156.3198 H   0  0  0  0  0  0  0  0  0  0  0  0
  147.3928  140.9703  157.4667 H   0  0  0  0  0  0  0  0  0  0  0  0
  147.5038  141.8097  153.8763 H   0  0  0  0  0  0  0  0  0  0  0  0
  146.1532  143.6144  152.8395 H   0  0  0  0  0  0  0  0  0  0  0  0
  143.8540  143.9845  156.4692 H   0  0  0  0  0  0  0  0  0  0  0  0
  145.2028  142.1788  157.5098 H   0  0  0  0  0  0  0  0  0  0  0  0
  153.0274  143.5239  162.1054 H   0  0  0  0  0  0  0  0  0  0  0  0
  151.3383  143.8426  161.7360 H   0  0  0  0  0  0  0  0  0  0  0  0
  152.6145  144.7844  160.9529 H   0  0  0  0  0  0  0  0  0  0  0  0
  1  2  1  0  0  0  0
  1 25  1  0  0  0  0
  1 26  1  0  0  0  0
  1 27  1  0  0  0  0
  2 23  1  0  0  0  0
  2  3  2  0  0  0  0
  3  4  1  0  0  0  0
  4  5  1  0  0  0  0
  4 18  1  0  0  0  0
  5  6  1  0  0  0  0
  5 28  1  0  0  0  0
  5 29  1  0  0  0  0
  6  7  1  0  0  0  0
  6  8  1  0  0  0  0
  6 30  1  0  0  0  0
  7 31  1  0  0  0  0
  8  9  1  0  0  0  0
  8 32  1  0  0  0  0
  8 33  1  0  0  0  0
  9 10  1  0  0  0  0
 10 11  1  0  0  0  0
 10 34  1  0  0  0  0
 10 35  1  0  0  0  0
 11 17  1  0  0  0  0
 11 12  2  0  0  0  0
 12 13  1  0  0  0  0
 12 36  1  0  0  0  0
 13 14  2  0  0  0  0
 13 37  1  0  0  0  0
 14 15  1  0  0  0  0
 14 16  1  0  0  0  0
 16 17  2  0  0  0  0
 16 38  1  0  0  0  0
 17 39  1  0  0  0  0
 18 19  2  0  0  0  0
 18 20  1  0  0  0  0
 20 21  1  0  0  0  0
 20 23  2  0  0  0  0
 21 22  3  0  0  0  0
 23 24  1  0  0  0  0
 24 40  1  0  0  0  0
 24 41  1  0  0  0  0
 24 42  1  0  0  0  0
M  END
> <s_m_source_file>
AV-unprocessed.smi

> <i_m_source_file_index>
1330

> <i_lp_mmshare_version>
43012

> <i_f3d_flags>
0

> <s_epik_input>
TiNDYyhjMVtDSDNdKWMoPU8pbihuYzFbQ0gzXSlbQ0gyXVtDQEhdKFtPSF0pW0NIMl1PW0NIMl1jMltjSF1bY0hdYyhDbClbY0hdW2NIXTI=

> <s_epik_cmdline>
J2VwaWtfcHl0aG9uJywgJy1waCcsICc3LjAnLCAnLXRuJywgJzgnLCAnLW1hJywgJzIwMCcsICctbWV0YWxfYmluZGluZycsICctaW1hZScsICc8aW5maWxlLm1hZT4nLCAnLW9tYWUnLCAnPG91dGZpbGUubWFlPic=

> <r_lp_tautomer_probability>
1

> <r_epik_Ionization_Penalty>
6.27695e-08

> <r_epik_Ionization_Penalty_Charging>
2.19172e-10

> <r_epik_Ionization_Penalty_Neutral>
6.25504e-08

> <r_epik_State_Penalty>
-0

> <r_epik_Charging_Adjusted_Penalty>
2.19172e-10

> <i_epik_Tot_Q>
0

> <i_epik_Tot_abs_Q>
0

> <r_epik_Metal_State_Penalty>
-0

> <b_epik_Metal_Only>
0

> <s_lp_Force_Field>
OPLS_2005

> <r_lp_Energy>
31.5646

> <b_lp_Chiralities_Consistent>
1

> <s_lp_Variant>
AV-unprocessed.smi:1330-2

> <Gold.Version>
5.8.1

> <Gold.Id.Protein>
6NUR|6NUR_protein|mol2

> <Gold.PLP.Fitness>
53.3566

> <Gold.PLP.PLP>
-49.0844

> <Gold.PLP.part.hbond>
-3.0000

> <Gold.PLP.part.metal>
0.0000

> <Gold.PLP.part.buried>
-8.3231

> <Gold.PLP.part.nonpolar>
-38.0994

> <Gold.PLP.part.repulsive>
0.0989

> <Gold.PLP.ligand.clash>
0.0000

> <Gold.PLP.ligand.torsion>
0.9098

> <Gold.PLP.Chemscore.Hbond>
2.0000

> <Gold.PLP.Chemscore.CHOScore>
0.0000

> <Gold.PLP.Chemscore.Metal>
0.0000

> <Gold.Chemscore.Hbonds>
donor molecule, donor type, donor heavy atom, donor atom, acceptor molecule, acceptor atom, score
      P1  H  7989  7998       L1     7  1.00
      P1  H  7997  8008       L1    19  1.00

> <Gold.PLP.Chemscore.Internal.Correction>
0.0918

> <Gold.Rescore>
     Score         DG    S(hbond)    S(metal)    S(lipo)     H(rot)  DE(clash)    DE(int)     intcor
     14.37     -16.94       1.68        0.00     104.18       2.48       0.25       2.32       ----

> <Gold.Chemscore.Fitness>
14.3713

> <Gold.Chemscore.DG>
-16.9447

> <Gold.Chemscore.ZeroCoef>
-5.4800

> <Gold.Chemscore.Hbond>
1.6823

> <Gold.Chemscore.Metal>
0.0000

> <Gold.Chemscore.Lipo>
104.1757

> <Gold.Chemscore.Internal_Hbond>
0.0000

> <Gold.Chemscore.DEClash>
0.2491

> <Gold.Chemscore.DEInternal>
2.3242

> <Gold.Chemscore.Rot>
2.4777

> <Gold.Chemscore.Internal.Correction>
   9.000000E+99

> <Gold.Chemscore.Hbonds>
donor molecule, donor type, donor heavy atom, donor atom, acceptor molecule, acceptor atom, score
      P1  H  7989  7998       L1     7  0.29
      P1  H  7997  8008       L1    19  0.24

> <Gold.Chemscore.Hbond.Weighted>
-5.6189

> <Gold.Chemscore.Metal.Weighted>
-0.0000

> <Gold.Chemscore.Lipo.Weighted>
-12.1886

> <Gold.Chemscore.Internal_Hbond.Weighted>
0.0000

> <Gold.Chemscore.DEClash.Weighted>
0.2491

> <Gold.Chemscore.DEInternal.Weighted>
2.3242

> <Gold.Chemscore.Rot.Weighted>
6.3428

> <Gold.Chemscore.Internal.Correction.Weighted>
   9.000000E+99

> <Gold.Protein.RotatedTorsions>
[ 6907 6896 6895 6894 ] final   20.83 input  -60.11 | X-H torsion
[ 7974 7965 7964 7962 ] final  170.13 input  175.53 | X-H torsion
[ 8008 7997 7996 7995 ] final -100.68 input   59.86 | X-H torsion
[ 10167 10162 10161 10158 ] final  157.98 input  -65.29 | X-H torsion
[ 10718 10713 10712 10709 ] final  -50.95 input   66.30 | X-H torsion
[ 10763 10752 10751 10750 ] final  -53.90 input  -60.55 | X-H torsion
[ 11005 11000 10999 10996 ] final  -89.64 input  -57.11 | X-H torsion

> <Gold.Protein.ActiveResidues>
 VAL166  LYS551  ARG553  GLY616  TRP617  ASP618  TYR619  PRO620  LYS621  CYS622 
 ASP623  PHE694  ASN695  SER759  ASP760  ASP761  ALA762  ILE779  LEU786  VAL792 
 PHE793  MET794  SER795  GLU796  ALA797  LYS798  CYS799  TRP800  GLU811  SER814 

> <Gold.Protein.RotatedAtoms>
  151.9024  135.0373  160.0507 H   0  0  0  0  0  0  0  0  0  0  0  0  # atno 6907 bound_to 6896
  152.2347  133.5082  159.5244 H   0  0  0  0  0  0  0  0  0  0  0  0  # atno 6908 bound_to 6896
  150.7035  134.1086  159.4034 H   0  0  0  0  0  0  0  0  0  0  0  0  # atno 6909 bound_to 6896
  144.7333  139.9156  143.6417 H   0  0  0  0  0  0  0  0  0  0  0  0  # atno 7974 bound_to 7965
  154.8319  140.0439  157.1483 H   0  0  0  0  0  0  0  0  0  0  0  0  # atno 8008 bound_to 7997
  154.9142  140.3018  155.5230 H   0  0  0  0  0  0  0  0  0  0  0  0  # atno 8009 bound_to 7997
  156.2987  140.2352  156.4185 H   0  0  0  0  0  0  0  0  0  0  0  0  # atno 8010 bound_to 7997
  139.4825  144.4867  151.8367 H   0  0  0  0  0  0  0  0  0  0  0  0  # atno 10167 bound_to 10162
  156.1754  130.4150  149.9585 H   0  0  0  0  0  0  0  0  0  0  0  0  # atno 10718 bound_to 10713
  154.1662  135.6466  153.4998 H   0  0  0  0  0  0  0  0  0  0  0  0  # atno 10763 bound_to 10752
  153.0097  135.5372  154.6660 H   0  0  0  0  0  0  0  0  0  0  0  0  # atno 10764 bound_to 10752
  154.5987  135.2941  155.0530 H   0  0  0  0  0  0  0  0  0  0  0  0  # atno 10765 bound_to 10752
  141.1581  133.7642  156.9623 H   0  0  0  0  0  0  0  0  0  0  0  0  # atno 11005 bound_to 11000
  146.0968  139.3961  143.0371 LP  0  0  0  0  0  0  0  0  0  0  0  0  # atno 17320 bound_to 7965
  145.7634  140.9926  143.1188 LP  0  0  0  0  0  0  0  0  0  0  0  0  # atno 17321 bound_to 7965
  140.4347  144.2067  150.5889 LP  0  0  0  0  0  0  0  0  0  0  0  0  # atno 17342 bound_to 10162
  140.4743  143.2401  151.9044 LP  0  0  0  0  0  0  0  0  0  0  0  0  # atno 17343 bound_to 10162
  156.7372  130.9066  151.3630 LP  0  0  0  0  0  0  0  0  0  0  0  0  # atno 17370 bound_to 10713
  157.6832  130.9160  150.0319 LP  0  0  0  0  0  0  0  0  0  0  0  0  # atno 17371 bound_to 10713
  140.1185  134.9432  157.2168 LP  0  0  0  0  0  0  0  0  0  0  0  0  # atno 17394 bound_to 11000
  140.3103  134.3031  155.7268 LP  0  0  0  0  0  0  0  0  0  0  0  0  # atno 17395 bound_to 11000

$$$$
