AV-unprocessed.smi:2175|AV-procd|sdf|8844|dock4
  -GOLD-   2272012 33D 1   1.00000     0.00000
 Structure written by MMmdl.
 34 35  0  0  0  0  0  0  0  0  1 V2000
  146.0752  137.9837  152.7658 C   0  0  0  0  0  0  0  0  0  0  0  0
  147.0558  139.0057  153.2983 C   0  0  0  0  0  0  0  0  0  0  0  0
  146.4940  140.2522  153.5189 N   0  0  0  0  0  0  0  0  0  0  0  0
  147.3130  141.2534  154.0103 C   0  0  0  0  0  0  0  0  0  0  0  0
  146.6185  142.5866  154.2270 C   0  0  0  0  0  0  0  0  0  0  0  0
  148.6266  141.0256  154.2641 C   0  0  0  0  0  0  0  0  0  0  0  0
  149.5620  142.1058  154.8053 C   0  0  0  0  0  0  0  0  0  0  0  0
  150.2402  141.7858  156.1397 C   0  0  0  0  0  0  0  0  0  0  0  0
  150.8483  140.7257  156.2876 O   0  0  0  0  0  0  0  0  0  0  0  0
  150.1311  142.7136  157.1026 N   0  0  0  0  0  0  0  0  0  0  0  0
  150.7021  142.6029  158.4387 C   0  0  0  0  0  0  0  0  0  0  0  0
  151.3478  143.8710  158.9646 C   0  0  0  0  0  0  0  0  0  0  0  0
  152.6459  144.3817  158.3847 C   0  0  0  0  0  0  0  0  0  0  0  0
  152.6183  143.8015  159.7785 C   0  0  0  0  0  0  0  0  0  0  0  0
  149.1728  139.6734  153.9990 C   0  0  0  0  0  0  0  0  0  0  0  0
  150.3582  139.4078  154.1936 O   0  0  0  0  0  0  0  0  0  0  0  0
  148.2976  138.6905  153.5087 N   0  0  0  0  0  0  0  0  0  0  0  0
  145.5229  140.4651  153.3426 H   0  0  0  0  0  0  0  0  0  0  0  0
  146.5303  136.9934  152.7196 H   0  0  0  0  0  0  0  0  0  0  0  0
  145.7512  138.2581  151.7616 H   0  0  0  0  0  0  0  0  0  0  0  0
  145.1971  137.9245  153.4096 H   0  0  0  0  0  0  0  0  0  0  0  0
  146.6597  142.8715  155.2783 H   0  0  0  0  0  0  0  0  0  0  0  0
  145.5690  142.5456  153.9329 H   0  0  0  0  0  0  0  0  0  0  0  0
  147.0993  143.3678  153.6379 H   0  0  0  0  0  0  0  0  0  0  0  0
  149.0364  143.0553  154.9097 H   0  0  0  0  0  0  0  0  0  0  0  0
  150.3301  142.2976  154.0554 H   0  0  0  0  0  0  0  0  0  0  0  0
  149.6132  143.5552  156.8955 H   0  0  0  0  0  0  0  0  0  0  0  0
  149.9290  142.2874  159.1413 H   0  0  0  0  0  0  0  0  0  0  0  0
  151.4431  141.8033  158.4242 H   0  0  0  0  0  0  0  0  0  0  0  0
  150.6337  144.6281  159.2831 H   0  0  0  0  0  0  0  0  0  0  0  0
  153.1203  143.7906  157.6038 H   0  0  0  0  0  0  0  0  0  0  0  0
  152.7633  145.4592  158.2900 H   0  0  0  0  0  0  0  0  0  0  0  0
  152.7177  144.4926  160.6130 H   0  0  0  0  0  0  0  0  0  0  0  0
  153.0759  142.8250  159.9241 H   0  0  0  0  0  0  0  0  0  0  0  0
  1 19  1  0  0  0  0
  1 20  1  0  0  0  0
  1 21  1  0  0  0  0
  1  2  1  0  0  0  0
  2  3  1  0  0  0  0
  2 17  2  0  0  0  0
  3  4  1  0  0  0  0
  3 18  1  0  0  0  0
  4  6  2  0  0  0  0
  4  5  1  0  0  0  0
  5 22  1  0  0  0  0
  5 23  1  0  0  0  0
  5 24  1  0  0  0  0
  6 15  1  0  0  0  0
  6  7  1  0  0  0  0
  7  8  1  0  0  0  0
  7 25  1  0  0  0  0
  7 26  1  0  0  0  0
  8  9  2  0  0  0  0
  8 10  1  0  0  0  0
 10 11  1  0  0  0  0
 10 27  1  0  0  0  0
 11 12  1  0  0  0  0
 11 28  1  0  0  0  0
 11 29  1  0  0  0  0
 12 14  1  0  0  0  0
 12 13  1  0  0  0  0
 12 30  1  0  0  0  0
 13 14  1  0  0  0  0
 13 31  1  0  0  0  0
 13 32  1  0  0  0  0
 14 33  1  0  0  0  0
 14 34  1  0  0  0  0
 15 16  2  0  0  0  0
 15 17  1  0  0  0  0
M  END
> <s_m_source_file>
AV-unprocessed.smi

> <i_m_source_file_index>
2175

> <i_lp_mmshare_version>
43012

> <i_f3d_flags>
0

> <s_epik_input>
W0NIM11jMW5jKFtDSDNdKWMoYyg9TylbbkhdMSlbQ0gyXUMoPU8pW05IXVtDSDJdW0NIXTJbQ0gyXVtDSDJdMg==

> <s_epik_cmdline>
J2VwaWtfcHl0aG9uJywgJy1waCcsICc3LjAnLCAnLXRuJywgJzgnLCAnLW1hJywgJzIwMCcsICctbWV0YWxfYmluZGluZycsICctaW1hZScsICc8aW5maWxlLm1hZT4nLCAnLW9tYWUnLCAnPG91dGZpbGUubWFlPic=

> <r_lp_tautomer_probability>
0.156392

> <r_epik_Ionization_Penalty>
0.0142343

> <r_epik_Ionization_Penalty_Charging>
0.0141145

> <r_epik_Ionization_Penalty_Neutral>
0.000119779

> <r_epik_State_Penalty>
1.52879

> <r_epik_Charging_Adjusted_Penalty>
1.5429

> <i_epik_Tot_Q>
0

> <i_epik_Tot_abs_Q>
0

> <r_epik_Metal_State_Penalty>
1.70685

> <b_epik_Metal_Only>
0

> <s_lp_Force_Field>
OPLS_2005

> <r_lp_Energy>
17.5363

> <b_lp_Chiralities_Consistent>
1

> <s_lp_Variant>
AV-unprocessed.smi:2175-2

> <Gold.Version>
5.8.1

> <Gold.Id.Protein>
6NUR|6NUR_protein|mol2

> <Gold.PLP.Fitness>
41.3050

> <Gold.PLP.PLP>
-32.7306

> <Gold.PLP.part.hbond>
-3.0000

> <Gold.PLP.part.metal>
0.0000

> <Gold.PLP.part.buried>
1.8861

> <Gold.PLP.part.nonpolar>
-32.1190

> <Gold.PLP.part.repulsive>
1.2275

> <Gold.PLP.ligand.clash>
0.0000

> <Gold.PLP.ligand.torsion>
0.4835

> <Gold.PLP.Chemscore.Hbond>
3.0000

> <Gold.PLP.Chemscore.CHOScore>
0.0000

> <Gold.PLP.Chemscore.Metal>
0.0000

> <Gold.Chemscore.Hbonds>
donor molecule, donor type, donor heavy atom, donor atom, acceptor molecule, acceptor atom, score
      L1  H     3    18       P1 10175  0.99
      L1  H    10    27       P1  8028  1.00
      P1  H  7989  7998       L1    16  0.94

> <Gold.PLP.Chemscore.Internal.Correction>
0.5414

> <Gold.Rescore>
     Score         DG    S(hbond)    S(metal)    S(lipo)     H(rot)  DE(clash)    DE(int)     intcor
     13.26     -19.34       2.61        0.00      82.18       1.75       2.53       3.56       ----

> <Gold.Chemscore.Fitness>
13.2593

> <Gold.Chemscore.DG>
-19.3445

> <Gold.Chemscore.ZeroCoef>
-5.4800

> <Gold.Chemscore.Hbond>
2.6133

> <Gold.Chemscore.Metal>
0.0000

> <Gold.Chemscore.Lipo>
82.1806

> <Gold.Chemscore.Internal_Hbond>
0.0000

> <Gold.Chemscore.DEClash>
2.5277

> <Gold.Chemscore.DEInternal>
3.5575

> <Gold.Chemscore.Rot>
1.7497

> <Gold.Chemscore.Internal.Correction>
   9.000000E+99

> <Gold.Chemscore.Hbonds>
donor molecule, donor type, donor heavy atom, donor atom, acceptor molecule, acceptor atom, score
      L1  H     3    18       P1 10175  0.89
      L1  H    10    27       P1  8028  0.93
      P1  H  7989  7998       L1    16  0.76

> <Gold.Chemscore.Hbond.Weighted>
-8.7285

> <Gold.Chemscore.Metal.Weighted>
-0.0000

> <Gold.Chemscore.Lipo.Weighted>
-9.6151

> <Gold.Chemscore.Internal_Hbond.Weighted>
0.0000

> <Gold.Chemscore.DEClash.Weighted>
2.5277

> <Gold.Chemscore.DEInternal.Weighted>
3.5575

> <Gold.Chemscore.Rot.Weighted>
4.4791

> <Gold.Chemscore.Internal.Correction.Weighted>
   9.000000E+99

> <Gold.Protein.RotatedTorsions>
[ 6907 6896 6895 6894 ] final   14.84 input  -60.11 | X-H torsion
[ 7974 7965 7964 7962 ] final   13.09 input  175.53 | X-H torsion
[ 8008 7997 7996 7995 ] final  116.25 input   59.86 | X-H torsion
[ 10167 10162 10161 10158 ] final   53.66 input  -65.29 | X-H torsion
[ 10718 10713 10712 10709 ] final   21.21 input   66.30 | X-H torsion
[ 10763 10752 10751 10750 ] final -150.61 input  -60.55 | X-H torsion
[ 11005 11000 10999 10996 ] final   76.02 input  -57.11 | X-H torsion

> <Gold.Protein.ActiveResidues>
 VAL166  LYS551  ARG553  GLY616  TRP617  ASP618  TYR619  PRO620  LYS621  CYS622 
 ASP623  PHE694  ASN695  SER759  ASP760  ASP761  ALA762  ILE779  LEU786  VAL792 
 PHE793  MET794  SER795  GLU796  ALA797  LYS798  CYS799  TRP800  GLU811  SER814 

> <Gold.Protein.RotatedAtoms>
  151.8085  135.0688  160.0409 H   0  0  0  0  0  0  0  0  0  0  0  0  # atno 6907 bound_to 6896
  152.3037  133.5677  159.5644 H   0  0  0  0  0  0  0  0  0  0  0  0  # atno 6908 bound_to 6896
  150.7286  134.0170  159.3730 H   0  0  0  0  0  0  0  0  0  0  0  0  # atno 6909 bound_to 6896
  146.2337  139.9240  142.8506 H   0  0  0  0  0  0  0  0  0  0  0  0  # atno 7974 bound_to 7965
  156.2428  140.2921  156.0494 H   0  0  0  0  0  0  0  0  0  0  0  0  # atno 8008 bound_to 7997
  155.1898  140.0406  157.2915 H   0  0  0  0  0  0  0  0  0  0  0  0  # atno 8009 bound_to 7997
  154.6202  140.2474  155.7565 H   0  0  0  0  0  0  0  0  0  0  0  0  # atno 8010 bound_to 7997
  140.2384  144.3610  150.6389 H   0  0  0  0  0  0  0  0  0  0  0  0  # atno 10167 bound_to 10162
  157.1353  130.6608  149.5964 H   0  0  0  0  0  0  0  0  0  0  0  0  # atno 10718 bound_to 10713
  154.8108  135.3280  154.7309 H   0  0  0  0  0  0  0  0  0  0  0  0  # atno 10763 bound_to 10752
  153.7958  135.6907  153.4868 H   0  0  0  0  0  0  0  0  0  0  0  0  # atno 10764 bound_to 10752
  153.1886  135.4559  155.0067 H   0  0  0  0  0  0  0  0  0  0  0  0  # atno 10765 bound_to 10752
  139.9317  134.7566  156.1344 H   0  0  0  0  0  0  0  0  0  0  0  0  # atno 11005 bound_to 11000
  145.2109  140.9895  143.4101 LP  0  0  0  0  0  0  0  0  0  0  0  0  # atno 17320 bound_to 7965
  144.9692  139.3898  143.6317 LP  0  0  0  0  0  0  0  0  0  0  0  0  # atno 17321 bound_to 7965
  140.6132  143.2170  151.6844 LP  0  0  0  0  0  0  0  0  0  0  0  0  # atno 17342 bound_to 10162
  139.5086  144.3607  152.0565 LP  0  0  0  0  0  0  0  0  0  0  0  0  # atno 17343 bound_to 10162
  155.9799  130.4797  150.6745 LP  0  0  0  0  0  0  0  0  0  0  0  0  # atno 17370 bound_to 10713
  157.4356  131.0855  151.0995 LP  0  0  0  0  0  0  0  0  0  0  0  0  # atno 17371 bound_to 10713
  141.0909  133.6715  156.2538 LP  0  0  0  0  0  0  0  0  0  0  0  0  # atno 17394 bound_to 11000
  140.6185  134.5386  157.5544 LP  0  0  0  0  0  0  0  0  0  0  0  0  # atno 17395 bound_to 11000

$$$$
