AV-unprocessed.smi:3287|AV-procd|sdf|12600|dock3
  -GOLD-   2272018523D 1   1.00000     0.00000
 Structure written by MMmdl.
 43 44  0  0  0  0  0  0  0  0  2 V2000
  152.1316  143.8279  161.2410 C   0  0  0  0  0  0  0  0  0  0  0  0
  152.8815  143.6662  159.9033 C   0  0  2  0  0  0  0  0  0  0  0  0
  152.4096  144.6977  158.8580 C   0  0  0  0  0  0  0  0  0  0  0  0
  151.0111  144.3758  158.3031 C   0  0  0  0  0  0  0  0  0  0  0  0
  150.9517  142.9512  157.7149 C   0  0  2  0  0  0  0  0  0  0  0  0
  149.5919  142.6145  157.2396 N   0  3  0  0  0  0  0  0  0  0  0  0
  149.4486  141.2725  156.6348 C   0  0  0  0  0  0  0  0  0  0  0  0
  150.3619  141.1082  155.4078 C   0  0  2  0  0  0  0  0  0  0  0  0
  149.6038  141.3553  154.2389 O   0  0  0  0  0  0  0  0  0  0  0  0
  151.0031  139.7295  155.3838 C   0  0  0  0  0  0  0  0  0  0  0  0
  150.4137  138.6786  154.6501 C   0  0  0  0  0  0  0  0  0  0  0  0
  151.0471  137.4194  154.6488 C   0  0  0  0  0  0  0  0  0  0  0  0
  152.1946  137.1659  155.3134 N   0  0  0  0  0  0  0  0  0  0  0  0
  152.7563  138.1753  156.0121 C   0  0  0  0  0  0  0  0  0  0  0  0
  152.2047  139.4703  156.0785 C   0  0  0  0  0  0  0  0  0  0  0  0
  151.4097  141.9158  158.7589 C   0  0  0  0  0  0  0  0  0  0  0  0
  152.8153  142.2377  159.3053 C   0  0  2  0  0  0  0  0  0  0  0  0
  153.3166  141.1497  160.2692 C   0  0  0  0  0  0  0  0  0  0  0  0
  151.0749  143.5764  161.1556 H   0  0  0  0  0  0  0  0  0  0  0  0
  152.1948  144.8559  161.5988 H   0  0  0  0  0  0  0  0  0  0  0  0
  152.5605  143.1967  162.0189 H   0  0  0  0  0  0  0  0  0  0  0  0
  153.9297  143.8843  160.1127 H   0  0  0  0  0  0  0  0  0  0  0  0
  152.4192  145.7005  159.2865 H   0  0  0  0  0  0  0  0  0  0  0  0
  153.1210  144.7192  158.0312 H   0  0  0  0  0  0  0  0  0  0  0  0
  150.2665  144.4847  159.0924 H   0  0  0  0  0  0  0  0  0  0  0  0
  150.7581  145.1138  157.5421 H   0  0  0  0  0  0  0  0  0  0  0  0
  151.6336  142.8901  156.8652 H   0  0  0  0  0  0  0  0  0  0  0  0
  148.9732  142.6429  158.0379 H   0  0  0  0  0  0  0  0  0  0  0  0
  149.7046  140.5181  157.3787 H   0  0  0  0  0  0  0  0  0  0  0  0
  148.4074  141.1055  156.3544 H   0  0  0  0  0  0  0  0  0  0  0  0
  151.1546  141.8571  155.4459 H   0  0  0  0  0  0  0  0  0  0  0  0
  148.7455  140.9751  154.3523 H   0  0  0  0  0  0  0  0  0  0  0  0
  149.4975  138.8276  154.0980 H   0  0  0  0  0  0  0  0  0  0  0  0
  150.6210  136.5943  154.0976 H   0  0  0  0  0  0  0  0  0  0  0  0
  153.6736  137.9451  156.5335 H   0  0  0  0  0  0  0  0  0  0  0  0
  152.6977  140.2434  156.6497 H   0  0  0  0  0  0  0  0  0  0  0  0
  150.6924  141.8694  159.5791 H   0  0  0  0  0  0  0  0  0  0  0  0
  151.4151  140.9234  158.3060 H   0  0  0  0  0  0  0  0  0  0  0  0
  153.4969  142.2234  158.4530 H   0  0  0  0  0  0  0  0  0  0  0  0
  152.6476  141.0227  161.1204 H   0  0  0  0  0  0  0  0  0  0  0  0
  154.3081  141.3908  160.6535 H   0  0  0  0  0  0  0  0  0  0  0  0
  153.3871  140.1857  159.7646 H   0  0  0  0  0  0  0  0  0  0  0  0
  149.2908  143.3153  156.5778 H   0  0  0  0  0  0  0  0  0  0  0  0
  1  2  1  0  0  0  0
  1 19  1  0  0  0  0
  1 20  1  0  0  0  0
  1 21  1  0  0  0  0
  2 17  1  0  0  0  0
  2  3  1  0  0  0  0
  2 22  1  0  0  0  0
  3  4  1  0  0  0  0
  3 23  1  0  0  0  0
  3 24  1  0  0  0  0
  4  5  1  0  0  0  0
  4 25  1  0  0  0  0
  4 26  1  0  0  0  0
  5  6  1  0  0  0  0
  5 16  1  0  0  0  0
  5 27  1  0  0  0  0
  6  7  1  0  0  0  0
  6 28  1  0  0  0  0
  6 43  1  0  0  0  0
  7  8  1  0  0  0  0
  7 29  1  0  0  0  0
  7 30  1  0  0  0  0
  8  9  1  0  0  0  0
  8 10  1  0  0  0  0
  8 31  1  0  0  0  0
  9 32  1  0  0  0  0
 10 15  1  0  0  0  0
 10 11  2  0  0  0  0
 11 12  1  0  0  0  0
 11 33  1  0  0  0  0
 12 13  2  0  0  0  0
 12 34  1  0  0  0  0
 13 14  1  0  0  0  0
 14 15  2  0  0  0  0
 14 35  1  0  0  0  0
 15 36  1  0  0  0  0
 16 17  1  0  0  0  0
 16 37  1  0  0  0  0
 16 38  1  0  0  0  0
 17 18  1  0  0  0  0
 17 39  1  0  0  0  0
 18 40  1  0  0  0  0
 18 41  1  0  0  0  0
 18 42  1  0  0  0  0
M  CHG  1   6   1
M  END
> <s_m_source_file>
AV-unprocessed.smi

> <i_m_source_file_index>
3287

> <i_lp_mmshare_version>
43012

> <i_f3d_flags>
0

> <s_epik_input>
W0NIM11bQ0BASF0xW0NIMl1bQ0gyXVtDQEhdKFtDSDJdW0NASF0xW0NIM10pW05IXVtDSDJdW0NASF0oW09IXSljMltjSF1bY0hdbltjSF1bY0hdMg==

> <s_epik_cmdline>
J2VwaWtfcHl0aG9uJywgJy1waCcsICc3LjAnLCAnLXRuJywgJzgnLCAnLW1hJywgJzIwMCcsICctbWV0YWxfYmluZGluZycsICctaW1hZScsICc8aW5maWxlLm1hZT4nLCAnLW9tYWUnLCAnPG91dGZpbGUubWFlPic=

> <r_lp_tautomer_probability>
1

> <r_epik_Ionization_Penalty>
0.00537262

> <r_epik_Ionization_Penalty_Charging>
0.00321624

> <r_epik_Ionization_Penalty_Neutral>
0.00215638

> <r_epik_State_Penalty>
-0

> <r_epik_Charging_Adjusted_Penalty>
0.00321624

> <i_epik_Tot_Q>
1

> <i_epik_Tot_abs_Q>
1

> <r_epik_Metal_State_Penalty>
-0

> <b_epik_Metal_Only>
0

> <s_lp_Force_Field>
OPLS_2005

> <r_lp_Energy>
17.0862

> <b_lp_Chiralities_Consistent>
1

> <s_lp_Variant>
AV-unprocessed.smi:3287-11

> <Gold.Version>
5.8.1

> <Gold.Id.Protein>
6NUR|6NUR_protein|mol2

> <Gold.PLP.Fitness>
58.6685

> <Gold.PLP.PLP>
-48.0822

> <Gold.PLP.part.hbond>
-4.0000

> <Gold.PLP.part.metal>
0.0000

> <Gold.PLP.part.buried>
-1.7730

> <Gold.PLP.part.nonpolar>
-41.3529

> <Gold.PLP.part.repulsive>
0.0939

> <Gold.PLP.ligand.clash>
0.0000

> <Gold.PLP.ligand.torsion>
1.2747

> <Gold.PLP.Chemscore.Hbond>
3.2978

> <Gold.PLP.Chemscore.CHOScore>
1.0699

> <Gold.PLP.Chemscore.Metal>
0.0000

> <Gold.Chemscore.Hbonds>
donor molecule, donor type, donor heavy atom, donor atom, acceptor molecule, acceptor atom, score
      L1  H     6    43       P1  8028  2.00
      P1  H  8011  8017       L1     9  0.41
      P1  H 10752 10764       L1    13  0.77
      L1  C    12    34       P1  7948  0.24
      L1  C    12    34       P1  7949  0.30

> <Gold.PLP.Chemscore.Internal.Correction>
0.0326

> <Gold.Rescore>
     Score         DG    S(hbond)    S(metal)    S(lipo)     H(rot)  DE(clash)    DE(int)     intcor
     23.62     -24.60       2.38        0.00     137.18       1.90       0.09       0.89       ----

> <Gold.Chemscore.Fitness>
23.6239

> <Gold.Chemscore.DG>
-24.6039

> <Gold.Chemscore.ZeroCoef>
-5.4800

> <Gold.Chemscore.Hbond>
2.3792

> <Gold.Chemscore.Metal>
0.0000

> <Gold.Chemscore.Lipo>
137.1821

> <Gold.Chemscore.Internal_Hbond>
0.0000

> <Gold.Chemscore.DEClash>
0.0885

> <Gold.Chemscore.DEInternal>
0.8914

> <Gold.Chemscore.Rot>
1.9035

> <Gold.Chemscore.Internal.Correction>
   9.000000E+99

> <Gold.Chemscore.Hbonds>
donor molecule, donor type, donor heavy atom, donor atom, acceptor molecule, acceptor atom, score
      L1  H     6    43       P1  8028  1.00
      P1  H  8011  8017       L1     9  0.34
      P1  H 10752 10764       L1    13  0.42

> <Gold.Chemscore.Hbond.Weighted>
-7.9464

> <Gold.Chemscore.Metal.Weighted>
-0.0000

> <Gold.Chemscore.Lipo.Weighted>
-16.0503

> <Gold.Chemscore.Internal_Hbond.Weighted>
0.0000

> <Gold.Chemscore.DEClash.Weighted>
0.0885

> <Gold.Chemscore.DEInternal.Weighted>
0.8914

> <Gold.Chemscore.Rot.Weighted>
4.8729

> <Gold.Chemscore.Internal.Correction.Weighted>
   9.000000E+99

> <Gold.Protein.RotatedTorsions>
[ 6907 6896 6895 6894 ] final -104.50 input  -60.11 | X-H torsion
[ 7974 7965 7964 7962 ] final  -14.54 input  175.53 | X-H torsion
[ 8008 7997 7996 7995 ] final  -43.71 input   59.86 | X-H torsion
[ 10167 10162 10161 10158 ] final -105.26 input  -65.29 | X-H torsion
[ 10718 10713 10712 10709 ] final -150.06 input   66.30 | X-H torsion
[ 10763 10752 10751 10750 ] final  -66.91 input  -60.55 | X-H torsion
[ 11005 11000 10999 10996 ] final   85.70 input  -57.11 | X-H torsion

> <Gold.Protein.ActiveResidues>
 VAL166  LYS551  ARG553  GLY616  TRP617  ASP618  TYR619  PRO620  LYS621  CYS622 
 ASP623  PHE694  ASN695  SER759  ASP760  ASP761  ALA762  ILE779  LEU786  VAL792 
 PHE793  MET794  SER795  GLU796  ALA797  LYS798  CYS799  TRP800  GLU811  SER814 

> <Gold.Protein.RotatedAtoms>
  150.7290  134.0268  159.3719 H   0  0  0  0  0  0  0  0  0  0  0  0  # atno 6907 bound_to 6896
  151.8236  135.0642  160.0437 H   0  0  0  0  0  0  0  0  0  0  0  0  # atno 6908 bound_to 6896
  152.2986  133.5596  159.5640 H   0  0  0  0  0  0  0  0  0  0  0  0  # atno 6909 bound_to 6896
  146.2070  140.3363  142.8404 H   0  0  0  0  0  0  0  0  0  0  0  0  # atno 7974 bound_to 7965
  154.3997  140.1441  156.3564 H   0  0  0  0  0  0  0  0  0  0  0  0  # atno 8008 bound_to 7997
  155.8221  140.3469  155.5500 H   0  0  0  0  0  0  0  0  0  0  0  0  # atno 8009 bound_to 7997
  155.8276  140.0907  157.1802 H   0  0  0  0  0  0  0  0  0  0  0  0  # atno 8010 bound_to 7997
  140.2005  143.3822  152.1134 H   0  0  0  0  0  0  0  0  0  0  0  0  # atno 10167 bound_to 10162
  156.4412  130.8123  151.2352 H   0  0  0  0  0  0  0  0  0  0  0  0  # atno 10718 bound_to 10713
  154.3667  135.6104  153.5718 H   0  0  0  0  0  0  0  0  0  0  0  0  # atno 10763 bound_to 10752
  152.9791  135.5828  154.4570 H   0  0  0  0  0  0  0  0  0  0  0  0  # atno 10764 bound_to 10752
  154.4317  135.2848  155.1886 H   0  0  0  0  0  0  0  0  0  0  0  0  # atno 10765 bound_to 10752
  139.8964  134.8305  156.2619 H   0  0  0  0  0  0  0  0  0  0  0  0  # atno 11005 bound_to 11000
  144.8817  140.7409  143.5982 LP  0  0  0  0  0  0  0  0  0  0  0  0  # atno 17320 bound_to 7965
  145.3283  139.1767  143.4550 LP  0  0  0  0  0  0  0  0  0  0  0  0  # atno 17321 bound_to 7965
  139.5219  144.7052  151.5375 LP  0  0  0  0  0  0  0  0  0  0  0  0  # atno 17342 bound_to 10162
  140.6394  143.8919  150.6677 LP  0  0  0  0  0  0  0  0  0  0  0  0  # atno 17343 bound_to 10162
  157.7506  131.0167  150.3557 LP  0  0  0  0  0  0  0  0  0  0  0  0  # atno 17370 bound_to 10713
  156.3915  130.3899  149.7026 LP  0  0  0  0  0  0  0  0  0  0  0  0  # atno 17371 bound_to 10713
  141.0157  133.7070  156.1185 LP  0  0  0  0  0  0  0  0  0  0  0  0  # atno 17394 bound_to 11000
  140.7305  134.4260  157.5566 LP  0  0  0  0  0  0  0  0  0  0  0  0  # atno 17395 bound_to 11000

$$$$
