#       Name:                AV-unprocessed.smi:625
#       Creating user name   scv26
#       Creation time:       Fri Mar 27 00:02:46 2020


#       File generated by GOLD software.
#

@<TRIPOS>MOLECULE
AV-unprocessed.smi:625
    55    57     1
SMALL
NO_CHARGES


@<TRIPOS>ATOM
      1 ****        -1.9885   2.9181   2.2539 C.3            1 S1                 0.0000
      2 ****        -2.2709   2.0706   1.1060 N.am           1 S1                 0.0000
      3 ****        -3.0449   2.4245   0.0649 C.2            1 S1                 0.0000
      4 ****        -3.5970   3.5242   0.0147 O.2            1 S1                 0.0000
      5 ****        -3.1473   1.4029  -0.9810 C.2            1 S1                 0.0000
      6 ****        -3.8314   1.7173  -2.2200 C.2            1 S1                 0.0000
      7 ****        -3.9019   0.8133  -3.2172 C.2            1 S1                 0.0000
      8 ****        -3.2981  -0.5175  -3.0972 C.2            1 S1                 0.0000
      9 ****        -3.3368  -1.3361  -4.0156 O.2            1 S1                 0.0000
     10 ****        -2.6893  -0.7860  -1.9028 N.am           1 S1                 0.0000
     11 ****        -2.0072  -2.0659  -1.6540 C.3            1 S1                 0.0000
     12 ****        -0.4883  -1.9009  -1.7686 C.2            1 S1                 0.0000
     13 ****         0.0118  -1.4585  -2.8029 O.2            1 S1                 0.0000
     14 ****         0.2217  -2.2370  -0.6808 N.am           1 S1                 0.0000
     15 ****         1.6473  -1.9891  -0.4763 C.3            1 S1                 0.0000
     16 ****         2.3601  -3.3423  -0.3199 C.3            1 S1                 0.0000
     17 ****         1.8290  -1.0621   0.7533 C.3            1 S1                 0.0000
     18 ****         1.0418   0.2721   0.6632 C.3            1 S1                 0.0000
     19 ****         2.1166   1.3392   0.9271 C.3            1 S1                 0.0000
     20 ****         2.5704   1.2637   2.3959 C.3            1 S1                 0.0000
     21 ****         3.4007  -0.0334   2.4258 C.3            1 S1                 0.0000
     22 ****         3.2748  -0.5534   0.9803 C.3            1 S1                 0.0000
     23 ****         3.3115   0.7508   0.1892 C.3            1 S1                 0.0000
     24 ****        -2.6177   0.1661  -0.8657 C.2            1 S1                 0.0000
     25 ****        -1.3242   2.3976   2.9437 H              1 S1                 0.0000
     26 ****        -2.9067   3.1692   2.7865 H              1 S1                 0.0000
     27 ****        -1.5005   3.8427   1.9432 H              1 S1                 0.0000
     28 ****        -1.8397   1.1578   1.0908 H              1 S1                 0.0000
     29 ****        -4.2928   2.6845  -2.3595 H              1 S1                 0.0000
     30 ****        -4.4157   1.0749  -4.1306 H              1 S1                 0.0000
     31 ****        -2.2742  -2.4270  -0.6590 H              1 S1                 0.0000
     32 ****        -2.3255  -2.8516  -2.3407 H              1 S1                 0.0000
     33 ****        -0.2841  -2.6129   0.1081 H              1 S1                 0.0000
     34 ****         2.0686  -1.4902  -1.3504 H              1 S1                 0.0000
     35 ****         3.4399  -3.2240  -0.2377 H              1 S1                 0.0000
     36 ****         2.1742  -3.9825  -1.1830 H              1 S1                 0.0000
     37 ****         2.0142  -3.8738   0.5673 H              1 S1                 0.0000
     38 ****         1.4973  -1.6131   1.6350 H              1 S1                 0.0000
     39 ****         0.6178   0.4273  -0.3297 H              1 S1                 0.0000
     40 ****         0.2223   0.3195   1.3809 H              1 S1                 0.0000
     41 ****         1.8247   2.3404   0.6086 H              1 S1                 0.0000
     42 ****         3.1906   2.1221   2.6573 H              1 S1                 0.0000
     43 ****         1.7269   1.2355   3.0868 H              1 S1                 0.0000
     44 ****         4.4417   0.1861   2.6669 H              1 S1                 0.0000
     45 ****         3.0331  -0.7481   3.1632 H              1 S1                 0.0000
     46 ****         4.0562  -1.2659   0.7189 H              1 S1                 0.0000
     47 ****         3.1389   0.6187  -0.8802 H              1 S1                 0.0000
     48 ****         4.2319   1.3194   0.3341 H              1 S1                 0.0000
     49 ****        -2.0823  -0.1857   0.0050 H              1 S1                 0.0000
     50 ****        -3.4748   4.1795   0.7602 LP             1 S1                 0.0000
     51 ****        -4.1674   3.7618  -0.7715 LP             1 S1                 0.0000
     52 ****        -3.7899  -1.1016  -4.8756 LP             1 S1                 0.0000
     53 ****        -2.9151  -2.2357  -3.9016 LP             1 S1                 0.0000
     54 ****        -0.5738  -1.2051  -3.5728 LP             1 S1                 0.0000
     55 ****         1.0037  -1.3526  -2.8731 LP             1 S1                 0.0000
@<TRIPOS>BOND
    1    1    2 1     
    2    1   25 1     
    3    1   26 1     
    4    1   27 1     
    5    2    3 am    
    6    2   28 1     
    7    3    4 2     
    8    3    5 1     
    9    5   24 2     
   10    5    6 1     
   11    6    7 2     
   12    6   29 1     
   13    7    8 1     
   14    7   30 1     
   15    8    9 2     
   16    8   10 am    
   17   10   11 1     
   18   10   24 1     
   19   11   12 1     
   20   11   31 1     
   21   11   32 1     
   22   12   13 2     
   23   12   14 am    
   24   14   15 1     
   25   14   33 1     
   26   15   16 1     
   27   15   17 1     
   28   15   34 1     
   29   16   35 1     
   30   16   36 1     
   31   16   37 1     
   32   17   22 1     
   33   17   18 1     
   34   17   38 1     
   35   18   19 1     
   36   18   39 1     
   37   18   40 1     
   38   19   23 1     
   39   19   20 1     
   40   19   41 1     
   41   20   21 1     
   42   20   42 1     
   43   20   43 1     
   44   21   22 1     
   45   21   44 1     
   46   21   45 1     
   47   22   23 1     
   48   22   46 1     
   49   23   47 1     
   50   23   48 1     
   51   24   49 1     
   52    4   50 1     
   53    4   51 1     
   54    9   52 1     
   55    9   53 1     
   56   13   54 1     
   57   13   55 1     
@<TRIPOS>SUBSTRUCTURE
      1 S1             1
@<TRIPOS>SET
LONE_PAIRS      STATIC     ATOMS    <user>   **** ""
6 50 51 52 53 54 55
DONOR_HYDROGENS      STATIC     ATOMS    <user>   **** ""
2 28 33
ATOM$BLUE        STATIC     ATOMS    COLORGROUP SYSTEM
6 50 51 52 53 54 55
ATOM$RED        STATIC     ATOMS    COLORGROUP SYSTEM
2 28 33
