AV-unprocessed.smi:1381|AV-procd|sdf|5612|dock7
  -GOLD-   22720 5223D 1   1.00000     0.00000
 Structure written by MMmdl.
 42 43  0  0  0  0  0  0  0  0  3 V2000
  146.5765  136.1021  162.7771 C   0  0  0  0  0  0  0  0  0  0  0  0
  147.2418  135.9916  161.4477 C   0  0  0  0  0  0  0  0  0  0  0  0
  147.6922  134.9252  160.7228 C   0  0  0  0  0  0  0  0  0  0  0  0
  148.2160  135.5288  159.5473 C   0  0  0  0  0  0  0  0  0  0  0  0
  148.7930  134.8837  158.5216 N   0  5  0  0  0  0  0  0  0  0  0  0
  148.6637  135.3563  157.2609 C   0  0  0  0  0  0  0  0  0  0  0  0
  148.3698  136.5090  156.9359 O   0  0  0  0  0  0  0  0  0  0  0  0
  148.8841  134.4330  156.3158 N   0  0  0  0  0  0  0  0  0  0  0  0
  148.7935  134.6607  154.8800 C   0  0  0  0  0  0  0  0  0  0  0  0
  147.9105  133.5854  154.2273 C   0  0  0  0  0  0  0  0  0  0  0  0
  147.3172  134.0347  152.9430 N   0  3  1  0  0  0  0  0  0  0  0  0
  146.9570  132.8961  152.0651 C   0  0  0  0  0  0  0  0  0  0  0  0
  146.3956  133.3997  150.7220 C   0  0  1  0  0  0  0  0  0  0  0  0
  145.9332  132.2487  149.8215 C   0  0  0  0  0  0  0  0  0  0  0  0
  145.2757  134.2415  150.9724 O   0  0  0  0  0  0  0  0  0  0  0  0
  145.6177  135.3920  151.7373 C   0  0  1  0  0  0  0  0  0  0  0  0
  144.3678  136.2698  151.8655 C   0  0  0  0  0  0  0  0  0  0  0  0
  146.1556  134.9435  153.1092 C   0  0  0  0  0  0  0  0  0  0  0  0
  148.1070  136.8469  159.5640 N   0  0  0  0  0  0  0  0  0  0  0  0
  147.4773  137.1515  160.7768 O   0  0  0  0  0  0  0  0  0  0  0  0
  147.2397  135.7539  163.5689 H   0  0  0  0  0  0  0  0  0  0  0  0
  145.6701  135.4976  162.8054 H   0  0  0  0  0  0  0  0  0  0  0  0
  146.3014  137.1340  162.9961 H   0  0  0  0  0  0  0  0  0  0  0  0
  147.6515  133.8796  160.9890 H   0  0  0  0  0  0  0  0  0  0  0  0
  149.1264  133.5023  156.6231 H   0  0  0  0  0  0  0  0  0  0  0  0
  148.3837  135.6556  154.7051 H   0  0  0  0  0  0  0  0  0  0  0  0
  149.7968  134.6415  154.4520 H   0  0  0  0  0  0  0  0  0  0  0  0
  148.5282  132.7048  154.0434 H   0  0  0  0  0  0  0  0  0  0  0  0
  147.1188  133.2708  154.9093 H   0  0  0  0  0  0  0  0  0  0  0  0
  147.8374  132.2773  151.8853 H   0  0  0  0  0  0  0  0  0  0  0  0
  146.2210  132.2678  152.5701 H   0  0  0  0  0  0  0  0  0  0  0  0
  147.1619  133.9688  150.1924 H   0  0  0  0  0  0  0  0  0  0  0  0
  146.7595  131.5781  149.5846 H   0  0  0  0  0  0  0  0  0  0  0  0
  145.5323  132.6267  148.8804 H   0  0  0  0  0  0  0  0  0  0  0  0
  145.1513  131.6601  150.3028 H   0  0  0  0  0  0  0  0  0  0  0  0
  146.3856  135.9596  151.2088 H   0  0  0  0  0  0  0  0  0  0  0  0
  144.5796  137.1729  152.4386 H   0  0  0  0  0  0  0  0  0  0  0  0
  143.5597  135.7367  152.3672 H   0  0  0  0  0  0  0  0  0  0  0  0
  144.0053  136.5771  150.8842 H   0  0  0  0  0  0  0  0  0  0  0  0
  145.3725  134.4335  153.6729 H   0  0  0  0  0  0  0  0  0  0  0  0
  146.4402  135.8239  153.6839 H   0  0  0  0  0  0  0  0  0  0  0  0
  148.0354  134.5535  152.4578 H   0  0  0  0  0  0  0  0  0  0  0  0
  1  2  1  0  0  0  0
  1 21  1  0  0  0  0
  1 22  1  0  0  0  0
  1 23  1  0  0  0  0
  2 20  1  0  0  0  0
  2  3  2  0  0  0  0
  3  4  1  0  0  0  0
  3 24  1  0  0  0  0
  4  5  1  0  0  0  0
  4 19  2  0  0  0  0
  5  6  1  0  0  0  0
  6  7  2  0  0  0  0
  6  8  1  0  0  0  0
  8  9  1  0  0  0  0
  8 25  1  0  0  0  0
  9 10  1  0  0  0  0
  9 26  1  0  0  0  0
  9 27  1  0  0  0  0
 10 11  1  0  0  0  0
 10 28  1  0  0  0  0
 10 29  1  0  0  0  0
 11 18  1  0  0  0  0
 11 12  1  0  0  0  0
 11 42  1  0  0  0  0
 12 13  1  0  0  0  0
 12 30  1  0  0  0  0
 12 31  1  0  0  0  0
 13 14  1  0  0  0  0
 13 15  1  0  0  0  0
 13 32  1  0  0  0  0
 14 33  1  0  0  0  0
 14 34  1  0  0  0  0
 14 35  1  0  0  0  0
 15 16  1  0  0  0  0
 16 17  1  0  0  0  0
 16 18  1  0  0  0  0
 16 36  1  0  0  0  0
 17 37  1  0  0  0  0
 17 38  1  0  0  0  0
 17 39  1  0  0  0  0
 18 40  1  0  0  0  0
 18 41  1  0  0  0  0
 19 20  1  0  0  0  0
M  CHG  1   5  -1
M  CHG  1  11   1
M  END
> <s_m_source_file>
AV-unprocessed.smi

> <i_m_source_file_index>
1381

> <i_lp_mmshare_version>
43012

> <i_f3d_flags>
0

> <s_epik_input>
W0NIM11jMVtjSF1jKG5vMSlbTkhdQyg9TylbTkhdW0NIMl1bQ0gyXU4yW0NIMl1bQ0BASF0oW0NIM10pT1tDQEBIXShbQ0gzXSlbQ0gyXTI=

> <s_epik_cmdline>
J2VwaWtfcHl0aG9uJywgJy1waCcsICc3LjAnLCAnLXRuJywgJzgnLCAnLW1hJywgJzIwMCcsICctbWV0YWxfYmluZGluZycsICctaW1hZScsICc8aW5maWxlLm1hZT4nLCAnLW9tYWUnLCAnPG91dGZpbGUubWFlPic=

> <r_epik_Ionization_Penalty>
6.73511

> <r_epik_Ionization_Penalty_Charging>
6.73502

> <r_epik_Ionization_Penalty_Neutral>
9.26583e-05

> <r_epik_State_Penalty>
6.93549

> <r_epik_Charging_Adjusted_Penalty>
13.6705

> <i_epik_Tot_Q>
0

> <i_epik_Tot_abs_Q>
2

> <r_epik_Metal_State_Penalty>
2.87211

> <b_epik_Metal_Only>
1

> <s_lp_Force_Field>
OPLS_2005

> <r_lp_Energy>
2.9367

> <b_lp_Chiralities_Consistent>
1

> <s_lp_Variant>
AV-unprocessed.smi:1381-11

> <Gold.Version>
5.8.1

> <Gold.Id.Protein>
6NUR|6NUR_protein|mol2

> <Gold.PLP.Fitness>
46.2155

> <Gold.PLP.PLP>
-30.3439

> <Gold.PLP.part.hbond>
-4.0000

> <Gold.PLP.part.metal>
0.0000

> <Gold.PLP.part.buried>
-4.1794

> <Gold.PLP.part.nonpolar>
-23.3083

> <Gold.PLP.part.repulsive>
0.1786

> <Gold.PLP.ligand.clash>
0.0000

> <Gold.PLP.ligand.torsion>
0.6936

> <Gold.PLP.Chemscore.Hbond>
5.7280

> <Gold.PLP.Chemscore.CHOScore>
0.0000

> <Gold.PLP.Chemscore.Metal>
0.0000

> <Gold.Chemscore.Hbonds>
donor molecule, donor type, donor heavy atom, donor atom, acceptor molecule, acceptor atom, score
      L1  H    11    42       P1  7948  2.00
      P1  H  6896  6908       L1     5  1.17
      P1  H  6931  6943       L1    20  0.45
      P1  H  6934  6947       L1    20  1.00

> <Gold.PLP.Chemscore.Internal.Correction>
0.0748

> <Gold.Rescore>
     Score         DG    S(hbond)    S(metal)    S(lipo)     H(rot)  DE(clash)    DE(int)     intcor
     14.70     -17.27       2.42        0.00      66.21       1.58       0.02       2.55       ----

> <Gold.Chemscore.Fitness>
14.6997

> <Gold.Chemscore.DG>
-17.2686

> <Gold.Chemscore.ZeroCoef>
-5.4800

> <Gold.Chemscore.Hbond>
2.4207

> <Gold.Chemscore.Metal>
0.0000

> <Gold.Chemscore.Lipo>
66.2081

> <Gold.Chemscore.Internal_Hbond>
0.0000

> <Gold.Chemscore.DEClash>
0.0158

> <Gold.Chemscore.DEInternal>
2.5531

> <Gold.Chemscore.Rot>
1.5792

> <Gold.Chemscore.Internal.Correction>
   9.000000E+99

> <Gold.Chemscore.Hbonds>
donor molecule, donor type, donor heavy atom, donor atom, acceptor molecule, acceptor atom, score
      L1  H    11    42       P1  7948  0.44
      P1  H  6896  6908       L1     5  0.25
      P1  H  6931  6943       L1    20  0.11
      P1  H  6934  6947       L1    20  0.75

> <Gold.Chemscore.Hbond.Weighted>
-8.0851

> <Gold.Chemscore.Metal.Weighted>
-0.0000

> <Gold.Chemscore.Lipo.Weighted>
-7.7463

> <Gold.Chemscore.Internal_Hbond.Weighted>
0.0000

> <Gold.Chemscore.DEClash.Weighted>
0.0158

> <Gold.Chemscore.DEInternal.Weighted>
2.5531

> <Gold.Chemscore.Rot.Weighted>
4.0428

> <Gold.Chemscore.Internal.Correction.Weighted>
   9.000000E+99

> <Gold.Protein.RotatedTorsions>
[ 6907 6896 6895 6894 ] final  137.36 input  -60.11 | X-H torsion
[ 7974 7965 7964 7962 ] final -158.50 input  175.53 | X-H torsion
[ 8008 7997 7996 7995 ] final  -40.64 input   59.86 | X-H torsion
[ 10167 10162 10161 10158 ] final   31.61 input  -65.29 | X-H torsion
[ 10718 10713 10712 10709 ] final  -70.46 input   66.30 | X-H torsion
[ 10763 10752 10751 10750 ] final   50.01 input  -60.55 | X-H torsion
[ 11005 11000 10999 10996 ] final -173.90 input  -57.11 | X-H torsion

> <Gold.Protein.ActiveResidues>
 VAL166  LYS551  ARG553  GLY616  TRP617  ASP618  TYR619  PRO620  LYS621  CYS622 
 ASP623  PHE694  ASN695  SER759  ASP760  ASP761  ALA762  ILE779  LEU786  VAL792 
 PHE793  MET794  SER795  GLU796  ALA797  LYS798  CYS799  TRP800  GLU811  SER814 

> <Gold.Protein.RotatedAtoms>
  152.2790  133.5452  159.5485 H   0  0  0  0  0  0  0  0  0  0  0  0  # atno 6907 bound_to 6896
  150.7188  134.0591  159.3834 H   0  0  0  0  0  0  0  0  0  0  0  0  # atno 6908 bound_to 6896
  151.8503  135.0560  160.0509 H   0  0  0  0  0  0  0  0  0  0  0  0  # atno 6909 bound_to 6896
  144.7503  140.3818  143.6053 H   0  0  0  0  0  0  0  0  0  0  0  0  # atno 7974 bound_to 7965
  154.4010  140.1520  156.3060 H   0  0  0  0  0  0  0  0  0  0  0  0  # atno 8008 bound_to 7997
  155.8658  140.3451  155.5766 H   0  0  0  0  0  0  0  0  0  0  0  0  # atno 8009 bound_to 7997
  155.7829  140.0846  157.2040 H   0  0  0  0  0  0  0  0  0  0  0  0  # atno 8010 bound_to 7997
  140.4573  144.0959  150.6205 H   0  0  0  0  0  0  0  0  0  0  0  0  # atno 10167 bound_to 10162
  156.0407  130.4332  150.2299 H   0  0  0  0  0  0  0  0  0  0  0  0  # atno 10718 bound_to 10713
  152.9785  135.5893  154.4182 H   0  0  0  0  0  0  0  0  0  0  0  0  # atno 10763 bound_to 10752
  154.3809  135.2767  155.2213 H   0  0  0  0  0  0  0  0  0  0  0  0  # atno 10764 bound_to 10752
  154.4127  135.6077  153.6017 H   0  0  0  0  0  0  0  0  0  0  0  0  # atno 10765 bound_to 10752
  140.4805  134.6080  157.4917 H   0  0  0  0  0  0  0  0  0  0  0  0  # atno 11005 bound_to 11000
  145.6969  139.1652  143.2615 LP  0  0  0  0  0  0  0  0  0  0  0  0  # atno 17320 bound_to 7965
  146.1443  140.7014  142.9352 LP  0  0  0  0  0  0  0  0  0  0  0  0  # atno 17321 bound_to 7965
  140.4135  143.2645  151.9803 LP  0  0  0  0  0  0  0  0  0  0  0  0  # atno 17342 bound_to 10162
  139.4802  144.5894  151.7798 LP  0  0  0  0  0  0  0  0  0  0  0  0  # atno 17343 bound_to 10162
  157.0394  131.0031  151.3288 LP  0  0  0  0  0  0  0  0  0  0  0  0  # atno 17370 bound_to 10713
  157.5220  130.8004  149.7820 LP  0  0  0  0  0  0  0  0  0  0  0  0  # atno 17371 bound_to 10713
  139.9829  134.7108  155.9826 LP  0  0  0  0  0  0  0  0  0  0  0  0  # atno 17394 bound_to 11000
  141.1533  133.6545  156.4083 LP  0  0  0  0  0  0  0  0  0  0  0  0  # atno 17395 bound_to 11000

$$$$
