#       Name:                AV-unprocessed.smi:21
#       Creating user name   scv26
#       Creation time:       Thu Mar 26 15:38:35 2020


#       File generated by GOLD software.
#

@<TRIPOS>MOLECULE
AV-unprocessed.smi:21
    71    74     1
SMALL
NO_CHARGES


@<TRIPOS>ATOM
      1 ****        -1.2617  -3.3931  -0.5186 C.3            1 S1                 0.0000
      2 ****        -2.5476  -2.8952  -0.1856 O.3            1 S1                 0.0000
      3 ****        -3.0960  -2.0472  -1.1853 C.3            1 S1                 0.0000
      4 ****        -2.4816  -0.6386  -1.1298 C.3            1 S1                 0.0000
      5 ****        -3.6915   0.3054  -1.0747 C.3            1 S1                 0.0000
      6 ****        -3.3807   1.6810  -0.4404 C.3            1 S1                 0.0000
      7 ****        -2.4751   2.5045  -1.2433 N.pl3          1 S1                 0.0000
      8 ****        -3.0090   3.0861  -2.4718 C.3            1 S1                 0.0000
      9 ****        -1.1400   2.2451  -1.1834 C.ar           1 S1                 0.0000
     10 ****        -0.4371   2.1377  -2.3439 N.ar           1 S1                 0.0000
     11 ****         0.8641   1.8373  -2.3274 C.ar           1 S1                 0.0000
     12 ****         1.6529   1.6075  -1.2776 N.ar           1 S1                 0.0000
     13 ****         0.9634   1.7323  -0.1083 C.ar           1 S1                 0.0000
     14 ****        -0.4172   2.0544   0.0317 C.ar           1 S1                 0.0000
     15 ****        -0.7448   2.1146   1.3825 N.2            1 S1                 0.0000
     16 ****         0.3659   1.8215   2.0006 C.2            1 S1                 0.0000
     17 ****         1.4389   1.5647   1.1794 N.pl3          1 S1                 0.0000
     18 ****         2.7838   1.2018   1.5866 C.3            1 S1                 0.0000
     19 ****         3.1350  -0.2873   1.3238 C.3            1 S1                 0.0000
     20 ****         2.1694  -1.2579   2.0517 C.3            1 S1                 0.0000
     21 ****         0.9237  -1.3603   1.3932 O.3            1 S1                 0.0000
     22 ****         4.6095  -0.5728   1.7112 C.3            1 S1                 0.0000
     23 ****         5.6385   0.2782   0.9846 C.3            1 S1                 0.0000
     24 ****         6.9196  -0.5192   1.1902 C.3            1 S1                 0.0000
     25 ****         6.5184  -1.8822   1.1585 O.3            1 S1                 0.0000
     26 ****         5.1102  -1.9792   1.3519 C.3            1 S1                 0.0000
     27 ****        -4.7010  -0.4638  -0.3647 N.3            1 S1                 0.0000
     28 ****        -6.0519   0.0661  -0.4965 C.3            1 S1                 0.0000
     29 ****        -4.5847  -1.8048  -0.9085 C.3            1 S1                 0.0000
     30 ****        -2.9842  -2.4959  -2.1742 H              1 S1                 0.0000
     31 ****        -4.0384   0.4612  -2.0979 H              1 S1                 0.0000
     32 ****        -0.8833  -4.0038   0.3009 H              1 S1                 0.0000
     33 ****        -0.5487  -2.5866  -0.6926 H              1 S1                 0.0000
     34 ****        -1.3028  -4.0179  -1.4117 H              1 S1                 0.0000
     35 ****        -1.8807  -0.5274  -0.2256 H              1 S1                 0.0000
     36 ****        -1.8359  -0.4389  -1.9853 H              1 S1                 0.0000
     37 ****        -4.3045   2.2483  -0.3321 H              1 S1                 0.0000
     38 ****        -3.0159   1.5447   0.5746 H              1 S1                 0.0000
     39 ****        -2.4331   3.9641  -2.7671 H              1 S1                 0.0000
     40 ****        -4.0432   3.4006  -2.3302 H              1 S1                 0.0000
     41 ****        -2.9843   2.3628  -3.2878 H              1 S1                 0.0000
     42 ****         1.3395   1.7653  -3.2945 H              1 S1                 0.0000
     43 ****         0.4297   1.7731   3.0778 H              1 S1                 0.0000
     44 ****         3.4659   1.8614   1.0506 H              1 S1                 0.0000
     45 ****         2.9000   1.4338   2.6460 H              1 S1                 0.0000
     46 ****         3.0469  -0.4717   0.2518 H              1 S1                 0.0000
     47 ****         2.5753  -2.2676   2.0890 H              1 S1                 0.0000
     48 ****         2.0123  -0.9459   3.0845 H              1 S1                 0.0000
     49 ****         0.3754  -1.9605   1.8754 H              1 S1                 0.0000
     50 ****         4.7379  -0.4226   2.7846 H              1 S1                 0.0000
     51 ****         5.4021   0.3394  -0.0789 H              1 S1                 0.0000
     52 ****         5.7191   1.2922   1.3769 H              1 S1                 0.0000
     53 ****         7.6740  -0.3055   0.4329 H              1 S1                 0.0000
     54 ****         7.3484  -0.3033   2.1695 H              1 S1                 0.0000
     55 ****         4.8801  -2.7116   2.1262 H              1 S1                 0.0000
     56 ****         4.6641  -2.3251   0.4185 H              1 S1                 0.0000
     57 ****        -6.7683  -0.5848   0.0055 H              1 S1                 0.0000
     58 ****        -6.3450   0.1481  -1.5440 H              1 S1                 0.0000
     59 ****        -6.1332   1.0530  -0.0418 H              1 S1                 0.0000
     60 ****        -5.1295  -1.8692  -1.8520 H              1 S1                 0.0000
     61 ****        -5.0134  -2.5471  -0.2343 H              1 S1                 0.0000
     62 ****        -2.4768  -2.3771   0.6668 LP             1 S1                 0.0000
     63 ****        -3.1645  -3.6711  -0.0537 LP             1 S1                 0.0000
     64 ****        -0.8998   2.2853  -3.2181 LP             1 S1                 0.0000
     65 ****         2.6233   1.3741  -1.3397 LP             1 S1                 0.0000
     66 ****        -1.6322   2.3334   1.7883 LP             1 S1                 0.0000
     67 ****         1.0613  -1.7025   0.4637 LP             1 S1                 0.0000
     68 ****         0.4875  -0.4612   1.3562 LP             1 S1                 0.0000
     69 ****         6.9880  -2.3828   1.8857 LP             1 S1                 0.0000
     70 ****         6.7592  -2.2779   0.2723 LP             1 S1                 0.0000
     71 ****        -4.5428  -0.4316   0.6222 LP             1 S1                 0.0000
@<TRIPOS>BOND
    1    1    2 1     
    2    1   32 1     
    3    1   33 1     
    4    1   34 1     
    5    2    3 1     
    6    3   30 1     
    7    3   29 1     
    8    3    4 1     
    9    4    5 1     
   10    4   35 1     
   11    4   36 1     
   12    5   31 1     
   13    5    6 1     
   14    5   27 1     
   15    6    7 1     
   16    6   37 1     
   17    6   38 1     
   18    7    8 1     
   19    7    9 1     
   20    8   39 1     
   21    8   40 1     
   22    8   41 1     
   23    9   14 ar    
   24    9   10 ar    
   25   10   11 ar    
   26   11   12 ar    
   27   11   42 1     
   28   12   13 ar    
   29   13   17 1     
   30   13   14 ar    
   31   14   15 1     
   32   15   16 2     
   33   16   17 1     
   34   16   43 1     
   35   17   18 1     
   36   18   19 1     
   37   18   44 1     
   38   18   45 1     
   39   19   20 1     
   40   19   22 1     
   41   19   46 1     
   42   20   21 1     
   43   20   47 1     
   44   20   48 1     
   45   21   49 1     
   46   22   26 1     
   47   22   23 1     
   48   22   50 1     
   49   23   24 1     
   50   23   51 1     
   51   23   52 1     
   52   24   25 1     
   53   24   53 1     
   54   24   54 1     
   55   25   26 1     
   56   26   55 1     
   57   26   56 1     
   58   27   28 1     
   59   27   29 1     
   60   28   57 1     
   61   28   58 1     
   62   28   59 1     
   63   29   60 1     
   64   29   61 1     
   65    2   62 1     
   66    2   63 1     
   67   10   64 1     
   68   12   65 1     
   69   15   66 1     
   70   21   67 1     
   71   21   68 1     
   72   25   69 1     
   73   25   70 1     
   74   27   71 1     
@<TRIPOS>SUBSTRUCTURE
      1 S1             1
@<TRIPOS>SET
LONE_PAIRS      STATIC     ATOMS    <user>   **** ""
10 62 63 64 65 66 67 68 69 70 71
DONOR_HYDROGENS      STATIC     ATOMS    <user>   **** ""
1 49
ATOM$BLUE        STATIC     ATOMS    COLORGROUP SYSTEM
10 62 63 64 65 66 67 68 69 70 71
ATOM$RED        STATIC     ATOMS    COLORGROUP SYSTEM
1 49
