AV-unprocessed.smi:76|AV-procd|sdf|768|dock10
  -GOLD-   2262017113D 1   1.00000     0.00000
 Structure written by MMmdl.
 55 58  0  0  0  0  0  0  0  0  1 V2000
  153.1125  139.2363  158.2379 C   0  0  0  0  0  0  0  0  0  0  0  0
  151.9513  140.2522  158.2374 C   0  0  1  0  0  0  0  0  0  0  0  0
  152.4032  141.5638  158.9136 C   0  0  0  0  0  0  0  0  0  0  0  0
  151.2868  142.6267  158.9168 C   0  0  1  0  0  0  0  0  0  0  0  0
  151.7300  143.9390  159.5941 C   0  0  0  0  0  0  0  0  0  0  0  0
  152.6532  144.5640  158.8625 F   0  0  0  0  0  0  0  0  0  0  0  0
  150.6816  144.7476  159.7479 F   0  0  0  0  0  0  0  0  0  0  0  0
  152.2370  143.6812  160.7997 F   0  0  0  0  0  0  0  0  0  0  0  0
  150.8069  142.8502  157.4708 C   0  0  0  0  0  0  0  0  0  0  0  0
  150.3698  141.5267  156.8275 C   0  0  0  0  0  0  0  0  0  0  0  0
  151.4386  140.5319  156.8885 N   0  0  0  0  0  0  0  0  0  0  0  0
  151.1331  139.4486  156.1401 C   0  0  0  0  0  0  0  0  0  0  0  0
  151.1547  139.6014  154.7936 N   0  0  0  0  0  0  0  0  0  0  0  0
  150.8751  138.5630  154.0004 C   0  0  0  0  0  0  0  0  0  0  0  0
  150.5504  137.3144  154.3433 N   0  0  0  0  0  0  0  0  0  0  0  0
  150.5134  137.1625  155.6985 C   0  0  0  0  0  0  0  0  0  0  0  0
  150.7933  138.1694  156.6641 C   0  0  0  0  0  0  0  0  0  0  0  0
  150.6676  137.6469  157.9450 N   0  0  0  0  0  0  0  0  0  0  0  0
  150.3366  136.4003  157.7474 C   0  0  0  0  0  0  0  0  0  0  0  0
  150.2031  136.0272  156.4281 N   0  0  0  0  0  0  0  0  0  0  0  0
  149.8502  134.7055  155.9274 C   0  0  0  0  0  0  0  0  0  0  0  0
  148.4471  134.1810  156.3710 C   0  0  0  0  0  0  0  0  0  0  0  0
  148.3776  134.0216  157.9131 C   0  0  0  0  0  0  0  0  0  0  0  0
  149.2999  133.0657  158.3966 O   0  0  0  0  0  0  0  0  0  0  0  0
  147.3398  135.1598  155.9057 C   0  0  0  0  0  0  0  0  0  0  0  0
  147.1131  135.1285  154.3822 C   0  0  0  0  0  0  0  0  0  0  0  0
  146.8201  133.8038  153.9563 O   0  0  0  0  0  0  0  0  0  0  0  0
  147.8753  132.8892  154.2243 C   0  0  0  0  0  0  0  0  0  0  0  0
  148.1143  132.8044  155.7420 C   0  0  0  0  0  0  0  0  0  0  0  0
  153.5020  139.0905  159.2457 H   0  0  0  0  0  0  0  0  0  0  0  0
  153.9366  139.5774  157.6102 H   0  0  0  0  0  0  0  0  0  0  0  0
  152.7996  138.2569  157.8756 H   0  0  0  0  0  0  0  0  0  0  0  0
  151.1359  139.8373  158.8310 H   0  0  0  0  0  0  0  0  0  0  0  0
  152.7183  141.3568  159.9368 H   0  0  0  0  0  0  0  0  0  0  0  0
  153.2794  141.9579  158.3966 H   0  0  0  0  0  0  0  0  0  0  0  0
  150.4481  142.2276  159.4895 H   0  0  0  0  0  0  0  0  0  0  0  0
  149.9761  143.5557  157.4519 H   0  0  0  0  0  0  0  0  0  0  0  0
  151.6067  143.2961  156.8780 H   0  0  0  0  0  0  0  0  0  0  0  0
  149.4855  141.1447  157.3398 H   0  0  0  0  0  0  0  0  0  0  0  0
  150.0843  141.7027  155.7891 H   0  0  0  0  0  0  0  0  0  0  0  0
  150.9182  138.7607  152.9393 H   0  0  0  0  0  0  0  0  0  0  0  0
  150.1730  135.7154  158.5667 H   0  0  0  0  0  0  0  0  0  0  0  0
  149.9130  134.7308  154.8390 H   0  0  0  0  0  0  0  0  0  0  0  0
  150.6398  134.0235  156.2393 H   0  0  0  0  0  0  0  0  0  0  0  0
  148.5974  134.9696  158.4055 H   0  0  0  0  0  0  0  0  0  0  0  0
  147.3759  133.7366  158.2351 H   0  0  0  0  0  0  0  0  0  0  0  0
  148.8177  132.3062  158.6880 H   0  0  0  0  0  0  0  0  0  0  0  0
  146.3983  134.9017  156.3927 H   0  0  0  0  0  0  0  0  0  0  0  0
  147.5709  136.1781  156.2202 H   0  0  0  0  0  0  0  0  0  0  0  0
  146.2700  135.7691  154.1224 H   0  0  0  0  0  0  0  0  0  0  0  0
  147.9748  135.5166  153.8388 H   0  0  0  0  0  0  0  0  0  0  0  0
  147.5914  131.9095  153.8399 H   0  0  0  0  0  0  0  0  0  0  0  0
  148.7778  133.1844  153.6888 H   0  0  0  0  0  0  0  0  0  0  0  0
  148.8879  132.0701  155.9629 H   0  0  0  0  0  0  0  0  0  0  0  0
  147.2046  132.4097  156.1973 H   0  0  0  0  0  0  0  0  0  0  0  0
  1  2  1  0  0  0  0
  1 30  1  0  0  0  0
  1 31  1  0  0  0  0
  1 32  1  0  0  0  0
  2 11  1  0  0  0  0
  2  3  1  0  0  0  0
  2 33  1  0  0  0  0
  3  4  1  0  0  0  0
  3 34  1  0  0  0  0
  3 35  1  0  0  0  0
  4  5  1  0  0  0  0
  4  9  1  0  0  0  0
  4 36  1  0  0  0  0
  5  6  1  0  0  0  0
  5  7  1  0  0  0  0
  5  8  1  0  0  0  0
  9 10  1  0  0  0  0
  9 37  1  0  0  0  0
  9 38  1  0  0  0  0
 10 11  1  0  0  0  0
 10 39  1  0  0  0  0
 10 40  1  0  0  0  0
 11 12  1  0  0  0  0
 12 17  1  0  0  0  0
 12 13  2  0  0  0  0
 13 14  1  0  0  0  0
 14 15  2  0  0  0  0
 14 41  1  0  0  0  0
 15 16  1  0  0  0  0
 16 20  1  0  0  0  0
 16 17  2  0  0  0  0
 17 18  1  0  0  0  0
 18 19  2  0  0  0  0
 19 20  1  0  0  0  0
 19 42  1  0  0  0  0
 20 21  1  0  0  0  0
 21 22  1  0  0  0  0
 21 43  1  0  0  0  0
 21 44  1  0  0  0  0
 22 29  1  0  0  0  0
 22 23  1  0  0  0  0
 22 25  1  0  0  0  0
 23 24  1  0  0  0  0
 23 45  1  0  0  0  0
 23 46  1  0  0  0  0
 24 47  1  0  0  0  0
 25 26  1  0  0  0  0
 25 48  1  0  0  0  0
 25 49  1  0  0  0  0
 26 27  1  0  0  0  0
 26 50  1  0  0  0  0
 26 51  1  0  0  0  0
 27 28  1  0  0  0  0
 28 29  1  0  0  0  0
 28 52  1  0  0  0  0
 28 53  1  0  0  0  0
 29 54  1  0  0  0  0
 29 55  1  0  0  0  0
M  END
> <s_m_source_file>
AV-unprocessed.smi

> <i_m_source_file_index>
76

> <i_lp_mmshare_version>
43012

> <i_f3d_flags>
0

> <s_epik_input>
W0NIM11bQ0BASF0xW0NIMl1bQ0BASF0oQyhGKShGKUYpW0NIMl1bQ0gyXU4xYyhuW2NIXW4yKWMoYzIzKW5bY0hdbjNbQ0gyXUM0KFtDSDJdW09IXSlbQ0gyXVtDSDJdT1tDSDJdW0NIMl00

> <s_epik_cmdline>
J2VwaWtfcHl0aG9uJywgJy1waCcsICc3LjAnLCAnLXRuJywgJzgnLCAnLW1hJywgJzIwMCcsICctbWV0YWxfYmluZGluZycsICctaW1hZScsICc8aW5maWxlLm1hZT4nLCAnLW9tYWUnLCAnPG91dGZpbGUubWFlPic=

> <r_lp_tautomer_probability>
1

> <r_epik_Ionization_Penalty>
0.00244097

> <r_epik_Ionization_Penalty_Charging>
0

> <r_epik_Ionization_Penalty_Neutral>
0.00244097

> <r_epik_State_Penalty>
0.00151846

> <r_epik_Charging_Adjusted_Penalty>
0.00151846

> <i_epik_Tot_Q>
0

> <i_epik_Tot_abs_Q>
0

> <r_epik_Metal_State_Penalty>
-0

> <b_epik_Metal_Only>
0

> <s_lp_Force_Field>
OPLS_2005

> <r_lp_Energy>
36.6064

> <b_lp_Chiralities_Consistent>
1

> <s_lp_Variant>
AV-unprocessed.smi:76-2

> <Gold.Version>
5.8.1

> <Gold.Id.Protein>
6NUR|6NUR_protein|mol2

> <Gold.PLP.Fitness>
45.4699

> <Gold.PLP.PLP>
-37.9577

> <Gold.PLP.part.hbond>
-2.0000

> <Gold.PLP.part.metal>
0.0000

> <Gold.PLP.part.buried>
-6.2869

> <Gold.PLP.part.nonpolar>
-31.3325

> <Gold.PLP.part.repulsive>
0.6022

> <Gold.PLP.ligand.clash>
0.0320

> <Gold.PLP.ligand.torsion>
0.5489

> <Gold.PLP.Chemscore.Hbond>
2.0000

> <Gold.PLP.Chemscore.CHOScore>
0.8091

> <Gold.PLP.Chemscore.Metal>
0.0000

> <Gold.Chemscore.Hbonds>
donor molecule, donor type, donor heavy atom, donor atom, acceptor molecule, acceptor atom, score
      P1  H  6896  6907       L1    24  1.00
      P1  H  7989  7998       L1    13  0.95
      L1  C    14    41       P1  7957  0.82

> <Gold.PLP.Chemscore.Internal.Correction>
0.2146

> <Gold.Rescore>
     Score         DG    S(hbond)    S(metal)    S(lipo)     H(rot)  DE(clash)    DE(int)     intcor
     10.01     -14.48       1.86        0.00      77.88       2.47       0.42       4.05       ----

> <Gold.Chemscore.Fitness>
10.0084

> <Gold.Chemscore.DG>
-14.4832

> <Gold.Chemscore.ZeroCoef>
-5.4800

> <Gold.Chemscore.Hbond>
1.8579

> <Gold.Chemscore.Metal>
0.0000

> <Gold.Chemscore.Lipo>
77.8808

> <Gold.Chemscore.Internal_Hbond>
0.0000

> <Gold.Chemscore.DEClash>
0.4242

> <Gold.Chemscore.DEInternal>
4.0505

> <Gold.Chemscore.Rot>
2.4665

> <Gold.Chemscore.Internal.Correction>
   9.000000E+99

> <Gold.Chemscore.Hbonds>
donor molecule, donor type, donor heavy atom, donor atom, acceptor molecule, acceptor atom, score
      P1  H  6896  6907       L1    24  0.94
      P1  H  7989  7998       L1    13  0.22

> <Gold.Chemscore.Hbond.Weighted>
-6.2053

> <Gold.Chemscore.Metal.Weighted>
-0.0000

> <Gold.Chemscore.Lipo.Weighted>
-9.1121

> <Gold.Chemscore.Internal_Hbond.Weighted>
0.0000

> <Gold.Chemscore.DEClash.Weighted>
0.4242

> <Gold.Chemscore.DEInternal.Weighted>
4.0505

> <Gold.Chemscore.Rot.Weighted>
6.3142

> <Gold.Chemscore.Internal.Correction.Weighted>
   9.000000E+99

> <Gold.Protein.RotatedTorsions>
[ 6907 6896 6895 6894 ] final -124.04 input  -60.11 | X-H torsion
[ 7974 7965 7964 7962 ] final  -79.48 input  175.53 | X-H torsion
[ 8008 7997 7996 7995 ] final -167.62 input   59.86 | X-H torsion
[ 10167 10162 10161 10158 ] final  -36.36 input  -65.29 | X-H torsion
[ 10718 10713 10712 10709 ] final -118.02 input   66.30 | X-H torsion
[ 10763 10752 10751 10750 ] final  110.95 input  -60.55 | X-H torsion
[ 11005 11000 10999 10996 ] final  -72.33 input  -57.11 | X-H torsion

> <Gold.Protein.ActiveResidues>
 VAL166  LYS551  ARG553  GLY616  TRP617  ASP618  TYR619  PRO620  LYS621  CYS622 
 ASP623  PHE694  ASN695  SER759  ASP760  ASP761  ALA762  ILE779  LEU786  VAL792 
 PHE793  MET794  SER795  GLU796  ALA797  LYS798  CYS799  TRP800  GLU811  SER814 

> <Gold.Protein.RotatedAtoms>
  150.8729  133.7480  159.2955 H   0  0  0  0  0  0  0  0  0  0  0  0  # atno 6907 bound_to 6896
  151.5086  135.1063  159.9857 H   0  0  0  0  0  0  0  0  0  0  0  0  # atno 6908 bound_to 6896
  152.4708  133.7979  159.6993 H   0  0  0  0  0  0  0  0  0  0  0  0  # atno 6909 bound_to 6896
  145.5726  140.9463  143.1387 H   0  0  0  0  0  0  0  0  0  0  0  0  # atno 7974 bound_to 7965
  155.8802  140.1008  157.1490 H   0  0  0  0  0  0  0  0  0  0  0  0  # atno 8008 bound_to 7997
  154.4004  140.1330  156.4251 H   0  0  0  0  0  0  0  0  0  0  0  0  # atno 8009 bound_to 7997
  155.7651  140.3462  155.5220 H   0  0  0  0  0  0  0  0  0  0  0  0  # atno 8010 bound_to 7997
  140.7144  143.3414  151.2349 H   0  0  0  0  0  0  0  0  0  0  0  0  # atno 10167 bound_to 10162
  156.1075  130.6222  150.9238 H   0  0  0  0  0  0  0  0  0  0  0  0  # atno 10718 bound_to 10713
  153.4564  135.3732  155.2313 H   0  0  0  0  0  0  0  0  0  0  0  0  # atno 10763 bound_to 10752
  154.8757  135.3898  154.3977 H   0  0  0  0  0  0  0  0  0  0  0  0  # atno 10764 bound_to 10752
  153.4544  135.7086  153.6153 H   0  0  0  0  0  0  0  0  0  0  0  0  # atno 10765 bound_to 10752
  141.1607  133.6843  156.7042 H   0  0  0  0  0  0  0  0  0  0  0  0  # atno 11005 bound_to 11000
  144.7430  139.7395  143.7303 LP  0  0  0  0  0  0  0  0  0  0  0  0  # atno 17320 bound_to 7965
  146.1773  139.4949  142.9889 LP  0  0  0  0  0  0  0  0  0  0  0  0  # atno 17321 bound_to 7965
  139.6923  143.9672  152.2865 LP  0  0  0  0  0  0  0  0  0  0  0  0  # atno 17342 bound_to 10162
  139.9337  144.6725  150.8336 LP  0  0  0  0  0  0  0  0  0  0  0  0  # atno 17343 bound_to 10162
  157.6254  131.0926  150.8544 LP  0  0  0  0  0  0  0  0  0  0  0  0  # atno 17370 bound_to 10713
  156.8660  130.5130  149.5300 LP  0  0  0  0  0  0  0  0  0  0  0  0  # atno 17371 bound_to 10713
  140.2936  134.8221  157.4037 LP  0  0  0  0  0  0  0  0  0  0  0  0  # atno 17394 bound_to 11000
  140.1325  134.5077  155.8094 LP  0  0  0  0  0  0  0  0  0  0  0  0  # atno 17395 bound_to 11000

$$$$
