AV-unprocessed.smi:2001|AV-procd|sdf|8105|dock1
  -GOLD-   2272010333D 1   1.00000     0.00000
 Structure written by MMmdl.
 51 52  0  0  0  0  0  0  0  0  2 V2000
  149.5292  145.1260  160.4435 C   0  0  0  0  0  0  0  0  0  0  0  0
  150.5222  144.2076  160.0216 O   0  0  0  0  0  0  0  0  0  0  0  0
  150.8716  144.3738  158.6579 C   0  0  0  0  0  0  0  0  0  0  0  0
  152.2342  143.7091  158.4106 C   0  0  0  0  0  0  0  0  0  0  0  0
  152.1433  142.2475  158.4849 N   0  0  0  0  0  0  0  0  0  0  0  0
  151.6717  141.6513  157.3270 N   0  0  0  0  0  0  0  0  0  0  0  0
  151.5409  140.3653  157.2648 C   0  0  0  0  0  0  0  0  0  0  0  0
  151.0299  139.6865  156.0412 C   0  0  0  0  0  0  0  0  0  0  0  0
  151.5566  139.8454  154.9387 O   0  0  0  0  0  0  0  0  0  0  0  0
  149.9625  138.8904  156.2263 N   0  0  0  0  0  0  0  0  0  0  0  0
  149.3166  138.1157  155.1758 C   0  0  0  0  0  0  0  0  0  0  0  0
  149.7065  136.6325  155.2851 C   0  0  0  0  0  0  0  0  0  0  0  0
  148.7103  135.7283  154.6571 N   0  3  1  0  0  0  0  0  0  0  0  0
  149.1237  134.3066  154.7281 C   0  0  0  0  0  0  0  0  0  0  0  0
  148.0993  133.4047  154.0139 C   0  0  1  0  0  0  0  0  0  0  0  0
  148.4515  131.9186  154.1411 C   0  0  0  0  0  0  0  0  0  0  0  0
  146.8170  133.6072  154.5968 O   0  0  0  0  0  0  0  0  0  0  0  0
  146.3584  134.9474  154.4592 C   0  0  1  0  0  0  0  0  0  0  0  0
  144.9384  135.0272  155.0308 C   0  0  0  0  0  0  0  0  0  0  0  0
  147.3342  135.8906  155.1888 C   0  0  0  0  0  0  0  0  0  0  0  0
  151.8887  139.5262  158.3990 C   0  0  0  0  0  0  0  0  0  0  0  0
  152.3537  140.1218  159.5190 C   0  0  0  0  0  0  0  0  0  0  0  0
  152.5119  141.5736  159.6161 C   0  0  0  0  0  0  0  0  0  0  0  0
  152.9399  142.1384  160.6220 O   0  0  0  0  0  0  0  0  0  0  0  0
  149.2952  144.9550  161.4942 H   0  0  0  0  0  0  0  0  0  0  0  0
  148.6096  145.0046  159.8699 H   0  0  0  0  0  0  0  0  0  0  0  0
  149.8738  146.1555  160.3387 H   0  0  0  0  0  0  0  0  0  0  0  0
  150.1107  143.9179  158.0219 H   0  0  0  0  0  0  0  0  0  0  0  0
  150.9153  145.4360  158.4118 H   0  0  0  0  0  0  0  0  0  0  0  0
  152.6307  144.0177  157.4416 H   0  0  0  0  0  0  0  0  0  0  0  0
  152.9533  144.0742  159.1463 H   0  0  0  0  0  0  0  0  0  0  0  0
  149.5856  138.8114  157.1603 H   0  0  0  0  0  0  0  0  0  0  0  0
  148.2366  138.2395  155.2602 H   0  0  0  0  0  0  0  0  0  0  0  0
  149.6146  138.5151  154.2053 H   0  0  0  0  0  0  0  0  0  0  0  0
  150.6681  136.4970  154.7875 H   0  0  0  0  0  0  0  0  0  0  0  0
  149.8554  136.3485  156.3282 H   0  0  0  0  0  0  0  0  0  0  0  0
  150.1039  134.1849  154.2650 H   0  0  0  0  0  0  0  0  0  0  0  0
  149.2241  134.0096  155.7735 H   0  0  0  0  0  0  0  0  0  0  0  0
  148.0571  133.6618  152.9541 H   0  0  0  0  0  0  0  0  0  0  0  0
  149.4286  131.7079  153.7059 H   0  0  0  0  0  0  0  0  0  0  0  0
  147.7175  131.2988  153.6255 H   0  0  0  0  0  0  0  0  0  0  0  0
  148.4756  131.6061  155.1856 H   0  0  0  0  0  0  0  0  0  0  0  0
  146.3196  135.2068  153.3996 H   0  0  0  0  0  0  0  0  0  0  0  0
  144.5350  136.0362  154.9427 H   0  0  0  0  0  0  0  0  0  0  0  0
  144.9202  134.7501  156.0853 H   0  0  0  0  0  0  0  0  0  0  0  0
  144.2660  134.3539  154.4988 H   0  0  0  0  0  0  0  0  0  0  0  0
  147.3304  135.6814  156.2599 H   0  0  0  0  0  0  0  0  0  0  0  0
  146.9965  136.9185  155.0625 H   0  0  0  0  0  0  0  0  0  0  0  0
  151.7827  138.4519  158.3555 H   0  0  0  0  0  0  0  0  0  0  0  0
  152.6171  139.5100  160.3694 H   0  0  0  0  0  0  0  0  0  0  0  0
  148.6787  135.9662  153.6758 H   0  0  0  0  0  0  0  0  0  0  0  0
  1  2  1  0  0  0  0
  1 25  1  0  0  0  0
  1 26  1  0  0  0  0
  1 27  1  0  0  0  0
  2  3  1  0  0  0  0
  3  4  1  0  0  0  0
  3 28  1  0  0  0  0
  3 29  1  0  0  0  0
  4  5  1  0  0  0  0
  4 30  1  0  0  0  0
  4 31  1  0  0  0  0
  5 23  1  0  0  0  0
  5  6  1  0  0  0  0
  6  7  2  0  0  0  0
  7  8  1  0  0  0  0
  7 21  1  0  0  0  0
  8  9  2  0  0  0  0
  8 10  1  0  0  0  0
 10 11  1  0  0  0  0
 10 32  1  0  0  0  0
 11 12  1  0  0  0  0
 11 33  1  0  0  0  0
 11 34  1  0  0  0  0
 12 13  1  0  0  0  0
 12 35  1  0  0  0  0
 12 36  1  0  0  0  0
 13 20  1  0  0  0  0
 13 14  1  0  0  0  0
 13 51  1  0  0  0  0
 14 15  1  0  0  0  0
 14 37  1  0  0  0  0
 14 38  1  0  0  0  0
 15 16  1  0  0  0  0
 15 17  1  0  0  0  0
 15 39  1  0  0  0  0
 16 40  1  0  0  0  0
 16 41  1  0  0  0  0
 16 42  1  0  0  0  0
 17 18  1  0  0  0  0
 18 19  1  0  0  0  0
 18 20  1  0  0  0  0
 18 43  1  0  0  0  0
 19 44  1  0  0  0  0
 19 45  1  0  0  0  0
 19 46  1  0  0  0  0
 20 47  1  0  0  0  0
 20 48  1  0  0  0  0
 21 22  2  0  0  0  0
 21 49  1  0  0  0  0
 22 23  1  0  0  0  0
 22 50  1  0  0  0  0
 23 24  2  0  0  0  0
M  CHG  1  13   1
M  END
> <s_m_source_file>
AV-unprocessed.smi

> <i_m_source_file_index>
2001

> <i_lp_mmshare_version>
43012

> <i_f3d_flags>
0

> <s_epik_input>
W0NIM11PW0NIMl1bQ0gyXW4xbmMoW2NIXVtjSF1jMT1PKUMoPU8pW05IXVtDSDJdW0NIMl1OMltDSDJdW0NAQEhdKFtDSDNdKU9bQ0BASF0oW0NIM10pW0NIMl0y

> <s_epik_cmdline>
J2VwaWtfcHl0aG9uJywgJy1waCcsICc3LjAnLCAnLXRuJywgJzgnLCAnLW1hJywgJzIwMCcsICctbWV0YWxfYmluZGluZycsICctaW1hZScsICc8aW5maWxlLm1hZT4nLCAnLW9tYWUnLCAnPG91dGZpbGUubWFlPic=

> <r_lp_tautomer_probability>
1

> <r_epik_Ionization_Penalty>
0.724354

> <r_epik_Ionization_Penalty_Charging>
0.724348

> <r_epik_Ionization_Penalty_Neutral>
6.1656e-06

> <r_epik_State_Penalty>
0.749058

> <r_epik_Charging_Adjusted_Penalty>
1.47341

> <i_epik_Tot_Q>
1

> <i_epik_Tot_abs_Q>
1

> <r_epik_Metal_State_Penalty>
0.750779

> <b_epik_Metal_Only>
0

> <s_lp_Force_Field>
OPLS_2005

> <r_lp_Energy>
35.6345

> <b_lp_Chiralities_Consistent>
1

> <s_lp_Variant>
AV-unprocessed.smi:2001-4

> <Gold.Version>
5.8.1

> <Gold.Id.Protein>
6NUR|6NUR_protein|mol2

> <Gold.PLP.Fitness>
43.3436

> <Gold.PLP.PLP>
-37.2389

> <Gold.PLP.part.hbond>
-2.2032

> <Gold.PLP.part.metal>
0.0000

> <Gold.PLP.part.buried>
-5.5290

> <Gold.PLP.part.nonpolar>
-29.8196

> <Gold.PLP.part.repulsive>
0.3162

> <Gold.PLP.ligand.clash>
0.0000

> <Gold.PLP.ligand.torsion>
1.6642

> <Gold.PLP.Chemscore.Hbond>
2.9920

> <Gold.PLP.Chemscore.CHOScore>
0.0000

> <Gold.PLP.Chemscore.Metal>
0.0000

> <Gold.Chemscore.Hbonds>
donor molecule, donor type, donor heavy atom, donor atom, acceptor molecule, acceptor atom, score
      L1  H    13    51       P1  7948  2.00
      P1  H  7989  7998       L1     9  1.00

> <Gold.PLP.Chemscore.Internal.Correction>
0.4571

> <Gold.Rescore>
     Score         DG    S(hbond)    S(metal)    S(lipo)     H(rot)  DE(clash)    DE(int)     intcor
     13.67     -15.88       1.91        0.00      79.77       2.07       0.58       1.63       ----

> <Gold.Chemscore.Fitness>
13.6661

> <Gold.Chemscore.DG>
-15.8758

> <Gold.Chemscore.ZeroCoef>
-5.4800

> <Gold.Chemscore.Hbond>
1.9064

> <Gold.Chemscore.Metal>
0.0000

> <Gold.Chemscore.Lipo>
79.7693

> <Gold.Chemscore.Internal_Hbond>
0.0000

> <Gold.Chemscore.DEClash>
0.5817

> <Gold.Chemscore.DEInternal>
1.6280

> <Gold.Chemscore.Rot>
2.0721

> <Gold.Chemscore.Internal.Correction>
   9.000000E+99

> <Gold.Chemscore.Hbonds>
donor molecule, donor type, donor heavy atom, donor atom, acceptor molecule, acceptor atom, score
      L1  H    13    51       P1  7948  1.00
      P1  H  7989  7998       L1     9  0.99

> <Gold.Chemscore.Hbond.Weighted>
-6.3675

> <Gold.Chemscore.Metal.Weighted>
-0.0000

> <Gold.Chemscore.Lipo.Weighted>
-9.3330

> <Gold.Chemscore.Internal_Hbond.Weighted>
0.0000

> <Gold.Chemscore.DEClash.Weighted>
0.5817

> <Gold.Chemscore.DEInternal.Weighted>
1.6280

> <Gold.Chemscore.Rot.Weighted>
5.3047

> <Gold.Chemscore.Internal.Correction.Weighted>
   9.000000E+99

> <Gold.Protein.RotatedTorsions>
[ 6907 6896 6895 6894 ] final  178.62 input  -60.11 | X-H torsion
[ 7974 7965 7964 7962 ] final   42.59 input  175.53 | X-H torsion
[ 8008 7997 7996 7995 ] final  -72.42 input   59.86 | X-H torsion
[ 10167 10162 10161 10158 ] final   53.30 input  -65.29 | X-H torsion
[ 10718 10713 10712 10709 ] final  -80.62 input   66.30 | X-H torsion
[ 10763 10752 10751 10750 ] final   79.24 input  -60.55 | X-H torsion
[ 11005 11000 10999 10996 ] final  112.77 input  -57.11 | X-H torsion

> <Gold.Protein.ActiveResidues>
 VAL166  LYS551  ARG553  GLY616  TRP617  ASP618  TYR619  PRO620  LYS621  CYS622 
 ASP623  PHE694  ASN695  SER759  ASP760  ASP761  ALA762  ILE779  LEU786  VAL792 
 PHE793  MET794  SER795  GLU796  ALA797  LYS798  CYS799  TRP800  GLU811  SER814 

> <Gold.Protein.RotatedAtoms>
  151.6849  133.3311  159.3228 H   0  0  0  0  0  0  0  0  0  0  0  0  # atno 6907 bound_to 6896
  150.7806  134.6749  159.6421 H   0  0  0  0  0  0  0  0  0  0  0  0  # atno 6908 bound_to 6896
  152.3862  134.6517  160.0177 H   0  0  0  0  0  0  0  0  0  0  0  0  # atno 6909 bound_to 6896
  146.0728  139.5283  142.9587 H   0  0  0  0  0  0  0  0  0  0  0  0  # atno 7974 bound_to 7965
  154.5165  140.0797  156.8091 H   0  0  0  0  0  0  0  0  0  0  0  0  # atno 8008 bound_to 7997
  155.3669  140.3421  155.4224 H   0  0  0  0  0  0  0  0  0  0  0  0  # atno 8009 bound_to 7997
  156.1633  140.1596  156.8561 H   0  0  0  0  0  0  0  0  0  0  0  0  # atno 8010 bound_to 7997
  140.2423  144.3570  150.6376 H   0  0  0  0  0  0  0  0  0  0  0  0  # atno 10167 bound_to 10162
  156.0066  130.4579  150.3828 H   0  0  0  0  0  0  0  0  0  0  0  0  # atno 10718 bound_to 10713
  153.0937  135.4847  154.8738 H   0  0  0  0  0  0  0  0  0  0  0  0  # atno 10763 bound_to 10752
  154.7299  135.3058  154.8911 H   0  0  0  0  0  0  0  0  0  0  0  0  # atno 10764 bound_to 10752
  153.9549  135.6819  153.4797 H   0  0  0  0  0  0  0  0  0  0  0  0  # atno 10765 bound_to 10752
  139.8936  134.9536  156.6637 H   0  0  0  0  0  0  0  0  0  0  0  0  # atno 11005 bound_to 11000
  145.6361  141.0294  143.1837 LP  0  0  0  0  0  0  0  0  0  0  0  0  # atno 17320 bound_to 7965
  144.7242  139.7929  143.7371 LP  0  0  0  0  0  0  0  0  0  0  0  0  # atno 17321 bound_to 7965
  140.6104  143.2169  151.6897 LP  0  0  0  0  0  0  0  0  0  0  0  0  # atno 17342 bound_to 10162
  139.5073  144.3650  152.0526 LP  0  0  0  0  0  0  0  0  0  0  0  0  # atno 17343 bound_to 10162
  157.1907  131.0414  151.2701 LP  0  0  0  0  0  0  0  0  0  0  0  0  # atno 17370 bound_to 10713
  157.4064  130.7361  149.6805 LP  0  0  0  0  0  0  0  0  0  0  0  0  # atno 17371 bound_to 10713
  140.7427  133.8964  155.8290 LP  0  0  0  0  0  0  0  0  0  0  0  0  # atno 17394 bound_to 11000
  141.0064  134.1080  157.4266 LP  0  0  0  0  0  0  0  0  0  0  0  0  # atno 17395 bound_to 11000

$$$$
