#       Name:                AV-unprocessed.smi:1737
#       Creating user name   scv26
#       Creation time:       Fri Mar 27 08:21:05 2020


#       File generated by GOLD software.
#

@<TRIPOS>MOLECULE
AV-unprocessed.smi:1737
    48    49     1
SMALL
NO_CHARGES


@<TRIPOS>ATOM
      1 ****        -4.0038  -0.3192  -1.2737 C.3            1 S1                 0.0000
      2 ****        -3.8120   1.1821  -1.1304 C.ar           1 S1                 0.0000
      3 ****        -4.9451   2.0131  -0.9992 C.ar           1 S1                 0.0000
      4 ****        -4.7660   3.4008  -0.8675 C.ar           1 S1                 0.0000
      5 ****        -3.4531   3.9023  -0.8728 C.ar           1 S1                 0.0000
      6 ****        -2.3650   3.1153  -0.9973 N.ar           1 S1                 0.0000
      7 ****        -2.5202   1.7738  -1.1267 C.ar           1 S1                 0.0000
      8 ****        -1.4173   0.8835  -1.2586 N.am           1 S1                 0.0000
      9 ****        -0.1059   1.1778  -1.3010 C.2            1 S1                 0.0000
     10 ****         0.3732   2.3111  -1.2683 O.2            1 S1                 0.0000
     11 ****         0.6374   0.0650  -1.3835 N.am           1 S1                 0.0000
     12 ****         2.0978   0.0235  -1.4502 C.3            1 S1                 0.0000
     13 ****         2.7791  -0.0720  -0.0583 C.3            1 S1                 0.0000
     14 ****         2.8474   1.3266   0.5934 C.3            1 S1                 0.0000
     15 ****         2.1325  -1.0931   0.8289 N.4            1 S1                 1.0000
     16 ****         2.1920  -2.4713   0.2699 C.3            1 S1                 0.0000
     17 ****         1.4711  -3.4734   1.1860 C.3            1 S1                 0.0000
     18 ****         2.0524  -3.4370   2.4806 O.3            1 S1                 0.0000
     19 ****         1.9099  -2.1569   3.0777 C.3            1 S1                 0.0000
     20 ****         2.6374  -1.0998   2.2295 C.3            1 S1                 0.0000
     21 ****        -5.0606  -0.5882  -1.2599 H              1 S1                 0.0000
     22 ****        -3.5131  -0.8470  -0.4553 H              1 S1                 0.0000
     23 ****        -3.5819  -0.6693  -2.2163 H              1 S1                 0.0000
     24 ****        -5.9412   1.5954  -0.9987 H              1 S1                 0.0000
     25 ****        -5.6125   4.0637  -0.7650 H              1 S1                 0.0000
     26 ****        -3.2708   4.9621  -0.7741 H              1 S1                 0.0000
     27 ****        -1.6596  -0.0942  -1.3181 H              1 S1                 0.0000
     28 ****         0.1565  -0.8217  -1.4216 H              1 S1                 0.0000
     29 ****         2.3689  -0.8418  -2.0545 H              1 S1                 0.0000
     30 ****         2.4803   0.8794  -2.0091 H              1 S1                 0.0000
     31 ****         3.8110  -0.3861  -0.2240 H              1 S1                 0.0000
     32 ****         3.1935   2.0764  -0.1185 H              1 S1                 0.0000
     33 ****         3.5490   1.3537   1.4269 H              1 S1                 0.0000
     34 ****         1.8730   1.6483   0.9617 H              1 S1                 0.0000
     35 ****         1.7251  -2.5150  -0.7129 H              1 S1                 0.0000
     36 ****         3.2340  -2.7687   0.1418 H              1 S1                 0.0000
     37 ****         0.4037  -3.2533   1.2423 H              1 S1                 0.0000
     38 ****         1.5668  -4.4830   0.7859 H              1 S1                 0.0000
     39 ****         0.8530  -1.9079   3.1879 H              1 S1                 0.0000
     40 ****         2.3342  -2.1882   4.0814 H              1 S1                 0.0000
     41 ****         3.7114  -1.2919   2.2301 H              1 S1                 0.0000
     42 ****         2.4799  -0.1334   2.7066 H              1 S1                 0.0000
     43 ****         1.1555  -0.8424   0.8837 H              1 S1                 0.0000
     44 ****        -1.4496   3.5180  -0.9942 LP             1 S1                 0.0000
     45 ****        -0.2290   3.1069  -1.2051 LP             1 S1                 0.0000
     46 ****         1.3647   2.4361  -1.3049 LP             1 S1                 0.0000
     47 ****         3.0256  -3.6546   2.4063 LP             1 S1                 0.0000
     48 ****         1.6019  -4.1174   3.0586 LP             1 S1                 0.0000
@<TRIPOS>BOND
    1    1    2 1     
    2    1   21 1     
    3    1   22 1     
    4    1   23 1     
    5    2    7 ar    
    6    2    3 ar    
    7    3    4 ar    
    8    3   24 1     
    9    4    5 ar    
   10    4   25 1     
   11    5    6 ar    
   12    5   26 1     
   13    6    7 ar    
   14    7    8 1     
   15    8    9 am    
   16    8   27 1     
   17    9   10 2     
   18    9   11 am    
   19   11   12 1     
   20   11   28 1     
   21   12   13 1     
   22   12   29 1     
   23   12   30 1     
   24   13   14 1     
   25   13   15 1     
   26   13   31 1     
   27   14   32 1     
   28   14   33 1     
   29   14   34 1     
   30   15   20 1     
   31   15   16 1     
   32   15   43 1     
   33   16   17 1     
   34   16   35 1     
   35   16   36 1     
   36   17   18 1     
   37   17   37 1     
   38   17   38 1     
   39   18   19 1     
   40   19   20 1     
   41   19   39 1     
   42   19   40 1     
   43   20   41 1     
   44   20   42 1     
   45    6   44 1     
   46   10   45 1     
   47   10   46 1     
   48   18   47 1     
   49   18   48 1     
@<TRIPOS>SUBSTRUCTURE
      1 S1             1
@<TRIPOS>SET
LONE_PAIRS      STATIC     ATOMS    <user>   **** ""
5 44 45 46 47 48
DONOR_HYDROGENS      STATIC     ATOMS    <user>   **** ""
3 27 28 43
ATOM$BLUE        STATIC     ATOMS    COLORGROUP SYSTEM
5 44 45 46 47 48
ATOM$RED        STATIC     ATOMS    COLORGROUP SYSTEM
3 27 28 43
