AV-unprocessed.smi:610|AV-procd|sdf|3053|dock2
  -GOLD-   2262023573D 1   1.00000     0.00000
 Structure written by MMmdl.
 39 40  0  0  0  0  0  0  0  0  3 V2000
  150.0729  140.2193  156.5314 C   0  0  0  0  0  0  0  0  0  0  0  0
  149.3228  141.5264  156.2436 C   0  0  2  0  0  0  0  0  0  0  0  0
  149.1605  141.7541  154.7253 C   0  0  0  0  0  0  0  0  0  0  0  0
  148.1637  140.8671  154.1148 N   0  0  0  0  0  0  0  0  0  0  0  0
  148.1625  139.4955  154.1128 C   0  0  0  0  0  0  0  0  0  0  0  0
  147.0403  139.1063  153.4278 C   0  0  0  0  0  0  0  0  0  0  0  0
  146.4096  140.2556  153.0323 N   0  3  0  0  0  0  0  0  0  0  0  0
  147.0978  141.3251  153.4450 C   0  0  0  0  0  0  0  0  0  0  0  0
  150.0496  142.6334  156.8644 N   0  0  0  0  0  0  0  0  0  0  0  0
  150.5978  142.6308  158.0920 C   0  0  0  0  0  0  0  0  0  0  0  0
  150.5462  141.6494  158.8339 O   0  0  0  0  0  0  0  0  0  0  0  0
  151.3326  143.9070  158.5675 C   0  0  0  0  0  0  0  0  0  0  0  0
  151.0799  144.9565  157.5630 N   0  3  0  0  0  0  0  0  0  0  0  0
  150.9451  144.3782  159.9847 C   0  0  0  0  0  0  0  0  0  0  0  0
  151.7572  143.4936  160.9401 C   0  0  0  0  0  0  0  0  0  0  0  0
  152.9982  143.0526  160.1480 C   0  0  0  0  0  0  0  0  0  0  0  0
  152.8419  143.6513  158.7422 C   0  0  0  0  0  0  0  0  0  0  0  0
  149.5450  139.3630  156.1106 H   0  0  0  0  0  0  0  0  0  0  0  0
  150.1696  140.0484  157.6041 H   0  0  0  0  0  0  0  0  0  0  0  0
  151.0762  140.2329  156.1039 H   0  0  0  0  0  0  0  0  0  0  0  0
  148.3332  141.4331  156.6943 H   0  0  0  0  0  0  0  0  0  0  0  0
  148.8869  142.7894  154.5143 H   0  0  0  0  0  0  0  0  0  0  0  0
  150.1056  141.5677  154.2134 H   0  0  0  0  0  0  0  0  0  0  0  0
  148.9369  138.9138  154.5920 H   0  0  0  0  0  0  0  0  0  0  0  0
  146.6553  138.1238  153.1961 H   0  0  0  0  0  0  0  0  0  0  0  0
  146.8384  142.3550  153.2752 H   0  0  0  0  0  0  0  0  0  0  0  0
  150.1396  143.4749  156.3129 H   0  0  0  0  0  0  0  0  0  0  0  0
  150.9293  145.8410  158.0267 H   0  0  0  0  0  0  0  0  0  0  0  0
  150.2631  144.7157  157.0199 H   0  0  0  0  0  0  0  0  0  0  0  0
  151.2569  145.4155  160.1195 H   0  0  0  0  0  0  0  0  0  0  0  0
  149.8757  144.3529  160.1978 H   0  0  0  0  0  0  0  0  0  0  0  0
  152.0215  144.0272  161.8536 H   0  0  0  0  0  0  0  0  0  0  0  0
  151.1744  142.6187  161.2305 H   0  0  0  0  0  0  0  0  0  0  0  0
  153.9219  143.3896  160.6197 H   0  0  0  0  0  0  0  0  0  0  0  0
  153.0389  141.9643  160.0948 H   0  0  0  0  0  0  0  0  0  0  0  0
  153.2772  143.0086  157.9758 H   0  0  0  0  0  0  0  0  0  0  0  0
  153.3833  144.5979  158.6984 H   0  0  0  0  0  0  0  0  0  0  0  0
  151.8793  145.0291  156.9494 H   0  0  0  0  0  0  0  0  0  0  0  0
  145.5505  140.2926  152.4978 H   0  0  0  0  0  0  0  0  0  0  0  0
  1  2  1  0  0  0  0
  1 18  1  0  0  0  0
  1 19  1  0  0  0  0
  1 20  1  0  0  0  0
  2  3  1  0  0  0  0
  2  9  1  0  0  0  0
  2 21  1  0  0  0  0
  3  4  1  0  0  0  0
  3 22  1  0  0  0  0
  3 23  1  0  0  0  0
  4  8  1  0  0  0  0
  4  5  1  0  0  0  0
  5  6  2  0  0  0  0
  5 24  1  0  0  0  0
  6  7  1  0  0  0  0
  6 25  1  0  0  0  0
  7  8  2  0  0  0  0
  7 39  1  0  0  0  0
  8 26  1  0  0  0  0
  9 10  1  0  0  0  0
  9 27  1  0  0  0  0
 10 11  2  0  0  0  0
 10 12  1  0  0  0  0
 12 17  1  0  0  0  0
 12 13  1  0  0  0  0
 12 14  1  0  0  0  0
 13 28  1  0  0  0  0
 13 29  1  0  0  0  0
 13 38  1  0  0  0  0
 14 15  1  0  0  0  0
 14 30  1  0  0  0  0
 14 31  1  0  0  0  0
 15 16  1  0  0  0  0
 15 32  1  0  0  0  0
 15 33  1  0  0  0  0
 16 17  1  0  0  0  0
 16 34  1  0  0  0  0
 16 35  1  0  0  0  0
 17 36  1  0  0  0  0
 17 37  1  0  0  0  0
M  CHG  1   7   1
M  CHG  1  13   1
M  END
> <s_m_source_file>
AV-unprocessed.smi

> <i_m_source_file_index>
610

> <i_lp_mmshare_version>
43012

> <i_f3d_flags>
0

> <s_epik_input>
W2NIXTFuW2NIXVtjSF1uMVtDSDJdW0NAQEhdKFtDSDNdKVtOSF1DKD1PKUMyKFtOSDJdKVtDSDJdW0NIMl1bQ0gyXVtDSDJdMg==

> <s_epik_cmdline>
J2VwaWtfcHl0aG9uJywgJy1waCcsICc3LjAnLCAnLXRuJywgJzgnLCAnLW1hJywgJzIwMCcsICctbWV0YWxfYmluZGluZycsICctaW1hZScsICc8aW5maWxlLm1hZT4nLCAnLW9tYWUnLCAnPG91dGZpbGUubWFlPic=

> <r_lp_tautomer_probability>
1

> <r_epik_Ionization_Penalty>
0.349719

> <r_epik_Ionization_Penalty_Charging>
0.0753376

> <r_epik_Ionization_Penalty_Neutral>
0.274381

> <r_epik_State_Penalty>
0.326418

> <r_epik_Charging_Adjusted_Penalty>
0.401755

> <i_epik_Tot_Q>
2

> <i_epik_Tot_abs_Q>
2

> <r_epik_Metal_State_Penalty>
0.608513

> <b_epik_Metal_Only>
0

> <s_lp_Force_Field>
OPLS_2005

> <r_lp_Energy>
30.886

> <b_lp_Chiralities_Consistent>
1

> <s_lp_Variant>
AV-unprocessed.smi:610-1

> <Gold.Version>
5.8.1

> <Gold.Id.Protein>
6NUR|6NUR_protein|mol2

> <Gold.PLP.Fitness>
49.3928

> <Gold.PLP.PLP>
-35.6503

> <Gold.PLP.part.hbond>
-3.6576

> <Gold.PLP.part.metal>
0.0000

> <Gold.PLP.part.buried>
-1.5715

> <Gold.PLP.part.nonpolar>
-31.5005

> <Gold.PLP.part.repulsive>
0.1854

> <Gold.PLP.ligand.clash>
0.0000

> <Gold.PLP.ligand.torsion>
0.5202

> <Gold.PLP.Chemscore.Hbond>
4.8960

> <Gold.PLP.Chemscore.CHOScore>
0.0000

> <Gold.PLP.Chemscore.Metal>
0.0000

> <Gold.Chemscore.Hbonds>
donor molecule, donor type, donor heavy atom, donor atom, acceptor molecule, acceptor atom, score
      L1  H     7    39       P1 10175  1.98
      L1  H     9    27       P1  8028  0.67
      L1  H    13    29       P1  8028  2.00

> <Gold.PLP.Chemscore.Internal.Correction>
0.0948

> <Gold.Rescore>
     Score         DG    S(hbond)    S(metal)    S(lipo)     H(rot)  DE(clash)    DE(int)     intcor
     16.00     -19.24       2.63        0.00      87.68       2.06       0.63       2.62       ----

> <Gold.Chemscore.Fitness>
15.9952

> <Gold.Chemscore.DG>
-19.2418

> <Gold.Chemscore.ZeroCoef>
-5.4800

> <Gold.Chemscore.Hbond>
2.6313

> <Gold.Chemscore.Metal>
0.0000

> <Gold.Chemscore.Lipo>
87.6750

> <Gold.Chemscore.Internal_Hbond>
0.0000

> <Gold.Chemscore.DEClash>
0.6293

> <Gold.Chemscore.DEInternal>
2.6174

> <Gold.Chemscore.Rot>
2.0644

> <Gold.Chemscore.Internal.Correction>
   9.000000E+99

> <Gold.Chemscore.Hbonds>
donor molecule, donor type, donor heavy atom, donor atom, acceptor molecule, acceptor atom, score
      L1  H     7    39       P1 10175  0.70
      L1  H     9    27       P1  8028  0.68
      L1  H    13    29       P1  8028  0.50

> <Gold.Chemscore.Hbond.Weighted>
-8.7886

> <Gold.Chemscore.Metal.Weighted>
-0.0000

> <Gold.Chemscore.Lipo.Weighted>
-10.2580

> <Gold.Chemscore.Internal_Hbond.Weighted>
0.0000

> <Gold.Chemscore.DEClash.Weighted>
0.6293

> <Gold.Chemscore.DEInternal.Weighted>
2.6174

> <Gold.Chemscore.Rot.Weighted>
5.2848

> <Gold.Chemscore.Internal.Correction.Weighted>
   9.000000E+99

> <Gold.Protein.RotatedTorsions>
[ 6907 6896 6895 6894 ] final -159.82 input  -60.11 | X-H torsion
[ 7974 7965 7964 7962 ] final   50.30 input  175.53 | X-H torsion
[ 8008 7997 7996 7995 ] final   39.28 input   59.86 | X-H torsion
[ 10167 10162 10161 10158 ] final  116.09 input  -65.29 | X-H torsion
[ 10718 10713 10712 10709 ] final   99.61 input   66.30 | X-H torsion
[ 10763 10752 10751 10750 ] final  166.53 input  -60.55 | X-H torsion
[ 11005 11000 10999 10996 ] final   17.32 input  -57.11 | X-H torsion

> <Gold.Protein.ActiveResidues>
 VAL166  LYS551  ARG553  GLY616  TRP617  ASP618  TYR619  PRO620  LYS621  CYS622 
 ASP623  PHE694  ASN695  SER759  ASP760  ASP761  ALA762  ILE779  LEU786  VAL792 
 PHE793  MET794  SER795  GLU796  ALA797  LYS798  CYS799  TRP800  GLU811  SER814 

> <Gold.Protein.RotatedAtoms>
  151.3395  133.3968  159.2669 H   0  0  0  0  0  0  0  0  0  0  0  0  # atno 6907 bound_to 6896
  150.9889  134.9229  159.7898 H   0  0  0  0  0  0  0  0  0  0  0  0  # atno 6908 bound_to 6896
  152.5241  134.3360  159.9252 H   0  0  0  0  0  0  0  0  0  0  0  0  # atno 6909 bound_to 6896
  146.0025  139.4455  143.0006 H   0  0  0  0  0  0  0  0  0  0  0  0  # atno 7974 bound_to 7965
  155.2341  140.3340  155.4300 H   0  0  0  0  0  0  0  0  0  0  0  0  # atno 8008 bound_to 7997
  156.2283  140.1839  156.7354 H   0  0  0  0  0  0  0  0  0  0  0  0  # atno 8009 bound_to 7997
  154.5935  140.0634  156.9256 H   0  0  0  0  0  0  0  0  0  0  0  0  # atno 8010 bound_to 7997
  139.6271  144.7110  151.2510 H   0  0  0  0  0  0  0  0  0  0  0  0  # atno 10167 bound_to 10162
  157.6872  131.0674  150.4975 H   0  0  0  0  0  0  0  0  0  0  0  0  # atno 10718 bound_to 10713
  154.3404  135.2754  155.2425 H   0  0  0  0  0  0  0  0  0  0  0  0  # atno 10763 bound_to 10752
  154.4698  135.5886  153.6317 H   0  0  0  0  0  0  0  0  0  0  0  0  # atno 10764 bound_to 10752
  152.9858  135.6085  154.3605 H   0  0  0  0  0  0  0  0  0  0  0  0  # atno 10765 bound_to 10752
  140.4373  134.1358  155.7686 H   0  0  0  0  0  0  0  0  0  0  0  0  # atno 11005 bound_to 11000
  145.7465  140.9988  143.1273 LP  0  0  0  0  0  0  0  0  0  0  0  0  # atno 17320 bound_to 7965
  144.6924  139.9163  143.7466 LP  0  0  0  0  0  0  0  0  0  0  0  0  # atno 17321 bound_to 7965
  140.7417  143.6547  150.8217 LP  0  0  0  0  0  0  0  0  0  0  0  0  # atno 17342 bound_to 10162
  140.0167  143.5585  152.2817 LP  0  0  0  0  0  0  0  0  0  0  0  0  # atno 17343 bound_to 10162
  156.5298  130.4182  149.6207 LP  0  0  0  0  0  0  0  0  0  0  0  0  # atno 17370 bound_to 10713
  156.3079  130.7213  151.2099 LP  0  0  0  0  0  0  0  0  0  0  0  0  # atno 17371 bound_to 10713
  141.1720  133.8589  157.1539 LP  0  0  0  0  0  0  0  0  0  0  0  0  # atno 17394 bound_to 11000
  140.0094  134.9995  157.0362 LP  0  0  0  0  0  0  0  0  0  0  0  0  # atno 17395 bound_to 11000

$$$$
