#       Name:                AV-unprocessed.smi:2335
#       Creating user name   scv26
#       Creation time:       Fri Mar 27 12:54:32 2020


#       File generated by GOLD software.
#

@<TRIPOS>MOLECULE
AV-unprocessed.smi:2335
    48    49     1
SMALL
NO_CHARGES


@<TRIPOS>ATOM
      1 ****        -6.9514   3.1527  -0.1367 C.3            1 S1                 0.0000
      2 ****        -5.6171   3.6412   0.4373 C.3            1 S1                 0.0000
      3 ****        -4.4423   2.9859  -0.2085 C.2            1 S1                 0.0000
      4 ****        -3.8623   3.4633  -1.3129 N.2            1 S1                 0.0000
      5 ****        -2.8135   2.6622  -1.7407 N.2            1 S1                 0.0000
      6 ****        -2.6198   1.5893  -0.9605 C.2            1 S1                 0.0000
      7 ****        -1.6622   0.6805  -1.2071 N.pl3          1 S1                -1.0000
      8 ****        -0.4817   0.7476  -0.5511 C.2            1 S1                 0.0000
      9 ****        -0.1516   1.6032   0.2730 O.2            1 S1                 0.0000
     10 ****         0.3639  -0.2431  -0.8658 N.am           1 S1                 0.0000
     11 ****         1.6954  -0.4517  -0.2999 C.3            1 S1                 0.0000
     12 ****         2.5797  -1.2403  -1.2450 C.3            1 S1                 0.0000
     13 ****         3.6278  -1.8544  -0.3101 C.3            1 S1                 0.0000
     14 ****         4.0651  -3.2548  -0.7658 C.3            1 S1                 0.0000
     15 ****         4.8436  -0.9307  -0.1225 C.3            1 S1                 0.0000
     16 ****         2.9829  -1.9719   0.9570 O.3            1 S1                 0.0000
     17 ****         1.7094  -1.3267   0.9739 C.3            1 S1                 0.0000
     18 ****         1.6269  -0.4914   2.2614 C.3            1 S1                 0.0000
     19 ****         0.6514  -2.4499   0.9852 C.3            1 S1                 0.0000
     20 ****        -3.7569   1.4816   0.3826 S.3            1 S1                 0.0000
     21 ****        -7.7899   3.6459   0.3550 H              1 S1                 0.0000
     22 ****        -7.0685   2.0776   0.0019 H              1 S1                 0.0000
     23 ****        -7.0197   3.3630  -1.2046 H              1 S1                 0.0000
     24 ****        -5.5311   4.7213   0.3143 H              1 S1                 0.0000
     25 ****        -5.5800   3.4455   1.5093 H              1 S1                 0.0000
     26 ****         0.0488  -0.9182  -1.5469 H              1 S1                 0.0000
     27 ****         2.1795   0.5073  -0.1060 H              1 S1                 0.0000
     28 ****         1.9979  -2.0268  -1.7290 H              1 S1                 0.0000
     29 ****         3.0142  -0.6242  -2.0330 H              1 S1                 0.0000
     30 ****         4.5441  -3.2193  -1.7447 H              1 S1                 0.0000
     31 ****         3.2128  -3.9315  -0.8361 H              1 S1                 0.0000
     32 ****         4.7737  -3.6937  -0.0630 H              1 S1                 0.0000
     33 ****         5.3719  -0.7777  -1.0641 H              1 S1                 0.0000
     34 ****         5.5519  -1.3537   0.5904 H              1 S1                 0.0000
     35 ****         4.5481   0.0489   0.2542 H              1 S1                 0.0000
     36 ****         0.6640   0.0122   2.3465 H              1 S1                 0.0000
     37 ****         2.4058   0.2712   2.2893 H              1 S1                 0.0000
     38 ****         1.7496  -1.1182   3.1449 H              1 S1                 0.0000
     39 ****        -0.3604  -2.0475   1.0460 H              1 S1                 0.0000
     40 ****         0.7904  -3.1076   1.8434 H              1 S1                 0.0000
     41 ****         0.7106  -3.0673   0.0888 H              1 S1                 0.0000
     42 ****        -4.1505   4.3007  -1.7774 LP             1 S1                 0.0000
     43 ****        -2.2591   2.8643  -2.5480 LP             1 S1                 0.0000
     44 ****        -1.8222  -0.0457  -1.8757 LP             1 S1                 0.0000
     45 ****        -0.7857   2.3388   0.5114 LP             1 S1                 0.0000
     46 ****         0.7502   1.5616   0.7030 LP             1 S1                 0.0000
     47 ****         3.5650  -1.5546   1.6549 LP             1 S1                 0.0000
     48 ****         2.8557  -2.9417   1.1653 LP             1 S1                 0.0000
@<TRIPOS>BOND
    1    1    2 1     
    2    1   21 1     
    3    1   22 1     
    4    1   23 1     
    5    2    3 1     
    6    2   24 1     
    7    2   25 1     
    8    3   20 1     
    9    3    4 2     
   10    4    5 1     
   11    5    6 2     
   12    6    7 1     
   13    6   20 1     
   14    7    8 1     
   15    8    9 2     
   16    8   10 am    
   17   10   11 1     
   18   10   26 1     
   19   11   17 1     
   20   11   12 1     
   21   11   27 1     
   22   12   13 1     
   23   12   28 1     
   24   12   29 1     
   25   13   14 1     
   26   13   15 1     
   27   13   16 1     
   28   14   30 1     
   29   14   31 1     
   30   14   32 1     
   31   15   33 1     
   32   15   34 1     
   33   15   35 1     
   34   16   17 1     
   35   17   18 1     
   36   17   19 1     
   37   18   36 1     
   38   18   37 1     
   39   18   38 1     
   40   19   39 1     
   41   19   40 1     
   42   19   41 1     
   43    4   42 1     
   44    5   43 1     
   45    7   44 1     
   46    9   45 1     
   47    9   46 1     
   48   16   47 1     
   49   16   48 1     
@<TRIPOS>SUBSTRUCTURE
      1 S1             1
@<TRIPOS>SET
LONE_PAIRS      STATIC     ATOMS    <user>   **** ""
7 42 43 44 45 46 47 48
DONOR_HYDROGENS      STATIC     ATOMS    <user>   **** ""
1 26
ATOM$BLUE        STATIC     ATOMS    COLORGROUP SYSTEM
7 42 43 44 45 46 47 48
ATOM$RED        STATIC     ATOMS    COLORGROUP SYSTEM
1 26
