AV-unprocessed.smi:2057|AV-procd|sdf|8341|dock9
  -GOLD-   2272011 13D 1   1.00000     0.00000
 Structure written by MMmdl.
 44 46  0  0  0  0  0  0  0  0  1 V2000
  151.4041  145.0700  158.9048 C   0  0  0  0  0  0  0  0  0  0  0  0
  152.3134  144.4245  159.7843 O   0  0  0  0  0  0  0  0  0  0  0  0
  152.4709  143.0599  159.6693 C   0  0  0  0  0  0  0  0  0  0  0  0
  153.3841  142.4448  160.5450 C   0  0  0  0  0  0  0  0  0  0  0  0
  153.6148  141.0584  160.4906 C   0  0  0  0  0  0  0  0  0  0  0  0
  152.9269  140.2474  159.5543 C   0  0  0  0  0  0  0  0  0  0  0  0
  153.1234  138.8855  159.4424 O   0  0  0  0  0  0  0  0  0  0  0  0
  153.9019  138.2290  160.4319 C   0  0  0  0  0  0  0  0  0  0  0  0
  151.9937  140.8567  158.6797 C   0  0  0  0  0  0  0  0  0  0  0  0
  151.2396  140.0135  157.6555 C   0  0  1  0  0  0  0  0  0  0  0  0
  149.8511  139.9388  157.9193 O   0  0  0  0  0  0  0  0  0  0  0  0
  151.4742  140.5401  156.2263 C   0  0  0  0  0  0  0  0  0  0  0  0
  150.5232  139.9931  155.2684 N   0  0  0  0  0  0  0  0  0  0  0  0
  150.6002  138.8359  154.5639 C   0  0  0  0  0  0  0  0  0  0  0  0
  151.7729  137.9075  154.7052 C   0  0  0  0  0  0  0  0  0  0  0  0
  151.5749  136.6410  154.1101 O   0  0  0  0  0  0  0  0  0  0  0  0
  149.5715  138.5897  153.7482 N   0  0  0  0  0  0  0  0  0  0  0  0
  148.7528  139.6841  153.9471 C   0  0  0  0  0  0  0  0  0  0  0  0
  147.5043  140.0155  153.3735 C   0  0  0  0  0  0  0  0  0  0  0  0
  146.8451  141.2080  153.7385 C   0  0  0  0  0  0  0  0  0  0  0  0
  147.4234  142.0846  154.6796 C   0  0  0  0  0  0  0  0  0  0  0  0
  148.6668  141.7734  155.2624 C   0  0  0  0  0  0  0  0  0  0  0  0
  149.3199  140.5816  154.8945 C   0  0  0  0  0  0  0  0  0  0  0  0
  151.7795  142.2529  158.7341 C   0  0  0  0  0  0  0  0  0  0  0  0
  151.3961  146.1391  159.1171 H   0  0  0  0  0  0  0  0  0  0  0  0
  150.3869  144.7000  159.0394 H   0  0  0  0  0  0  0  0  0  0  0  0
  151.7002  144.9432  157.8625 H   0  0  0  0  0  0  0  0  0  0  0  0
  153.9206  143.0445  161.2657 H   0  0  0  0  0  0  0  0  0  0  0  0
  154.3319  140.6417  161.1810 H   0  0  0  0  0  0  0  0  0  0  0  0
  153.9604  137.1667  160.1949 H   0  0  0  0  0  0  0  0  0  0  0  0
  153.4511  138.3214  161.4210 H   0  0  0  0  0  0  0  0  0  0  0  0
  154.9210  138.6166  160.4595 H   0  0  0  0  0  0  0  0  0  0  0  0
  151.5983  138.9858  157.7169 H   0  0  0  0  0  0  0  0  0  0  0  0
  149.6742  140.4066  158.7211 H   0  0  0  0  0  0  0  0  0  0  0  0
  151.4418  141.6294  156.2055 H   0  0  0  0  0  0  0  0  0  0  0  0
  152.4747  140.2622  155.8918 H   0  0  0  0  0  0  0  0  0  0  0  0
  152.6530  138.3664  154.2550 H   0  0  0  0  0  0  0  0  0  0  0  0
  151.9849  137.7601  155.7644 H   0  0  0  0  0  0  0  0  0  0  0  0
  151.4292  136.7683  153.1849 H   0  0  0  0  0  0  0  0  0  0  0  0
  147.0528  139.3509  152.6520 H   0  0  0  0  0  0  0  0  0  0  0  0
  145.8909  141.4511  153.2943 H   0  0  0  0  0  0  0  0  0  0  0  0
  146.9120  142.9957  154.9539 H   0  0  0  0  0  0  0  0  0  0  0  0
  149.1138  142.4422  155.9831 H   0  0  0  0  0  0  0  0  0  0  0  0
  151.0779  142.6925  158.0418 H   0  0  0  0  0  0  0  0  0  0  0  0
  1  2  1  0  0  0  0
  1 25  1  0  0  0  0
  1 26  1  0  0  0  0
  1 27  1  0  0  0  0
  2  3  1  0  0  0  0
  3 24  1  0  0  0  0
  3  4  2  0  0  0  0
  4  5  1  0  0  0  0
  4 28  1  0  0  0  0
  5  6  2  0  0  0  0
  5 29  1  0  0  0  0
  6  7  1  0  0  0  0
  6  9  1  0  0  0  0
  7  8  1  0  0  0  0
  8 30  1  0  0  0  0
  8 31  1  0  0  0  0
  8 32  1  0  0  0  0
  9 10  1  0  0  0  0
  9 24  2  0  0  0  0
 10 11  1  0  0  0  0
 10 12  1  0  0  0  0
 10 33  1  0  0  0  0
 11 34  1  0  0  0  0
 12 13  1  0  0  0  0
 12 35  1  0  0  0  0
 12 36  1  0  0  0  0
 13 23  1  0  0  0  0
 13 14  1  0  0  0  0
 14 15  1  0  0  0  0
 14 17  2  0  0  0  0
 15 16  1  0  0  0  0
 15 37  1  0  0  0  0
 15 38  1  0  0  0  0
 16 39  1  0  0  0  0
 17 18  1  0  0  0  0
 18 23  2  0  0  0  0
 18 19  1  0  0  0  0
 19 20  2  0  0  0  0
 19 40  1  0  0  0  0
 20 21  1  0  0  0  0
 20 41  1  0  0  0  0
 21 22  2  0  0  0  0
 21 42  1  0  0  0  0
 22 23  1  0  0  0  0
 22 43  1  0  0  0  0
 24 44  1  0  0  0  0
M  END
> <s_m_source_file>
AV-unprocessed.smi

> <i_m_source_file_index>
2057

> <i_lp_mmshare_version>
43012

> <i_f3d_flags>
0

> <s_epik_input>
W0NIM11PYzFbY0hdW2NIXWMoT1tDSDNdKWMoW2NIXTEpW0NASF0oW09IXSlbQ0gyXW4oYyhuMilbQ0gyXVtPSF0pYyhjMjMpW2NIXVtjSF1bY0hdW2NIXTM=

> <s_epik_cmdline>
J2VwaWtfcHl0aG9uJywgJy1waCcsICc3LjAnLCAnLXRuJywgJzgnLCAnLW1hJywgJzIwMCcsICctbWV0YWxfYmluZGluZycsICctaW1hZScsICc8aW5maWxlLm1hZT4nLCAnLW9tYWUnLCAnPG91dGZpbGUubWFlPic=

> <r_lp_tautomer_probability>
1

> <r_epik_Ionization_Penalty>
0.0634722

> <r_epik_Ionization_Penalty_Charging>
0

> <r_epik_Ionization_Penalty_Neutral>
0.0634722

> <r_epik_State_Penalty>
0.0551572

> <r_epik_Charging_Adjusted_Penalty>
0.0551572

> <i_epik_Tot_Q>
0

> <i_epik_Tot_abs_Q>
0

> <r_epik_Metal_State_Penalty>
5.78034e-05

> <b_epik_Metal_Only>
0

> <s_lp_Force_Field>
OPLS_2005

> <r_lp_Energy>
19.4747

> <b_lp_Chiralities_Consistent>
1

> <s_lp_Variant>
AV-unprocessed.smi:2057-2

> <Gold.Version>
5.8.1

> <Gold.Id.Protein>
6NUR|6NUR_protein|mol2

> <Gold.PLP.Fitness>
54.3479

> <Gold.PLP.PLP>
-49.8495

> <Gold.PLP.part.hbond>
-2.0000

> <Gold.PLP.part.metal>
0.0000

> <Gold.PLP.part.buried>
-3.7185

> <Gold.PLP.part.nonpolar>
-45.7755

> <Gold.PLP.part.repulsive>
1.4531

> <Gold.PLP.ligand.clash>
0.0000

> <Gold.PLP.ligand.torsion>
0.7897

> <Gold.PLP.Chemscore.Hbond>
2.0000

> <Gold.PLP.Chemscore.CHOScore>
0.0000

> <Gold.PLP.Chemscore.Metal>
0.0000

> <Gold.Chemscore.Hbonds>
donor molecule, donor type, donor heavy atom, donor atom, acceptor molecule, acceptor atom, score
      L1  H    16    39       P1  7949  0.96
      P1  H 10752 10763       L1    16  1.00

> <Gold.PLP.Chemscore.Internal.Correction>
0.0777

> <Gold.Rescore>
     Score         DG    S(hbond)    S(metal)    S(lipo)     H(rot)  DE(clash)    DE(int)     intcor
     17.17     -18.05       1.64        0.00     130.00       3.17       0.10       0.78       ----

> <Gold.Chemscore.Fitness>
17.1697

> <Gold.Chemscore.DG>
-18.0511

> <Gold.Chemscore.ZeroCoef>
-5.4800

> <Gold.Chemscore.Hbond>
1.6369

> <Gold.Chemscore.Metal>
0.0000

> <Gold.Chemscore.Lipo>
130.0004

> <Gold.Chemscore.Internal_Hbond>
0.0000

> <Gold.Chemscore.DEClash>
0.1007

> <Gold.Chemscore.DEInternal>
0.7806

> <Gold.Chemscore.Rot>
3.1665

> <Gold.Chemscore.Internal.Correction>
   9.000000E+99

> <Gold.Chemscore.Hbonds>
donor molecule, donor type, donor heavy atom, donor atom, acceptor molecule, acceptor atom, score
      L1  H    16    39       P1  7949  0.79
      P1  H 10752 10763       L1    16  0.34

> <Gold.Chemscore.Hbond.Weighted>
-5.4672

> <Gold.Chemscore.Metal.Weighted>
-0.0000

> <Gold.Chemscore.Lipo.Weighted>
-15.2100

> <Gold.Chemscore.Internal_Hbond.Weighted>
0.0000

> <Gold.Chemscore.DEClash.Weighted>
0.1007

> <Gold.Chemscore.DEInternal.Weighted>
0.7806

> <Gold.Chemscore.Rot.Weighted>
8.1062

> <Gold.Chemscore.Internal.Correction.Weighted>
   9.000000E+99

> <Gold.Protein.RotatedTorsions>
[ 6907 6896 6895 6894 ] final  -79.23 input  -60.11 | X-H torsion
[ 7974 7965 7964 7962 ] final   27.75 input  175.53 | X-H torsion
[ 8008 7997 7996 7995 ] final  128.52 input   59.86 | X-H torsion
[ 10167 10162 10161 10158 ] final  -14.30 input  -65.29 | X-H torsion
[ 10718 10713 10712 10709 ] final  126.93 input   66.30 | X-H torsion
[ 10763 10752 10751 10750 ] final   33.55 input  -60.55 | X-H torsion
[ 11005 11000 10999 10996 ] final   91.10 input  -57.11 | X-H torsion

> <Gold.Protein.ActiveResidues>
 VAL166  LYS551  ARG553  GLY616  TRP617  ASP618  TYR619  PRO620  LYS621  CYS622 
 ASP623  PHE694  ASN695  SER759  ASP760  ASP761  ALA762  ILE779  LEU786  VAL792 
 PHE793  MET794  SER795  GLU796  ALA797  LYS798  CYS799  TRP800  GLU811  SER814 

> <Gold.Protein.RotatedAtoms>
  150.6954  134.4152  159.5179 H   0  0  0  0  0  0  0  0  0  0  0  0  # atno 6907 bound_to 6896
  152.1904  134.8674  160.0527 H   0  0  0  0  0  0  0  0  0  0  0  0  # atno 6908 bound_to 6896
  151.9631  133.3667  159.4080 H   0  0  0  0  0  0  0  0  0  0  0  0  # atno 6909 bound_to 6896
  146.1767  139.7148  142.8929 H   0  0  0  0  0  0  0  0  0  0  0  0  # atno 7974 bound_to 7965
  156.2917  140.2642  156.2450 H   0  0  0  0  0  0  0  0  0  0  0  0  # atno 8008 bound_to 7997
  154.9939  140.0388  157.2350 H   0  0  0  0  0  0  0  0  0  0  0  0  # atno 8009 bound_to 7997
  154.7661  140.2769  155.6180 H   0  0  0  0  0  0  0  0  0  0  0  0  # atno 8010 bound_to 7997
  140.7198  143.5336  150.9491 H   0  0  0  0  0  0  0  0  0  0  0  0  # atno 10167 bound_to 10162
  157.5377  131.1097  150.8909 H   0  0  0  0  0  0  0  0  0  0  0  0  # atno 10718 bound_to 10713
  153.0206  135.6384  154.1529 H   0  0  0  0  0  0  0  0  0  0  0  0  # atno 10763 bound_to 10752
  154.1264  135.2843  155.3197 H   0  0  0  0  0  0  0  0  0  0  0  0  # atno 10764 bound_to 10752
  154.6226  135.5520  153.7654 H   0  0  0  0  0  0  0  0  0  0  0  0  # atno 10765 bound_to 10752
  139.8844  134.8653  156.3379 H   0  0  0  0  0  0  0  0  0  0  0  0  # atno 11005 bound_to 11000
  145.4192  141.0405  143.2973 LP  0  0  0  0  0  0  0  0  0  0  0  0  # atno 17320 bound_to 7965
  144.8247  139.5730  143.6971 LP  0  0  0  0  0  0  0  0  0  0  0  0  # atno 17321 bound_to 7965
  139.9057  143.6782  152.3124 LP  0  0  0  0  0  0  0  0  0  0  0  0  # atno 17342 bound_to 10162
  139.7147  144.7614  151.1054 LP  0  0  0  0  0  0  0  0  0  0  0  0  # atno 17343 bound_to 10162
  156.9471  130.5406  149.5281 LP  0  0  0  0  0  0  0  0  0  0  0  0  # atno 17370 bound_to 10713
  156.0471  130.5546  150.8906 LP  0  0  0  0  0  0  0  0  0  0  0  0  # atno 17371 bound_to 10713
  140.9678  133.7346  156.0492 LP  0  0  0  0  0  0  0  0  0  0  0  0  # atno 17394 bound_to 11000
  140.7908  134.3619  157.5465 LP  0  0  0  0  0  0  0  0  0  0  0  0  # atno 17395 bound_to 11000

$$$$
