AV-unprocessed.smi:2024|AV-procd|sdf|8194|dock6
  -GOLD-   2272010453D 1   1.00000     0.00000
 Structure written by MMmdl.
 43 44  0  0  0  0  0  0  0  0  3 V2000
  146.8410  139.9547  151.6945 C   0  0  0  0  0  0  0  0  0  0  0  0
  146.4986  139.9876  153.1350 N   0  3  0  0  0  0  0  0  0  0  0  0
  147.1895  141.0585  153.8902 C   0  0  0  0  0  0  0  0  0  0  0  0
  148.6590  140.6935  154.1906 C   0  0  0  0  0  0  0  0  0  0  0  0
  148.7109  139.4396  154.9571 N   0  0  0  0  0  0  0  0  0  0  0  0
  150.0167  139.0998  155.5799 C   0  0  0  0  0  0  0  0  0  0  0  0
  151.1432  139.0239  154.5230 C   0  0  0  0  0  0  0  0  0  0  0  0
  150.4066  140.1653  156.6367 C   0  0  0  0  0  0  0  0  0  0  0  0
  149.9010  137.7309  156.3169 C   0  0  0  0  0  0  0  0  0  0  0  0
  148.9524  137.7717  157.4318 N   0  0  0  0  0  0  0  0  0  0  0  0
  148.9389  136.9601  158.4993 C   0  0  0  0  0  0  0  0  0  0  0  0
  149.8418  136.1365  158.6636 O   0  0  0  0  0  0  0  0  0  0  0  0
  147.8659  137.1366  159.3022 N   0  5  0  0  0  0  0  0  0  0  0  0
  147.6884  136.3367  160.3662 C   0  0  0  0  0  0  0  0  0  0  0  0
  147.4311  136.8004  161.5942 N   0  0  0  0  0  0  0  0  0  0  0  0
  147.2775  135.7915  162.5470 C   0  0  0  0  0  0  0  0  0  0  0  0
  147.4148  134.5301  162.0308 C   0  0  0  0  0  0  0  0  0  0  0  0
  147.7409  134.5715  160.3215 S   0  0  0  0  0  0  0  0  0  0  0  0
  148.1448  138.3842  154.1026 C   0  0  0  0  0  0  0  0  0  0  0  0
  146.6607  138.6847  153.8200 C   0  0  0  0  0  0  0  0  0  0  0  0
  147.8960  139.7350  151.5314 H   0  0  0  0  0  0  0  0  0  0  0  0
  146.6195  140.9153  151.2286 H   0  0  0  0  0  0  0  0  0  0  0  0
  146.2523  139.1949  151.1798 H   0  0  0  0  0  0  0  0  0  0  0  0
  147.1328  141.9991  153.3412 H   0  0  0  0  0  0  0  0  0  0  0  0
  146.6567  141.2187  154.8290 H   0  0  0  0  0  0  0  0  0  0  0  0
  149.2415  140.6108  153.2726 H   0  0  0  0  0  0  0  0  0  0  0  0
  149.0764  141.5234  154.7564 H   0  0  0  0  0  0  0  0  0  0  0  0
  152.1068  138.8392  154.9988 H   0  0  0  0  0  0  0  0  0  0  0  0
  151.2380  139.9523  153.9597 H   0  0  0  0  0  0  0  0  0  0  0  0
  150.9881  138.2143  153.8098 H   0  0  0  0  0  0  0  0  0  0  0  0
  151.2463  139.8261  157.2441 H   0  0  0  0  0  0  0  0  0  0  0  0
  149.5835  140.3848  157.3183 H   0  0  0  0  0  0  0  0  0  0  0  0
  150.7252  141.1034  156.1819 H   0  0  0  0  0  0  0  0  0  0  0  0
  149.6750  136.9122  155.6340 H   0  0  0  0  0  0  0  0  0  0  0  0
  150.8707  137.4660  156.7393 H   0  0  0  0  0  0  0  0  0  0  0  0
  148.1964  138.4361  157.3544 H   0  0  0  0  0  0  0  0  0  0  0  0
  147.0702  136.0632  163.5715 H   0  0  0  0  0  0  0  0  0  0  0  0
  147.3419  133.5853  162.5476 H   0  0  0  0  0  0  0  0  0  0  0  0
  148.7038  138.3020  153.1700 H   0  0  0  0  0  0  0  0  0  0  0  0
  148.2033  137.4088  154.5787 H   0  0  0  0  0  0  0  0  0  0  0  0
  146.1064  138.7099  154.7598 H   0  0  0  0  0  0  0  0  0  0  0  0
  146.2157  137.8890  153.2218 H   0  0  0  0  0  0  0  0  0  0  0  0
  145.5130  140.2049  153.1716 H   0  0  0  0  0  0  0  0  0  0  0  0
  1  2  1  0  0  0  0
  1 21  1  0  0  0  0
  1 22  1  0  0  0  0
  1 23  1  0  0  0  0
  2 20  1  0  0  0  0
  2  3  1  0  0  0  0
  2 43  1  0  0  0  0
  3  4  1  0  0  0  0
  3 24  1  0  0  0  0
  3 25  1  0  0  0  0
  4  5  1  0  0  0  0
  4 26  1  0  0  0  0
  4 27  1  0  0  0  0
  5  6  1  0  0  0  0
  5 19  1  0  0  0  0
  6  7  1  0  0  0  0
  6  8  1  0  0  0  0
  6  9  1  0  0  0  0
  7 28  1  0  0  0  0
  7 29  1  0  0  0  0
  7 30  1  0  0  0  0
  8 31  1  0  0  0  0
  8 32  1  0  0  0  0
  8 33  1  0  0  0  0
  9 10  1  0  0  0  0
  9 34  1  0  0  0  0
  9 35  1  0  0  0  0
 10 11  1  0  0  0  0
 10 36  1  0  0  0  0
 11 12  2  0  0  0  0
 11 13  1  0  0  0  0
 13 14  1  0  0  0  0
 14 18  1  0  0  0  0
 14 15  2  0  0  0  0
 15 16  1  0  0  0  0
 16 17  2  0  0  0  0
 16 37  1  0  0  0  0
 17 18  1  0  0  0  0
 17 38  1  0  0  0  0
 19 20  1  0  0  0  0
 19 39  1  0  0  0  0
 19 40  1  0  0  0  0
 20 41  1  0  0  0  0
 20 42  1  0  0  0  0
M  CHG  1   2   1
M  CHG  1  13  -1
M  END
> <s_m_source_file>
AV-unprocessed.smi

> <i_m_source_file_index>
2024

> <i_lp_mmshare_version>
43012

> <i_f3d_flags>
0

> <s_epik_input>
W0NIM11OMVtDSDJdW0NIMl1OKFtDSDJdW0NIMl0xKUMoW0NIM10pKFtDSDNdKVtDSDJdW05IXUMoPU8pW05IXWMybltjSF1bY0hdczI=

> <s_epik_cmdline>
J2VwaWtfcHl0aG9uJywgJy1waCcsICc3LjAnLCAnLXRuJywgJzgnLCAnLW1hJywgJzIwMCcsICctbWV0YWxfYmluZGluZycsICctaW1hZScsICc8aW5maWxlLm1hZT4nLCAnLW9tYWUnLCAnPG91dGZpbGUubWFlPic=

> <r_lp_tautomer_probability>
0.999

> <r_epik_Ionization_Penalty>
7.04933

> <r_epik_Ionization_Penalty_Charging>
5.90256

> <r_epik_Ionization_Penalty_Neutral>
1.14676

> <r_epik_State_Penalty>
6.00717

> <r_epik_Charging_Adjusted_Penalty>
11.9097

> <i_epik_Tot_Q>
0

> <i_epik_Tot_abs_Q>
2

> <r_epik_Metal_State_Penalty>
1.97542

> <b_epik_Metal_Only>
1

> <s_lp_Force_Field>
OPLS_2005

> <r_lp_Energy>
14.8551

> <b_lp_Chiralities_Consistent>
1

> <s_lp_Variant>
AV-unprocessed.smi:2024-4

> <Gold.Version>
5.8.1

> <Gold.Id.Protein>
6NUR|6NUR_protein|mol2

> <Gold.PLP.Fitness>
45.0697

> <Gold.PLP.PLP>
-33.0027

> <Gold.PLP.part.hbond>
-4.8851

> <Gold.PLP.part.metal>
0.0000

> <Gold.PLP.part.buried>
0.2218

> <Gold.PLP.part.nonpolar>
-28.0994

> <Gold.PLP.part.repulsive>
0.1298

> <Gold.PLP.ligand.clash>
0.0000

> <Gold.PLP.ligand.torsion>
0.6916

> <Gold.PLP.Chemscore.Hbond>
4.4648

> <Gold.PLP.Chemscore.CHOScore>
0.0000

> <Gold.PLP.Chemscore.Metal>
0.0000

> <Gold.Chemscore.Hbonds>
donor molecule, donor type, donor heavy atom, donor atom, acceptor molecule, acceptor atom, score
      L1  H     2    43       P1 10175  2.00
      P1  H  6896  6908       L1    12  1.00
      P1  H  6931  6943       L1    15  0.62
      P1  H  6934  6947       L1    15  0.19

> <Gold.PLP.Chemscore.Internal.Correction>
0.0558

> <Gold.Rescore>
     Score         DG    S(hbond)    S(metal)    S(lipo)     H(rot)  DE(clash)    DE(int)     intcor
     18.18     -20.05       2.74        0.00      80.67       1.57       1.14       0.73       ----

> <Gold.Chemscore.Fitness>
18.1839

> <Gold.Chemscore.DG>
-20.0472

> <Gold.Chemscore.ZeroCoef>
-5.4800

> <Gold.Chemscore.Hbond>
2.7372

> <Gold.Chemscore.Metal>
0.0000

> <Gold.Chemscore.Lipo>
80.6729

> <Gold.Chemscore.Internal_Hbond>
0.0000

> <Gold.Chemscore.DEClash>
1.1374

> <Gold.Chemscore.DEInternal>
0.7259

> <Gold.Chemscore.Rot>
1.5678

> <Gold.Chemscore.Internal.Correction>
   9.000000E+99

> <Gold.Chemscore.Hbonds>
donor molecule, donor type, donor heavy atom, donor atom, acceptor molecule, acceptor atom, score
      L1  H     2    43       P1 10175  0.96
      P1  H  6896  6908       L1    12  0.99
      P1  H  6931  6943       L1    15  0.23
      P1  H  6934  6947       L1    15  0.03

> <Gold.Chemscore.Hbond.Weighted>
-9.1421

> <Gold.Chemscore.Metal.Weighted>
-0.0000

> <Gold.Chemscore.Lipo.Weighted>
-9.4387

> <Gold.Chemscore.Internal_Hbond.Weighted>
0.0000

> <Gold.Chemscore.DEClash.Weighted>
1.1374

> <Gold.Chemscore.DEInternal.Weighted>
0.7259

> <Gold.Chemscore.Rot.Weighted>
4.0136

> <Gold.Chemscore.Internal.Correction.Weighted>
   9.000000E+99

> <Gold.Protein.RotatedTorsions>
[ 6907 6896 6895 6894 ] final  176.98 input  -60.11 | X-H torsion
[ 7974 7965 7964 7962 ] final   16.46 input  175.53 | X-H torsion
[ 8008 7997 7996 7995 ] final   28.19 input   59.86 | X-H torsion
[ 10167 10162 10161 10158 ] final  175.09 input  -65.29 | X-H torsion
[ 10718 10713 10712 10709 ] final -163.63 input   66.30 | X-H torsion
[ 10763 10752 10751 10750 ] final   65.76 input  -60.55 | X-H torsion
[ 11005 11000 10999 10996 ] final  111.34 input  -57.11 | X-H torsion

> <Gold.Protein.ActiveResidues>
 VAL166  LYS551  ARG553  GLY616  TRP617  ASP618  TYR619  PRO620  LYS621  CYS622 
 ASP623  PHE694  ASN695  SER759  ASP760  ASP761  ALA762  ILE779  LEU786  VAL792 
 PHE793  MET794  SER795  GLU796  ALA797  LYS798  CYS799  TRP800  GLU811  SER814 

> <Gold.Protein.RotatedAtoms>
  151.7114  133.3312  159.3291 H   0  0  0  0  0  0  0  0  0  0  0  0  # atno 6907 bound_to 6896
  150.7692  134.6529  159.6307 H   0  0  0  0  0  0  0  0  0  0  0  0  # atno 6908 bound_to 6896
  152.3709  134.6738  160.0228 H   0  0  0  0  0  0  0  0  0  0  0  0  # atno 6909 bound_to 6896
  146.2248  139.8744  142.8582 H   0  0  0  0  0  0  0  0  0  0  0  0  # atno 7974 bound_to 7965
  155.0548  140.3184  155.4680 H   0  0  0  0  0  0  0  0  0  0  0  0  # atno 8008 bound_to 7997
  156.2826  140.2139  156.5618 H   0  0  0  0  0  0  0  0  0  0  0  0  # atno 8009 bound_to 7997
  154.7180  140.0492  157.0601 H   0  0  0  0  0  0  0  0  0  0  0  0  # atno 8010 bound_to 7997
  139.5164  144.3072  152.0325 H   0  0  0  0  0  0  0  0  0  0  0  0  # atno 10167 bound_to 10162
  156.6275  130.8916  151.2970 H   0  0  0  0  0  0  0  0  0  0  0  0  # atno 10718 bound_to 10713
  153.0110  135.5345  154.6717 H   0  0  0  0  0  0  0  0  0  0  0  0  # atno 10763 bound_to 10752
  154.5900  135.2858  155.0647 H   0  0  0  0  0  0  0  0  0  0  0  0  # atno 10764 bound_to 10752
  154.1744  135.6526  153.5070 H   0  0  0  0  0  0  0  0  0  0  0  0  # atno 10765 bound_to 10752
  139.8901  134.9505  156.6417 H   0  0  0  0  0  0  0  0  0  0  0  0  # atno 11005 bound_to 11000
  145.2576  141.0066  143.3845 LP  0  0  0  0  0  0  0  0  0  0  0  0  # atno 17320 bound_to 7965
  144.9324  139.4283  143.6488 LP  0  0  0  0  0  0  0  0  0  0  0  0  # atno 17321 bound_to 7965
  140.2518  144.4161  150.6219 LP  0  0  0  0  0  0  0  0  0  0  0  0  # atno 17342 bound_to 10162
  140.6219  143.2177  151.6675 LP  0  0  0  0  0  0  0  0  0  0  0  0  # atno 17343 bound_to 10162
  157.7210  130.9558  150.1438 LP  0  0  0  0  0  0  0  0  0  0  0  0  # atno 17370 bound_to 10713
  156.2262  130.3678  149.8498 LP  0  0  0  0  0  0  0  0  0  0  0  0  # atno 17371 bound_to 10713
  140.7588  133.8835  155.8402 LP  0  0  0  0  0  0  0  0  0  0  0  0  # atno 17394 bound_to 11000
  140.9939  134.1241  157.4382 LP  0  0  0  0  0  0  0  0  0  0  0  0  # atno 17395 bound_to 11000

$$$$
