AV-unprocessed.smi:548|AV-procd|sdf|2891|dock5
  -GOLD-   2262023383D 1   1.00000     0.00000
 Structure written by MMmdl.
 24 24  0  0  0  0  0  0  0  0  2 V2000
  150.1081  137.3581  157.6130 C   0  0  0  0  0  0  0  0  0  0  0  0
  151.3618  138.2132  157.9219 C   0  0  0  0  0  0  0  0  0  0  0  0
  151.8018  137.9437  159.3820 C   0  0  0  0  0  0  0  0  0  0  0  0
  152.5092  137.7834  156.9647 C   0  0  0  0  0  0  0  0  0  0  0  0
  153.0005  138.6529  156.2099 O   0  0  0  0  0  0  0  0  0  0  0  0
  152.8599  136.5816  156.9713 O   0  5  0  0  0  0  0  0  0  0  0  0
  151.0324  139.7135  157.7412 C   0  0  0  0  0  0  0  0  0  0  0  0
  150.6671  140.3124  156.5060 C   0  0  0  0  0  0  0  0  0  0  0  0
  150.3881  141.6920  156.4583 C   0  0  0  0  0  0  0  0  0  0  0  0
  150.4816  142.4388  157.6471 C   0  0  0  0  0  0  0  0  0  0  0  0
  150.2130  143.8052  157.6389 N   0  0  0  0  0  0  0  0  0  0  0  0
  150.8264  141.8947  158.8303 N   0  0  0  0  0  0  0  0  0  0  0  0
  151.0919  140.5714  158.8658 C   0  0  0  0  0  0  0  0  0  0  0  0
  149.7066  137.5714  156.6214 H   0  0  0  0  0  0  0  0  0  0  0  0
  149.3062  137.5427  158.3280 H   0  0  0  0  0  0  0  0  0  0  0  0
  150.3317  136.2911  157.6574 H   0  0  0  0  0  0  0  0  0  0  0  0
  152.6352  138.5826  159.6781 H   0  0  0  0  0  0  0  0  0  0  0  0
  152.1134  136.9073  159.5203 H   0  0  0  0  0  0  0  0  0  0  0  0
  150.9926  138.1275  160.0886 H   0  0  0  0  0  0  0  0  0  0  0  0
  150.5917  139.7516  155.5871 H   0  0  0  0  0  0  0  0  0  0  0  0
  150.1089  142.1605  155.5260 H   0  0  0  0  0  0  0  0  0  0  0  0
  149.9484  144.2860  156.7915 H   0  0  0  0  0  0  0  0  0  0  0  0
  150.2733  144.3562  158.4828 H   0  0  0  0  0  0  0  0  0  0  0  0
  151.3631  140.1876  159.8378 H   0  0  0  0  0  0  0  0  0  0  0  0
  1  2  1  0  0  0  0
  1 14  1  0  0  0  0
  1 15  1  0  0  0  0
  1 16  1  0  0  0  0
  2  3  1  0  0  0  0
  2  4  1  0  0  0  0
  2  7  1  0  0  0  0
  3 17  1  0  0  0  0
  3 18  1  0  0  0  0
  3 19  1  0  0  0  0
  4  5  2  0  0  0  0
  4  6  1  0  0  0  0
  7 13  1  0  0  0  0
  7  8  2  0  0  0  0
  8  9  1  0  0  0  0
  8 20  1  0  0  0  0
  9 10  2  0  0  0  0
  9 21  1  0  0  0  0
 10 11  1  0  0  0  0
 10 12  1  0  0  0  0
 11 22  1  0  0  0  0
 11 23  1  0  0  0  0
 12 13  2  0  0  0  0
 13 24  1  0  0  0  0
M  CHG  1   6  -1
M  END
> <s_m_source_file>
AV-unprocessed.smi

> <i_m_source_file_index>
548

> <i_lp_mmshare_version>
43012

> <i_f3d_flags>
0

> <s_epik_input>
Tz1DKFtPSF0pQyhbQ0gzXSkoW0NIM10pYzFbY0hdW2NIXWMoW05IMl0pbltjSF0x

> <s_epik_cmdline>
J2VwaWtfcHl0aG9uJywgJy1waCcsICc3LjAnLCAnLXRuJywgJzgnLCAnLW1hJywgJzIwMCcsICctbWV0YWxfYmluZGluZycsICctaW1hZScsICc8aW5maWxlLm1hZT4nLCAnLW9tYWUnLCAnPG91dGZpbGUubWFlPic=

> <r_lp_tautomer_probability>
1

> <r_epik_Ionization_Penalty>
1.52711

> <r_epik_Ionization_Penalty_Charging>
0.000624596

> <r_epik_Ionization_Penalty_Neutral>
1.52649

> <r_epik_State_Penalty>
1.61852

> <r_epik_Charging_Adjusted_Penalty>
1.61914

> <i_epik_Tot_Q>
-1

> <i_epik_Tot_abs_Q>
1

> <r_epik_Metal_State_Penalty>
0.00844734

> <b_epik_Metal_Only>
0

> <s_lp_Force_Field>
OPLS_2005

> <r_lp_Energy>
9.30736

> <b_lp_Chiralities_Consistent>
1

> <s_lp_Variant>
AV-unprocessed.smi:548-2

> <Gold.Version>
5.8.1

> <Gold.Id.Protein>
6NUR|6NUR_protein|mol2

> <Gold.PLP.Fitness>
34.6701

> <Gold.PLP.PLP>
-20.0046

> <Gold.PLP.part.hbond>
-3.0000

> <Gold.PLP.part.metal>
0.0000

> <Gold.PLP.part.buried>
-4.7056

> <Gold.PLP.part.nonpolar>
-12.8718

> <Gold.PLP.part.repulsive>
0.0264

> <Gold.PLP.ligand.clash>
0.0000

> <Gold.PLP.ligand.torsion>
0.0516

> <Gold.PLP.Chemscore.Hbond>
4.9200

> <Gold.PLP.Chemscore.CHOScore>
0.0000

> <Gold.PLP.Chemscore.Metal>
0.0000

> <Gold.Chemscore.Hbonds>
donor molecule, donor type, donor heavy atom, donor atom, acceptor molecule, acceptor atom, score
      L1  H    11    22       P1  8028  1.00
      P1  H  7997  8008       L1     5  2.00
      P1  H 10752 10763       L1     6  1.30

> <Gold.PLP.Chemscore.Internal.Correction>
0.0087

> <Gold.Rescore>
     Score         DG    S(hbond)    S(metal)    S(lipo)     H(rot)  DE(clash)    DE(int)     intcor
     14.90     -15.23       2.82        0.00      35.29       1.48       0.00       0.33       ----

> <Gold.Chemscore.Fitness>
14.9041

> <Gold.Chemscore.DG>
-15.2344

> <Gold.Chemscore.ZeroCoef>
-5.4800

> <Gold.Chemscore.Hbond>
2.8158

> <Gold.Chemscore.Metal>
0.0000

> <Gold.Chemscore.Lipo>
35.2868

> <Gold.Chemscore.Internal_Hbond>
0.0000

> <Gold.Chemscore.DEClash>
0.0000

> <Gold.Chemscore.DEInternal>
0.3303

> <Gold.Chemscore.Rot>
1.4762

> <Gold.Chemscore.Internal.Correction>
   9.000000E+99

> <Gold.Chemscore.Hbonds>
donor molecule, donor type, donor heavy atom, donor atom, acceptor molecule, acceptor atom, score
      L1  H    11    22       P1  8028  0.86
      P1  H  7997  8008       L1     5  0.95
      P1  H 10752 10763       L1     6  0.62

> <Gold.Chemscore.Hbond.Weighted>
-9.4049

> <Gold.Chemscore.Metal.Weighted>
-0.0000

> <Gold.Chemscore.Lipo.Weighted>
-4.1286

> <Gold.Chemscore.Internal_Hbond.Weighted>
0.0000

> <Gold.Chemscore.DEClash.Weighted>
0.0000

> <Gold.Chemscore.DEInternal.Weighted>
0.3303

> <Gold.Chemscore.Rot.Weighted>
3.7790

> <Gold.Chemscore.Internal.Correction.Weighted>
   9.000000E+99

> <Gold.Protein.RotatedTorsions>
[ 6907 6896 6895 6894 ] final   59.48 input  -60.11 | X-H torsion
[ 7974 7965 7964 7962 ] final -165.49 input  175.53 | X-H torsion
[ 8008 7997 7996 7995 ] final  -40.23 input   59.86 | X-H torsion
[ 10167 10162 10161 10158 ] final   -6.13 input  -65.29 | X-H torsion
[ 10718 10713 10712 10709 ] final  143.76 input   66.30 | X-H torsion
[ 10763 10752 10751 10750 ] final  127.50 input  -60.55 | X-H torsion
[ 11005 11000 10999 10996 ] final   92.60 input  -57.11 | X-H torsion

> <Gold.Protein.ActiveResidues>
 VAL166  LYS551  ARG553  GLY616  TRP617  ASP618  TYR619  PRO620  LYS621  CYS622 
 ASP623  PHE694  ASN695  SER759  ASP760  ASP761  ALA762  ILE779  LEU786  VAL792 
 PHE793  MET794  SER795  GLU796  ALA797  LYS798  CYS799  TRP800  GLU811  SER814 

> <Gold.Protein.RotatedAtoms>
  152.3918  134.6429  160.0104 H   0  0  0  0  0  0  0  0  0  0  0  0  # atno 6907 bound_to 6896
  151.6660  133.3310  159.3193 H   0  0  0  0  0  0  0  0  0  0  0  0  # atno 6908 bound_to 6896
  150.7833  134.6840  159.6504 H   0  0  0  0  0  0  0  0  0  0  0  0  # atno 6909 bound_to 6896
  144.7268  140.2806  143.6236 H   0  0  0  0  0  0  0  0  0  0  0  0  # atno 7974 bound_to 7965
  154.4014  140.1531  156.2993 H   0  0  0  0  0  0  0  0  0  0  0  0  # atno 8008 bound_to 7997
  155.8715  140.3448  155.5803 H   0  0  0  0  0  0  0  0  0  0  0  0  # atno 8009 bound_to 7997
  155.7769  140.0838  157.2070 H   0  0  0  0  0  0  0  0  0  0  0  0  # atno 8010 bound_to 7997
  140.6987  143.6229  150.8595 H   0  0  0  0  0  0  0  0  0  0  0  0  # atno 10167 bound_to 10162
  157.3652  131.0971  151.0879 H   0  0  0  0  0  0  0  0  0  0  0  0  # atno 10718 bound_to 10713
  153.7104  135.3269  155.3245 H   0  0  0  0  0  0  0  0  0  0  0  0  # atno 10763 bound_to 10752
  154.8387  135.4475  154.1320 H   0  0  0  0  0  0  0  0  0  0  0  0  # atno 10764 bound_to 10752
  153.2412  135.6971  153.7860 H   0  0  0  0  0  0  0  0  0  0  0  0  # atno 10765 bound_to 10752
  139.8821  134.8742  156.3596 H   0  0  0  0  0  0  0  0  0  0  0  0  # atno 11005 bound_to 11000
  145.7953  139.1943  143.2079 LP  0  0  0  0  0  0  0  0  0  0  0  0  # atno 17320 bound_to 7965
  146.0721  140.7857  142.9683 LP  0  0  0  0  0  0  0  0  0  0  0  0  # atno 17321 bound_to 7965
  139.9949  143.5806  152.2897 LP  0  0  0  0  0  0  0  0  0  0  0  0  # atno 17342 bound_to 10162
  139.6475  144.7659  151.2214 LP  0  0  0  0  0  0  0  0  0  0  0  0  # atno 17343 bound_to 10162
  157.2004  130.6392  149.5736 LP  0  0  0  0  0  0  0  0  0  0  0  0  # atno 17370 bound_to 10713
  155.9745  130.4693  150.6389 LP  0  0  0  0  0  0  0  0  0  0  0  0  # atno 17371 bound_to 10713
  140.9538  133.7433  156.0308 LP  0  0  0  0  0  0  0  0  0  0  0  0  # atno 17394 bound_to 11000
  140.8073  134.3440  157.5422 LP  0  0  0  0  0  0  0  0  0  0  0  0  # atno 17395 bound_to 11000

$$$$
