AV-unprocessed.smi:2874|AV-procd|sdf|11038|dock5
  -GOLD-   2272015503D 1   1.00000     0.00000
 Structure written by MMmdl.
 39 41  0  0  0  0  0  0  0  0  1 V2000
  153.4307  137.7755  156.5995 C   0  0  0  0  0  0  0  0  0  0  0  0
  154.3524  138.0994  157.6249 O   0  0  0  0  0  0  0  0  0  0  0  0
  154.1212  137.3649  158.8163 C   0  0  0  0  0  0  0  0  0  0  0  0
  153.6290  138.3120  159.9196 C   0  0  0  0  0  0  0  0  0  0  0  0
  152.5588  139.1832  159.4556 N   0  0  0  0  0  0  0  0  0  0  0  0
  151.3475  138.8243  158.9622 C   0  0  0  0  0  0  0  0  0  0  0  0
  150.8768  137.1263  158.8166 S   0  0  0  0  0  0  0  0  0  0  0  0
  149.0681  137.3060  158.8544 C   0  0  0  0  0  0  0  0  0  0  0  0
  148.4928  136.4689  159.9794 C   0  0  0  0  0  0  0  0  0  0  0  0
  147.9830  137.1339  161.0219 N   0  0  0  0  0  0  0  0  0  0  0  0
  147.4685  136.3920  162.0261 C   0  0  0  0  0  0  0  0  0  0  0  0
  147.4699  134.9830  161.9840 C   0  0  0  0  0  0  0  0  0  0  0  0
  148.0374  134.3945  160.8358 C   0  0  0  0  0  0  0  0  0  0  0  0
  148.0935  133.0101  160.6983 N   0  0  0  0  0  0  0  0  0  0  0  0
  148.5477  135.1406  159.8330 N   0  0  0  0  0  0  0  0  0  0  0  0
  150.5496  139.8355  158.6130 N   0  0  0  0  0  0  0  0  0  0  0  0
  151.3125  140.9480  158.9067 C   0  0  0  0  0  0  0  0  0  0  0  0
  151.0236  142.3235  158.7625 C   0  0  0  0  0  0  0  0  0  0  0  0
  151.9741  143.2955  159.1384 C   0  0  0  0  0  0  0  0  0  0  0  0
  151.6058  144.9710  158.9561 Cl  0  0  0  0  0  0  0  0  0  0  0  0
  153.2236  142.9056  159.6632 C   0  0  0  0  0  0  0  0  0  0  0  0
  153.5310  141.5398  159.8146 C   0  0  0  0  0  0  0  0  0  0  0  0
  152.5787  140.5742  159.4369 C   0  0  0  0  0  0  0  0  0  0  0  0
  153.6428  138.3750  155.7143 H   0  0  0  0  0  0  0  0  0  0  0  0
  152.4058  137.9834  156.9092 H   0  0  0  0  0  0  0  0  0  0  0  0
  153.5066  136.7239  156.3205 H   0  0  0  0  0  0  0  0  0  0  0  0
  153.3747  136.5901  158.6363 H   0  0  0  0  0  0  0  0  0  0  0  0
  155.0388  136.8662  159.1326 H   0  0  0  0  0  0  0  0  0  0  0  0
  153.2653  137.7355  160.7706 H   0  0  0  0  0  0  0  0  0  0  0  0
  154.4519  138.9197  160.2962 H   0  0  0  0  0  0  0  0  0  0  0  0
  148.8021  138.3558  158.9862 H   0  0  0  0  0  0  0  0  0  0  0  0
  148.6454  136.9766  157.9043 H   0  0  0  0  0  0  0  0  0  0  0  0
  147.0555  136.9251  162.8693 H   0  0  0  0  0  0  0  0  0  0  0  0
  147.0596  134.3928  162.7899 H   0  0  0  0  0  0  0  0  0  0  0  0
  147.7322  132.3930  161.4109 H   0  0  0  0  0  0  0  0  0  0  0  0
  148.5089  132.5798  159.8846 H   0  0  0  0  0  0  0  0  0  0  0  0
  150.0685  142.6307  158.3631 H   0  0  0  0  0  0  0  0  0  0  0  0
  153.9468  143.6545  159.9509 H   0  0  0  0  0  0  0  0  0  0  0  0
  154.4859  141.2380  160.2187 H   0  0  0  0  0  0  0  0  0  0  0  0
  1  2  1  0  0  0  0
  1 24  1  0  0  0  0
  1 25  1  0  0  0  0
  1 26  1  0  0  0  0
  2  3  1  0  0  0  0
  3  4  1  0  0  0  0
  3 27  1  0  0  0  0
  3 28  1  0  0  0  0
  4  5  1  0  0  0  0
  4 29  1  0  0  0  0
  4 30  1  0  0  0  0
  5 23  1  0  0  0  0
  5  6  1  0  0  0  0
  6  7  1  0  0  0  0
  6 16  2  0  0  0  0
  7  8  1  0  0  0  0
  8  9  1  0  0  0  0
  8 31  1  0  0  0  0
  8 32  1  0  0  0  0
  9 15  1  0  0  0  0
  9 10  2  0  0  0  0
 10 11  1  0  0  0  0
 11 12  2  0  0  0  0
 11 33  1  0  0  0  0
 12 13  1  0  0  0  0
 12 34  1  0  0  0  0
 13 14  1  0  0  0  0
 13 15  2  0  0  0  0
 14 35  1  0  0  0  0
 14 36  1  0  0  0  0
 16 17  1  0  0  0  0
 17 23  2  0  0  0  0
 17 18  1  0  0  0  0
 18 19  2  0  0  0  0
 18 37  1  0  0  0  0
 19 20  1  0  0  0  0
 19 21  1  0  0  0  0
 21 22  2  0  0  0  0
 21 38  1  0  0  0  0
 22 23  1  0  0  0  0
 22 39  1  0  0  0  0
M  END
> <s_m_source_file>
AV-unprocessed.smi

> <i_m_source_file_index>
2874

> <i_lp_mmshare_version>
43012

> <i_f3d_flags>
0

> <s_epik_input>
W2NIXTFjKENsKVtjSF1bY0hdYyhjMTIpbihbQ0gyXVtDSDJdT1tDSDNdKWMobjIpU1tDSDJdYzNuW2NIXVtjSF1jKG4zKVtOSDJd

> <s_epik_cmdline>
J2VwaWtfcHl0aG9uJywgJy1waCcsICc3LjAnLCAnLXRuJywgJzgnLCAnLW1hJywgJzIwMCcsICctbWV0YWxfYmluZGluZycsICctaW1hZScsICc8aW5maWxlLm1hZT4nLCAnLW9tYWUnLCAnPG91dGZpbGUubWFlPic=

> <r_lp_tautomer_probability>
1

> <r_epik_Ionization_Penalty>
0.0126717

> <r_epik_Ionization_Penalty_Charging>
0

> <r_epik_Ionization_Penalty_Neutral>
0.0126717

> <r_epik_State_Penalty>
0.00687269

> <r_epik_Charging_Adjusted_Penalty>
0.00687269

> <i_epik_Tot_Q>
0

> <i_epik_Tot_abs_Q>
0

> <r_epik_Metal_State_Penalty>
0.00678378

> <b_epik_Metal_Only>
0

> <s_lp_Force_Field>
OPLS_2005

> <r_lp_Energy>
1.60018

> <b_lp_Chiralities_Consistent>
1

> <s_lp_Variant>
AV-unprocessed.smi:2874-1

> <Gold.Version>
5.8.1

> <Gold.Id.Protein>
6NUR|6NUR_protein|mol2

> <Gold.PLP.Fitness>
49.3946

> <Gold.PLP.PLP>
-43.2081

> <Gold.PLP.part.hbond>
-3.4993

> <Gold.PLP.part.metal>
0.0000

> <Gold.PLP.part.buried>
-5.1095

> <Gold.PLP.part.nonpolar>
-34.5391

> <Gold.PLP.part.repulsive>
0.0702

> <Gold.PLP.ligand.clash>
0.0000

> <Gold.PLP.ligand.torsion>
1.1914

> <Gold.PLP.Chemscore.Hbond>
2.8510

> <Gold.PLP.Chemscore.CHOScore>
0.0000

> <Gold.PLP.Chemscore.Metal>
0.0000

> <Gold.Chemscore.Hbonds>
donor molecule, donor type, donor heavy atom, donor atom, acceptor molecule, acceptor atom, score
      P1  H  6896  6908       L1    15  0.52
      P1  H  6931  6943       L1    10  0.98
      P1  H  6934  6947       L1    10  0.72
      P1  H  7997  8010       L1     2  0.71

> <Gold.PLP.Chemscore.Internal.Correction>
0.0163

> <Gold.Rescore>
     Score         DG    S(hbond)    S(metal)    S(lipo)     H(rot)  DE(clash)    DE(int)     intcor
     16.92     -18.06       1.90        0.00     106.88       2.44       0.00       1.14       ----

> <Gold.Chemscore.Fitness>
16.9234

> <Gold.Chemscore.DG>
-18.0645

> <Gold.Chemscore.ZeroCoef>
-5.4800

> <Gold.Chemscore.Hbond>
1.8961

> <Gold.Chemscore.Metal>
0.0000

> <Gold.Chemscore.Lipo>
106.8766

> <Gold.Chemscore.Internal_Hbond>
0.0000

> <Gold.Chemscore.DEClash>
0.0000

> <Gold.Chemscore.DEInternal>
1.1411

> <Gold.Chemscore.Rot>
2.4426

> <Gold.Chemscore.Internal.Correction>
   9.000000E+99

> <Gold.Chemscore.Hbonds>
donor molecule, donor type, donor heavy atom, donor atom, acceptor molecule, acceptor atom, score
      P1  H  6896  6908       L1    15  0.23
      P1  H  6931  6943       L1    10  0.31
      P1  H  6934  6947       L1    10  0.59
      P1  H  7997  8010       L1     2  0.15

> <Gold.Chemscore.Hbond.Weighted>
-6.3331

> <Gold.Chemscore.Metal.Weighted>
-0.0000

> <Gold.Chemscore.Lipo.Weighted>
-12.5046

> <Gold.Chemscore.Internal_Hbond.Weighted>
0.0000

> <Gold.Chemscore.DEClash.Weighted>
0.0000

> <Gold.Chemscore.DEInternal.Weighted>
1.1411

> <Gold.Chemscore.Rot.Weighted>
6.2531

> <Gold.Chemscore.Internal.Correction.Weighted>
   9.000000E+99

> <Gold.Protein.RotatedTorsions>
[ 6907 6896 6895 6894 ] final  163.97 input  -60.11 | X-H torsion
[ 7974 7965 7964 7962 ] final  151.74 input  175.53 | X-H torsion
[ 8008 7997 7996 7995 ] final   25.06 input   59.86 | X-H torsion
[ 10167 10162 10161 10158 ] final  -92.24 input  -65.29 | X-H torsion
[ 10718 10713 10712 10709 ] final  133.08 input   66.30 | X-H torsion
[ 10763 10752 10751 10750 ] final   62.39 input  -60.55 | X-H torsion
[ 11005 11000 10999 10996 ] final -133.66 input  -57.11 | X-H torsion

> <Gold.Protein.ActiveResidues>
 VAL166  LYS551  ARG553  GLY616  TRP617  ASP618  TYR619  PRO620  LYS621  CYS622 
 ASP623  PHE694  ASN695  SER759  ASP760  ASP761  ALA762  ILE779  LEU786  VAL792 
 PHE793  MET794  SER795  GLU796  ALA797  LYS798  CYS799  TRP800  GLU811  SER814 

> <Gold.Protein.RotatedAtoms>
  151.9170  133.3575  159.3883 H   0  0  0  0  0  0  0  0  0  0  0  0  # atno 6907 bound_to 6896
  150.7045  134.4674  159.5418 H   0  0  0  0  0  0  0  0  0  0  0  0  # atno 6908 bound_to 6896
  152.2291  134.8340  160.0527 H   0  0  0  0  0  0  0  0  0  0  0  0  # atno 6909 bound_to 6896
  144.8271  139.6577  143.6075 H   0  0  0  0  0  0  0  0  0  0  0  0  # atno 7974 bound_to 7965
  155.0059  140.3131  155.4849 H   0  0  0  0  0  0  0  0  0  0  0  0  # atno 8008 bound_to 7997
  156.2917  140.2223  156.5112 H   0  0  0  0  0  0  0  0  0  0  0  0  # atno 8009 bound_to 7997
  154.7577  140.0461  157.0935 H   0  0  0  0  0  0  0  0  0  0  0  0  # atno 8010 bound_to 7997
  140.3368  143.2964  151.9880 H   0  0  0  0  0  0  0  0  0  0  0  0  # atno 10167 bound_to 10162
  157.4808  131.1085  150.9684 H   0  0  0  0  0  0  0  0  0  0  0  0  # atno 10718 bound_to 10713
  152.9981  135.5466  154.6186 H   0  0  0  0  0  0  0  0  0  0  0  0  # atno 10763 bound_to 10752
  154.5491  135.2825  155.1028 H   0  0  0  0  0  0  0  0  0  0  0  0  # atno 10764 bound_to 10752
  154.2275  135.6439  153.5217 H   0  0  0  0  0  0  0  0  0  0  0  0  # atno 10765 bound_to 10752
  140.9061  134.1628  157.4425 H   0  0  0  0  0  0  0  0  0  0  0  0  # atno 11005 bound_to 11000
  146.2576  139.6336  142.9384 LP  0  0  0  0  0  0  0  0  0  0  0  0  # atno 17320 bound_to 7965
  145.4977  141.0438  143.2558 LP  0  0  0  0  0  0  0  0  0  0  0  0  # atno 17321 bound_to 7965
  139.4847  144.6190  151.7291 LP  0  0  0  0  0  0  0  0  0  0  0  0  # atno 17342 bound_to 10162
  140.5346  144.0676  150.6066 LP  0  0  0  0  0  0  0  0  0  0  0  0  # atno 17343 bound_to 10162
  157.0418  130.5752  149.5357 LP  0  0  0  0  0  0  0  0  0  0  0  0  # atno 17370 bound_to 10713
  156.0120  130.5213  150.8020 LP  0  0  0  0  0  0  0  0  0  0  0  0  # atno 17371 bound_to 10713
  139.8749  134.9917  156.5562 LP  0  0  0  0  0  0  0  0  0  0  0  0  # atno 17394 bound_to 11000
  140.8169  133.8384  155.8860 LP  0  0  0  0  0  0  0  0  0  0  0  0  # atno 17395 bound_to 11000

$$$$
