AV-unprocessed.smi:1115|AV-procd|sdf|4806|dock6
  -GOLD-   22720 3353D 1   1.00000     0.00000
 Structure written by MMmdl.
 51 52  0  0  0  0  0  0  0  0  4 V2000
  152.3684  143.5772  161.8632 C   0  0  0  0  0  0  0  0  0  0  0  0
  152.0651  144.0693  160.5260 N   0  0  0  0  0  0  0  0  0  0  0  0
  151.7382  145.4755  160.3180 C   0  0  0  0  0  0  0  0  0  0  0  0
  151.9303  143.1548  159.4590 C   0  0  0  0  0  0  0  0  0  0  0  0
  152.3987  141.8193  159.5189 C   0  0  0  0  0  0  0  0  0  0  0  0
  152.2253  140.9648  158.4109 C   0  0  0  0  0  0  0  0  0  0  0  0
  151.5956  141.4460  157.2450 C   0  0  0  0  0  0  0  0  0  0  0  0
  151.4223  140.5400  156.1638 N   0  0  0  0  0  0  0  0  0  0  0  0
  152.1065  139.4184  155.8751 C   0  0  0  0  0  0  0  0  0  0  0  0
  153.0057  139.0234  156.6255 O   0  0  0  0  0  0  0  0  0  0  0  0
  151.6662  138.8330  154.7297 N   0  5  0  0  0  0  0  0  0  0  0  0
  150.3083  138.9777  154.1929 C   0  0  0  0  0  0  0  0  0  0  0  0
  149.3119  137.9952  154.9039 C   0  0  0  0  0  0  0  0  0  0  0  0
  149.9939  136.6190  155.1440 C   0  0  0  0  0  0  0  0  0  0  0  0
  148.9903  138.5593  156.3234 C   0  0  0  0  0  0  0  0  0  0  0  0
  148.0699  137.8425  154.0477 N   0  3  0  0  0  0  0  0  0  0  0  0
  146.9598  137.0260  154.6279 C   0  0  0  0  0  0  0  0  0  0  0  0
  145.8885  136.7413  153.5660 C   0  0  0  0  0  0  0  0  0  0  0  0
  145.3725  137.9736  153.0841 O   0  0  0  0  0  0  0  0  0  0  0  0
  146.3807  138.7518  152.4554 C   0  0  0  0  0  0  0  0  0  0  0  0
  147.5009  139.0870  153.4563 C   0  0  0  0  0  0  0  0  0  0  0  0
  151.1339  142.7832  157.2375 C   0  0  0  0  0  0  0  0  0  0  0  0
  151.3203  143.5676  158.3210 N   0  3  0  0  0  0  0  0  0  0  0  0
  151.6218  142.8502  162.1834 H   0  0  0  0  0  0  0  0  0  0  0  0
  152.3774  144.3880  162.5919 H   0  0  0  0  0  0  0  0  0  0  0  0
  153.3493  143.1017  161.8825 H   0  0  0  0  0  0  0  0  0  0  0  0
  150.6879  145.5880  160.0482 H   0  0  0  0  0  0  0  0  0  0  0  0
  152.3497  145.8976  159.5202 H   0  0  0  0  0  0  0  0  0  0  0  0
  151.9182  146.0618  161.2193 H   0  0  0  0  0  0  0  0  0  0  0  0
  152.8901  141.4325  160.3989 H   0  0  0  0  0  0  0  0  0  0  0  0
  152.5804  139.9456  158.4576 H   0  0  0  0  0  0  0  0  0  0  0  0
  150.6415  140.7355  155.5548 H   0  0  0  0  0  0  0  0  0  0  0  0
  149.9471  139.9984  154.3231 H   0  0  0  0  0  0  0  0  0  0  0  0
  150.2807  138.8005  153.1171 H   0  0  0  0  0  0  0  0  0  0  0  0
  150.8371  136.6944  155.8338 H   0  0  0  0  0  0  0  0  0  0  0  0
  150.3770  136.1547  154.2331 H   0  0  0  0  0  0  0  0  0  0  0  0
  149.2925  135.9131  155.5901 H   0  0  0  0  0  0  0  0  0  0  0  0
  149.8889  138.7205  156.9235 H   0  0  0  0  0  0  0  0  0  0  0  0
  148.3816  137.8630  156.9014 H   0  0  0  0  0  0  0  0  0  0  0  0
  148.4525  139.5094  156.2945 H   0  0  0  0  0  0  0  0  0  0  0  0
  147.3240  136.0750  155.0161 H   0  0  0  0  0  0  0  0  0  0  0  0
  146.4996  137.5565  155.4624 H   0  0  0  0  0  0  0  0  0  0  0  0
  146.2966  136.1489  152.7452 H   0  0  0  0  0  0  0  0  0  0  0  0
  145.0721  136.1649  154.0016 H   0  0  0  0  0  0  0  0  0  0  0  0
  146.7812  138.2162  151.5932 H   0  0  0  0  0  0  0  0  0  0  0  0
  145.9311  139.6694  152.0759 H   0  0  0  0  0  0  0  0  0  0  0  0
  147.1223  139.7322  154.2502 H   0  0  0  0  0  0  0  0  0  0  0  0
  148.2516  139.6510  152.9054 H   0  0  0  0  0  0  0  0  0  0  0  0
  150.6121  143.2555  156.4190 H   0  0  0  0  0  0  0  0  0  0  0  0
  150.9767  144.5271  158.2799 H   0  0  0  0  0  0  0  0  0  0  0  0
  148.4079  137.3151  153.2539 H   0  0  0  0  0  0  0  0  0  0  0  0
  1  2  1  0  0  0  0
  1 24  1  0  0  0  0
  1 25  1  0  0  0  0
  1 26  1  0  0  0  0
  2  3  1  0  0  0  0
  2  4  1  0  0  0  0
  3 27  1  0  0  0  0
  3 28  1  0  0  0  0
  3 29  1  0  0  0  0
  4 23  1  0  0  0  0
  4  5  2  0  0  0  0
  5  6  1  0  0  0  0
  5 30  1  0  0  0  0
  6  7  2  0  0  0  0
  6 31  1  0  0  0  0
  7  8  1  0  0  0  0
  7 22  1  0  0  0  0
  8  9  1  0  0  0  0
  8 32  1  0  0  0  0
  9 10  2  0  0  0  0
  9 11  1  0  0  0  0
 11 12  1  0  0  0  0
 12 13  1  0  0  0  0
 12 33  1  0  0  0  0
 12 34  1  0  0  0  0
 13 14  1  0  0  0  0
 13 15  1  0  0  0  0
 13 16  1  0  0  0  0
 14 35  1  0  0  0  0
 14 36  1  0  0  0  0
 14 37  1  0  0  0  0
 15 38  1  0  0  0  0
 15 39  1  0  0  0  0
 15 40  1  0  0  0  0
 16 21  1  0  0  0  0
 16 17  1  0  0  0  0
 16 51  1  0  0  0  0
 17 18  1  0  0  0  0
 17 41  1  0  0  0  0
 17 42  1  0  0  0  0
 18 19  1  0  0  0  0
 18 43  1  0  0  0  0
 18 44  1  0  0  0  0
 19 20  1  0  0  0  0
 20 21  1  0  0  0  0
 20 45  1  0  0  0  0
 20 46  1  0  0  0  0
 21 47  1  0  0  0  0
 21 48  1  0  0  0  0
 22 23  2  0  0  0  0
 22 49  1  0  0  0  0
 23 50  1  0  0  0  0
M  CHG  1  11  -1
M  CHG  1  16   1
M  CHG  1  23   1
M  END
> <s_m_source_file>
AV-unprocessed.smi

> <i_m_source_file_index>
1115

> <i_lp_mmshare_version>
43012

> <i_f3d_flags>
0

> <s_epik_input>
W0NIM11OKFtDSDNdKWMxW2NIXVtjSF1jKFtjSF1uMSlbTkhdQyg9TylbTkhdW0NIMl1DKFtDSDNdKShbQ0gzXSlOMltDSDJdW0NIMl1PW0NIMl1bQ0gyXTI=

> <s_epik_cmdline>
J2VwaWtfcHl0aG9uJywgJy1waCcsICc3LjAnLCAnLXRuJywgJzgnLCAnLW1hJywgJzIwMCcsICctbWV0YWxfYmluZGluZycsICctaW1hZScsICc8aW5maWxlLm1hZT4nLCAnLW9tYWUnLCAnPG91dGZpbGUubWFlPic=

> <r_lp_tautomer_probability>
0.999994

> <r_epik_Ionization_Penalty>
7.4335

> <r_epik_Ionization_Penalty_Charging>
7.4335

> <r_epik_Ionization_Penalty_Neutral>
3.43851e-06

> <r_epik_State_Penalty>
7.6346

> <r_epik_Charging_Adjusted_Penalty>
15.0681

> <i_epik_Tot_Q>
1

> <i_epik_Tot_abs_Q>
3

> <r_epik_Metal_State_Penalty>
3.83601

> <b_epik_Metal_Only>
1

> <s_lp_Force_Field>
OPLS_2005

> <r_lp_Energy>
31.3993

> <b_lp_Chiralities_Consistent>
1

> <s_lp_Variant>
AV-unprocessed.smi:1115-5

> <Gold.Version>
5.8.1

> <Gold.Id.Protein>
6NUR|6NUR_protein|mol2

> <Gold.PLP.Fitness>
49.2130

> <Gold.PLP.PLP>
-41.8224

> <Gold.PLP.part.hbond>
-2.1634

> <Gold.PLP.part.metal>
0.0000

> <Gold.PLP.part.buried>
-6.2944

> <Gold.PLP.part.nonpolar>
-34.3813

> <Gold.PLP.part.repulsive>
0.4634

> <Gold.PLP.ligand.clash>
0.0000

> <Gold.PLP.ligand.torsion>
0.9218

> <Gold.PLP.Chemscore.Hbond>
3.0000

> <Gold.PLP.Chemscore.CHOScore>
0.0000

> <Gold.PLP.Chemscore.Metal>
0.0000

> <Gold.Chemscore.Hbonds>
donor molecule, donor type, donor heavy atom, donor atom, acceptor molecule, acceptor atom, score
      L1  H    16    51       P1  7948  2.00
      P1  H  7997  8009       L1    10  1.00

> <Gold.PLP.Chemscore.Internal.Correction>
0.2342

> <Gold.Rescore>
     Score         DG    S(hbond)    S(metal)    S(lipo)     H(rot)  DE(clash)    DE(int)     intcor
     16.51     -19.10       1.86        0.00      95.46       1.46       0.19       2.40       ----

> <Gold.Chemscore.Fitness>
16.5118

> <Gold.Chemscore.DG>
-19.0994

> <Gold.Chemscore.ZeroCoef>
-5.4800

> <Gold.Chemscore.Hbond>
1.8566

> <Gold.Chemscore.Metal>
0.0000

> <Gold.Chemscore.Lipo>
95.4554

> <Gold.Chemscore.Internal_Hbond>
0.0000

> <Gold.Chemscore.DEClash>
0.1869

> <Gold.Chemscore.DEInternal>
2.4006

> <Gold.Chemscore.Rot>
1.4648

> <Gold.Chemscore.Internal.Correction>
   9.000000E+99

> <Gold.Chemscore.Hbonds>
donor molecule, donor type, donor heavy atom, donor atom, acceptor molecule, acceptor atom, score
      L1  H    16    51       P1  7948  1.00
      P1  H  7997  8009       L1    10  0.38

> <Gold.Chemscore.Hbond.Weighted>
-6.2010

> <Gold.Chemscore.Metal.Weighted>
-0.0000

> <Gold.Chemscore.Lipo.Weighted>
-11.1683

> <Gold.Chemscore.Internal_Hbond.Weighted>
0.0000

> <Gold.Chemscore.DEClash.Weighted>
0.1869

> <Gold.Chemscore.DEInternal.Weighted>
2.4006

> <Gold.Chemscore.Rot.Weighted>
3.7499

> <Gold.Chemscore.Internal.Correction.Weighted>
   9.000000E+99

> <Gold.Protein.RotatedTorsions>
[ 6907 6896 6895 6894 ] final   49.18 input  -60.11 | X-H torsion
[ 7974 7965 7964 7962 ] final -150.27 input  175.53 | X-H torsion
[ 8008 7997 7996 7995 ] final -156.95 input   59.86 | X-H torsion
[ 10167 10162 10161 10158 ] final  -89.13 input  -65.29 | X-H torsion
[ 10718 10713 10712 10709 ] final   91.15 input   66.30 | X-H torsion
[ 10763 10752 10751 10750 ] final   86.67 input  -60.55 | X-H torsion
[ 11005 11000 10999 10996 ] final   74.14 input  -57.11 | X-H torsion

> <Gold.Protein.ActiveResidues>
 VAL166  LYS551  ARG553  GLY616  TRP617  ASP618  TYR619  PRO620  LYS621  CYS622 
 ASP623  PHE694  ASN695  SER759  ASP760  ASP761  ALA762  ILE779  LEU786  VAL792 
 PHE793  MET794  SER795  GLU796  ALA797  LYS798  CYS799  TRP800  GLU811  SER814 

> <Gold.Protein.RotatedAtoms>
  152.2879  134.7754  160.0383 H   0  0  0  0  0  0  0  0  0  0  0  0  # atno 6907 bound_to 6896
  151.8311  133.3403  159.3622 H   0  0  0  0  0  0  0  0  0  0  0  0  # atno 6908 bound_to 6896
  150.7217  134.5411  159.5792 H   0  0  0  0  0  0  0  0  0  0  0  0  # atno 6909 bound_to 6896
  144.7918  140.4954  143.5768 H   0  0  0  0  0  0  0  0  0  0  0  0  # atno 7974 bound_to 7965
  155.7250  140.0795  157.2314 H   0  0  0  0  0  0  0  0  0  0  0  0  # atno 8008 bound_to 7997
  154.4040  140.1606  156.2499 H   0  0  0  0  0  0  0  0  0  0  0  0  # atno 8009 bound_to 7997
  155.9161  140.3401  155.6139 H   0  0  0  0  0  0  0  0  0  0  0  0  # atno 8010 bound_to 7997
  140.3679  143.2809  151.9536 H   0  0  0  0  0  0  0  0  0  0  0  0  # atno 10167 bound_to 10162
  157.6960  131.0397  150.3685 H   0  0  0  0  0  0  0  0  0  0  0  0  # atno 10718 bound_to 10713
  153.1593  135.4572  154.9749 H   0  0  0  0  0  0  0  0  0  0  0  0  # atno 10763 bound_to 10752
  154.7885  135.3212  154.7833 H   0  0  0  0  0  0  0  0  0  0  0  0  # atno 10764 bound_to 10752
  153.8326  135.6937  153.4867 H   0  0  0  0  0  0  0  0  0  0  0  0  # atno 10765 bound_to 10752
  139.9406  134.7407  156.1111 H   0  0  0  0  0  0  0  0  0  0  0  0  # atno 11005 bound_to 11000
  145.5776  139.1487  143.3253 LP  0  0  0  0  0  0  0  0  0  0  0  0  # atno 17320 bound_to 7965
  146.2172  140.5907  142.9033 LP  0  0  0  0  0  0  0  0  0  0  0  0  # atno 17321 bound_to 7965
  139.4807  144.5934  151.7733 LP  0  0  0  0  0  0  0  0  0  0  0  0  # atno 17342 bound_to 10162
  140.5062  144.1094  150.5983 LP  0  0  0  0  0  0  0  0  0  0  0  0  # atno 17343 bound_to 10162
  156.4113  130.3934  149.6890 LP  0  0  0  0  0  0  0  0  0  0  0  0  # atno 17370 bound_to 10713
  156.4173  130.7751  151.2767 LP  0  0  0  0  0  0  0  0  0  0  0  0  # atno 17371 bound_to 10713
  141.1038  133.6667  156.2816 LP  0  0  0  0  0  0  0  0  0  0  0  0  # atno 17394 bound_to 11000
  140.5963  134.5600  157.5509 LP  0  0  0  0  0  0  0  0  0  0  0  0  # atno 17395 bound_to 11000

$$$$
