AV-unprocessed.smi:2726|AV-procd|sdf|10519|dock5
  -GOLD-   2272014563D 1   1.00000     0.00000
 Structure written by MMmdl.
 41 42  0  0  0  0  0  0  0  0  1 V2000
  147.4865  133.1925  155.3123 C   0  0  0  0  0  0  0  0  0  0  0  0
  148.5847  133.2337  154.2347 C   0  0  0  0  0  0  0  0  0  0  0  0
  149.7671  132.3533  154.6910 C   0  0  0  0  0  0  0  0  0  0  0  0
  148.0003  132.7115  152.9054 C   0  0  0  0  0  0  0  0  0  0  0  0
  149.0028  134.6350  154.1041 N   0  0  0  0  0  0  0  0  0  0  0  0
  149.4618  135.4621  155.0586 C   0  0  0  0  0  0  0  0  0  0  0  0
  149.6072  135.1413  156.2376 O   0  0  0  0  0  0  0  0  0  0  0  0
  149.7153  136.6814  154.5534 N   0  0  0  0  0  0  0  0  0  0  0  0
  150.2086  137.8301  155.2279 C   0  0  0  0  0  0  0  0  0  0  0  0
  150.5250  137.8678  156.6065 C   0  0  0  0  0  0  0  0  0  0  0  0
  151.0265  139.0627  157.1570 C   0  0  0  0  0  0  0  0  0  0  0  0
  151.2037  140.1800  156.3153 C   0  0  0  0  0  0  0  0  0  0  0  0
  151.6999  141.3702  156.8686 N   0  0  0  0  0  0  0  0  0  0  0  0
  150.7577  142.4763  156.9087 C   0  0  0  0  0  0  0  0  0  0  0  0
  151.3662  143.4954  157.8752 C   0  0  0  0  0  0  0  0  0  0  0  0
  152.3339  142.6838  158.7453 C   0  0  0  0  0  0  0  0  0  0  0  0
  152.2326  141.2508  158.2159 C   0  0  0  0  0  0  0  0  0  0  0  0
  150.9159  140.1458  154.9922 N   0  0  0  0  0  0  0  0  0  0  0  0
  150.4369  138.9970  154.4702 C   0  0  0  0  0  0  0  0  0  0  0  0
  147.1247  132.1760  155.4717 H   0  0  0  0  0  0  0  0  0  0  0  0
  146.6287  133.8045  155.0306 H   0  0  0  0  0  0  0  0  0  0  0  0
  147.8538  133.5629  156.2704 H   0  0  0  0  0  0  0  0  0  0  0  0
  150.2101  132.7298  155.6138 H   0  0  0  0  0  0  0  0  0  0  0  0
  150.5571  132.3058  153.9415 H   0  0  0  0  0  0  0  0  0  0  0  0
  149.4436  131.3287  154.8775 H   0  0  0  0  0  0  0  0  0  0  0  0
  147.6031  131.7027  153.0220 H   0  0  0  0  0  0  0  0  0  0  0  0
  148.7501  132.6682  152.1155 H   0  0  0  0  0  0  0  0  0  0  0  0
  147.1857  133.3452  152.5529 H   0  0  0  0  0  0  0  0  0  0  0  0
  148.9266  135.0210  153.1745 H   0  0  0  0  0  0  0  0  0  0  0  0
  149.4653  136.8217  153.5853 H   0  0  0  0  0  0  0  0  0  0  0  0
  150.4078  137.0068  157.2458 H   0  0  0  0  0  0  0  0  0  0  0  0
  151.2743  139.1161  158.2071 H   0  0  0  0  0  0  0  0  0  0  0  0
  150.6099  142.9028  155.9161 H   0  0  0  0  0  0  0  0  0  0  0  0
  149.7877  142.1422  157.2797 H   0  0  0  0  0  0  0  0  0  0  0  0
  151.9157  144.2588  157.3232 H   0  0  0  0  0  0  0  0  0  0  0  0
  150.5989  143.9981  158.4646 H   0  0  0  0  0  0  0  0  0  0  0  0
  153.3495  143.0623  158.6237 H   0  0  0  0  0  0  0  0  0  0  0  0
  152.0834  142.7374  159.8053 H   0  0  0  0  0  0  0  0  0  0  0  0
  151.5596  140.6667  158.8453 H   0  0  0  0  0  0  0  0  0  0  0  0
  153.2038  140.7552  158.2112 H   0  0  0  0  0  0  0  0  0  0  0  0
  150.2234  139.0133  153.4112 H   0  0  0  0  0  0  0  0  0  0  0  0
  1  2  1  0  0  0  0
  1 20  1  0  0  0  0
  1 21  1  0  0  0  0
  1 22  1  0  0  0  0
  2  3  1  0  0  0  0
  2  4  1  0  0  0  0
  2  5  1  0  0  0  0
  3 23  1  0  0  0  0
  3 24  1  0  0  0  0
  3 25  1  0  0  0  0
  4 26  1  0  0  0  0
  4 27  1  0  0  0  0
  4 28  1  0  0  0  0
  5  6  1  0  0  0  0
  5 29  1  0  0  0  0
  6  7  2  0  0  0  0
  6  8  1  0  0  0  0
  8  9  1  0  0  0  0
  8 30  1  0  0  0  0
  9 19  1  0  0  0  0
  9 10  2  0  0  0  0
 10 11  1  0  0  0  0
 10 31  1  0  0  0  0
 11 12  2  0  0  0  0
 11 32  1  0  0  0  0
 12 13  1  0  0  0  0
 12 18  1  0  0  0  0
 13 17  1  0  0  0  0
 13 14  1  0  0  0  0
 14 15  1  0  0  0  0
 14 33  1  0  0  0  0
 14 34  1  0  0  0  0
 15 16  1  0  0  0  0
 15 35  1  0  0  0  0
 15 36  1  0  0  0  0
 16 17  1  0  0  0  0
 16 37  1  0  0  0  0
 16 38  1  0  0  0  0
 17 39  1  0  0  0  0
 17 40  1  0  0  0  0
 18 19  2  0  0  0  0
 19 41  1  0  0  0  0
M  END
> <s_m_source_file>
AV-unprocessed.smi

> <i_m_source_file_index>
2726

> <i_lp_mmshare_version>
43012

> <i_f3d_flags>
0

> <s_epik_input>
W0NIM11DKFtDSDNdKShbQ0gzXSlbTkhdQyg9TylbTkhdYzFbY0hdW2NIXWMobltjSF0xKU4yW0NIMl1bQ0gyXVtDSDJdW0NIMl0y

> <s_epik_cmdline>
J2VwaWtfcHl0aG9uJywgJy1waCcsICc3LjAnLCAnLXRuJywgJzgnLCAnLW1hJywgJzIwMCcsICctbWV0YWxfYmluZGluZycsICctaW1hZScsICc8aW5maWxlLm1hZT4nLCAnLW9tYWUnLCAnPG91dGZpbGUubWFlPic=

> <r_lp_tautomer_probability>
1

> <r_epik_Ionization_Penalty>
0.105331

> <r_epik_Ionization_Penalty_Charging>
0

> <r_epik_Ionization_Penalty_Neutral>
0.105331

> <r_epik_State_Penalty>
0.0946433

> <r_epik_Charging_Adjusted_Penalty>
0.0946433

> <i_epik_Tot_Q>
0

> <i_epik_Tot_abs_Q>
0

> <r_epik_Metal_State_Penalty>
0.0802816

> <b_epik_Metal_Only>
0

> <s_lp_Force_Field>
OPLS_2005

> <r_lp_Energy>
34.5725

> <b_lp_Chiralities_Consistent>
1

> <s_lp_Variant>
AV-unprocessed.smi:2726-1

> <Gold.Version>
5.8.1

> <Gold.Id.Protein>
6NUR|6NUR_protein|mol2

> <Gold.PLP.Fitness>
39.2572

> <Gold.PLP.PLP>
-29.0274

> <Gold.PLP.part.hbond>
-3.0000

> <Gold.PLP.part.metal>
0.0000

> <Gold.PLP.part.buried>
-1.7488

> <Gold.PLP.part.nonpolar>
-24.4070

> <Gold.PLP.part.repulsive>
0.1310

> <Gold.PLP.ligand.clash>
1.3171

> <Gold.PLP.ligand.torsion>
0.2078

> <Gold.PLP.Chemscore.Hbond>
3.0000

> <Gold.PLP.Chemscore.CHOScore>
0.9805

> <Gold.PLP.Chemscore.Metal>
0.0000

> <Gold.Chemscore.Hbonds>
donor molecule, donor type, donor heavy atom, donor atom, acceptor molecule, acceptor atom, score
      L1  H     5    29       P1  7948  1.00
      L1  H     8    30       P1  7948  1.00
      P1  H  7989  7998       L1    18  1.00
      L1  C    19    41       P1  7957  0.98

> <Gold.PLP.Chemscore.Internal.Correction>
0.0209

> <Gold.Rescore>
     Score         DG    S(hbond)    S(metal)    S(lipo)     H(rot)  DE(clash)    DE(int)     intcor
     16.65     -19.11       2.48        0.00      71.33       1.17       0.02       2.44       ----

> <Gold.Chemscore.Fitness>
16.6477

> <Gold.Chemscore.DG>
-19.1078

> <Gold.Chemscore.ZeroCoef>
-5.4800

> <Gold.Chemscore.Hbond>
2.4789

> <Gold.Chemscore.Metal>
0.0000

> <Gold.Chemscore.Lipo>
71.3324

> <Gold.Chemscore.Internal_Hbond>
0.0000

> <Gold.Chemscore.DEClash>
0.0221

> <Gold.Chemscore.DEInternal>
2.4380

> <Gold.Chemscore.Rot>
1.1710

> <Gold.Chemscore.Internal.Correction>
   9.000000E+99

> <Gold.Chemscore.Hbonds>
donor molecule, donor type, donor heavy atom, donor atom, acceptor molecule, acceptor atom, score
      L1  H     5    29       P1  7948  0.25
      L1  H     8    30       P1  7948  0.86
      P1  H  7989  7998       L1    18  0.26

> <Gold.Chemscore.Hbond.Weighted>
-8.2797

> <Gold.Chemscore.Metal.Weighted>
-0.0000

> <Gold.Chemscore.Lipo.Weighted>
-8.3459

> <Gold.Chemscore.Internal_Hbond.Weighted>
0.0000

> <Gold.Chemscore.DEClash.Weighted>
0.0221

> <Gold.Chemscore.DEInternal.Weighted>
2.4380

> <Gold.Chemscore.Rot.Weighted>
2.9978

> <Gold.Chemscore.Internal.Correction.Weighted>
   9.000000E+99

> <Gold.Protein.RotatedTorsions>
[ 6907 6896 6895 6894 ] final   30.38 input  -60.11 | X-H torsion
[ 7974 7965 7964 7962 ] final   64.75 input  175.53 | X-H torsion
[ 8008 7997 7996 7995 ] final   58.80 input   59.86 | X-H torsion
[ 10167 10162 10161 10158 ] final   61.35 input  -65.29 | X-H torsion
[ 10718 10713 10712 10709 ] final   71.62 input   66.30 | X-H torsion
[ 10763 10752 10751 10750 ] final   83.74 input  -60.55 | X-H torsion
[ 11005 11000 10999 10996 ] final  -92.46 input  -57.11 | X-H torsion

> <Gold.Protein.ActiveResidues>
 VAL166  LYS551  ARG553  GLY616  TRP617  ASP618  TYR619  PRO620  LYS621  CYS622 
 ASP623  PHE694  ASN695  SER759  ASP760  ASP761  ALA762  ILE779  LEU786  VAL792 
 PHE793  MET794  SER795  GLU796  ALA797  LYS798  CYS799  TRP800  GLU811  SER814 

> <Gold.Protein.RotatedAtoms>
  152.0451  134.9687  160.0574 H   0  0  0  0  0  0  0  0  0  0  0  0  # atno 6907 bound_to 6896
  152.1111  133.4296  159.4639 H   0  0  0  0  0  0  0  0  0  0  0  0  # atno 6908 bound_to 6896
  150.6843  134.2566  159.4576 H   0  0  0  0  0  0  0  0  0  0  0  0  # atno 6909 bound_to 6896
  145.8465  139.3227  143.0900 H   0  0  0  0  0  0  0  0  0  0  0  0  # atno 7974 bound_to 7965
  155.5559  140.3487  155.4479 H   0  0  0  0  0  0  0  0  0  0  0  0  # atno 8008 bound_to 7997
  156.0549  140.1326  157.0033 H   0  0  0  0  0  0  0  0  0  0  0  0  # atno 8009 bound_to 7997
  154.4452  140.0997  156.6416 H   0  0  0  0  0  0  0  0  0  0  0  0  # atno 8010 bound_to 7997
  140.1557  144.4420  150.6736 H   0  0  0  0  0  0  0  0  0  0  0  0  # atno 10167 bound_to 10162
  157.6461  130.9538  150.0815 H   0  0  0  0  0  0  0  0  0  0  0  0  # atno 10718 bound_to 10713
  153.1318  135.4680  154.9361 H   0  0  0  0  0  0  0  0  0  0  0  0  # atno 10763 bound_to 10752
  154.7671  135.3148  154.8267 H   0  0  0  0  0  0  0  0  0  0  0  0  # atno 10764 bound_to 10752
  153.8807  135.6894  153.4821 H   0  0  0  0  0  0  0  0  0  0  0  0  # atno 10765 bound_to 10752
  141.1521  133.7823  157.0024 H   0  0  0  0  0  0  0  0  0  0  0  0  # atno 11005 bound_to 11000
  145.9406  140.8982  143.0309 LP  0  0  0  0  0  0  0  0  0  0  0  0  # atno 17320 bound_to 7965
  144.6731  140.1543  143.7427 LP  0  0  0  0  0  0  0  0  0  0  0  0  # atno 17321 bound_to 7965
  140.6675  143.2273  151.5707 LP  0  0  0  0  0  0  0  0  0  0  0  0  # atno 17342 bound_to 10162
  139.5405  144.2662  152.1340 LP  0  0  0  0  0  0  0  0  0  0  0  0  # atno 17343 bound_to 10162
  156.1790  130.3649  149.9061 LP  0  0  0  0  0  0  0  0  0  0  0  0  # atno 17370 bound_to 10713
  156.7018  130.8936  151.3600 LP  0  0  0  0  0  0  0  0  0  0  0  0  # atno 17371 bound_to 10713
  140.0931  134.9580  157.1808 LP  0  0  0  0  0  0  0  0  0  0  0  0  # atno 17394 bound_to 11000
  140.3418  134.2695  155.7211 LP  0  0  0  0  0  0  0  0  0  0  0  0  # atno 17395 bound_to 11000

$$$$
