AV-unprocessed.smi:2688|AV-procd|sdf|10386|dock4
  -GOLD-   2272014413D 1   1.00000     0.00000
 Structure written by MMmdl.
 51 54  0  0  0  0  0  0  0  0  1 V2000
  152.5165  143.9495  161.5147 C   0  0  0  0  0  0  0  0  0  0  0  0
  152.1252  143.6022  160.1091 C   0  0  0  0  0  0  0  0  0  0  0  0
  152.0144  144.5923  159.0550 C   0  0  0  0  0  0  0  0  0  0  0  0
  151.6615  144.1991  157.8123 C   0  0  0  0  0  0  0  0  0  0  0  0
  151.3885  142.7982  157.4986 C   0  0  0  0  0  0  0  0  0  0  0  0
  151.0700  142.4072  156.3757 O   0  0  0  0  0  0  0  0  0  0  0  0
  151.5229  141.9589  158.5686 N   0  0  0  0  0  0  0  0  0  0  0  0
  151.3063  140.5115  158.4308 C   0  0  0  0  0  0  0  0  0  0  0  0
  152.5899  139.6926  158.6280 C   0  0  0  0  0  0  0  0  0  0  0  0
  153.3965  139.5595  157.7063 O   0  0  0  0  0  0  0  0  0  0  0  0
  152.7734  139.1597  159.8459 N   0  0  0  0  0  0  0  0  0  0  0  0
  153.9119  138.3326  160.2287 C   0  0  0  0  0  0  0  0  0  0  0  0
  153.6289  137.5708  161.5406 C   0  0  0  0  0  0  0  0  0  0  0  0
  154.6561  137.7651  162.6844 C   0  0  0  0  0  0  0  0  0  0  0  0
  155.9327  136.9102  162.4550 C   0  0  0  0  0  0  0  0  0  0  0  0
  156.9119  137.0759  163.6372 C   0  0  1  0  0  0  0  0  0  0  0  0
  157.3166  138.5597  163.7676 C   0  0  0  0  0  0  0  0  0  0  0  0
  156.0554  139.4117  164.0250 C   0  0  2  0  0  0  0  0  0  0  0  0
  155.3776  138.9487  165.3308 C   0  0  0  0  0  0  0  0  0  0  0  0
  154.9785  137.4652  165.1945 C   0  0  2  0  0  0  0  0  0  0  0  0
  156.2352  136.6076  164.9414 C   0  0  0  0  0  0  0  0  0  0  0  0
  153.9993  137.3030  164.0135 C   0  0  0  0  0  0  0  0  0  0  0  0
  155.0729  139.2526  162.8434 C   0  0  0  0  0  0  0  0  0  0  0  0
  151.8808  142.3606  159.8452 N   0  0  0  0  0  0  0  0  0  0  0  0
  152.7099  145.0176  161.6176 H   0  0  0  0  0  0  0  0  0  0  0  0
  153.4217  143.4170  161.8085 H   0  0  0  0  0  0  0  0  0  0  0  0
  151.7244  143.6841  162.2153 H   0  0  0  0  0  0  0  0  0  0  0  0
  152.2142  145.6317  159.2707 H   0  0  0  0  0  0  0  0  0  0  0  0
  151.5799  144.9373  157.0278 H   0  0  0  0  0  0  0  0  0  0  0  0
  150.5709  140.1674  159.1604 H   0  0  0  0  0  0  0  0  0  0  0  0
  150.8732  140.2921  157.4529 H   0  0  0  0  0  0  0  0  0  0  0  0
  152.0673  139.3218  160.5491 H   0  0  0  0  0  0  0  0  0  0  0  0
  154.1513  137.6504  159.4129 H   0  0  0  0  0  0  0  0  0  0  0  0
  154.7719  138.9908  160.3476 H   0  0  0  0  0  0  0  0  0  0  0  0
  152.6399  137.8618  161.8976 H   0  0  0  0  0  0  0  0  0  0  0  0
  153.5576  136.5043  161.3210 H   0  0  0  0  0  0  0  0  0  0  0  0
  155.6684  135.8587  162.3342 H   0  0  0  0  0  0  0  0  0  0  0  0
  156.4383  137.2054  161.5359 H   0  0  0  0  0  0  0  0  0  0  0  0
  157.8021  136.4728  163.4558 H   0  0  0  0  0  0  0  0  0  0  0  0
  158.0310  138.6858  164.5821 H   0  0  0  0  0  0  0  0  0  0  0  0
  157.8215  138.8950  162.8608 H   0  0  0  0  0  0  0  0  0  0  0  0
  156.3409  140.4599  164.1195 H   0  0  0  0  0  0  0  0  0  0  0  0
  156.0529  139.0826  166.1769 H   0  0  0  0  0  0  0  0  0  0  0  0
  154.4982  139.5599  165.5383 H   0  0  0  0  0  0  0  0  0  0  0  0
  154.4945  137.1348  166.1141 H   0  0  0  0  0  0  0  0  0  0  0  0
  155.9660  135.5530  164.8706 H   0  0  0  0  0  0  0  0  0  0  0  0
  156.9279  136.6941  165.7793 H   0  0  0  0  0  0  0  0  0  0  0  0
  153.0930  137.8786  164.2076 H   0  0  0  0  0  0  0  0  0  0  0  0
  153.6854  136.2609  163.9376 H   0  0  0  0  0  0  0  0  0  0  0  0
  155.5492  139.6195  161.9341 H   0  0  0  0  0  0  0  0  0  0  0  0
  154.1936  139.8779  163.0033 H   0  0  0  0  0  0  0  0  0  0  0  0
  1  2  1  0  0  0  0
  1 25  1  0  0  0  0
  1 26  1  0  0  0  0
  1 27  1  0  0  0  0
  2 24  2  0  0  0  0
  2  3  1  0  0  0  0
  3  4  2  0  0  0  0
  3 28  1  0  0  0  0
  4  5  1  0  0  0  0
  4 29  1  0  0  0  0
  5  6  2  0  0  0  0
  5  7  1  0  0  0  0
  7  8  1  0  0  0  0
  7 24  1  0  0  0  0
  8  9  1  0  0  0  0
  8 30  1  0  0  0  0
  8 31  1  0  0  0  0
  9 10  2  0  0  0  0
  9 11  1  0  0  0  0
 11 12  1  0  0  0  0
 11 32  1  0  0  0  0
 12 13  1  0  0  0  0
 12 33  1  0  0  0  0
 12 34  1  0  0  0  0
 13 14  1  0  0  0  0
 13 35  1  0  0  0  0
 13 36  1  0  0  0  0
 14 22  1  0  0  0  0
 14 23  1  0  0  0  0
 14 15  1  0  0  0  0
 15 16  1  0  0  0  0
 15 37  1  0  0  0  0
 15 38  1  0  0  0  0
 16 21  1  0  0  0  0
 16 17  1  0  0  0  0
 16 39  1  0  0  0  0
 17 18  1  0  0  0  0
 17 40  1  0  0  0  0
 17 41  1  0  0  0  0
 18 19  1  0  0  0  0
 18 23  1  0  0  0  0
 18 42  1  0  0  0  0
 19 20  1  0  0  0  0
 19 43  1  0  0  0  0
 19 44  1  0  0  0  0
 20 21  1  0  0  0  0
 20 22  1  0  0  0  0
 20 45  1  0  0  0  0
 21 46  1  0  0  0  0
 21 47  1  0  0  0  0
 22 48  1  0  0  0  0
 22 49  1  0  0  0  0
 23 50  1  0  0  0  0
 23 51  1  0  0  0  0
M  END
> <s_m_source_file>
AV-unprocessed.smi

> <i_m_source_file_index>
2688

> <i_lp_mmshare_version>
43012

> <i_f3d_flags>
0

> <s_epik_input>
W0NIM11jMVtjSF1bY0hdYyg9TyluKG4xKVtDSDJdQyg9TylbTkhdW0NIMl1bQ0gyXUMyM1tDSDJdW0NASF00W0NIMl1bQ0BASF0oW0NIMl0zKVtDSDJdW0NASF0oW0NIMl00KVtDSDJdMg==

> <s_epik_cmdline>
J2VwaWtfcHl0aG9uJywgJy1waCcsICc3LjAnLCAnLXRuJywgJzgnLCAnLW1hJywgJzIwMCcsICctbWV0YWxfYmluZGluZycsICctaW1hZScsICc8aW5maWxlLm1hZT4nLCAnLW9tYWUnLCAnPG91dGZpbGUubWFlPic=

> <r_lp_tautomer_probability>
1

> <r_epik_Ionization_Penalty>
8.74812e-07

> <r_epik_Ionization_Penalty_Charging>
8.53005e-07

> <r_epik_Ionization_Penalty_Neutral>
2.18061e-08

> <r_epik_State_Penalty>
-0

> <r_epik_Charging_Adjusted_Penalty>
8.53005e-07

> <i_epik_Tot_Q>
0

> <i_epik_Tot_abs_Q>
0

> <r_epik_Metal_State_Penalty>
-0

> <b_epik_Metal_Only>
0

> <s_lp_Force_Field>
OPLS_2005

> <r_lp_Energy>
47.4944

> <b_lp_Chiralities_Consistent>
1

> <s_lp_Variant>
AV-unprocessed.smi:2688-1

> <Gold.Version>
5.8.1

> <Gold.Id.Protein>
6NUR|6NUR_protein|mol2

> <Gold.PLP.Fitness>
46.2018

> <Gold.PLP.PLP>
-45.3744

> <Gold.PLP.part.hbond>
-1.2036

> <Gold.PLP.part.metal>
0.0000

> <Gold.PLP.part.buried>
-4.0736

> <Gold.PLP.part.nonpolar>
-40.0523

> <Gold.PLP.part.repulsive>
0.4103

> <Gold.PLP.ligand.clash>
0.0000

> <Gold.PLP.ligand.torsion>
1.0399

> <Gold.PLP.Chemscore.Hbond>
0.9600

> <Gold.PLP.Chemscore.CHOScore>
0.0000

> <Gold.PLP.Chemscore.Metal>
0.0000

> <Gold.Chemscore.Hbonds>
donor molecule, donor type, donor heavy atom, donor atom, acceptor molecule, acceptor atom, score
      P1  H  7997  8010       L1    10  0.91

> <Gold.PLP.Chemscore.Internal.Correction>
0.0272

> <Gold.Rescore>
     Score         DG    S(hbond)    S(metal)    S(lipo)     H(rot)  DE(clash)    DE(int)     intcor
     16.73     -17.60       1.00        0.00     113.06       1.73       0.09       0.78       ----

> <Gold.Chemscore.Fitness>
16.7304

> <Gold.Chemscore.DG>
-17.6022

> <Gold.Chemscore.ZeroCoef>
-5.4800

> <Gold.Chemscore.Hbond>
0.9972

> <Gold.Chemscore.Metal>
0.0000

> <Gold.Chemscore.Lipo>
113.0616

> <Gold.Chemscore.Internal_Hbond>
0.0000

> <Gold.Chemscore.DEClash>
0.0885

> <Gold.Chemscore.DEInternal>
0.7833

> <Gold.Chemscore.Rot>
1.7331

> <Gold.Chemscore.Internal.Correction>
   9.000000E+99

> <Gold.Chemscore.Hbonds>
donor molecule, donor type, donor heavy atom, donor atom, acceptor molecule, acceptor atom, score
      P1  H  7997  8010       L1    10  0.87

> <Gold.Chemscore.Hbond.Weighted>
-3.3307

> <Gold.Chemscore.Metal.Weighted>
-0.0000

> <Gold.Chemscore.Lipo.Weighted>
-13.2282

> <Gold.Chemscore.Internal_Hbond.Weighted>
0.0000

> <Gold.Chemscore.DEClash.Weighted>
0.0885

> <Gold.Chemscore.DEInternal.Weighted>
0.7833

> <Gold.Chemscore.Rot.Weighted>
4.4367

> <Gold.Chemscore.Internal.Correction.Weighted>
   9.000000E+99

> <Gold.Protein.RotatedTorsions>
[ 6907 6896 6895 6894 ] final -109.05 input  -60.11 | X-H torsion
[ 7974 7965 7964 7962 ] final   93.44 input  175.53 | X-H torsion
[ 8008 7997 7996 7995 ] final   25.53 input   59.86 | X-H torsion
[ 10167 10162 10161 10158 ] final  -32.89 input  -65.29 | X-H torsion
[ 10718 10713 10712 10709 ] final  -55.40 input   66.30 | X-H torsion
[ 10763 10752 10751 10750 ] final  -97.99 input  -60.55 | X-H torsion
[ 11005 11000 10999 10996 ] final  -32.45 input  -57.11 | X-H torsion

> <Gold.Protein.ActiveResidues>
 VAL166  LYS551  ARG553  GLY616  TRP617  ASP618  TYR619  PRO620  LYS621  CYS622 
 ASP623  PHE694  ASN695  SER759  ASP760  ASP761  ALA762  ILE779  LEU786  VAL792 
 PHE793  MET794  SER795  GLU796  ALA797  LYS798  CYS799  TRP800  GLU811  SER814 

> <Gold.Protein.RotatedAtoms>
  150.7538  133.9587  159.3508 H   0  0  0  0  0  0  0  0  0  0  0  0  # atno 6907 bound_to 6896
  151.7511  135.0830  160.0340 H   0  0  0  0  0  0  0  0  0  0  0  0  # atno 6908 bound_to 6896
  152.3465  133.6092  159.5950 H   0  0  0  0  0  0  0  0  0  0  0  0  # atno 6909 bound_to 6896
  145.4788  139.2279  143.2894 H   0  0  0  0  0  0  0  0  0  0  0  0  # atno 7974 bound_to 7965
  155.0132  140.3139  155.4821 H   0  0  0  0  0  0  0  0  0  0  0  0  # atno 8008 bound_to 7997
  156.2905  140.2211  156.5189 H   0  0  0  0  0  0  0  0  0  0  0  0  # atno 8009 bound_to 7997
  154.7516  140.0466  157.0886 H   0  0  0  0  0  0  0  0  0  0  0  0  # atno 8010 bound_to 7997
  140.7214  143.3661  151.1869 H   0  0  0  0  0  0  0  0  0  0  0  0  # atno 10167 bound_to 10162
  156.1372  130.4156  150.0166 H   0  0  0  0  0  0  0  0  0  0  0  0  # atno 10718 bound_to 10713
  154.7376  135.5026  153.9068 H   0  0  0  0  0  0  0  0  0  0  0  0  # atno 10763 bound_to 10752
  153.1011  135.6685  153.9680 H   0  0  0  0  0  0  0  0  0  0  0  0  # atno 10764 bound_to 10752
  153.9466  135.3062  155.3419 H   0  0  0  0  0  0  0  0  0  0  0  0  # atno 10765 bound_to 10752
  140.9553  133.7196  156.1284 H   0  0  0  0  0  0  0  0  0  0  0  0  # atno 11005 bound_to 11000
  146.2353  140.5573  142.8957 LP  0  0  0  0  0  0  0  0  0  0  0  0  # atno 17320 bound_to 7965
  144.7901  140.6015  143.6547 LP  0  0  0  0  0  0  0  0  0  0  0  0  # atno 17321 bound_to 7965
  139.7222  143.9204  152.2990 LP  0  0  0  0  0  0  0  0  0  0  0  0  # atno 17342 bound_to 10162
  139.8965  144.6936  150.8712 LP  0  0  0  0  0  0  0  0  0  0  0  0  # atno 17343 bound_to 10162
  156.8061  130.9308  151.3645 LP  0  0  0  0  0  0  0  0  0  0  0  0  # atno 17370 bound_to 10713
  157.6543  130.8911  149.9696 LP  0  0  0  0  0  0  0  0  0  0  0  0  # atno 17371 bound_to 10713
  140.7544  134.4009  157.5536 LP  0  0  0  0  0  0  0  0  0  0  0  0  # atno 17394 bound_to 11000
  139.8860  134.8921  156.2609 LP  0  0  0  0  0  0  0  0  0  0  0  0  # atno 17395 bound_to 11000

$$$$
