#       Name:                AV-unprocessed.smi:802
#       Creating user name   scv26
#       Creation time:       Fri Mar 27 01:22:52 2020


#       File generated by GOLD software.
#

@<TRIPOS>MOLECULE
AV-unprocessed.smi:802
    42    43     1
SMALL
NO_CHARGES


@<TRIPOS>ATOM
      1 ****        -3.8306   5.3614  -0.2944 C.3            1 S1                 0.0000
      2 ****        -3.2881   4.0963  -0.8907 C.2            1 S1                 0.0000
      3 ****        -2.7095   2.9814  -0.2246 C.2            1 S1                 0.0000
      4 ****        -2.3855   2.1306  -1.2430 C.2            1 S1                 0.0000
      5 ****        -1.7409   0.7869  -1.2796 C.3            1 S1                 0.0000
      6 ****         0.0678   0.9883  -1.5557 S.o2           1 S1                 0.0000
      7 ****         0.2909   1.5484  -2.8971 O.2            1 S1                 0.0000
      8 ****         0.6452   1.6524  -0.3769 O.2            1 S1                 0.0000
      9 ****         0.6247  -0.6454  -1.5784 N.3            1 S1                 0.0000
     10 ****         2.0319  -0.9247  -1.2770 C.3            1 S1                 0.0000
     11 ****         2.1955  -1.7105   0.0407 C.3            1 S1                 0.0000
     12 ****         1.5412  -3.1073  -0.0144 C.3            1 S1                 0.0000
     13 ****         1.7833  -3.8939   1.2845 C.3            1 S1                 0.0000
     14 ****         1.2988  -3.1067   2.5122 C.3            1 S1                 0.0000
     15 ****         1.9553  -1.7186   2.5764 C.3            1 S1                 0.0000
     16 ****         1.7142  -0.9272   1.2805 C.3            1 S1                 0.0000
     17 ****        -2.7399   2.6717  -2.4370 O.3            1 S1                 0.0000
     18 ****        -3.3138   3.9258  -2.2022 N.2            1 S1                 0.0000
     19 ****        -3.9629   5.2627   0.7831 H              1 S1                 0.0000
     20 ****        -4.7991   5.6185  -0.7245 H              1 S1                 0.0000
     21 ****        -3.1538   6.1978  -0.4706 H              1 S1                 0.0000
     22 ****        -2.5503   2.8325   0.8331 H              1 S1                 0.0000
     23 ****        -1.8926   0.2564  -0.3396 H              1 S1                 0.0000
     24 ****        -2.1532   0.1790  -2.0849 H              1 S1                 0.0000
     25 ****         0.3279  -1.1253  -2.4278 H              1 S1                 0.0000
     26 ****         2.4543  -1.4949  -2.1047 H              1 S1                 0.0000
     27 ****         2.5928   0.0097  -1.2336 H              1 S1                 0.0000
     28 ****         3.2678  -1.8693   0.1653 H              1 S1                 0.0000
     29 ****         0.4673  -3.0115  -0.1797 H              1 S1                 0.0000
     30 ****         1.9348  -3.6714  -0.8607 H              1 S1                 0.0000
     31 ****         1.2745  -4.8569   1.2358 H              1 S1                 0.0000
     32 ****         2.8473  -4.1111   1.3869 H              1 S1                 0.0000
     33 ****         0.2144  -2.9965   2.4715 H              1 S1                 0.0000
     34 ****         1.5192  -3.6649   3.4225 H              1 S1                 0.0000
     35 ****         1.5644  -1.1625   3.4290 H              1 S1                 0.0000
     36 ****         3.0273  -1.8282   2.7445 H              1 S1                 0.0000
     37 ****         2.2274   0.0331   1.3384 H              1 S1                 0.0000
     38 ****         0.6502  -0.7051   1.1919 H              1 S1                 0.0000
     39 ****         0.1695  -1.0205  -0.7709 LP             1 S1                 0.0000
     40 ****        -3.4022   2.0776  -2.8934 LP             1 S1                 0.0000
     41 ****        -1.9301   2.7739  -3.0148 LP             1 S1                 0.0000
     42 ****        -3.6703   4.5627  -2.8857 LP             1 S1                 0.0000
@<TRIPOS>BOND
    1    1    2 1     
    2    1   19 1     
    3    1   20 1     
    4    1   21 1     
    5    2   18 2     
    6    2    3 1     
    7    3    4 2     
    8    3   22 1     
    9    4    5 1     
   10    4   17 1     
   11    5    6 1     
   12    5   23 1     
   13    5   24 1     
   14    6    7 2     
   15    6    8 2     
   16    6    9 1     
   17    9   10 1     
   18    9   25 1     
   19   10   11 1     
   20   10   26 1     
   21   10   27 1     
   22   11   16 1     
   23   11   12 1     
   24   11   28 1     
   25   12   13 1     
   26   12   29 1     
   27   12   30 1     
   28   13   14 1     
   29   13   31 1     
   30   13   32 1     
   31   14   15 1     
   32   14   33 1     
   33   14   34 1     
   34   15   16 1     
   35   15   35 1     
   36   15   36 1     
   37   16   37 1     
   38   16   38 1     
   39   17   18 1     
   40    9   39 1     
   41   17   40 1     
   42   17   41 1     
   43   18   42 1     
@<TRIPOS>SUBSTRUCTURE
      1 S1             1
@<TRIPOS>SET
LONE_PAIRS      STATIC     ATOMS    <user>   **** ""
6 7 8 39 40 41 42
DONOR_HYDROGENS      STATIC     ATOMS    <user>   **** ""
1 25
ATOM$BLUE        STATIC     ATOMS    COLORGROUP SYSTEM
6 7 8 39 40 41 42
ATOM$RED        STATIC     ATOMS    COLORGROUP SYSTEM
1 25
