AV-unprocessed.smi:1868|AV-procd|sdf|7586|dock5
  -GOLD-   22720 9293D 1   1.00000     0.00000
 Structure written by MMmdl.
 47 49  0  0  0  0  0  0  0  0  2 V2000
  149.1451  131.1950  154.8754 C   0  0  0  0  0  0  0  0  0  0  0  0
  148.0802  131.3962  153.8444 C   0  0  0  0  0  0  0  0  0  0  0  0
  147.3635  130.3838  153.3567 N   0  0  0  0  0  0  0  0  0  0  0  0
  146.5117  131.0137  152.4702 C   0  0  0  0  0  0  0  0  0  0  0  0
  145.5045  130.4860  151.6312 C   0  0  0  0  0  0  0  0  0  0  0  0
  144.7525  131.3378  150.7958 C   0  0  0  0  0  0  0  0  0  0  0  0
  144.9958  132.7265  150.7875 C   0  0  0  0  0  0  0  0  0  0  0  0
  145.9949  133.2731  151.6153 C   0  0  0  0  0  0  0  0  0  0  0  0
  146.7439  132.4183  152.4464 C   0  0  0  0  0  0  0  0  0  0  0  0
  147.7832  132.6232  153.3499 N   0  0  0  0  0  0  0  0  0  0  0  0
  148.4045  133.8977  153.6825 C   0  0  0  0  0  0  0  0  0  0  0  0
  147.3888  134.9561  154.1618 C   0  0  2  0  0  0  0  0  0  0  0  0
  147.0100  135.7162  153.0319 O   0  0  0  0  0  0  0  0  0  0  0  0
  147.9523  135.9056  155.2444 C   0  0  0  0  0  0  0  0  0  0  0  0
  148.9281  136.8898  154.7101 N   0  3  2  0  0  0  0  0  0  0  0  0
  150.3138  136.5979  155.1598 C   0  0  0  0  0  0  0  0  0  0  0  0
  151.3297  137.5420  154.4927 C   0  0  0  0  0  0  0  0  0  0  0  0
  150.9889  139.0242  154.7284 C   0  0  2  0  0  0  0  0  0  0  0  0
  151.2948  139.4849  156.1645 C   0  0  0  0  0  0  0  0  0  0  0  0
  149.5281  139.2832  154.3178 C   0  0  0  0  0  0  0  0  0  0  0  0
  148.5502  138.3014  154.9880 C   0  0  0  0  0  0  0  0  0  0  0  0
  149.2462  130.1366  155.1180 H   0  0  0  0  0  0  0  0  0  0  0  0
  148.8910  131.7317  155.7895 H   0  0  0  0  0  0  0  0  0  0  0  0
  150.1061  131.5535  154.5085 H   0  0  0  0  0  0  0  0  0  0  0  0
  145.3097  129.4235  151.6303 H   0  0  0  0  0  0  0  0  0  0  0  0
  143.9849  130.9236  150.1587 H   0  0  0  0  0  0  0  0  0  0  0  0
  144.4144  133.3717  150.1452 H   0  0  0  0  0  0  0  0  0  0  0  0
  146.1833  134.3362  151.6086 H   0  0  0  0  0  0  0  0  0  0  0  0
  149.1568  133.7220  154.4527 H   0  0  0  0  0  0  0  0  0  0  0  0
  148.9491  134.2603  152.8098 H   0  0  0  0  0  0  0  0  0  0  0  0
  146.5031  134.4406  154.5284 H   0  0  0  0  0  0  0  0  0  0  0  0
  147.6189  135.5490  152.3292 H   0  0  0  0  0  0  0  0  0  0  0  0
  147.1531  136.4584  155.7385 H   0  0  0  0  0  0  0  0  0  0  0  0
  148.4234  135.2982  156.0191 H   0  0  0  0  0  0  0  0  0  0  0  0
  150.3718  136.6772  156.2463 H   0  0  0  0  0  0  0  0  0  0  0  0
  150.5718  135.5685  154.9075 H   0  0  0  0  0  0  0  0  0  0  0  0
  152.3360  137.3235  154.8520 H   0  0  0  0  0  0  0  0  0  0  0  0
  151.3438  137.3447  153.4199 H   0  0  0  0  0  0  0  0  0  0  0  0
  151.6267  139.6178  154.0720 H   0  0  0  0  0  0  0  0  0  0  0  0
  150.6968  138.9548  156.9053 H   0  0  0  0  0  0  0  0  0  0  0  0
  151.0953  140.5503  156.2819 H   0  0  0  0  0  0  0  0  0  0  0  0
  152.3442  139.3212  156.4109 H   0  0  0  0  0  0  0  0  0  0  0  0
  149.2464  140.3105  154.5521 H   0  0  0  0  0  0  0  0  0  0  0  0
  149.4391  139.1859  153.2349 H   0  0  0  0  0  0  0  0  0  0  0  0
  147.5467  138.5060  154.6178 H   0  0  0  0  0  0  0  0  0  0  0  0
  148.5214  138.4689  156.0655 H   0  0  0  0  0  0  0  0  0  0  0  0
  148.9305  136.7750  153.7069 H   0  0  0  0  0  0  0  0  0  0  0  0
  1  2  1  0  0  0  0
  1 22  1  0  0  0  0
  1 23  1  0  0  0  0
  1 24  1  0  0  0  0
  2 10  1  0  0  0  0
  2  3  2  0  0  0  0
  3  4  1  0  0  0  0
  4  9  2  0  0  0  0
  4  5  1  0  0  0  0
  5  6  2  0  0  0  0
  5 25  1  0  0  0  0
  6  7  1  0  0  0  0
  6 26  1  0  0  0  0
  7  8  2  0  0  0  0
  7 27  1  0  0  0  0
  8  9  1  0  0  0  0
  8 28  1  0  0  0  0
  9 10  1  0  0  0  0
 10 11  1  0  0  0  0
 11 12  1  0  0  0  0
 11 29  1  0  0  0  0
 11 30  1  0  0  0  0
 12 13  1  0  0  0  0
 12 14  1  0  0  0  0
 12 31  1  0  0  0  0
 13 32  1  0  0  0  0
 14 15  1  0  0  0  0
 14 33  1  0  0  0  0
 14 34  1  0  0  0  0
 15 21  1  0  0  0  0
 15 16  1  0  0  0  0
 15 47  1  0  0  0  0
 16 17  1  0  0  0  0
 16 35  1  0  0  0  0
 16 36  1  0  0  0  0
 17 18  1  0  0  0  0
 17 37  1  0  0  0  0
 17 38  1  0  0  0  0
 18 19  1  0  0  0  0
 18 20  1  0  0  0  0
 18 39  1  0  0  0  0
 19 40  1  0  0  0  0
 19 41  1  0  0  0  0
 19 42  1  0  0  0  0
 20 21  1  0  0  0  0
 20 43  1  0  0  0  0
 20 44  1  0  0  0  0
 21 45  1  0  0  0  0
 21 46  1  0  0  0  0
M  CHG  1  15   1
M  END
> <s_m_source_file>
AV-unprocessed.smi

> <i_m_source_file_index>
1868

> <i_lp_mmshare_version>
43012

> <i_f3d_flags>
0

> <s_epik_input>
W2NIXTFbY0hdW2NIXVtjSF1jKGMxMiluKGMobjIpW0NIM10pW0NIMl1bQ0BIXShbT0hdKVtDSDJdTjNbQ0gyXVtDSDJdW0NIXShbQ0gzXSlbQ0gyXVtDSDJdMw==

> <s_epik_cmdline>
J2VwaWtfcHl0aG9uJywgJy1waCcsICc3LjAnLCAnLXRuJywgJzgnLCAnLW1hJywgJzIwMCcsICctbWV0YWxfYmluZGluZycsICctaW1hZScsICc8aW5maWxlLm1hZT4nLCAnLW9tYWUnLCAnPG91dGZpbGUubWFlPic=

> <r_epik_Ionization_Penalty>
0.101157

> <r_epik_Ionization_Penalty_Charging>
0.00181365

> <r_epik_Ionization_Penalty_Neutral>
0.0993436

> <r_epik_State_Penalty>
0.0871902

> <r_epik_Charging_Adjusted_Penalty>
0.0890039

> <i_epik_Tot_Q>
1

> <i_epik_Tot_abs_Q>
1

> <r_epik_Metal_State_Penalty>
9.24346e-05

> <b_epik_Metal_Only>
0

> <s_lp_Force_Field>
OPLS_2005

> <r_lp_Energy>
25.8314

> <b_lp_Chiralities_Consistent>
1

> <s_lp_Variant>
AV-unprocessed.smi:1868-3

> <Gold.Version>
5.8.1

> <Gold.Id.Protein>
6NUR|6NUR_protein|mol2

> <Gold.PLP.Fitness>
42.2095

> <Gold.PLP.PLP>
-36.4888

> <Gold.PLP.part.hbond>
-1.3507

> <Gold.PLP.part.metal>
0.0000

> <Gold.PLP.part.buried>
-1.1320

> <Gold.PLP.part.nonpolar>
-33.7519

> <Gold.PLP.part.repulsive>
0.1141

> <Gold.PLP.ligand.clash>
0.0000

> <Gold.PLP.ligand.torsion>
1.2792

> <Gold.PLP.Chemscore.Hbond>
2.7520

> <Gold.PLP.Chemscore.CHOScore>
0.0000

> <Gold.PLP.Chemscore.Metal>
0.0000

> <Gold.Chemscore.Hbonds>
donor molecule, donor type, donor heavy atom, donor atom, acceptor molecule, acceptor atom, score
      L1  H    13    32       P1  7948  0.72
      L1  H    15    47       P1  7948  2.00

> <Gold.PLP.Chemscore.Internal.Correction>
0.0230

> <Gold.Rescore>
     Score         DG    S(hbond)    S(metal)    S(lipo)     H(rot)  DE(clash)    DE(int)     intcor
     15.09     -17.98       1.79        0.00      97.66       1.92       1.63       1.26       ----

> <Gold.Chemscore.Fitness>
15.0880

> <Gold.Chemscore.DG>
-17.9775

> <Gold.Chemscore.ZeroCoef>
-5.4800

> <Gold.Chemscore.Hbond>
1.7924

> <Gold.Chemscore.Metal>
0.0000

> <Gold.Chemscore.Lipo>
97.6558

> <Gold.Chemscore.Internal_Hbond>
0.0000

> <Gold.Chemscore.DEClash>
1.6298

> <Gold.Chemscore.DEInternal>
1.2597

> <Gold.Chemscore.Rot>
1.9198

> <Gold.Chemscore.Internal.Correction>
   9.000000E+99

> <Gold.Chemscore.Hbonds>
donor molecule, donor type, donor heavy atom, donor atom, acceptor molecule, acceptor atom, score
      L1  H    13    32       P1  7948  0.68
      L1  H    15    47       P1  7948  1.00

> <Gold.Chemscore.Hbond.Weighted>
-5.9864

> <Gold.Chemscore.Metal.Weighted>
-0.0000

> <Gold.Chemscore.Lipo.Weighted>
-11.4257

> <Gold.Chemscore.Internal_Hbond.Weighted>
0.0000

> <Gold.Chemscore.DEClash.Weighted>
1.6298

> <Gold.Chemscore.DEInternal.Weighted>
1.2597

> <Gold.Chemscore.Rot.Weighted>
4.9147

> <Gold.Chemscore.Internal.Correction.Weighted>
   9.000000E+99

> <Gold.Protein.RotatedTorsions>
[ 6907 6896 6895 6894 ] final   22.47 input  -60.11 | X-H torsion
[ 7974 7965 7964 7962 ] final   -1.82 input  175.53 | X-H torsion
[ 8008 7997 7996 7995 ] final  136.15 input   59.86 | X-H torsion
[ 10167 10162 10161 10158 ] final -160.35 input  -65.29 | X-H torsion
[ 10718 10713 10712 10709 ] final -115.34 input   66.30 | X-H torsion
[ 10763 10752 10751 10750 ] final  -32.12 input  -60.55 | X-H torsion
[ 11005 11000 10999 10996 ] final   77.72 input  -57.11 | X-H torsion

> <Gold.Protein.ActiveResidues>
 VAL166  LYS551  ARG553  GLY616  TRP617  ASP618  TYR619  PRO620  LYS621  CYS622 
 ASP623  PHE694  ASN695  SER759  ASP760  ASP761  ALA762  ILE779  LEU786  VAL792 
 PHE793  MET794  SER795  GLU796  ALA797  LYS798  CYS799  TRP800  GLU811  SER814 

> <Gold.Protein.RotatedAtoms>
  151.9275  135.0271  160.0526 H   0  0  0  0  0  0  0  0  0  0  0  0  # atno 6907 bound_to 6896
  152.2146  133.4933  159.5137 H   0  0  0  0  0  0  0  0  0  0  0  0  # atno 6908 bound_to 6896
  150.6984  134.1338  159.4122 H   0  0  0  0  0  0  0  0  0  0  0  0  # atno 6909 bound_to 6896
  146.2412  140.1479  142.8334 H   0  0  0  0  0  0  0  0  0  0  0  0  # atno 7974 bound_to 7965
  156.3004  140.2452  156.3698 H   0  0  0  0  0  0  0  0  0  0  0  0  # atno 8008 bound_to 7997
  154.8799  140.0413  157.1795 H   0  0  0  0  0  0  0  0  0  0  0  0  # atno 8009 bound_to 7997
  154.8707  140.2934  155.5487 H   0  0  0  0  0  0  0  0  0  0  0  0  # atno 8010 bound_to 7997
  139.6546  144.0022  152.2185 H   0  0  0  0  0  0  0  0  0  0  0  0  # atno 10167 bound_to 10162
  156.0889  130.6075  150.8892 H   0  0  0  0  0  0  0  0  0  0  0  0  # atno 10718 bound_to 10713
  153.8086  135.6884  153.4844 H   0  0  0  0  0  0  0  0  0  0  0  0  # atno 10763 bound_to 10752
  153.1642  135.4567  154.9813 H   0  0  0  0  0  0  0  0  0  0  0  0  # atno 10764 bound_to 10752
  154.7977  135.3325  154.7569 H   0  0  0  0  0  0  0  0  0  0  0  0  # atno 10765 bound_to 10752
  139.9243  134.7705  156.1557 H   0  0  0  0  0  0  0  0  0  0  0  0  # atno 11005 bound_to 11000
  145.0192  140.8780  143.5177 LP  0  0  0  0  0  0  0  0  0  0  0  0  # atno 17320 bound_to 7965
  145.1524  139.2506  143.5434 LP  0  0  0  0  0  0  0  0  0  0  0  0  # atno 17321 bound_to 7965
  139.9745  144.6471  150.7958 LP  0  0  0  0  0  0  0  0  0  0  0  0  # atno 17342 bound_to 10162
  140.7553  143.3044  151.2999 LP  0  0  0  0  0  0  0  0  0  0  0  0  # atno 17343 bound_to 10162
  157.6032  131.0940  150.8924 LP  0  0  0  0  0  0  0  0  0  0  0  0  # atno 17370 bound_to 10713
  156.9078  130.5269  149.5281 LP  0  0  0  0  0  0  0  0  0  0  0  0  # atno 17371 bound_to 10713
  141.0788  133.6763  156.2292 LP  0  0  0  0  0  0  0  0  0  0  0  0  # atno 17394 bound_to 11000
  140.6383  134.5192  157.5567 LP  0  0  0  0  0  0  0  0  0  0  0  0  # atno 17395 bound_to 11000

$$$$
