#       Name:                AV-unprocessed.smi:2124
#       Creating user name   scv26
#       Creation time:       Fri Mar 27 11:40:52 2020


#       File generated by GOLD software.
#

@<TRIPOS>MOLECULE
AV-unprocessed.smi:2124
    52    54     1
SMALL
NO_CHARGES


@<TRIPOS>ATOM
      1 ****        -3.9755   5.8660   0.8163 C.3            1 S1                 0.0000
      2 ****        -3.4303   4.4576   0.9097 C.2            1 S1                 0.0000
      3 ****        -3.1257   3.8963  -0.3196 N.pl3          1 S1                 0.0000
      4 ****        -2.6211   2.6079  -0.3357 C.2            1 S1                 0.0000
      5 ****        -2.3074   2.0694  -1.7205 C.3            1 S1                 0.0000
      6 ****        -2.4306   1.9141   0.8150 C.2            1 S1                 0.0000
      7 ****        -1.8658   0.4944   0.8455 C.3            1 S1                 0.0000
      8 ****        -0.3396   0.3735   0.8608 C.2            1 S1                 0.0000
      9 ****         0.3716   1.3728   0.7521 O.2            1 S1                 0.0000
     10 ****         0.1484  -0.8683   1.0006 N.am           1 S1                 0.0000
     11 ****         1.5651  -1.2231   1.0469 C.3            1 S1                 0.0000
     12 ****         2.0428  -1.2205   2.5089 C.3            1 S1                 0.0000
     13 ****         1.7862  -2.5939   0.3660 C.3            1 S1                 0.0000
     14 ****         3.2676  -2.9810   0.1556 C.3            1 S1                 0.0000
     15 ****         3.3113  -3.3938  -1.3275 C.3            1 S1                 0.0000
     16 ****         3.2209  -2.1312  -2.2040 C.3            1 S1                 0.0000
     17 ****         1.7497  -1.7098  -2.0379 C.3            1 S1                 0.0000
     18 ****         1.1993  -2.7672  -1.0582 C.3            1 S1                 0.0000
     19 ****         1.9353  -4.0174  -1.5297 C.3            1 S1                 0.0000
     20 ****        -2.7699   2.5697   2.0999 C.2            1 S1                 0.0000
     21 ****        -2.6064   1.9974   3.1766 O.2            1 S1                 0.0000
     22 ****        -3.2824   3.8765   2.0614 N.2            1 S1                 0.0000
     23 ****        -3.2512   4.3771  -1.1988 H              1 S1                 0.0000
     24 ****        -4.1480   6.2843   1.8088 H              1 S1                 0.0000
     25 ****        -4.9218   5.8712   0.2746 H              1 S1                 0.0000
     26 ****        -3.2713   6.5133   0.2928 H              1 S1                 0.0000
     27 ****        -1.2630   1.7628  -1.7829 H              1 S1                 0.0000
     28 ****        -2.4825   2.8195  -2.4928 H              1 S1                 0.0000
     29 ****        -2.9349   1.2064  -1.9438 H              1 S1                 0.0000
     30 ****        -2.2285  -0.0475  -0.0278 H              1 S1                 0.0000
     31 ****        -2.2716  -0.0514   1.6983 H              1 S1                 0.0000
     32 ****        -0.5119  -1.6279   1.0820 H              1 S1                 0.0000
     33 ****         2.1447  -0.4721   0.5085 H              1 S1                 0.0000
     34 ****         3.1053  -1.4528   2.5810 H              1 S1                 0.0000
     35 ****         1.5014  -1.9555   3.1056 H              1 S1                 0.0000
     36 ****         1.8933  -0.2434   2.9696 H              1 S1                 0.0000
     37 ****         1.3246  -3.3552   0.9976 H              1 S1                 0.0000
     38 ****         3.9587  -2.1635   0.3652 H              1 S1                 0.0000
     39 ****         3.5391  -3.8156   0.8030 H              1 S1                 0.0000
     40 ****         4.1537  -4.0395  -1.5770 H              1 S1                 0.0000
     41 ****         3.9153  -1.3535  -1.8836 H              1 S1                 0.0000
     42 ****         3.4376  -2.3639  -3.2473 H              1 S1                 0.0000
     43 ****         1.6393  -0.6870  -1.6791 H              1 S1                 0.0000
     44 ****         1.2304  -1.7731  -2.9948 H              1 S1                 0.0000
     45 ****         0.1124  -2.8516  -1.0756 H              1 S1                 0.0000
     46 ****         1.7264  -4.2791  -2.5686 H              1 S1                 0.0000
     47 ****         1.7588  -4.8908  -0.8994 H              1 S1                 0.0000
     48 ****        -0.0466   2.2757   0.6525 LP             1 S1                 0.0000
     49 ****         1.3674   1.2815   0.7635 LP             1 S1                 0.0000
     50 ****        -2.2368   1.0684   3.1981 LP             1 S1                 0.0000
     51 ****        -2.8431   2.4612   4.0304 LP             1 S1                 0.0000
     52 ****        -3.5291   4.3513   2.9063 LP             1 S1                 0.0000
@<TRIPOS>BOND
    1    1   24 1     
    2    1   25 1     
    3    1   26 1     
    4    1    2 1     
    5    2    3 1     
    6    2   22 2     
    7    3    4 1     
    8    3   23 1     
    9    4    6 2     
   10    4    5 1     
   11    5   27 1     
   12    5   28 1     
   13    5   29 1     
   14    6   20 1     
   15    6    7 1     
   16    7    8 1     
   17    7   30 1     
   18    7   31 1     
   19    8    9 2     
   20    8   10 am    
   21   10   11 1     
   22   10   32 1     
   23   11   12 1     
   24   11   13 1     
   25   11   33 1     
   26   12   34 1     
   27   12   35 1     
   28   12   36 1     
   29   13   18 1     
   30   13   14 1     
   31   13   37 1     
   32   14   15 1     
   33   14   38 1     
   34   14   39 1     
   35   15   19 1     
   36   15   16 1     
   37   15   40 1     
   38   16   17 1     
   39   16   41 1     
   40   16   42 1     
   41   17   18 1     
   42   17   43 1     
   43   17   44 1     
   44   18   19 1     
   45   18   45 1     
   46   19   46 1     
   47   19   47 1     
   48   20   21 2     
   49   20   22 1     
   50    9   48 1     
   51    9   49 1     
   52   21   50 1     
   53   21   51 1     
   54   22   52 1     
@<TRIPOS>SUBSTRUCTURE
      1 S1             1
@<TRIPOS>SET
LONE_PAIRS      STATIC     ATOMS    <user>   **** ""
5 48 49 50 51 52
DONOR_HYDROGENS      STATIC     ATOMS    <user>   **** ""
2 23 32
ATOM$BLUE        STATIC     ATOMS    COLORGROUP SYSTEM
5 48 49 50 51 52
ATOM$RED        STATIC     ATOMS    COLORGROUP SYSTEM
2 23 32
