AV-unprocessed.smi:2154|AV-procd|sdf|8773|dock9
  -GOLD-   2272011553D 1   1.00000     0.00000
 Structure written by MMmdl.
 32 33  0  0  0  0  0  0  0  0  1 V2000
  151.6207  145.2368  159.9124 C   0  0  0  0  0  0  0  0  0  0  0  0
  152.0952  144.1371  158.9873 C   0  0  1  0  0  0  0  0  0  0  0  0
  153.4309  143.4660  159.2115 C   0  0  0  0  0  0  0  0  0  0  0  0
  152.1521  142.7020  159.4612 C   0  0  2  0  0  0  0  0  0  0  0  0
  151.7527  141.5589  158.5471 C   0  0  0  0  0  0  0  0  0  0  0  0
  151.1590  141.9645  157.2799 N   0  0  0  0  0  0  0  0  0  0  0  0
  150.3811  141.1887  156.5099 C   0  0  0  0  0  0  0  0  0  0  0  0
  150.0767  140.0330  156.8088 O   0  0  0  0  0  0  0  0  0  0  0  0
  149.8532  141.8321  155.2196 C   0  0  0  0  0  0  0  0  0  0  0  0
  149.0148  140.9241  154.4233 N   0  0  0  0  0  0  0  0  0  0  0  0
  147.7164  141.2820  154.0891 C   0  0  0  0  0  0  0  0  0  0  0  0
  146.8871  140.4912  153.3676 C   0  0  0  0  0  0  0  0  0  0  0  0
  147.3366  139.1860  152.8955 C   0  0  0  0  0  0  0  0  0  0  0  0
  146.6614  138.3999  152.2347 O   0  0  0  0  0  0  0  0  0  0  0  0
  148.6473  138.8608  153.2546 N   0  0  0  0  0  0  0  0  0  0  0  0
  149.5063  139.6700  153.9995 C   0  0  0  0  0  0  0  0  0  0  0  0
  150.6441  139.2839  154.2651 O   0  0  0  0  0  0  0  0  0  0  0  0
  149.0015  137.9648  152.9525 H   0  0  0  0  0  0  0  0  0  0  0  0
  151.9339  145.0426  160.9387 H   0  0  0  0  0  0  0  0  0  0  0  0
  150.5330  145.3022  159.8878 H   0  0  0  0  0  0  0  0  0  0  0  0
  152.0345  146.1950  159.5979 H   0  0  0  0  0  0  0  0  0  0  0  0
  151.8085  144.2894  157.9485 H   0  0  0  0  0  0  0  0  0  0  0  0
  154.0142  143.2065  158.3302 H   0  0  0  0  0  0  0  0  0  0  0  0
  154.0115  143.7673  160.0810 H   0  0  0  0  0  0  0  0  0  0  0  0
  151.9158  142.5272  160.5093 H   0  0  0  0  0  0  0  0  0  0  0  0
  152.6314  140.9509  158.3289 H   0  0  0  0  0  0  0  0  0  0  0  0
  151.0592  140.9092  159.0833 H   0  0  0  0  0  0  0  0  0  0  0  0
  151.3555  142.9028  156.9630 H   0  0  0  0  0  0  0  0  0  0  0  0
  149.2883  142.7245  155.4931 H   0  0  0  0  0  0  0  0  0  0  0  0
  150.6900  142.1943  154.6185 H   0  0  0  0  0  0  0  0  0  0  0  0
  147.3390  142.2386  154.4215 H   0  0  0  0  0  0  0  0  0  0  0  0
  145.8855  140.8258  153.1396 H   0  0  0  0  0  0  0  0  0  0  0  0
  1  2  1  0  0  0  0
  1 19  1  0  0  0  0
  1 20  1  0  0  0  0
  1 21  1  0  0  0  0
  2  4  1  0  0  0  0
  2  3  1  0  0  0  0
  2 22  1  0  0  0  0
  3  4  1  0  0  0  0
  3 23  1  0  0  0  0
  3 24  1  0  0  0  0
  4  5  1  0  0  0  0
  4 25  1  0  0  0  0
  5  6  1  0  0  0  0
  5 26  1  0  0  0  0
  5 27  1  0  0  0  0
  6  7  1  0  0  0  0
  6 28  1  0  0  0  0
  7  8  2  0  0  0  0
  7  9  1  0  0  0  0
  9 10  1  0  0  0  0
  9 29  1  0  0  0  0
  9 30  1  0  0  0  0
 10 16  1  0  0  0  0
 10 11  1  0  0  0  0
 11 12  2  0  0  0  0
 11 31  1  0  0  0  0
 12 13  1  0  0  0  0
 12 32  1  0  0  0  0
 13 14  2  0  0  0  0
 13 15  1  0  0  0  0
 15 18  1  0  0  0  0
 15 16  1  0  0  0  0
 16 17  2  0  0  0  0
M  END
> <s_m_source_file>
AV-unprocessed.smi

> <i_m_source_file_index>
2154

> <i_lp_mmshare_version>
43012

> <i_f3d_flags>
0

> <s_epik_input>
W0NIM11bQ0BASF0xW0NIMl1bQ0BIXTFbQ0gyXVtOSF1DKD1PKVtDSDJdbjJbY0hdW2NIXWMoPU8pW25IXWMyPU8=

> <s_epik_cmdline>
J2VwaWtfcHl0aG9uJywgJy1waCcsICc3LjAnLCAnLXRuJywgJzgnLCAnLW1hJywgJzIwMCcsICctbWV0YWxfYmluZGluZycsICctaW1hZScsICc8aW5maWxlLm1hZT4nLCAnLW9tYWUnLCAnPG91dGZpbGUubWFlPic=

> <r_lp_tautomer_probability>
0.999537

> <r_epik_Ionization_Penalty>
0.00305319

> <r_epik_Ionization_Penalty_Charging>
0.00305317

> <r_epik_Ionization_Penalty_Neutral>
2.06703e-08

> <r_epik_State_Penalty>
0.00214626

> <r_epik_Charging_Adjusted_Penalty>
0.00519944

> <i_epik_Tot_Q>
0

> <i_epik_Tot_abs_Q>
0

> <r_epik_Metal_State_Penalty>
0.361976

> <b_epik_Metal_Only>
0

> <s_lp_Force_Field>
OPLS_2005

> <r_lp_Energy>
14.6752

> <b_lp_Chiralities_Consistent>
1

> <s_lp_Variant>
AV-unprocessed.smi:2154-4

> <Gold.Version>
5.8.1

> <Gold.Id.Protein>
6NUR|6NUR_protein|mol2

> <Gold.PLP.Fitness>
41.1715

> <Gold.PLP.PLP>
-35.8414

> <Gold.PLP.part.hbond>
-3.0000

> <Gold.PLP.part.metal>
0.0000

> <Gold.PLP.part.buried>
-0.6312

> <Gold.PLP.part.nonpolar>
-32.8994

> <Gold.PLP.part.repulsive>
0.6099

> <Gold.PLP.ligand.clash>
0.0000

> <Gold.PLP.ligand.torsion>
0.6082

> <Gold.PLP.Chemscore.Hbond>
2.0000

> <Gold.PLP.Chemscore.CHOScore>
0.0000

> <Gold.PLP.Chemscore.Metal>
0.0000

> <Gold.Chemscore.Hbonds>
donor molecule, donor type, donor heavy atom, donor atom, acceptor molecule, acceptor atom, score
      L1  H    15    18       P1  7948  1.00
      P1  H  7989  7998       L1    17  0.85

> <Gold.PLP.Chemscore.Internal.Correction>
0.5464

> <Gold.Rescore>
     Score         DG    S(hbond)    S(metal)    S(lipo)     H(rot)  DE(clash)    DE(int)     intcor
     12.42     -15.71       1.84        0.00      78.70       2.01       2.08       1.21       ----

> <Gold.Chemscore.Fitness>
12.4234

> <Gold.Chemscore.DG>
-15.7116

> <Gold.Chemscore.ZeroCoef>
-5.4800

> <Gold.Chemscore.Hbond>
1.8443

> <Gold.Chemscore.Metal>
0.0000

> <Gold.Chemscore.Lipo>
78.7033

> <Gold.Chemscore.Internal_Hbond>
0.0000

> <Gold.Chemscore.DEClash>
2.0829

> <Gold.Chemscore.DEInternal>
1.2053

> <Gold.Chemscore.Rot>
2.0065

> <Gold.Chemscore.Internal.Correction>
   9.000000E+99

> <Gold.Chemscore.Hbonds>
donor molecule, donor type, donor heavy atom, donor atom, acceptor molecule, acceptor atom, score
      L1  H    15    18       P1  7948  0.92
      P1  H  7989  7998       L1    17  0.14

> <Gold.Chemscore.Hbond.Weighted>
-6.1600

> <Gold.Chemscore.Metal.Weighted>
-0.0000

> <Gold.Chemscore.Lipo.Weighted>
-9.2083

> <Gold.Chemscore.Internal_Hbond.Weighted>
0.0000

> <Gold.Chemscore.DEClash.Weighted>
2.0829

> <Gold.Chemscore.DEInternal.Weighted>
1.2053

> <Gold.Chemscore.Rot.Weighted>
5.1366

> <Gold.Chemscore.Internal.Correction.Weighted>
   9.000000E+99

> <Gold.Protein.RotatedTorsions>
[ 6907 6896 6895 6894 ] final -138.99 input  -60.11 | X-H torsion
[ 7974 7965 7964 7962 ] final  158.25 input  175.53 | X-H torsion
[ 8008 7997 7996 7995 ] final   23.56 input   59.86 | X-H torsion
[ 10167 10162 10161 10158 ] final  127.36 input  -65.29 | X-H torsion
[ 10718 10713 10712 10709 ] final -130.39 input   66.30 | X-H torsion
[ 10763 10752 10751 10750 ] final  -31.39 input  -60.55 | X-H torsion
[ 11005 11000 10999 10996 ] final  121.41 input  -57.11 | X-H torsion

> <Gold.Protein.ActiveResidues>
 VAL166  LYS551  ARG553  GLY616  TRP617  ASP618  TYR619  PRO620  LYS621  CYS622 
 ASP623  PHE694  ASN695  SER759  ASP760  ASP761  ALA762  ILE779  LEU786  VAL792 
 PHE793  MET794  SER795  GLU796  ALA797  LYS798  CYS799  TRP800  GLU811  SER814 

> <Gold.Protein.RotatedAtoms>
  151.0421  133.5697  159.2649 H   0  0  0  0  0  0  0  0  0  0  0  0  # atno 6907 bound_to 6896
  151.2740  135.0692  159.9154 H   0  0  0  0  0  0  0  0  0  0  0  0  # atno 6908 bound_to 6896
  152.5366  134.0146  159.8008 H   0  0  0  0  0  0  0  0  0  0  0  0  # atno 6909 bound_to 6896
  144.7856  139.7453  143.6242 H   0  0  0  0  0  0  0  0  0  0  0  0  # atno 7974 bound_to 7965
  154.9827  140.3104  155.4939 H   0  0  0  0  0  0  0  0  0  0  0  0  # atno 8008 bound_to 7997
  156.2951  140.2263  156.4867 H   0  0  0  0  0  0  0  0  0  0  0  0  # atno 8009 bound_to 7997
  154.7774  140.0448  157.1088 H   0  0  0  0  0  0  0  0  0  0  0  0  # atno 8010 bound_to 7997
  139.5583  144.6864  151.4119 H   0  0  0  0  0  0  0  0  0  0  0  0  # atno 10167 bound_to 10162
  156.2140  130.6936  151.0682 H   0  0  0  0  0  0  0  0  0  0  0  0  # atno 10718 bound_to 10713
  153.7966  135.6893  153.4862 H   0  0  0  0  0  0  0  0  0  0  0  0  # atno 10763 bound_to 10752
  153.1715  135.4541  154.9907 H   0  0  0  0  0  0  0  0  0  0  0  0  # atno 10764 bound_to 10752
  154.8023  135.3342  154.7458 H   0  0  0  0  0  0  0  0  0  0  0  0  # atno 10765 bound_to 10752
  139.9225  134.9638  156.7954 H   0  0  0  0  0  0  0  0  0  0  0  0  # atno 11005 bound_to 11000
  146.2086  139.5427  142.9696 LP  0  0  0  0  0  0  0  0  0  0  0  0  # atno 17320 bound_to 7965
  145.5931  141.0366  143.2059 LP  0  0  0  0  0  0  0  0  0  0  0  0  # atno 17321 bound_to 7965
  140.6859  143.7975  150.7185 LP  0  0  0  0  0  0  0  0  0  0  0  0  # atno 17342 bound_to 10162
  140.1443  143.4413  152.2173 LP  0  0  0  0  0  0  0  0  0  0  0  0  # atno 17343 bound_to 10162
  157.7053  131.0759  150.6685 LP  0  0  0  0  0  0  0  0  0  0  0  0  # atno 17370 bound_to 10713
  156.6746  130.4549  149.5646 LP  0  0  0  0  0  0  0  0  0  0  0  0  # atno 17371 bound_to 10713
  140.6433  133.9798  155.7718 LP  0  0  0  0  0  0  0  0  0  0  0  0  # atno 17394 bound_to 11000
  141.0757  134.0139  157.3461 LP  0  0  0  0  0  0  0  0  0  0  0  0  # atno 17395 bound_to 11000

$$$$
