#       Name:                AV-unprocessed.smi:1774
#       Creating user name   scv26
#       Creation time:       Fri Mar 27 08:40:31 2020


#       File generated by GOLD software.
#

@<TRIPOS>MOLECULE
AV-unprocessed.smi:1774
    51    52     1
SMALL
NO_CHARGES


@<TRIPOS>ATOM
      1 ****        -3.7003   2.1801   0.4116 C.3            1 S1                 0.0000
      2 ****        -3.5683   2.3565  -1.0927 C.ar           1 S1                 0.0000
      3 ****        -4.2049   3.4494  -1.7188 C.ar           1 S1                 0.0000
      4 ****        -4.0806   3.6111  -3.1093 C.ar           1 S1                 0.0000
      5 ****        -3.3191   2.6670  -3.8193 C.ar           1 S1                 0.0000
      6 ****        -2.7075   1.6199  -3.2292 N.ar           1 S1                 0.0000
      7 ****        -2.8177   1.4492  -1.8877 C.ar           1 S1                 0.0000
      8 ****        -2.2045   0.3655  -1.1981 N.am           1 S1                 0.0000
      9 ****        -1.4109  -0.6007  -1.6928 C.2            1 S1                 0.0000
     10 ****        -1.0550  -0.7023  -2.8673 O.2            1 S1                 0.0000
     11 ****        -1.0348  -1.4547  -0.7308 N.am           1 S1                 0.0000
     12 ****        -0.1288  -2.5830  -0.9177 C.3            1 S1                 0.0000
     13 ****         1.3449  -2.1328  -0.9619 C.3            1 S1                 0.0000
     14 ****         1.7956  -1.3509   0.1902 N.3            1 S1                 0.0000
     15 ****         3.1147  -0.7774  -0.0502 C.3            1 S1                 0.0000
     16 ****         3.6238   0.0630   1.1376 C.3            1 S1                 0.0000
     17 ****         2.9087   1.4177   1.2756 C.3            1 S1                 0.0000
     18 ****         3.5563  -0.6979   2.3449 O.3            1 S1                 0.0000
     19 ****         2.2858  -1.2837   2.6243 C.3            1 S1                 0.0000
     20 ****         2.4175  -2.1191   3.9020 C.3            1 S1                 0.0000
     21 ****         1.8339  -2.1323   1.4219 C.3            1 S1                 0.0000
     22 ****        -4.3100   2.9695   0.8518 H              1 S1                 0.0000
     23 ****        -2.7194   2.2100   0.8869 H              1 S1                 0.0000
     24 ****        -4.1700   1.2240   0.6447 H              1 S1                 0.0000
     25 ****        -4.7828   4.1573  -1.1431 H              1 S1                 0.0000
     26 ****        -4.5561   4.4367  -3.6178 H              1 S1                 0.0000
     27 ****        -3.1977   2.7534  -4.8891 H              1 S1                 0.0000
     28 ****        -2.3921   0.3241  -0.2076 H              1 S1                 0.0000
     29 ****        -1.3714  -1.2946   0.2072 H              1 S1                 0.0000
     30 ****        -0.2929  -3.2958  -0.1104 H              1 S1                 0.0000
     31 ****        -0.3818  -3.1125  -1.8376 H              1 S1                 0.0000
     32 ****         1.9848  -3.0077  -1.0852 H              1 S1                 0.0000
     33 ****         1.4823  -1.5382  -1.8663 H              1 S1                 0.0000
     34 ****         3.8274  -1.5805  -0.2437 H              1 S1                 0.0000
     35 ****         3.0964  -0.1615  -0.9501 H              1 S1                 0.0000
     36 ****         4.6797   0.2760   0.9692 H              1 S1                 0.0000
     37 ****         3.0684   2.0314   0.3888 H              1 S1                 0.0000
     38 ****         3.2885   1.9718   2.1342 H              1 S1                 0.0000
     39 ****         1.8321   1.3030   1.4009 H              1 S1                 0.0000
     40 ****         1.5562  -0.4939   2.8057 H              1 S1                 0.0000
     41 ****         1.4662  -2.5798   4.1690 H              1 S1                 0.0000
     42 ****         2.7335  -1.4993   4.7415 H              1 S1                 0.0000
     43 ****         3.1531  -2.9147   3.7797 H              1 S1                 0.0000
     44 ****         0.8482  -2.5427   1.6387 H              1 S1                 0.0000
     45 ****         2.5067  -2.9824   1.2988 H              1 S1                 0.0000
     46 ****        -2.1762   0.9735  -3.7768 LP             1 S1                 0.0000
     47 ****        -1.3597  -0.0301  -3.5420 LP             1 S1                 0.0000
     48 ****        -0.4612  -1.4569  -3.1463 LP             1 S1                 0.0000
     49 ****         1.1230  -0.6202   0.3068 LP             1 S1                 0.0000
     50 ****         3.7918  -0.0927   3.1054 LP             1 S1                 0.0000
     51 ****         4.2299  -1.4345   2.2843 LP             1 S1                 0.0000
@<TRIPOS>BOND
    1    1    2 1     
    2    1   22 1     
    3    1   23 1     
    4    1   24 1     
    5    2    7 ar    
    6    2    3 ar    
    7    3    4 ar    
    8    3   25 1     
    9    4    5 ar    
   10    4   26 1     
   11    5    6 ar    
   12    5   27 1     
   13    6    7 ar    
   14    7    8 1     
   15    8    9 am    
   16    8   28 1     
   17    9   10 2     
   18    9   11 am    
   19   11   12 1     
   20   11   29 1     
   21   12   13 1     
   22   12   30 1     
   23   12   31 1     
   24   13   14 1     
   25   13   32 1     
   26   13   33 1     
   27   14   21 1     
   28   14   15 1     
   29   15   16 1     
   30   15   34 1     
   31   15   35 1     
   32   16   17 1     
   33   16   18 1     
   34   16   36 1     
   35   17   37 1     
   36   17   38 1     
   37   17   39 1     
   38   18   19 1     
   39   19   20 1     
   40   19   21 1     
   41   19   40 1     
   42   20   41 1     
   43   20   42 1     
   44   20   43 1     
   45   21   44 1     
   46   21   45 1     
   47    6   46 1     
   48   10   47 1     
   49   10   48 1     
   50   14   49 1     
   51   18   50 1     
   52   18   51 1     
@<TRIPOS>SUBSTRUCTURE
      1 S1             1
@<TRIPOS>SET
LONE_PAIRS      STATIC     ATOMS    <user>   **** ""
6 46 47 48 49 50 51
DONOR_HYDROGENS      STATIC     ATOMS    <user>   **** ""
2 28 29
ATOM$BLUE        STATIC     ATOMS    COLORGROUP SYSTEM
6 46 47 48 49 50 51
ATOM$RED        STATIC     ATOMS    COLORGROUP SYSTEM
2 28 29
