AV-unprocessed.smi:411|AV-procd|sdf|2508|dock9
  -GOLD-   2262022463D 1   1.00000     0.00000
 Structure written by MMmdl.
 35 36  0  0  0  0  0  0  0  0  1 V2000
  154.8514  138.1297  159.8366 O   0  0  0  0  0  0  0  0  0  0  0  0
  154.7582  138.9147  160.7794 C   0  0  0  0  0  0  0  0  0  0  0  0
  154.9624  140.4184  160.5234 C   0  0  0  0  0  0  0  0  0  0  0  0
  153.7378  141.1596  160.1671 N   0  0  0  0  0  0  0  0  0  0  0  0
  153.4820  142.3425  160.8832 C   0  0  0  0  0  0  0  0  0  0  0  0
  152.4053  143.0996  160.6334 C   0  0  0  0  0  0  0  0  0  0  0  0
  151.4953  142.6715  159.5993 C   0  0  0  0  0  0  0  0  0  0  0  0
  151.7174  141.5410  158.8896 C   0  0  0  0  0  0  0  0  0  0  0  0
  150.7650  141.0731  157.7920 C   0  0  0  0  0  0  0  0  0  0  0  0
  150.1867  142.1187  157.1999 F   0  0  0  0  0  0  0  0  0  0  0  0
  151.4225  140.3790  156.8623 F   0  0  0  0  0  0  0  0  0  0  0  0
  149.7981  140.2916  158.2755 F   0  0  0  0  0  0  0  0  0  0  0  0
  152.9097  140.7155  159.1709 C   0  0  0  0  0  0  0  0  0  0  0  0
  153.1622  139.6859  158.5432 O   0  0  0  0  0  0  0  0  0  0  0  0
  154.4818  138.5151  162.0324 N   0  0  0  0  0  0  0  0  0  0  0  0
  154.2676  137.1360  162.4538 C   0  0  2  0  0  0  0  0  0  0  0  0
  154.2106  137.0003  163.9892 C   0  0  0  0  0  0  0  0  0  0  0  0
  154.3775  135.5217  164.3586 C   0  0  0  0  0  0  0  0  0  0  0  0
  155.4394  134.7880  163.0573 S   0  0  0  0  0  0  0  0  0  0  0  0
  156.8061  134.6181  163.5738 O   0  0  0  0  0  0  0  0  0  0  0  0
  154.7215  133.6675  162.4311 O   0  0  0  0  0  0  0  0  0  0  0  0
  155.4011  136.2382  161.9387 C   0  0  0  0  0  0  0  0  0  0  0  0
  155.4302  140.8587  161.4056 H   0  0  0  0  0  0  0  0  0  0  0  0
  155.7068  140.5250  159.7331 H   0  0  0  0  0  0  0  0  0  0  0  0
  154.2156  142.5947  161.6353 H   0  0  0  0  0  0  0  0  0  0  0  0
  152.2250  144.0081  161.1893 H   0  0  0  0  0  0  0  0  0  0  0  0
  150.6248  143.2784  159.3994 H   0  0  0  0  0  0  0  0  0  0  0  0
  154.4196  139.2236  162.7489 H   0  0  0  0  0  0  0  0  0  0  0  0
  153.3288  136.7665  162.0367 H   0  0  0  0  0  0  0  0  0  0  0  0
  155.0341  137.5644  164.4297 H   0  0  0  0  0  0  0  0  0  0  0  0
  153.2884  137.4113  164.4012 H   0  0  0  0  0  0  0  0  0  0  0  0
  154.8276  135.3764  165.3407 H   0  0  0  0  0  0  0  0  0  0  0  0
  153.4163  135.0076  164.3361 H   0  0  0  0  0  0  0  0  0  0  0  0
  155.2543  135.9148  160.9079 H   0  0  0  0  0  0  0  0  0  0  0  0
  156.3683  136.7369  162.0125 H   0  0  0  0  0  0  0  0  0  0  0  0
  1  2  2  0  0  0  0
  2  3  1  0  0  0  0
  2 15  1  0  0  0  0
  3  4  1  0  0  0  0
  3 23  1  0  0  0  0
  3 24  1  0  0  0  0
  4 13  1  0  0  0  0
  4  5  1  0  0  0  0
  5  6  2  0  0  0  0
  5 25  1  0  0  0  0
  6  7  1  0  0  0  0
  6 26  1  0  0  0  0
  7  8  2  0  0  0  0
  7 27  1  0  0  0  0
  8  9  1  0  0  0  0
  8 13  1  0  0  0  0
  9 10  1  0  0  0  0
  9 11  1  0  0  0  0
  9 12  1  0  0  0  0
 13 14  2  0  0  0  0
 15 16  1  0  0  0  0
 15 28  1  0  0  0  0
 16 22  1  0  0  0  0
 16 17  1  0  0  0  0
 16 29  1  0  0  0  0
 17 18  1  0  0  0  0
 17 30  1  0  0  0  0
 17 31  1  0  0  0  0
 18 19  1  0  0  0  0
 18 32  1  0  0  0  0
 18 33  1  0  0  0  0
 19 20  2  0  0  0  0
 19 21  2  0  0  0  0
 19 22  1  0  0  0  0
 22 34  1  0  0  0  0
 22 35  1  0  0  0  0
M  END
> <s_m_source_file>
AV-unprocessed.smi

> <i_m_source_file_index>
411

> <i_lp_mmshare_version>
43012

> <i_f3d_flags>
0

> <s_epik_input>
Tz1TMSg9TylbQ0gyXVtDSDJdW0NASF0oW0NIMl0xKVtOSF1DKD1PKVtDSDJdbjJbY0hdW2NIXVtjSF1jKEMoRikoRilGKWMyPU8=

> <s_epik_cmdline>
J2VwaWtfcHl0aG9uJywgJy1waCcsICc3LjAnLCAnLXRuJywgJzgnLCAnLW1hJywgJzIwMCcsICctbWV0YWxfYmluZGluZycsICctaW1hZScsICc8aW5maWxlLm1hZT4nLCAnLW9tYWUnLCAnPG91dGZpbGUubWFlPic=

> <r_lp_tautomer_probability>
1

> <r_epik_Ionization_Penalty>
1.08759e-07

> <r_epik_Ionization_Penalty_Charging>
1.56656e-09

> <r_epik_Ionization_Penalty_Neutral>
1.07193e-07

> <r_epik_State_Penalty>
-0

> <r_epik_Charging_Adjusted_Penalty>
1.56656e-09

> <i_epik_Tot_Q>
0

> <i_epik_Tot_abs_Q>
0

> <r_epik_Metal_State_Penalty>
-0

> <b_epik_Metal_Only>
0

> <s_lp_Force_Field>
OPLS_2005

> <r_lp_Energy>
11.8943

> <b_lp_Chiralities_Consistent>
1

> <s_lp_Variant>
AV-unprocessed.smi:411-1

> <Gold.Version>
5.8.1

> <Gold.Id.Protein>
6NUR|6NUR_protein|mol2

> <Gold.PLP.Fitness>
42.6286

> <Gold.PLP.PLP>
-42.6619

> <Gold.PLP.part.hbond>
-1.0000

> <Gold.PLP.part.metal>
0.0000

> <Gold.PLP.part.buried>
-5.0130

> <Gold.PLP.part.nonpolar>
-36.2485

> <Gold.PLP.part.repulsive>
0.0261

> <Gold.PLP.ligand.clash>
0.0000

> <Gold.PLP.ligand.torsion>
1.6797

> <Gold.PLP.Chemscore.Hbond>
1.0000

> <Gold.PLP.Chemscore.CHOScore>
0.0000

> <Gold.PLP.Chemscore.Metal>
0.0000

> <Gold.Chemscore.Hbonds>
donor molecule, donor type, donor heavy atom, donor atom, acceptor molecule, acceptor atom, score
      P1  H  7997  8010       L1    14  0.80

> <Gold.PLP.Chemscore.Internal.Correction>
0.3260

> <Gold.Rescore>
     Score         DG    S(hbond)    S(metal)    S(lipo)     H(rot)  DE(clash)    DE(int)     intcor
      9.06     -14.23       0.97        0.00      85.04       1.73       0.05       5.12       ----

> <Gold.Chemscore.Fitness>
9.0587

> <Gold.Chemscore.DG>
-14.2292

> <Gold.Chemscore.ZeroCoef>
-5.4800

> <Gold.Chemscore.Hbond>
0.9677

> <Gold.Chemscore.Metal>
0.0000

> <Gold.Chemscore.Lipo>
85.0387

> <Gold.Chemscore.Internal_Hbond>
0.0000

> <Gold.Chemscore.DEClash>
0.0542

> <Gold.Chemscore.DEInternal>
5.1164

> <Gold.Chemscore.Rot>
1.7314

> <Gold.Chemscore.Internal.Correction>
   9.000000E+99

> <Gold.Chemscore.Hbonds>
donor molecule, donor type, donor heavy atom, donor atom, acceptor molecule, acceptor atom, score
      P1  H  7997  8010       L1    14  0.61

> <Gold.Chemscore.Hbond.Weighted>
-3.2321

> <Gold.Chemscore.Metal.Weighted>
-0.0000

> <Gold.Chemscore.Lipo.Weighted>
-9.9495

> <Gold.Chemscore.Internal_Hbond.Weighted>
0.0000

> <Gold.Chemscore.DEClash.Weighted>
0.0542

> <Gold.Chemscore.DEInternal.Weighted>
5.1164

> <Gold.Chemscore.Rot.Weighted>
4.4324

> <Gold.Chemscore.Internal.Correction.Weighted>
   9.000000E+99

> <Gold.Protein.RotatedTorsions>
[ 6907 6896 6895 6894 ] final -175.44 input  -60.11 | X-H torsion
[ 7974 7965 7964 7962 ] final   30.83 input  175.53 | X-H torsion
[ 8008 7997 7996 7995 ] final   27.09 input   59.86 | X-H torsion
[ 10167 10162 10161 10158 ] final  -13.81 input  -65.29 | X-H torsion
[ 10718 10713 10712 10709 ] final  -92.19 input   66.30 | X-H torsion
[ 10763 10752 10751 10750 ] final  -77.94 input  -60.55 | X-H torsion
[ 11005 11000 10999 10996 ] final    4.60 input  -57.11 | X-H torsion

> <Gold.Protein.ActiveResidues>
 VAL166  LYS551  ARG553  GLY616  TRP617  ASP618  TYR619  PRO620  LYS621  CYS622 
 ASP623  PHE694  ASN695  SER759  ASP760  ASP761  ALA762  ILE779  LEU786  VAL792 
 PHE793  MET794  SER795  GLU796  ALA797  LYS798  CYS799  TRP800  GLU811  SER814 

> <Gold.Protein.RotatedAtoms>
  151.5886  133.3369  159.3022 H   0  0  0  0  0  0  0  0  0  0  0  0  # atno 6907 bound_to 6896
  150.8273  134.7513  159.6835 H   0  0  0  0  0  0  0  0  0  0  0  0  # atno 6908 bound_to 6896
  152.4361  134.5690  159.9967 H   0  0  0  0  0  0  0  0  0  0  0  0  # atno 6909 bound_to 6896
  146.1588  139.6737  142.9048 H   0  0  0  0  0  0  0  0  0  0  0  0  # atno 7974 bound_to 7965
  155.0374  140.3165  155.4736 H   0  0  0  0  0  0  0  0  0  0  0  0  # atno 8008 bound_to 7997
  156.2862  140.2169  156.5440 H   0  0  0  0  0  0  0  0  0  0  0  0  # atno 8009 bound_to 7997
  154.7319  140.0481  157.0721 H   0  0  0  0  0  0  0  0  0  0  0  0  # atno 8010 bound_to 7997
  140.7189  143.5387  150.9435 H   0  0  0  0  0  0  0  0  0  0  0  0  # atno 10167 bound_to 10162
  156.0000  130.4977  150.5589 H   0  0  0  0  0  0  0  0  0  0  0  0  # atno 10718 bound_to 10713
  154.5194  135.5747  153.6669 H   0  0  0  0  0  0  0  0  0  0  0  0  # atno 10763 bound_to 10752
  152.9914  135.6178  154.2774 H   0  0  0  0  0  0  0  0  0  0  0  0  # atno 10764 bound_to 10752
  154.2694  135.2854  155.2724 H   0  0  0  0  0  0  0  0  0  0  0  0  # atno 10765 bound_to 10752
  140.5801  134.0021  155.8044 H   0  0  0  0  0  0  0  0  0  0  0  0  # atno 11005 bound_to 11000
  145.4641  141.0434  143.2735 LP  0  0  0  0  0  0  0  0  0  0  0  0  # atno 17320 bound_to 7965
  144.7999  139.6162  143.7076 LP  0  0  0  0  0  0  0  0  0  0  0  0  # atno 17321 bound_to 7965
  139.9109  143.6721  152.3115 LP  0  0  0  0  0  0  0  0  0  0  0  0  # atno 17342 bound_to 10162
  139.7104  144.7621  151.1121 LP  0  0  0  0  0  0  0  0  0  0  0  0  # atno 17343 bound_to 10162
  157.3501  131.0732  151.1720 LP  0  0  0  0  0  0  0  0  0  0  0  0  # atno 17370 bound_to 10713
  157.2539  130.6627  149.5944 LP  0  0  0  0  0  0  0  0  0  0  0  0  # atno 17371 bound_to 10713
  141.1002  133.9780  157.3092 LP  0  0  0  0  0  0  0  0  0  0  0  0  # atno 17394 bound_to 11000
  139.9321  135.0199  156.8436 LP  0  0  0  0  0  0  0  0  0  0  0  0  # atno 17395 bound_to 11000

$$$$
