AV-unprocessed.smi:926|AV-procd|sdf|4184|dock2
  -GOLD-   22720 2 93D 1   1.00000     0.00000
 Structure written by MMmdl.
 37 39  0  0  0  0  0  0  0  0  1 V2000
  148.7827  140.3088  154.1299 O   0  0  0  0  0  0  0  0  0  0  0  0
  149.7615  139.7595  154.6352 C   0  0  0  0  0  0  0  0  0  0  0  0
  150.3577  138.5126  153.9834 C   0  0  0  0  0  0  0  0  0  0  0  0
  151.5434  138.0776  154.6963 N   0  0  0  0  0  0  0  0  0  0  0  0
  152.7755  138.5890  154.7429 C   0  0  0  0  0  0  0  0  0  0  0  0
  153.5749  137.8671  155.5133 N   0  0  0  0  0  0  0  0  0  0  0  0
  152.7490  136.8473  155.9567 N   0  0  0  0  0  0  0  0  0  0  0  0
  151.5423  136.9667  155.4750 N   0  0  0  0  0  0  0  0  0  0  0  0
  150.3527  140.1871  155.7617 N   0  0  0  0  0  0  0  0  0  0  0  0
  149.9072  141.3218  156.5606 C   0  0  0  0  0  0  0  0  0  0  0  0
  151.0260  142.3664  156.7190 C   0  0  0  0  0  0  0  0  0  0  0  0
  151.0274  143.0439  158.1030 C   0  0  1  0  0  0  0  0  0  0  0  0
  152.0393  142.4270  159.0972 C   0  0  0  0  0  0  0  0  0  0  0  0
  152.8852  143.6371  159.5331 C   0  0  2  0  0  0  0  0  0  0  0  0
  152.0306  144.5784  160.4019 C   0  0  0  0  0  0  0  0  0  0  0  0
  151.0738  145.2115  159.3741 C   0  0  0  0  0  0  0  0  0  0  0  0
  151.4833  144.5209  158.0589 C   0  0  1  0  0  0  0  0  0  0  0  0
  152.9961  144.4190  158.2310 C   0  0  0  0  0  0  0  0  0  0  0  0
  149.6282  137.7018  153.9907 H   0  0  0  0  0  0  0  0  0  0  0  0
  150.6097  138.7122  152.9407 H   0  0  0  0  0  0  0  0  0  0  0  0
  153.0840  139.4790  154.2138 H   0  0  0  0  0  0  0  0  0  0  0  0
  151.1514  139.6729  156.1048 H   0  0  0  0  0  0  0  0  0  0  0  0
  149.0479  141.7701  156.0612 H   0  0  0  0  0  0  0  0  0  0  0  0
  149.5542  140.9767  157.5335 H   0  0  0  0  0  0  0  0  0  0  0  0
  151.9956  141.9042  156.5300 H   0  0  0  0  0  0  0  0  0  0  0  0
  150.9020  143.1306  155.9505 H   0  0  0  0  0  0  0  0  0  0  0  0
  150.0167  142.9878  158.5102 H   0  0  0  0  0  0  0  0  0  0  0  0
  151.5477  141.9399  159.9399 H   0  0  0  0  0  0  0  0  0  0  0  0
  152.6737  141.6840  158.6115 H   0  0  0  0  0  0  0  0  0  0  0  0
  153.8369  143.3632  159.9893 H   0  0  0  0  0  0  0  0  0  0  0  0
  151.5004  144.0438  161.1910 H   0  0  0  0  0  0  0  0  0  0  0  0
  152.6489  145.3440  160.8723 H   0  0  0  0  0  0  0  0  0  0  0  0
  150.0246  145.0497  159.6240 H   0  0  0  0  0  0  0  0  0  0  0  0
  151.2382  146.2881  159.3119 H   0  0  0  0  0  0  0  0  0  0  0  0
  151.1556  145.0605  157.1697 H   0  0  0  0  0  0  0  0  0  0  0  0
  153.4845  145.3879  158.3490 H   0  0  0  0  0  0  0  0  0  0  0  0
  153.4930  143.8653  157.4330 H   0  0  0  0  0  0  0  0  0  0  0  0
  1  2  2  0  0  0  0
  2  3  1  0  0  0  0
  2  9  1  0  0  0  0
  3  4  1  0  0  0  0
  3 19  1  0  0  0  0
  3 20  1  0  0  0  0
  4  8  1  0  0  0  0
  4  5  1  0  0  0  0
  5  6  2  0  0  0  0
  5 21  1  0  0  0  0
  6  7  1  0  0  0  0
  7  8  2  0  0  0  0
  9 10  1  0  0  0  0
  9 22  1  0  0  0  0
 10 11  1  0  0  0  0
 10 23  1  0  0  0  0
 10 24  1  0  0  0  0
 11 12  1  0  0  0  0
 11 25  1  0  0  0  0
 11 26  1  0  0  0  0
 12 17  1  0  0  0  0
 12 13  1  0  0  0  0
 12 27  1  0  0  0  0
 13 14  1  0  0  0  0
 13 28  1  0  0  0  0
 13 29  1  0  0  0  0
 14 18  1  0  0  0  0
 14 15  1  0  0  0  0
 14 30  1  0  0  0  0
 15 16  1  0  0  0  0
 15 31  1  0  0  0  0
 15 32  1  0  0  0  0
 16 17  1  0  0  0  0
 16 33  1  0  0  0  0
 16 34  1  0  0  0  0
 17 18  1  0  0  0  0
 17 35  1  0  0  0  0
 18 36  1  0  0  0  0
 18 37  1  0  0  0  0
M  END
> <s_m_source_file>
AV-unprocessed.smi

> <i_m_source_file_index>
926

> <i_lp_mmshare_version>
43012

> <i_f3d_flags>
0

> <s_epik_input>
bjFubltjSF1uMVtDSDJdQyg9TylbTkhdW0NIMl1bQ0gyXVtDQEhdKFtDSDJdW0NASF0yMylbQ0BIXShbQ0gyXTMpW0NIMl1bQ0gyXTI=

> <s_epik_cmdline>
J2VwaWtfcHl0aG9uJywgJy1waCcsICc3LjAnLCAnLXRuJywgJzgnLCAnLW1hJywgJzIwMCcsICctbWV0YWxfYmluZGluZycsICctaW1hZScsICc8aW5maWxlLm1hZT4nLCAnLW9tYWUnLCAnPG91dGZpbGUubWFlPic=

> <r_lp_tautomer_probability>
1

> <r_epik_Ionization_Penalty>
4.22645e-07

> <r_epik_Ionization_Penalty_Charging>
0

> <r_epik_Ionization_Penalty_Neutral>
4.22645e-07

> <r_epik_State_Penalty>
-0

> <r_epik_Charging_Adjusted_Penalty>
0

> <i_epik_Tot_Q>
0

> <i_epik_Tot_abs_Q>
0

> <r_epik_Metal_State_Penalty>
-0

> <b_epik_Metal_Only>
0

> <s_lp_Force_Field>
OPLS_2005

> <r_lp_Energy>
50.6471

> <b_lp_Chiralities_Consistent>
1

> <s_lp_Variant>
AV-unprocessed.smi:926-2

> <Gold.Version>
5.8.1

> <Gold.Id.Protein>
6NUR|6NUR_protein|mol2

> <Gold.PLP.Fitness>
46.6884

> <Gold.PLP.PLP>
-46.7100

> <Gold.PLP.part.hbond>
-3.8261

> <Gold.PLP.part.metal>
0.0000

> <Gold.PLP.part.buried>
-7.2471

> <Gold.PLP.part.nonpolar>
-37.3209

> <Gold.PLP.part.repulsive>
0.3112

> <Gold.PLP.ligand.clash>
0.0000

> <Gold.PLP.ligand.torsion>
0.8965

> <Gold.PLP.Chemscore.Hbond>
0.5809

> <Gold.PLP.Chemscore.CHOScore>
0.0000

> <Gold.PLP.Chemscore.Metal>
0.0000

> <Gold.Chemscore.Hbonds>
donor molecule, donor type, donor heavy atom, donor atom, acceptor molecule, acceptor atom, score
      P1  H 10752 10765       L1     7  0.62

> <Gold.PLP.Chemscore.Internal.Correction>
0.0289

> <Gold.Rescore>
     Score         DG    S(hbond)    S(metal)    S(lipo)     H(rot)  DE(clash)    DE(int)     intcor
     11.00     -12.78       0.30        0.00     109.59       2.54       0.06       1.72       ----

> <Gold.Chemscore.Fitness>
11.0046

> <Gold.Chemscore.DG>
-12.7808

> <Gold.Chemscore.ZeroCoef>
-5.4800

> <Gold.Chemscore.Hbond>
0.2967

> <Gold.Chemscore.Metal>
0.0000

> <Gold.Chemscore.Lipo>
109.5870

> <Gold.Chemscore.Internal_Hbond>
0.0000

> <Gold.Chemscore.DEClash>
0.0553

> <Gold.Chemscore.DEInternal>
1.7209

> <Gold.Chemscore.Rot>
2.5436

> <Gold.Chemscore.Internal.Correction>
   9.000000E+99

> <Gold.Chemscore.Hbonds>
donor molecule, donor type, donor heavy atom, donor atom, acceptor molecule, acceptor atom, score
      P1  H 10752 10765       L1     7  0.18

> <Gold.Chemscore.Hbond.Weighted>
-0.9909

> <Gold.Chemscore.Metal.Weighted>
-0.0000

> <Gold.Chemscore.Lipo.Weighted>
-12.8217

> <Gold.Chemscore.Internal_Hbond.Weighted>
0.0000

> <Gold.Chemscore.DEClash.Weighted>
0.0553

> <Gold.Chemscore.DEInternal.Weighted>
1.7209

> <Gold.Chemscore.Rot.Weighted>
6.5117

> <Gold.Chemscore.Internal.Correction.Weighted>
   9.000000E+99

> <Gold.Protein.RotatedTorsions>
[ 6907 6896 6895 6894 ] final  -46.48 input  -60.11 | X-H torsion
[ 7974 7965 7964 7962 ] final  114.32 input  175.53 | X-H torsion
[ 8008 7997 7996 7995 ] final  -50.36 input   59.86 | X-H torsion
[ 10167 10162 10161 10158 ] final  152.12 input  -65.29 | X-H torsion
[ 10718 10713 10712 10709 ] final -140.09 input   66.30 | X-H torsion
[ 10763 10752 10751 10750 ] final -122.48 input  -60.55 | X-H torsion
[ 11005 11000 10999 10996 ] final   64.01 input  -57.11 | X-H torsion

> <Gold.Protein.ActiveResidues>
 VAL166  LYS551  ARG553  GLY616  TRP617  ASP618  TYR619  PRO620  LYS621  CYS622 
 ASP623  PHE694  ASN695  SER759  ASP760  ASP761  ALA762  ILE779  LEU786  VAL792 
 PHE793  MET794  SER795  GLU796  ALA797  LYS798  CYS799  TRP800  GLU811  SER814 

> <Gold.Protein.RotatedAtoms>
  150.9108  134.8524  159.7423 H   0  0  0  0  0  0  0  0  0  0  0  0  # atno 6907 bound_to 6896
  152.4943  134.4363  159.9538 H   0  0  0  0  0  0  0  0  0  0  0  0  # atno 6908 bound_to 6896
  151.4405  133.3605  159.2816 H   0  0  0  0  0  0  0  0  0  0  0  0  # atno 6909 bound_to 6896
  145.2059  139.2929  143.4294 H   0  0  0  0  0  0  0  0  0  0  0  0  # atno 7974 bound_to 7965
  154.4060  140.1274  156.4653 H   0  0  0  0  0  0  0  0  0  0  0  0  # atno 8008 bound_to 7997
  155.7232  140.3492  155.5006 H   0  0  0  0  0  0  0  0  0  0  0  0  # atno 8009 bound_to 7997
  155.9195  140.1050  157.1208 H   0  0  0  0  0  0  0  0  0  0  0  0  # atno 8010 bound_to 7997
  139.4835  144.5384  151.7606 H   0  0  0  0  0  0  0  0  0  0  0  0  # atno 10167 bound_to 10162
  156.3183  130.7520  151.1612 H   0  0  0  0  0  0  0  0  0  0  0  0  # atno 10718 bound_to 10713
  154.8690  135.4131  154.2789 H   0  0  0  0  0  0  0  0  0  0  0  0  # atno 10763 bound_to 10752
  153.3685  135.7006  153.6661 H   0  0  0  0  0  0  0  0  0  0  0  0  # atno 10764 bound_to 10752
  153.5533  135.3624  155.2740 H   0  0  0  0  0  0  0  0  0  0  0  0  # atno 10765 bound_to 10752
  139.9987  134.6477  155.9967 H   0  0  0  0  0  0  0  0  0  0  0  0  # atno 11005 bound_to 11000
  146.3408  140.2319  142.8593 LP  0  0  0  0  0  0  0  0  0  0  0  0  # atno 17320 bound_to 7965
  144.9903  140.8540  143.5343 LP  0  0  0  0  0  0  0  0  0  0  0  0  # atno 17321 bound_to 7965
  140.4920  144.1296  150.5952 LP  0  0  0  0  0  0  0  0  0  0  0  0  # atno 17342 bound_to 10162
  140.4160  143.2634  151.9774 LP  0  0  0  0  0  0  0  0  0  0  0  0  # atno 17343 bound_to 10162
  157.7406  131.0514  150.5153 LP  0  0  0  0  0  0  0  0  0  0  0  0  # atno 17370 bound_to 10713
  156.5301  130.4183  149.6206 LP  0  0  0  0  0  0  0  0  0  0  0  0  # atno 17371 bound_to 10713
  141.1624  133.6538  156.4365 LP  0  0  0  0  0  0  0  0  0  0  0  0  # atno 17394 bound_to 11000
  140.4770  134.6700  157.5154 LP  0  0  0  0  0  0  0  0  0  0  0  0  # atno 17395 bound_to 11000

$$$$
