AV-unprocessed.smi:1701|AV-procd|sdf|6825|dock4
  -GOLD-   22720 8 03D 1   1.00000     0.00000
 Structure written by MMmdl.
 55 57  0  0  0  0  0  0  0  0  3 V2000
  152.8355  144.9848  157.8959 C   0  0  0  0  0  0  0  0  0  0  0  0
  151.4744  144.2788  157.9509 C   0  0  0  0  0  0  0  0  0  0  0  0
  151.5924  142.8874  158.3794 N   0  0  0  0  0  0  0  0  0  0  0  0
  152.4445  142.5687  159.5242 C   0  0  0  0  0  0  0  0  0  0  0  0
  152.1848  143.4984  160.7166 C   0  0  0  0  0  0  0  0  0  0  0  0
  150.8611  141.8689  157.7247 C   0  0  0  0  0  0  0  0  0  0  0  0
  150.9885  140.4929  158.0384 C   0  0  0  0  0  0  0  0  0  0  0  0
  150.2239  139.5380  157.3381 C   0  0  0  0  0  0  0  0  0  0  0  0
  149.3272  139.9556  156.3333 C   0  0  0  0  0  0  0  0  0  0  0  0
  148.5861  138.9543  155.6505 N   0  0  0  0  0  0  0  0  0  0  0  0
  148.5618  137.6252  155.8722 C   0  0  0  0  0  0  0  0  0  0  0  0
  149.1943  137.0513  156.7552 O   0  0  0  0  0  0  0  0  0  0  0  0
  147.8006  136.9339  155.0039 N   0  0  0  0  0  0  0  0  0  0  0  0
  147.5522  135.4897  154.9531 C   0  0  2  0  0  0  0  0  0  0  0  0
  148.8433  134.6710  154.7598 C   0  0  0  0  0  0  0  0  0  0  0  0
  148.4516  133.5508  153.7913 C   0  0  0  0  0  0  0  0  0  0  0  0
  147.4546  134.1975  152.9309 N   0  3  1  0  0  0  0  0  0  0  0  0
  146.6591  133.3561  152.0140 C   0  0  0  0  0  0  0  0  0  0  0  0
  145.8354  134.2829  151.0941 C   0  0  0  0  0  0  0  0  0  0  0  0
  145.0121  135.3202  151.8918 C   0  0  0  0  0  0  0  0  0  0  0  0
  145.8787  136.0716  152.9255 C   0  0  0  0  0  0  0  0  0  0  0  0
  146.6182  135.0429  153.8006 C   0  0  2  0  0  0  0  0  0  0  0  0
  149.2415  141.3384  156.0474 C   0  0  0  0  0  0  0  0  0  0  0  0
  149.9938  142.2178  156.7428 N   0  3  0  0  0  0  0  0  0  0  0  0
  152.7189  146.0239  157.5879 H   0  0  0  0  0  0  0  0  0  0  0  0
  153.5076  144.5024  157.1861 H   0  0  0  0  0  0  0  0  0  0  0  0
  153.3221  144.9820  158.8717 H   0  0  0  0  0  0  0  0  0  0  0  0
  150.8320  144.8049  158.6575 H   0  0  0  0  0  0  0  0  0  0  0  0
  150.9635  144.3474  156.9908 H   0  0  0  0  0  0  0  0  0  0  0  0
  152.3227  141.5263  159.8199 H   0  0  0  0  0  0  0  0  0  0  0  0
  153.4865  142.6653  159.2177 H   0  0  0  0  0  0  0  0  0  0  0  0
  152.8403  143.2480  161.5507 H   0  0  0  0  0  0  0  0  0  0  0  0
  151.1559  143.4166  161.0682 H   0  0  0  0  0  0  0  0  0  0  0  0
  152.3671  144.5407  160.4537 H   0  0  0  0  0  0  0  0  0  0  0  0
  151.6563  140.1485  158.8131 H   0  0  0  0  0  0  0  0  0  0  0  0
  150.3239  138.4900  157.5810 H   0  0  0  0  0  0  0  0  0  0  0  0
  148.0636  139.2756  154.8490 H   0  0  0  0  0  0  0  0  0  0  0  0
  147.3805  137.4731  154.2599 H   0  0  0  0  0  0  0  0  0  0  0  0
  147.1104  135.1691  155.8985 H   0  0  0  0  0  0  0  0  0  0  0  0
  149.6172  135.2875  154.2995 H   0  0  0  0  0  0  0  0  0  0  0  0
  149.2445  134.2883  155.6990 H   0  0  0  0  0  0  0  0  0  0  0  0
  149.2995  133.1708  153.2208 H   0  0  0  0  0  0  0  0  0  0  0  0
  147.9929  132.7196  154.3291 H   0  0  0  0  0  0  0  0  0  0  0  0
  147.3233  132.7284  151.4190 H   0  0  0  0  0  0  0  0  0  0  0  0
  146.0073  132.6915  152.5832 H   0  0  0  0  0  0  0  0  0  0  0  0
  146.5126  134.8108  150.4211 H   0  0  0  0  0  0  0  0  0  0  0  0
  145.1757  133.6898  150.4600 H   0  0  0  0  0  0  0  0  0  0  0  0
  144.5434  136.0304  151.2099 H   0  0  0  0  0  0  0  0  0  0  0  0
  144.1982  134.8098  152.4084 H   0  0  0  0  0  0  0  0  0  0  0  0
  146.5921  136.7206  152.4156 H   0  0  0  0  0  0  0  0  0  0  0  0
  145.2417  136.7135  153.5337 H   0  0  0  0  0  0  0  0  0  0  0  0
  145.8655  134.3964  154.2576 H   0  0  0  0  0  0  0  0  0  0  0  0
  148.6153  141.7817  155.2882 H   0  0  0  0  0  0  0  0  0  0  0  0
  147.9796  134.8347  152.3487 H   0  0  0  0  0  0  0  0  0  0  0  0
  149.9056  143.2073  156.5106 H   0  0  0  0  0  0  0  0  0  0  0  0
  1  2  1  0  0  0  0
  1 25  1  0  0  0  0
  1 26  1  0  0  0  0
  1 27  1  0  0  0  0
  2  3  1  0  0  0  0
  2 28  1  0  0  0  0
  2 29  1  0  0  0  0
  3  4  1  0  0  0  0
  3  6  1  0  0  0  0
  4  5  1  0  0  0  0
  4 30  1  0  0  0  0
  4 31  1  0  0  0  0
  5 32  1  0  0  0  0
  5 33  1  0  0  0  0
  5 34  1  0  0  0  0
  6 24  1  0  0  0  0
  6  7  2  0  0  0  0
  7  8  1  0  0  0  0
  7 35  1  0  0  0  0
  8  9  2  0  0  0  0
  8 36  1  0  0  0  0
  9 10  1  0  0  0  0
  9 23  1  0  0  0  0
 10 11  1  0  0  0  0
 10 37  1  0  0  0  0
 11 12  2  0  0  0  0
 11 13  1  0  0  0  0
 13 14  1  0  0  0  0
 13 38  1  0  0  0  0
 14 22  1  0  0  0  0
 14 15  1  0  0  0  0
 14 39  1  0  0  0  0
 15 16  1  0  0  0  0
 15 40  1  0  0  0  0
 15 41  1  0  0  0  0
 16 17  1  0  0  0  0
 16 42  1  0  0  0  0
 16 43  1  0  0  0  0
 17 22  1  0  0  0  0
 17 18  1  0  0  0  0
 17 54  1  0  0  0  0
 18 19  1  0  0  0  0
 18 44  1  0  0  0  0
 18 45  1  0  0  0  0
 19 20  1  0  0  0  0
 19 46  1  0  0  0  0
 19 47  1  0  0  0  0
 20 21  1  0  0  0  0
 20 48  1  0  0  0  0
 20 49  1  0  0  0  0
 21 22  1  0  0  0  0
 21 50  1  0  0  0  0
 21 51  1  0  0  0  0
 22 52  1  0  0  0  0
 23 24  2  0  0  0  0
 23 53  1  0  0  0  0
 24 55  1  0  0  0  0
M  CHG  1  17   1
M  CHG  1  24   1
M  END
> <s_m_source_file>
AV-unprocessed.smi

> <i_m_source_file_index>
1701

> <i_lp_mmshare_version>
43012

> <i_f3d_flags>
0

> <s_epik_input>
W0NIM11bQ0gyXU4oW0NIMl1bQ0gzXSljMVtjSF1bY0hdYyhbY0hdbjEpW05IXUMoPU8pW05IXVtDQEhdKFtDSDJdW0NIMl0yKVtDQEBIXShOMjMpW0NIMl1bQ0gyXVtDSDJdW0NIMl0z

> <s_epik_cmdline>
J2VwaWtfcHl0aG9uJywgJy1waCcsICc3LjAnLCAnLXRuJywgJzgnLCAnLW1hJywgJzIwMCcsICctbWV0YWxfYmluZGluZycsICctaW1hZScsICc8aW5maWxlLm1hZT4nLCAnLW9tYWUnLCAnPG91dGZpbGUubWFlPic=

> <r_lp_tautomer_probability>
0.999994

> <r_epik_Ionization_Penalty>
0.302862

> <r_epik_Ionization_Penalty_Charging>
0.302842

> <r_epik_Ionization_Penalty_Neutral>
1.95166e-05

> <r_epik_State_Penalty>
0.019791

> <r_epik_Charging_Adjusted_Penalty>
0.322633

> <i_epik_Tot_Q>
2

> <i_epik_Tot_abs_Q>
2

> <r_epik_Metal_State_Penalty>
0.0536763

> <b_epik_Metal_Only>
0

> <s_lp_Force_Field>
OPLS_2005

> <r_lp_Energy>
67.2191

> <b_lp_Chiralities_Consistent>
1

> <s_lp_Variant>
AV-unprocessed.smi:1701-5

> <Gold.Version>
5.8.1

> <Gold.Id.Protein>
6NUR|6NUR_protein|mol2

> <Gold.PLP.Fitness>
49.5314

> <Gold.PLP.PLP>
-38.0948

> <Gold.PLP.part.hbond>
-2.0000

> <Gold.PLP.part.metal>
0.0000

> <Gold.PLP.part.buried>
-3.5989

> <Gold.PLP.part.nonpolar>
-31.9954

> <Gold.PLP.part.repulsive>
0.0347

> <Gold.PLP.ligand.clash>
0.0000

> <Gold.PLP.ligand.torsion>
0.3345

> <Gold.PLP.Chemscore.Hbond>
4.0000

> <Gold.PLP.Chemscore.CHOScore>
0.0000

> <Gold.PLP.Chemscore.Metal>
0.0000

> <Gold.Chemscore.Hbonds>
donor molecule, donor type, donor heavy atom, donor atom, acceptor molecule, acceptor atom, score
      L1  H    17    54       P1  7948  2.00
      L1  H    24    55       P1  8028  2.00

> <Gold.PLP.Chemscore.Internal.Correction>
0.1056

> <Gold.Rescore>
     Score         DG    S(hbond)    S(metal)    S(lipo)     H(rot)  DE(clash)    DE(int)     intcor
     17.80     -19.75       1.83        0.00      98.10       1.30       0.09       1.87       ----

> <Gold.Chemscore.Fitness>
17.7961

> <Gold.Chemscore.DG>
-19.7502

> <Gold.Chemscore.ZeroCoef>
-5.4800

> <Gold.Chemscore.Hbond>
1.8341

> <Gold.Chemscore.Metal>
0.0000

> <Gold.Chemscore.Lipo>
98.0983

> <Gold.Chemscore.Internal_Hbond>
0.0000

> <Gold.Chemscore.DEClash>
0.0862

> <Gold.Chemscore.DEInternal>
1.8680

> <Gold.Chemscore.Rot>
1.3020

> <Gold.Chemscore.Internal.Correction>
   9.000000E+99

> <Gold.Chemscore.Hbonds>
donor molecule, donor type, donor heavy atom, donor atom, acceptor molecule, acceptor atom, score
      L1  H    17    54       P1  7948  0.65
      L1  H    24    55       P1  8028  0.91

> <Gold.Chemscore.Hbond.Weighted>
-6.1258

> <Gold.Chemscore.Metal.Weighted>
-0.0000

> <Gold.Chemscore.Lipo.Weighted>
-11.4775

> <Gold.Chemscore.Internal_Hbond.Weighted>
0.0000

> <Gold.Chemscore.DEClash.Weighted>
0.0862

> <Gold.Chemscore.DEInternal.Weighted>
1.8680

> <Gold.Chemscore.Rot.Weighted>
3.3330

> <Gold.Chemscore.Internal.Correction.Weighted>
   9.000000E+99

> <Gold.Protein.RotatedTorsions>
[ 6907 6896 6895 6894 ] final -116.09 input  -60.11 | X-H torsion
[ 7974 7965 7964 7962 ] final   89.02 input  175.53 | X-H torsion
[ 8008 7997 7996 7995 ] final  -60.05 input   59.86 | X-H torsion
[ 10167 10162 10161 10158 ] final   43.17 input  -65.29 | X-H torsion
[ 10718 10713 10712 10709 ] final   98.43 input   66.30 | X-H torsion
[ 10763 10752 10751 10750 ] final  120.63 input  -60.55 | X-H torsion
[ 11005 11000 10999 10996 ] final  176.71 input  -57.11 | X-H torsion

> <Gold.Protein.ActiveResidues>
 VAL166  LYS551  ARG553  GLY616  TRP617  ASP618  TYR619  PRO620  LYS621  CYS622 
 ASP623  PHE694  ASN695  SER759  ASP760  ASP761  ALA762  ILE779  LEU786  VAL792 
 PHE793  MET794  SER795  GLU796  ALA797  LYS798  CYS799  TRP800  GLU811  SER814 

> <Gold.Protein.RotatedAtoms>
  150.8028  133.8566  159.3219 H   0  0  0  0  0  0  0  0  0  0  0  0  # atno 6907 bound_to 6896
  151.6373  135.1015  160.0143 H   0  0  0  0  0  0  0  0  0  0  0  0  # atno 6908 bound_to 6896
  152.4117  133.6934  159.6438 H   0  0  0  0  0  0  0  0  0  0  0  0  # atno 6909 bound_to 6896
  145.5378  139.2287  143.2582 H   0  0  0  0  0  0  0  0  0  0  0  0  # atno 7974 bound_to 7965
  154.4381  140.1048  156.6213 H   0  0  0  0  0  0  0  0  0  0  0  0  # atno 8008 bound_to 7997
  155.5704  140.3489  155.4495 H   0  0  0  0  0  0  0  0  0  0  0  0  # atno 8009 bound_to 7997
  156.0393  140.1278  157.0162 H   0  0  0  0  0  0  0  0  0  0  0  0  # atno 8010 bound_to 7997
  140.3471  144.2397  150.6149 H   0  0  0  0  0  0  0  0  0  0  0  0  # atno 10167 bound_to 10162
  157.6896  131.0639  150.4794 H   0  0  0  0  0  0  0  0  0  0  0  0  # atno 10718 bound_to 10713
  153.6015  135.3447  155.2947 H   0  0  0  0  0  0  0  0  0  0  0  0  # atno 10763 bound_to 10752
  154.8635  135.4228  154.2407 H   0  0  0  0  0  0  0  0  0  0  0  0  # atno 10764 bound_to 10752
  153.3237  135.7040  153.7079 H   0  0  0  0  0  0  0  0  0  0  0  0  # atno 10765 bound_to 10752
  140.3761  134.6987  157.4422 H   0  0  0  0  0  0  0  0  0  0  0  0  # atno 11005 bound_to 11000
  146.2001  140.6197  142.9106 LP  0  0  0  0  0  0  0  0  0  0  0  0  # atno 17320 bound_to 7965
  144.7592  140.5382  143.6747 LP  0  0  0  0  0  0  0  0  0  0  0  0  # atno 17321 bound_to 7965
  140.5254  143.2255  151.8322 LP  0  0  0  0  0  0  0  0  0  0  0  0  # atno 17342 bound_to 10162
  139.4832  144.4785  151.9336 LP  0  0  0  0  0  0  0  0  0  0  0  0  # atno 17343 bound_to 10162
  156.5127  130.4143  149.6292 LP  0  0  0  0  0  0  0  0  0  0  0  0  # atno 17370 bound_to 10713
  156.3226  130.7288  151.2203 LP  0  0  0  0  0  0  0  0  0  0  0  0  # atno 17371 bound_to 10713
  140.0514  134.6125  155.8857 LP  0  0  0  0  0  0  0  0  0  0  0  0  # atno 17394 bound_to 11000
  141.1939  133.6580  156.5568 LP  0  0  0  0  0  0  0  0  0  0  0  0  # atno 17395 bound_to 11000

$$$$
