AV-unprocessed.smi:893|AV-procd|sdf|4068|dock1
  -GOLD-   22720 1553D 1   1.00000     0.00000
 Structure written by MMmdl.
 26 27  0  0  0  0  0  0  0  0  2 V2000
  149.9217  141.2750  155.3519 C   0  0  0  0  0  0  0  0  0  0  0  0
  149.6251  140.3855  156.5699 C   0  0  0  0  0  0  0  0  0  0  0  0
  150.8468  140.1403  157.4894 C   0  0  1  0  0  0  0  0  0  0  0  0
  151.4325  141.4317  158.0340 C   0  0  0  0  0  0  0  0  0  0  0  0
  152.5120  141.6002  158.9514 C   0  0  0  0  0  0  0  0  0  0  0  0
  152.7720  142.8689  159.2222 N   0  0  0  0  0  0  0  0  0  0  0  0
  151.8752  143.5570  158.4884 N   0  0  0  0  0  0  0  0  0  0  0  0
  151.8742  145.0034  158.5358 C   0  0  0  0  0  0  0  0  0  0  0  0
  151.0547  142.7193  157.7657 C   0  0  0  0  0  0  0  0  0  0  0  0
  150.5126  139.2012  158.5418 N   0  0  0  0  0  0  0  0  0  0  0  0
  151.2619  138.1024  158.4736 C   0  0  0  0  0  0  0  0  0  0  0  0
  151.1411  137.1870  159.2844 O   0  0  0  0  0  0  0  0  0  0  0  0
  152.1072  138.1811  157.4274 N   0  5  0  0  0  0  0  0  0  0  0  0
  151.9417  139.3464  156.7639 C   0  0  0  0  0  0  0  0  0  0  0  0
  152.5087  139.7715  155.7574 O   0  0  0  0  0  0  0  0  0  0  0  0
  149.0265  141.4045  154.7436 H   0  0  0  0  0  0  0  0  0  0  0  0
  150.6912  140.8380  154.7153 H   0  0  0  0  0  0  0  0  0  0  0  0
  150.2596  142.2661  155.6549 H   0  0  0  0  0  0  0  0  0  0  0  0
  148.8175  140.8430  157.1440 H   0  0  0  0  0  0  0  0  0  0  0  0
  149.2333  139.4300  156.2179 H   0  0  0  0  0  0  0  0  0  0  0  0
  153.1125  140.8392  159.4278 H   0  0  0  0  0  0  0  0  0  0  0  0
  151.1024  145.3987  157.8749 H   0  0  0  0  0  0  0  0  0  0  0  0
  152.8444  145.3836  158.2146 H   0  0  0  0  0  0  0  0  0  0  0  0
  151.6762  145.3391  159.5541 H   0  0  0  0  0  0  0  0  0  0  0  0
  150.2771  143.1015  157.1207 H   0  0  0  0  0  0  0  0  0  0  0  0
  149.8034  139.3749  159.2386 H   0  0  0  0  0  0  0  0  0  0  0  0
  1  2  1  0  0  0  0
  1 16  1  0  0  0  0
  1 17  1  0  0  0  0
  1 18  1  0  0  0  0
  2  3  1  0  0  0  0
  2 19  1  0  0  0  0
  2 20  1  0  0  0  0
  3 14  1  0  0  0  0
  3  4  1  0  0  0  0
  3 10  1  0  0  0  0
  4  9  2  0  0  0  0
  4  5  1  0  0  0  0
  5  6  2  0  0  0  0
  5 21  1  0  0  0  0
  6  7  1  0  0  0  0
  7  8  1  0  0  0  0
  7  9  1  0  0  0  0
  8 22  1  0  0  0  0
  8 23  1  0  0  0  0
  8 24  1  0  0  0  0
  9 25  1  0  0  0  0
 10 11  1  0  0  0  0
 10 26  1  0  0  0  0
 11 12  2  0  0  0  0
 11 13  1  0  0  0  0
 13 14  1  0  0  0  0
 14 15  2  0  0  0  0
M  CHG  1  13  -1
M  END
> <s_m_source_file>
AV-unprocessed.smi

> <i_m_source_file_index>
893

> <i_lp_mmshare_version>
43012

> <i_f3d_flags>
0

> <s_epik_input>
Tz1DMVtOSF1DKD1PKVtOSF1bQ0BAXTEoW0NIMl1bQ0gzXSljMltjSF1ubihbQ0gzXSlbY0hdMg==

> <s_epik_cmdline>
J2VwaWtfcHl0aG9uJywgJy1waCcsICc3LjAnLCAnLXRuJywgJzgnLCAnLW1hJywgJzIwMCcsICctbWV0YWxfYmluZGluZycsICctaW1hZScsICc8aW5maWxlLm1hZT4nLCAnLW9tYWUnLCAnPG91dGZpbGUubWFlPic=

> <r_lp_tautomer_probability>
1

> <r_epik_Ionization_Penalty>
1.92579

> <r_epik_Ionization_Penalty_Charging>
1.92573

> <r_epik_Ionization_Penalty_Neutral>
5.85665e-05

> <r_epik_State_Penalty>
2.04887

> <r_epik_Charging_Adjusted_Penalty>
3.97461

> <i_epik_Tot_Q>
-1

> <i_epik_Tot_abs_Q>
1

> <r_epik_Metal_State_Penalty>
0.530533

> <b_epik_Metal_Only>
0

> <s_lp_Force_Field>
OPLS_2005

> <r_lp_Energy>
5.94643

> <b_lp_Chiralities_Consistent>
1

> <s_lp_Variant>
AV-unprocessed.smi:893-3

> <Gold.Version>
5.8.1

> <Gold.Id.Protein>
6NUR|6NUR_protein|mol2

> <Gold.PLP.Fitness>
33.5888

> <Gold.PLP.PLP>
-25.8519

> <Gold.PLP.part.hbond>
-1.6764

> <Gold.PLP.part.metal>
0.0000

> <Gold.PLP.part.buried>
-4.7945

> <Gold.PLP.part.nonpolar>
-19.6913

> <Gold.PLP.part.repulsive>
0.1717

> <Gold.PLP.ligand.clash>
0.0000

> <Gold.PLP.ligand.torsion>
0.0972

> <Gold.PLP.Chemscore.Hbond>
1.7150

> <Gold.PLP.Chemscore.CHOScore>
0.8870

> <Gold.PLP.Chemscore.Metal>
0.0000

> <Gold.Chemscore.Hbonds>
donor molecule, donor type, donor heavy atom, donor atom, acceptor molecule, acceptor atom, score
      P1  H  6896  6907       L1    12  0.73
      P1  H  7997  8010       L1    15  1.00
      L1  C     9    25       P1  8028  0.88

> <Gold.PLP.Chemscore.Internal.Correction>
0.1252

> <Gold.Rescore>
     Score         DG    S(hbond)    S(metal)    S(lipo)     H(rot)  DE(clash)    DE(int)     intcor
     13.91     -15.17       1.98        0.00      54.36       1.28       0.01       1.25       ----

> <Gold.Chemscore.Fitness>
13.9137

> <Gold.Chemscore.DG>
-15.1674

> <Gold.Chemscore.ZeroCoef>
-5.4800

> <Gold.Chemscore.Hbond>
1.9778

> <Gold.Chemscore.Metal>
0.0000

> <Gold.Chemscore.Lipo>
54.3579

> <Gold.Chemscore.Internal_Hbond>
0.0000

> <Gold.Chemscore.DEClash>
0.0076

> <Gold.Chemscore.DEInternal>
1.2461

> <Gold.Chemscore.Rot>
1.2805

> <Gold.Chemscore.Internal.Correction>
   9.000000E+99

> <Gold.Chemscore.Hbonds>
donor molecule, donor type, donor heavy atom, donor atom, acceptor molecule, acceptor atom, score
      P1  H  6896  6907       L1    12  0.73
      P1  H  7997  8010       L1    15  0.85

> <Gold.Chemscore.Hbond.Weighted>
-6.6057

> <Gold.Chemscore.Metal.Weighted>
-0.0000

> <Gold.Chemscore.Lipo.Weighted>
-6.3599

> <Gold.Chemscore.Internal_Hbond.Weighted>
0.0000

> <Gold.Chemscore.DEClash.Weighted>
0.0076

> <Gold.Chemscore.DEInternal.Weighted>
1.2461

> <Gold.Chemscore.Rot.Weighted>
3.2782

> <Gold.Chemscore.Internal.Correction.Weighted>
   9.000000E+99

> <Gold.Protein.RotatedTorsions>
[ 6907 6896 6895 6894 ] final  -13.35 input  -60.11 | X-H torsion
[ 7974 7965 7964 7962 ] final   26.49 input  175.53 | X-H torsion
[ 8008 7997 7996 7995 ] final   94.11 input   59.86 | X-H torsion
[ 10167 10162 10161 10158 ] final   65.89 input  -65.29 | X-H torsion
[ 10718 10713 10712 10709 ] final -144.87 input   66.30 | X-H torsion
[ 10763 10752 10751 10750 ] final  -55.61 input  -60.55 | X-H torsion
[ 11005 11000 10999 10996 ] final   16.82 input  -57.11 | X-H torsion

> <Gold.Protein.ActiveResidues>
 VAL166  LYS551  ARG553  GLY616  TRP617  ASP618  TYR619  PRO620  LYS621  CYS622 
 ASP623  PHE694  ASN695  SER759  ASP760  ASP761  ALA762  ILE779  LEU786  VAL792 
 PHE793  MET794  SER795  GLU796  ALA797  LYS798  CYS799  TRP800  GLU811  SER814 

> <Gold.Protein.RotatedAtoms>
  151.3562  135.0895  159.9419 H   0  0  0  0  0  0  0  0  0  0  0  0  # atno 6907 bound_to 6896
  152.5174  133.9303  159.7588 H   0  0  0  0  0  0  0  0  0  0  0  0  # atno 6908 bound_to 6896
  150.9688  133.6312  159.2771 H   0  0  0  0  0  0  0  0  0  0  0  0  # atno 6909 bound_to 6896
  146.1834  139.7320  142.8884 H   0  0  0  0  0  0  0  0  0  0  0  0  # atno 7974 bound_to 7965
  156.0543  140.3304  155.7387 H   0  0  0  0  0  0  0  0  0  0  0  0  # atno 8008 bound_to 7997
  155.5553  140.0614  157.2858 H   0  0  0  0  0  0  0  0  0  0  0  0  # atno 8009 bound_to 7997
  154.4450  140.1887  156.0716 H   0  0  0  0  0  0  0  0  0  0  0  0  # atno 8010 bound_to 7997
  140.1063  144.4858  150.7005 H   0  0  0  0  0  0  0  0  0  0  0  0  # atno 10167 bound_to 10162
  156.3754  130.7809  151.1995 H   0  0  0  0  0  0  0  0  0  0  0  0  # atno 10718 bound_to 10713
  154.1936  135.6423  153.5067 H   0  0  0  0  0  0  0  0  0  0  0  0  # atno 10763 bound_to 10752
  153.0029  135.5434  154.6389 H   0  0  0  0  0  0  0  0  0  0  0  0  # atno 10764 bound_to 10752
  154.5784  135.2923  155.0730 H   0  0  0  0  0  0  0  0  0  0  0  0  # atno 10765 bound_to 10752
  140.4428  134.1304  155.7692 H   0  0  0  0  0  0  0  0  0  0  0  0  # atno 11005 bound_to 11000
  145.4009  141.0385  143.3071 LP  0  0  0  0  0  0  0  0  0  0  0  0  # atno 17320 bound_to 7965
  144.8355  139.5558  143.6924 LP  0  0  0  0  0  0  0  0  0  0  0  0  # atno 17321 bound_to 7965
  140.6950  143.2398  151.5026 LP  0  0  0  0  0  0  0  0  0  0  0  0  # atno 17342 bound_to 10162
  139.5643  144.2080  152.1741 LP  0  0  0  0  0  0  0  0  0  0  0  0  # atno 17343 bound_to 10162
  157.7488  131.0360  150.4388 LP  0  0  0  0  0  0  0  0  0  0  0  0  # atno 17370 bound_to 10713
  156.4623  130.4034  149.6569 LP  0  0  0  0  0  0  0  0  0  0  0  0  # atno 17371 bound_to 10713
  141.1698  133.8631  157.1605 LP  0  0  0  0  0  0  0  0  0  0  0  0  # atno 17394 bound_to 11000
  140.0058  135.0009  157.0289 LP  0  0  0  0  0  0  0  0  0  0  0  0  # atno 17395 bound_to 11000

$$$$
