AV-unprocessed.smi:1959|AV-procd|sdf|7915|dock6
  -GOLD-   2272010 83D 1   1.00000     0.00000
 Structure written by MMmdl.
 45 46  0  0  0  0  0  0  0  0  2 V2000
  152.7608  140.6942  158.4705 C   0  0  0  0  0  0  0  0  0  0  0  0
  151.8985  140.4699  157.2636 C   0  0  0  0  0  0  0  0  0  0  0  0
  150.8662  141.3035  156.7493 C   0  0  0  0  0  0  0  0  0  0  0  0
  150.4124  140.6377  155.6455 C   0  0  0  0  0  0  0  0  0  0  0  0
  149.3393  141.0028  154.6727 C   0  0  0  0  0  0  0  0  0  0  0  0
  151.1582  139.4762  155.5440 N   0  0  0  0  0  0  0  0  0  0  0  0
  151.0867  138.4214  154.5430 C   0  0  0  0  0  0  0  0  0  0  0  0
  150.5373  137.1062  155.1083 C   0  0  0  0  0  0  0  0  0  0  0  0
  150.1029  137.0411  156.2592 O   0  0  0  0  0  0  0  0  0  0  0  0
  150.5869  136.0481  154.2832 N   0  0  0  0  0  0  0  0  0  0  0  0
  150.1247  134.6939  154.5933 C   0  0  1  0  0  0  0  0  0  0  0  0
  151.0142  134.1003  155.6938 C   0  0  0  0  0  0  0  0  0  0  0  0
  148.6349  134.6881  155.0083 C   0  0  0  0  0  0  0  0  0  0  0  0
  147.7098  134.5967  153.8502 N   0  3  0  0  0  0  0  0  0  0  0  0
  147.7903  133.3059  153.1252 C   0  0  0  0  0  0  0  0  0  0  0  0
  146.8796  133.3417  151.8873 C   0  0  0  0  0  0  0  0  0  0  0  0
  145.5435  133.6172  152.2912 O   0  0  0  0  0  0  0  0  0  0  0  0
  145.4280  134.8823  152.9321 C   0  0  0  0  0  0  0  0  0  0  0  0
  146.3037  134.9075  154.1970 C   0  0  0  0  0  0  0  0  0  0  0  0
  152.0674  139.3769  156.5379 N   0  0  0  0  0  0  0  0  0  0  0  0
  152.5517  141.6604  158.9303 H   0  0  0  0  0  0  0  0  0  0  0  0
  153.8186  140.6747  158.2070 H   0  0  0  0  0  0  0  0  0  0  0  0
  152.5897  139.9243  159.2233 H   0  0  0  0  0  0  0  0  0  0  0  0
  150.5139  142.2498  157.1325 H   0  0  0  0  0  0  0  0  0  0  0  0
  148.9059  141.9729  154.9172 H   0  0  0  0  0  0  0  0  0  0  0  0
  148.5365  140.2655  154.6850 H   0  0  0  0  0  0  0  0  0  0  0  0
  149.7348  141.0597  153.6583 H   0  0  0  0  0  0  0  0  0  0  0  0
  150.4590  138.7576  153.7158 H   0  0  0  0  0  0  0  0  0  0  0  0
  152.0837  138.2515  154.1358 H   0  0  0  0  0  0  0  0  0  0  0  0
  150.9589  136.1960  153.3557 H   0  0  0  0  0  0  0  0  0  0  0  0
  150.2518  134.0618  153.7132 H   0  0  0  0  0  0  0  0  0  0  0  0
  150.7205  133.0758  155.9244 H   0  0  0  0  0  0  0  0  0  0  0  0
  150.9500  134.6801  156.6154 H   0  0  0  0  0  0  0  0  0  0  0  0
  152.0603  134.0795  155.3855 H   0  0  0  0  0  0  0  0  0  0  0  0
  148.4299  133.8757  155.7072 H   0  0  0  0  0  0  0  0  0  0  0  0
  148.4333  135.6127  155.5518 H   0  0  0  0  0  0  0  0  0  0  0  0
  148.8156  133.1038  152.8166 H   0  0  0  0  0  0  0  0  0  0  0  0
  147.4905  132.4918  153.7869 H   0  0  0  0  0  0  0  0  0  0  0  0
  147.2212  134.0941  151.1739 H   0  0  0  0  0  0  0  0  0  0  0  0
  146.9038  132.3806  151.3737 H   0  0  0  0  0  0  0  0  0  0  0  0
  145.7165  135.6782  152.2433 H   0  0  0  0  0  0  0  0  0  0  0  0
  144.3835  135.0509  153.1944 H   0  0  0  0  0  0  0  0  0  0  0  0
  145.9363  134.1831  154.9257 H   0  0  0  0  0  0  0  0  0  0  0  0
  146.2434  135.8922  154.6623 H   0  0  0  0  0  0  0  0  0  0  0  0
  148.0030  135.3134  153.2012 H   0  0  0  0  0  0  0  0  0  0  0  0
  1  2  1  0  0  0  0
  1 21  1  0  0  0  0
  1 22  1  0  0  0  0
  1 23  1  0  0  0  0
  2 20  2  0  0  0  0
  2  3  1  0  0  0  0
  3  4  2  0  0  0  0
  3 24  1  0  0  0  0
  4  5  1  0  0  0  0
  4  6  1  0  0  0  0
  5 25  1  0  0  0  0
  5 26  1  0  0  0  0
  5 27  1  0  0  0  0
  6  7  1  0  0  0  0
  6 20  1  0  0  0  0
  7  8  1  0  0  0  0
  7 28  1  0  0  0  0
  7 29  1  0  0  0  0
  8  9  2  0  0  0  0
  8 10  1  0  0  0  0
 10 11  1  0  0  0  0
 10 30  1  0  0  0  0
 11 12  1  0  0  0  0
 11 13  1  0  0  0  0
 11 31  1  0  0  0  0
 12 32  1  0  0  0  0
 12 33  1  0  0  0  0
 12 34  1  0  0  0  0
 13 14  1  0  0  0  0
 13 35  1  0  0  0  0
 13 36  1  0  0  0  0
 14 19  1  0  0  0  0
 14 15  1  0  0  0  0
 14 45  1  0  0  0  0
 15 16  1  0  0  0  0
 15 37  1  0  0  0  0
 15 38  1  0  0  0  0
 16 17  1  0  0  0  0
 16 39  1  0  0  0  0
 16 40  1  0  0  0  0
 17 18  1  0  0  0  0
 18 19  1  0  0  0  0
 18 41  1  0  0  0  0
 18 42  1  0  0  0  0
 19 43  1  0  0  0  0
 19 44  1  0  0  0  0
M  CHG  1  14   1
M  END
> <s_m_source_file>
AV-unprocessed.smi

> <i_m_source_file_index>
1959

> <i_lp_mmshare_version>
43012

> <i_f3d_flags>
0

> <s_epik_input>
W0NIM11jMVtjSF1jKFtDSDNdKW4objEpW0NIMl1DKD1PKVtOSF1bQ0BIXShbQ0gzXSlbQ0gyXU4yW0NIMl1bQ0gyXU9bQ0gyXVtDSDJdMg==

> <s_epik_cmdline>
J2VwaWtfcHl0aG9uJywgJy1waCcsICc3LjAnLCAnLXRuJywgJzgnLCAnLW1hJywgJzIwMCcsICctbWV0YWxfYmluZGluZycsICctaW1hZScsICc8aW5maWxlLm1hZT4nLCAnLW9tYWUnLCAnPG91dGZpbGUubWFlPic=

> <r_lp_tautomer_probability>
1

> <r_epik_Ionization_Penalty>
0.748605

> <r_epik_Ionization_Penalty_Charging>
0.748396

> <r_epik_Ionization_Penalty_Neutral>
0.000208859

> <r_epik_State_Penalty>
0.775162

> <r_epik_Charging_Adjusted_Penalty>
1.52356

> <i_epik_Tot_Q>
1

> <i_epik_Tot_abs_Q>
1

> <r_epik_Metal_State_Penalty>
0.775281

> <b_epik_Metal_Only>
0

> <s_lp_Force_Field>
OPLS_2005

> <r_lp_Energy>
20.6749

> <b_lp_Chiralities_Consistent>
1

> <s_lp_Variant>
AV-unprocessed.smi:1959-4

> <Gold.Version>
5.8.1

> <Gold.Id.Protein>
6NUR|6NUR_protein|mol2

> <Gold.PLP.Fitness>
42.0678

> <Gold.PLP.PLP>
-34.0917

> <Gold.PLP.part.hbond>
-3.0000

> <Gold.PLP.part.metal>
0.0000

> <Gold.PLP.part.buried>
-2.9721

> <Gold.PLP.part.nonpolar>
-28.5712

> <Gold.PLP.part.repulsive>
0.2274

> <Gold.PLP.ligand.clash>
0.0000

> <Gold.PLP.ligand.torsion>
0.5315

> <Gold.PLP.Chemscore.Hbond>
2.9920

> <Gold.PLP.Chemscore.CHOScore>
0.0000

> <Gold.PLP.Chemscore.Metal>
0.0000

> <Gold.Chemscore.Hbonds>
donor molecule, donor type, donor heavy atom, donor atom, acceptor molecule, acceptor atom, score
      L1  H    10    30       P1  7949  0.85
      L1  H    14    45       P1  7948  2.00

> <Gold.PLP.Chemscore.Internal.Correction>
0.0631

> <Gold.Rescore>
     Score         DG    S(hbond)    S(metal)    S(lipo)     H(rot)  DE(clash)    DE(int)     intcor
     11.61     -13.78       1.28        0.00      73.35       1.77       0.01       2.16       ----

> <Gold.Chemscore.Fitness>
11.6124

> <Gold.Chemscore.DG>
-13.7803

> <Gold.Chemscore.ZeroCoef>
-5.4800

> <Gold.Chemscore.Hbond>
1.2758

> <Gold.Chemscore.Metal>
0.0000

> <Gold.Chemscore.Lipo>
73.3451

> <Gold.Chemscore.Internal_Hbond>
0.0000

> <Gold.Chemscore.DEClash>
0.0092

> <Gold.Chemscore.DEInternal>
2.1587

> <Gold.Chemscore.Rot>
1.7744

> <Gold.Chemscore.Internal.Correction>
   9.000000E+99

> <Gold.Chemscore.Hbonds>
donor molecule, donor type, donor heavy atom, donor atom, acceptor molecule, acceptor atom, score
      L1  H    10    30       P1  7949  0.15
      L1  H    14    45       P1  7948  0.99

> <Gold.Chemscore.Hbond.Weighted>
-4.2613

> <Gold.Chemscore.Metal.Weighted>
-0.0000

> <Gold.Chemscore.Lipo.Weighted>
-8.5814

> <Gold.Chemscore.Internal_Hbond.Weighted>
0.0000

> <Gold.Chemscore.DEClash.Weighted>
0.0092

> <Gold.Chemscore.DEInternal.Weighted>
2.1587

> <Gold.Chemscore.Rot.Weighted>
4.5424

> <Gold.Chemscore.Internal.Correction.Weighted>
   9.000000E+99

> <Gold.Protein.RotatedTorsions>
[ 6907 6896 6895 6894 ] final  165.35 input  -60.11 | X-H torsion
[ 7974 7965 7964 7962 ] final -155.82 input  175.53 | X-H torsion
[ 8008 7997 7996 7995 ] final  175.84 input   59.86 | X-H torsion
[ 10167 10162 10161 10158 ] final  -21.05 input  -65.29 | X-H torsion
[ 10718 10713 10712 10709 ] final  116.92 input   66.30 | X-H torsion
[ 10763 10752 10751 10750 ] final  -54.84 input  -60.55 | X-H torsion
[ 11005 11000 10999 10996 ] final  148.93 input  -57.11 | X-H torsion

> <Gold.Protein.ActiveResidues>
 VAL166  LYS551  ARG553  GLY616  TRP617  ASP618  TYR619  PRO620  LYS621  CYS622 
 ASP623  PHE694  ASN695  SER759  ASP760  ASP761  ALA762  ILE779  LEU786  VAL792 
 PHE793  MET794  SER795  GLU796  ALA797  LYS798  CYS799  TRP800  GLU811  SER814 

> <Gold.Protein.RotatedAtoms>
  151.8957  133.3526  159.3813 H   0  0  0  0  0  0  0  0  0  0  0  0  # atno 6907 bound_to 6896
  150.7092  134.4879  159.5511 H   0  0  0  0  0  0  0  0  0  0  0  0  # atno 6908 bound_to 6896
  152.2457  134.8184  160.0504 H   0  0  0  0  0  0  0  0  0  0  0  0  # atno 6909 bound_to 6896
  144.7622  140.4195  143.5968 H   0  0  0  0  0  0  0  0  0  0  0  0  # atno 7974 bound_to 7965
  156.0828  140.1398  156.9691 H   0  0  0  0  0  0  0  0  0  0  0  0  # atno 8008 bound_to 7997
  154.4595  140.0948  156.6901 H   0  0  0  0  0  0  0  0  0  0  0  0  # atno 8009 bound_to 7997
  155.5048  140.3452  155.4380 H   0  0  0  0  0  0  0  0  0  0  0  0  # atno 8010 bound_to 7997
  140.7280  143.4664  151.0307 H   0  0  0  0  0  0  0  0  0  0  0  0  # atno 10167 bound_to 10162
  157.6130  131.1031  150.7541 H   0  0  0  0  0  0  0  0  0  0  0  0  # atno 10718 bound_to 10713
  154.1812  135.6443  153.5034 H   0  0  0  0  0  0  0  0  0  0  0  0  # atno 10763 bound_to 10752
  153.0059  135.5406  154.6512 H   0  0  0  0  0  0  0  0  0  0  0  0  # atno 10764 bound_to 10752
  154.5877  135.2931  155.0640 H   0  0  0  0  0  0  0  0  0  0  0  0  # atno 10765 bound_to 10752
  140.1001  134.8988  157.1783 H   0  0  0  0  0  0  0  0  0  0  0  0  # atno 11005 bound_to 11000
  145.6584  139.1577  143.2822 LP  0  0  0  0  0  0  0  0  0  0  0  0  # atno 17320 bound_to 7965
  146.1695  140.6667  142.9240 LP  0  0  0  0  0  0  0  0  0  0  0  0  # atno 17321 bound_to 7965
  139.8353  143.7636  152.3180 LP  0  0  0  0  0  0  0  0  0  0  0  0  # atno 17342 bound_to 10162
  139.7766  144.7459  151.0148 LP  0  0  0  0  0  0  0  0  0  0  0  0  # atno 17343 bound_to 10162
  156.7914  130.4891  149.5384 LP  0  0  0  0  0  0  0  0  0  0  0  0  # atno 17370 bound_to 10713
  156.1240  130.6130  151.0236 LP  0  0  0  0  0  0  0  0  0  0  0  0  # atno 17371 bound_to 10713
  140.3232  134.2893  155.7242 LP  0  0  0  0  0  0  0  0  0  0  0  0  # atno 17394 bound_to 11000
  141.2103  133.7723  156.9939 LP  0  0  0  0  0  0  0  0  0  0  0  0  # atno 17395 bound_to 11000

$$$$
