AV-unprocessed.smi:2842|AV-procd|sdf|10936|dock3
  -GOLD-   2272015383D 1   1.00000     0.00000
 Structure written by MMmdl.
 35 37  0  0  0  0  0  0  0  0  1 V2000
  151.6719  136.6170  155.8840 O   0  0  0  0  0  0  0  0  0  0  0  0
  150.9071  137.0680  155.0301 C   0  0  0  0  0  0  0  0  0  0  0  0
  151.1706  138.4389  154.3886 C   0  0  0  0  0  0  0  0  0  0  0  0
  151.1480  139.5498  155.3582 N   0  0  0  0  0  0  0  0  0  0  0  0
  151.9074  139.3808  156.5330 C   0  0  0  0  0  0  0  0  0  0  0  0
  151.9574  140.2941  157.4498 N   0  0  0  0  0  0  0  0  0  0  0  0
  151.2386  141.4841  157.2870 C   0  0  0  0  0  0  0  0  0  0  0  0
  151.3056  142.5136  158.4065 C   0  0  0  0  0  0  0  0  0  0  0  0
  150.9565  143.9632  158.0281 C   0  0  0  0  0  0  0  0  0  0  0  0
  152.0854  144.4088  158.9642 C   0  0  0  0  0  0  0  0  0  0  0  0
  152.7121  143.0253  158.7568 C   0  0  0  0  0  0  0  0  0  0  0  0
  150.4878  141.6892  156.1789 C   0  0  0  0  0  0  0  0  0  0  0  0
  150.4194  140.6806  155.1222 C   0  0  0  0  0  0  0  0  0  0  0  0
  149.7552  140.8374  154.0973 O   0  0  0  0  0  0  0  0  0  0  0  0
  149.8243  136.4120  154.5886 N   0  0  0  0  0  0  0  0  0  0  0  0
  149.3865  135.1327  155.0450 C   0  0  0  0  0  0  0  0  0  0  0  0
  150.4380  134.0687  155.2739 C   0  0  0  0  0  0  0  0  0  0  0  0
  149.5168  133.9661  154.0897 C   0  0  0  0  0  0  0  0  0  0  0  0
  152.1239  138.3855  153.8595 H   0  0  0  0  0  0  0  0  0  0  0  0
  150.4271  138.6227  153.6103 H   0  0  0  0  0  0  0  0  0  0  0  0
  152.4421  138.4332  156.6151 H   0  0  0  0  0  0  0  0  0  0  0  0
  150.7618  142.1826  159.2932 H   0  0  0  0  0  0  0  0  0  0  0  0
  151.1650  144.2078  156.9849 H   0  0  0  0  0  0  0  0  0  0  0  0
  149.9592  144.2862  158.3280 H   0  0  0  0  0  0  0  0  0  0  0  0
  152.6830  145.2431  158.5962 H   0  0  0  0  0  0  0  0  0  0  0  0
  151.7475  144.5715  159.9890 H   0  0  0  0  0  0  0  0  0  0  0  0
  153.1508  142.5824  159.6512 H   0  0  0  0  0  0  0  0  0  0  0  0
  153.4045  143.0032  157.9129 H   0  0  0  0  0  0  0  0  0  0  0  0
  149.9293  142.6070  156.0657 H   0  0  0  0  0  0  0  0  0  0  0  0
  149.2594  136.8585  153.8807 H   0  0  0  0  0  0  0  0  0  0  0  0
  148.5275  135.1069  155.7143 H   0  0  0  0  0  0  0  0  0  0  0  0
  151.4771  134.3288  155.0807 H   0  0  0  0  0  0  0  0  0  0  0  0
  150.2778  133.3744  156.0963 H   0  0  0  0  0  0  0  0  0  0  0  0
  148.7398  133.2048  154.1209 H   0  0  0  0  0  0  0  0  0  0  0  0
  149.9402  134.1585  153.1056 H   0  0  0  0  0  0  0  0  0  0  0  0
  1  2  2  0  0  0  0
  2  3  1  0  0  0  0
  2 15  1  0  0  0  0
  3  4  1  0  0  0  0
  3 19  1  0  0  0  0
  3 20  1  0  0  0  0
  4 13  1  0  0  0  0
  4  5  1  0  0  0  0
  5  6  2  0  0  0  0
  5 21  1  0  0  0  0
  6  7  1  0  0  0  0
  7  8  1  0  0  0  0
  7 12  2  0  0  0  0
  8 11  1  0  0  0  0
  8  9  1  0  0  0  0
  8 22  1  0  0  0  0
  9 10  1  0  0  0  0
  9 23  1  0  0  0  0
  9 24  1  0  0  0  0
 10 11  1  0  0  0  0
 10 25  1  0  0  0  0
 10 26  1  0  0  0  0
 11 27  1  0  0  0  0
 11 28  1  0  0  0  0
 12 13  1  0  0  0  0
 12 29  1  0  0  0  0
 13 14  2  0  0  0  0
 15 16  1  0  0  0  0
 15 30  1  0  0  0  0
 16 18  1  0  0  0  0
 16 17  1  0  0  0  0
 16 31  1  0  0  0  0
 17 18  1  0  0  0  0
 17 32  1  0  0  0  0
 17 33  1  0  0  0  0
 18 34  1  0  0  0  0
 18 35  1  0  0  0  0
M  END
> <s_m_source_file>
AV-unprocessed.smi

> <i_m_source_file_index>
2842

> <i_lp_mmshare_version>
43012

> <i_f3d_flags>
0

> <s_epik_input>
W0NIMl0xW0NIMl1bQ0hdMVtOSF1DKD1PKVtDSDJdbjJbY0hdbmMoW2NIXWMyPU8pW0NIXTNbQ0gyXVtDSDJdW0NIMl0z

> <s_epik_cmdline>
J2VwaWtfcHl0aG9uJywgJy1waCcsICc3LjAnLCAnLXRuJywgJzgnLCAnLW1hJywgJzIwMCcsICctbWV0YWxfYmluZGluZycsICctaW1hZScsICc8aW5maWxlLm1hZT4nLCAnLW9tYWUnLCAnPG91dGZpbGUubWFlPic=

> <r_lp_tautomer_probability>
1

> <r_epik_Ionization_Penalty>
7.30946e-06

> <r_epik_Ionization_Penalty_Charging>
8.23701e-09

> <r_epik_Ionization_Penalty_Neutral>
7.30122e-06

> <r_epik_State_Penalty>
-0

> <r_epik_Charging_Adjusted_Penalty>
8.23701e-09

> <i_epik_Tot_Q>
0

> <i_epik_Tot_abs_Q>
0

> <r_epik_Metal_State_Penalty>
-0

> <b_epik_Metal_Only>
0

> <s_lp_Force_Field>
OPLS_2005

> <r_lp_Energy>
30.4853

> <b_lp_Chiralities_Consistent>
1

> <s_lp_Variant>
AV-unprocessed.smi:2842-1

> <Gold.Version>
5.8.1

> <Gold.Id.Protein>
6NUR|6NUR_protein|mol2

> <Gold.PLP.Fitness>
42.1505

> <Gold.PLP.PLP>
-38.2399

> <Gold.PLP.part.hbond>
-3.3097

> <Gold.PLP.part.metal>
0.0000

> <Gold.PLP.part.buried>
-1.8401

> <Gold.PLP.part.nonpolar>
-32.9422

> <Gold.PLP.part.repulsive>
0.7630

> <Gold.PLP.ligand.clash>
0.0000

> <Gold.PLP.ligand.torsion>
0.6011

> <Gold.PLP.Chemscore.Hbond>
1.5673

> <Gold.PLP.Chemscore.CHOScore>
0.0000

> <Gold.PLP.Chemscore.Metal>
0.0000

> <Gold.Chemscore.Hbonds>
donor molecule, donor type, donor heavy atom, donor atom, acceptor molecule, acceptor atom, score
      L1  H    15    30       P1  7948  0.42
      P1  H  8011  8017       L1    14  0.14
      P1  H 10752 10763       L1     1  1.00

> <Gold.PLP.Chemscore.Internal.Correction>
0.4108

> <Gold.Rescore>
     Score         DG    S(hbond)    S(metal)    S(lipo)     H(rot)  DE(clash)    DE(int)     intcor
     11.76     -15.02       1.35        0.00      80.83       1.73       0.21       3.05       ----

> <Gold.Chemscore.Fitness>
11.7609

> <Gold.Chemscore.DG>
-15.0168

> <Gold.Chemscore.ZeroCoef>
-5.4800

> <Gold.Chemscore.Hbond>
1.3501

> <Gold.Chemscore.Metal>
0.0000

> <Gold.Chemscore.Lipo>
80.8343

> <Gold.Chemscore.Internal_Hbond>
0.0000

> <Gold.Chemscore.DEClash>
0.2093

> <Gold.Chemscore.DEInternal>
3.0466

> <Gold.Chemscore.Rot>
1.7305

> <Gold.Chemscore.Internal.Correction>
   9.000000E+99

> <Gold.Chemscore.Hbonds>
donor molecule, donor type, donor heavy atom, donor atom, acceptor molecule, acceptor atom, score
      L1  H    15    30       P1  7948  0.41
      P1  H  8011  8017       L1    14  0.15
      P1  H 10752 10763       L1     1  0.57

> <Gold.Chemscore.Hbond.Weighted>
-4.5092

> <Gold.Chemscore.Metal.Weighted>
-0.0000

> <Gold.Chemscore.Lipo.Weighted>
-9.4576

> <Gold.Chemscore.Internal_Hbond.Weighted>
0.0000

> <Gold.Chemscore.DEClash.Weighted>
0.2093

> <Gold.Chemscore.DEInternal.Weighted>
3.0466

> <Gold.Chemscore.Rot.Weighted>
4.4300

> <Gold.Chemscore.Internal.Correction.Weighted>
   9.000000E+99

> <Gold.Protein.RotatedTorsions>
[ 6907 6896 6895 6894 ] final -155.09 input  -60.11 | X-H torsion
[ 7974 7965 7964 7962 ] final -167.51 input  175.53 | X-H torsion
[ 8008 7997 7996 7995 ] final  -31.54 input   59.86 | X-H torsion
[ 10167 10162 10161 10158 ] final  -13.07 input  -65.29 | X-H torsion
[ 10718 10713 10712 10709 ] final -147.78 input   66.30 | X-H torsion
[ 10763 10752 10751 10750 ] final   79.74 input  -60.55 | X-H torsion
[ 11005 11000 10999 10996 ] final    1.52 input  -57.11 | X-H torsion

> <Gold.Protein.ActiveResidues>
 VAL166  LYS551  ARG553  GLY616  TRP617  ASP618  TYR619  PRO620  LYS621  CYS622 
 ASP623  PHE694  ASN695  SER759  ASP760  ASP761  ALA762  ILE779  LEU786  VAL792 
 PHE793  MET794  SER795  GLU796  ALA797  LYS798  CYS799  TRP800  GLU811  SER814 

> <Gold.Protein.RotatedAtoms>
  151.2673  133.4272  159.2619 H   0  0  0  0  0  0  0  0  0  0  0  0  # atno 6907 bound_to 6896
  151.0477  134.9651  159.8205 H   0  0  0  0  0  0  0  0  0  0  0  0  # atno 6908 bound_to 6896
  152.5377  134.2628  159.8994 H   0  0  0  0  0  0  0  0  0  0  0  0  # atno 6909 bound_to 6896
  144.7221  140.2507  143.6279 H   0  0  0  0  0  0  0  0  0  0  0  0  # atno 7974 bound_to 7965
  154.4210  140.1762  156.1582 H   0  0  0  0  0  0  0  0  0  0  0  0  # atno 8008 bound_to 7997
  155.9859  140.3373  155.6683 H   0  0  0  0  0  0  0  0  0  0  0  0  # atno 8009 bound_to 7997
  155.6437  140.0683  157.2601 H   0  0  0  0  0  0  0  0  0  0  0  0  # atno 8010 bound_to 7997
  140.7174  143.5465  150.9349 H   0  0  0  0  0  0  0  0  0  0  0  0  # atno 10167 bound_to 10162
  156.4118  130.7985  151.2203 H   0  0  0  0  0  0  0  0  0  0  0  0  # atno 10718 bound_to 10713
  153.0977  135.4828  154.8809 H   0  0  0  0  0  0  0  0  0  0  0  0  # atno 10763 bound_to 10752
  154.7343  135.3067  154.8841 H   0  0  0  0  0  0  0  0  0  0  0  0  # atno 10764 bound_to 10752
  153.9467  135.6828  153.4797 H   0  0  0  0  0  0  0  0  0  0  0  0  # atno 10765 bound_to 10752
  140.6146  133.9717  155.8194 H   0  0  0  0  0  0  0  0  0  0  0  0  # atno 11005 bound_to 11000
  145.8230  139.2052  143.1927 LP  0  0  0  0  0  0  0  0  0  0  0  0  # atno 17320 bound_to 7965
  146.0497  140.8082  142.9788 LP  0  0  0  0  0  0  0  0  0  0  0  0  # atno 17321 bound_to 7965
  139.9189  143.6630  152.3101 LP  0  0  0  0  0  0  0  0  0  0  0  0  # atno 17342 bound_to 10162
  139.7040  144.7631  151.1225 LP  0  0  0  0  0  0  0  0  0  0  0  0  # atno 17343 bound_to 10162
  157.7507  131.0255  150.3922 LP  0  0  0  0  0  0  0  0  0  0  0  0  # atno 17370 bound_to 10713
  156.4222  130.3955  149.6817 LP  0  0  0  0  0  0  0  0  0  0  0  0  # atno 17371 bound_to 10713
  141.0785  134.0099  157.3422 LP  0  0  0  0  0  0  0  0  0  0  0  0  # atno 17394 bound_to 11000
  139.9178  135.0198  156.7949 LP  0  0  0  0  0  0  0  0  0  0  0  0  # atno 17395 bound_to 11000

$$$$
