AV-unprocessed.smi:2079|AV-procd|sdf|8477|dock7
  -GOLD-   2272011183D 1   1.00000     0.00000
 Structure written by MMmdl.
 42 43  0  0  0  0  0  0  0  0  2 V2000
  147.3293  136.7063  162.9748 C   0  0  0  0  0  0  0  0  0  0  0  0
  147.0562  136.5343  161.5198 C   0  0  0  0  0  0  0  0  0  0  0  0
  146.3442  135.6085  160.8100 C   0  0  0  0  0  0  0  0  0  0  0  0
  146.5078  136.0407  159.4670 C   0  0  0  0  0  0  0  0  0  0  0  0
  145.9126  135.3280  158.3949 N   0  0  0  0  0  0  0  0  0  0  0  0
  146.4947  134.9419  157.2467 C   0  0  0  0  0  0  0  0  0  0  0  0
  147.6676  135.1540  156.9378 O   0  0  0  0  0  0  0  0  0  0  0  0
  145.6325  134.2866  156.4557 N   0  0  0  0  0  0  0  0  0  0  0  0
  145.9625  133.7317  155.1481 C   0  0  0  0  0  0  0  0  0  0  0  0
  145.0306  134.2818  154.0498 C   0  0  0  0  0  0  0  0  0  0  0  0
  144.6231  133.2565  153.0517 N   0  3  2  0  0  0  0  0  0  0  0  0
  145.7232  132.2976  152.7590 C   0  0  0  0  0  0  0  0  0  0  0  0
  145.2292  131.1188  151.9058 C   0  0  0  0  0  0  0  0  0  0  0  0
  144.5748  131.6113  150.6105 C   0  0  0  0  0  0  0  0  0  0  0  0
  143.4577  132.6110  150.9388 C   0  0  0  0  0  0  0  0  0  0  0  0
  143.9581  133.7790  151.8159 C   0  0  2  0  0  0  0  0  0  0  0  0
  144.8270  134.7757  151.0187 C   0  0  0  0  0  0  0  0  0  0  0  0
  147.2479  137.1342  159.3663 N   0  0  0  0  0  0  0  0  0  0  0  0
  147.6043  137.4554  160.6814 O   0  0  0  0  0  0  0  0  0  0  0  0
  146.6719  136.0740  163.5717 H   0  0  0  0  0  0  0  0  0  0  0  0
  147.1713  137.7412  163.2793 H   0  0  0  0  0  0  0  0  0  0  0  0
  148.3598  136.4381  163.2077 H   0  0  0  0  0  0  0  0  0  0  0  0
  145.7982  134.7590  161.1931 H   0  0  0  0  0  0  0  0  0  0  0  0
  144.9413  135.0827  158.5187 H   0  0  0  0  0  0  0  0  0  0  0  0
  144.6867  134.1544  156.7842 H   0  0  0  0  0  0  0  0  0  0  0  0
  147.0068  133.9382  154.9070 H   0  0  0  0  0  0  0  0  0  0  0  0
  145.8668  132.6499  155.2326 H   0  0  0  0  0  0  0  0  0  0  0  0
  144.1525  134.7542  154.4907 H   0  0  0  0  0  0  0  0  0  0  0  0
  145.5587  135.0737  153.5172 H   0  0  0  0  0  0  0  0  0  0  0  0
  146.5453  132.8113  152.2598 H   0  0  0  0  0  0  0  0  0  0  0  0
  146.1264  131.9067  153.6941 H   0  0  0  0  0  0  0  0  0  0  0  0
  146.0606  130.4523  151.6740 H   0  0  0  0  0  0  0  0  0  0  0  0
  144.5111  130.5296  152.4778 H   0  0  0  0  0  0  0  0  0  0  0  0
  145.3225  132.0789  149.9691 H   0  0  0  0  0  0  0  0  0  0  0  0
  144.1700  130.7681  150.0501 H   0  0  0  0  0  0  0  0  0  0  0  0
  143.0134  132.9902  150.0180 H   0  0  0  0  0  0  0  0  0  0  0  0
  142.6580  132.0871  151.4646 H   0  0  0  0  0  0  0  0  0  0  0  0
  143.0619  134.3164  152.1235 H   0  0  0  0  0  0  0  0  0  0  0  0
  144.3044  135.1075  150.1212 H   0  0  0  0  0  0  0  0  0  0  0  0
  145.7726  134.3393  150.6981 H   0  0  0  0  0  0  0  0  0  0  0  0
  145.0517  135.6711  151.5976 H   0  0  0  0  0  0  0  0  0  0  0  0
  143.9169  132.7049  153.5180 H   0  0  0  0  0  0  0  0  0  0  0  0
  1  2  1  0  0  0  0
  1 20  1  0  0  0  0
  1 21  1  0  0  0  0
  1 22  1  0  0  0  0
  2 19  1  0  0  0  0
  2  3  2  0  0  0  0
  3  4  1  0  0  0  0
  3 23  1  0  0  0  0
  4  5  1  0  0  0  0
  4 18  2  0  0  0  0
  5  6  1  0  0  0  0
  5 24  1  0  0  0  0
  6  7  2  0  0  0  0
  6  8  1  0  0  0  0
  8  9  1  0  0  0  0
  8 25  1  0  0  0  0
  9 10  1  0  0  0  0
  9 26  1  0  0  0  0
  9 27  1  0  0  0  0
 10 11  1  0  0  0  0
 10 28  1  0  0  0  0
 10 29  1  0  0  0  0
 11 16  1  0  0  0  0
 11 12  1  0  0  0  0
 11 42  1  0  0  0  0
 12 13  1  0  0  0  0
 12 30  1  0  0  0  0
 12 31  1  0  0  0  0
 13 14  1  0  0  0  0
 13 32  1  0  0  0  0
 13 33  1  0  0  0  0
 14 15  1  0  0  0  0
 14 34  1  0  0  0  0
 14 35  1  0  0  0  0
 15 16  1  0  0  0  0
 15 36  1  0  0  0  0
 15 37  1  0  0  0  0
 16 17  1  0  0  0  0
 16 38  1  0  0  0  0
 17 39  1  0  0  0  0
 17 40  1  0  0  0  0
 17 41  1  0  0  0  0
 18 19  1  0  0  0  0
M  CHG  1  11   1
M  END
> <s_m_source_file>
AV-unprocessed.smi

> <i_m_source_file_index>
2079

> <i_lp_mmshare_version>
43012

> <i_f3d_flags>
0

> <s_epik_input>
W0NIM11jMVtjSF1jKG5vMSlbTkhdQyg9TylbTkhdW0NIMl1bQ0gyXU4yW0NIMl1bQ0gyXVtDSDJdW0NIMl1bQ0BIXTJbQ0gzXQ==

> <s_epik_cmdline>
J2VwaWtfcHl0aG9uJywgJy1waCcsICc3LjAnLCAnLXRuJywgJzgnLCAnLW1hJywgJzIwMCcsICctbWV0YWxfYmluZGluZycsICctaW1hZScsICc8aW5maWxlLm1hZT4nLCAnLW9tYWUnLCAnPG91dGZpbGUubWFlPic=

> <r_epik_Ionization_Penalty>
0.00265971

> <r_epik_Ionization_Penalty_Charging>
0.00262393

> <r_epik_Ionization_Penalty_Neutral>
3.57846e-05

> <r_epik_State_Penalty>
0.00182566

> <r_epik_Charging_Adjusted_Penalty>
0.00444959

> <i_epik_Tot_Q>
1

> <i_epik_Tot_abs_Q>
1

> <r_epik_Metal_State_Penalty>
0.0216344

> <b_epik_Metal_Only>
0

> <s_lp_Force_Field>
OPLS_2005

> <r_lp_Energy>
16.7127

> <b_lp_Chiralities_Consistent>
1

> <s_lp_Variant>
AV-unprocessed.smi:2079-3

> <Gold.Version>
5.8.1

> <Gold.Id.Protein>
6NUR|6NUR_protein|mol2

> <Gold.PLP.Fitness>
37.7222

> <Gold.PLP.PLP>
-28.3987

> <Gold.PLP.part.hbond>
-3.0000

> <Gold.PLP.part.metal>
0.0000

> <Gold.PLP.part.buried>
-4.7097

> <Gold.PLP.part.nonpolar>
-21.4631

> <Gold.PLP.part.repulsive>
0.0000

> <Gold.PLP.ligand.clash>
0.0000

> <Gold.PLP.ligand.torsion>
0.8591

> <Gold.PLP.Chemscore.Hbond>
3.6640

> <Gold.PLP.Chemscore.CHOScore>
0.0000

> <Gold.PLP.Chemscore.Metal>
0.0000

> <Gold.Chemscore.Hbonds>
donor molecule, donor type, donor heavy atom, donor atom, acceptor molecule, acceptor atom, score
      L1  H    11    42       P1 10957  2.00
      P1  H  6931  6943       L1    19  0.67
      P1  H  6934  6947       L1    19  0.94

> <Gold.PLP.Chemscore.Internal.Correction>
0.0496

> <Gold.Rescore>
     Score         DG    S(hbond)    S(metal)    S(lipo)     H(rot)  DE(clash)    DE(int)     intcor
     14.36     -15.41       1.88        0.00      65.50       1.57       0.12       0.93       ----

> <Gold.Chemscore.Fitness>
14.3647

> <Gold.Chemscore.DG>
-15.4132

> <Gold.Chemscore.ZeroCoef>
-5.4800

> <Gold.Chemscore.Hbond>
1.8827

> <Gold.Chemscore.Metal>
0.0000

> <Gold.Chemscore.Lipo>
65.4998

> <Gold.Chemscore.Internal_Hbond>
0.0000

> <Gold.Chemscore.DEClash>
0.1201

> <Gold.Chemscore.DEInternal>
0.9285

> <Gold.Chemscore.Rot>
1.5697

> <Gold.Chemscore.Internal.Correction>
   9.000000E+99

> <Gold.Chemscore.Hbonds>
donor molecule, donor type, donor heavy atom, donor atom, acceptor molecule, acceptor atom, score
      L1  H    11    42       P1 10957  0.53
      P1  H  6931  6943       L1    19  0.19
      P1  H  6934  6947       L1    19  0.52

> <Gold.Chemscore.Hbond.Weighted>
-6.2883

> <Gold.Chemscore.Metal.Weighted>
-0.0000

> <Gold.Chemscore.Lipo.Weighted>
-7.6635

> <Gold.Chemscore.Internal_Hbond.Weighted>
0.0000

> <Gold.Chemscore.DEClash.Weighted>
0.1201

> <Gold.Chemscore.DEInternal.Weighted>
0.9285

> <Gold.Chemscore.Rot.Weighted>
4.0185

> <Gold.Chemscore.Internal.Correction.Weighted>
   9.000000E+99

> <Gold.Protein.RotatedTorsions>
[ 6907 6896 6895 6894 ] final -139.21 input  -60.11 | X-H torsion
[ 7974 7965 7964 7962 ] final   81.71 input  175.53 | X-H torsion
[ 8008 7997 7996 7995 ] final   -3.10 input   59.86 | X-H torsion
[ 10167 10162 10161 10158 ] final   47.89 input  -65.29 | X-H torsion
[ 10718 10713 10712 10709 ] final   -3.18 input   66.30 | X-H torsion
[ 10763 10752 10751 10750 ] final   71.99 input  -60.55 | X-H torsion
[ 11005 11000 10999 10996 ] final  -27.98 input  -57.11 | X-H torsion

> <Gold.Protein.ActiveResidues>
 VAL166  LYS551  ARG553  GLY616  TRP617  ASP618  TYR619  PRO620  LYS621  CYS622 
 ASP623  PHE694  ASN695  SER759  ASP760  ASP761  ALA762  ILE779  LEU786  VAL792 
 PHE793  MET794  SER795  GLU796  ALA797  LYS798  CYS799  TRP800  GLU811  SER814 

> <Gold.Protein.RotatedAtoms>
  151.0449  133.5674  159.2647 H   0  0  0  0  0  0  0  0  0  0  0  0  # atno 6907 bound_to 6896
  151.2706  135.0682  159.9142 H   0  0  0  0  0  0  0  0  0  0  0  0  # atno 6908 bound_to 6896
  152.5371  134.0180  159.8022 H   0  0  0  0  0  0  0  0  0  0  0  0  # atno 6909 bound_to 6896
  145.6346  139.2412  143.2065 H   0  0  0  0  0  0  0  0  0  0  0  0  # atno 7974 bound_to 7965
  154.6286  140.2518  155.7462 H   0  0  0  0  0  0  0  0  0  0  0  0  # atno 8008 bound_to 7997
  156.2467  140.2912  156.0546 H   0  0  0  0  0  0  0  0  0  0  0  0  # atno 8009 bound_to 7997
  155.1782  140.0388  157.2867 H   0  0  0  0  0  0  0  0  0  0  0  0  # atno 8010 bound_to 7997
  140.2990  144.2956  150.6223 H   0  0  0  0  0  0  0  0  0  0  0  0  # atno 10167 bound_to 10162
  156.7799  130.5327  149.5752 H   0  0  0  0  0  0  0  0  0  0  0  0  # atno 10718 bound_to 10713
  153.0431  135.5116  154.7676 H   0  0  0  0  0  0  0  0  0  0  0  0  # atno 10763 bound_to 10752
  154.6597  135.2937  154.9884 H   0  0  0  0  0  0  0  0  0  0  0  0  # atno 10764 bound_to 10752
  154.0740  135.6673  153.4881 H   0  0  0  0  0  0  0  0  0  0  0  0  # atno 10765 bound_to 10752
  140.9168  133.7425  156.0746 H   0  0  0  0  0  0  0  0  0  0  0  0  # atno 11005 bound_to 11000
  146.1329  140.7161  142.9403 LP  0  0  0  0  0  0  0  0  0  0  0  0  # atno 17320 bound_to 7965
  144.7180  140.4277  143.7029 LP  0  0  0  0  0  0  0  0  0  0  0  0  # atno 17321 bound_to 7965
  140.5667  143.2185  151.7670 LP  0  0  0  0  0  0  0  0  0  0  0  0  # atno 17342 bound_to 10162
  139.4919  144.4273  151.9911 LP  0  0  0  0  0  0  0  0  0  0  0  0  # atno 17343 bound_to 10162
  156.1224  130.6120  151.0214 LP  0  0  0  0  0  0  0  0  0  0  0  0  # atno 17370 bound_to 10713
  157.6651  131.0873  150.7747 LP  0  0  0  0  0  0  0  0  0  0  0  0  # atno 17371 bound_to 10713
  140.8040  134.3476  157.5431 LP  0  0  0  0  0  0  0  0  0  0  0  0  # atno 17394 bound_to 11000
  139.8767  134.9214  156.3275 LP  0  0  0  0  0  0  0  0  0  0  0  0  # atno 17395 bound_to 11000

$$$$
