AV-unprocessed.smi:1740|AV-procd|sdf|7007|dock7
  -GOLD-   22720 8223D 1   1.00000     0.00000
 Structure written by MMmdl.
 52 54  0  0  0  0  0  0  0  0  2 V2000
  142.2141  132.3650  147.6052 N   0  0  0  0  0  0  0  0  0  0  0  0
  143.3883  132.8732  147.9854 C   0  0  0  0  0  0  0  0  0  0  0  0
  143.9884  133.7107  147.3140 O   0  0  0  0  0  0  0  0  0  0  0  0
  143.9570  132.3809  149.3201 C   0  0  0  0  0  0  0  0  0  0  0  0
  144.8290  133.3855  149.9809 N   0  3  2  0  0  0  0  0  0  0  0  0
  145.2972  132.9579  151.3263 C   0  0  0  0  0  0  0  0  0  0  0  0
  146.3124  133.9586  151.9017 C   0  0  0  0  0  0  0  0  0  0  0  0
  145.7225  135.3767  151.9633 C   0  0  1  0  0  0  0  0  0  0  0  0
  146.7417  136.3134  152.4250 N   0  0  0  0  0  0  0  0  0  0  0  0
  146.5186  137.5859  152.7826 C   0  0  0  0  0  0  0  0  0  0  0  0
  145.4070  138.1137  152.7584 O   0  0  0  0  0  0  0  0  0  0  0  0
  147.6562  138.1815  153.1766 N   0  0  0  0  0  0  0  0  0  0  0  0
  147.8396  139.5002  153.6814 C   0  0  0  0  0  0  0  0  0  0  0  0
  146.8358  140.4929  153.5640 C   0  0  0  0  0  0  0  0  0  0  0  0
  147.0989  141.7969  154.0179 C   0  0  0  0  0  0  0  0  0  0  0  0
  148.3656  142.0691  154.5604 C   0  0  0  0  0  0  0  0  0  0  0  0
  149.3360  141.1398  154.6677 N   0  0  0  0  0  0  0  0  0  0  0  0
  149.0921  139.8741  154.2477 C   0  0  0  0  0  0  0  0  0  0  0  0
  150.1385  138.9359  154.4010 N   0  0  0  0  0  0  0  0  0  0  0  0
  149.8579  137.7267  155.1698 C   0  0  0  0  0  0  0  0  0  0  0  0
  151.1359  137.4023  155.9504 C   0  0  0  0  0  0  0  0  0  0  0  0
  152.2277  138.1356  155.1773 C   0  0  0  0  0  0  0  0  0  0  0  0
  151.4978  139.3826  154.6870 C   0  0  0  0  0  0  0  0  0  0  0  0
  145.1984  135.7792  150.5722 C   0  0  0  0  0  0  0  0  0  0  0  0
  144.2115  134.7353  150.0234 C   0  0  0  0  0  0  0  0  0  0  0  0
  141.7998  132.6627  146.7333 H   0  0  0  0  0  0  0  0  0  0  0  0
  141.7394  131.6883  148.1855 H   0  0  0  0  0  0  0  0  0  0  0  0
  143.1012  132.1603  149.9594 H   0  0  0  0  0  0  0  0  0  0  0  0
  144.4994  131.4432  149.1867 H   0  0  0  0  0  0  0  0  0  0  0  0
  144.4422  132.8627  151.9979 H   0  0  0  0  0  0  0  0  0  0  0  0
  145.7623  131.9734  151.2685 H   0  0  0  0  0  0  0  0  0  0  0  0
  146.6217  133.6381  152.8973 H   0  0  0  0  0  0  0  0  0  0  0  0
  147.2112  133.9555  151.2828 H   0  0  0  0  0  0  0  0  0  0  0  0
  144.8917  135.3727  152.6720 H   0  0  0  0  0  0  0  0  0  0  0  0
  147.6878  135.9655  152.4831 H   0  0  0  0  0  0  0  0  0  0  0  0
  148.4737  137.5909  153.2192 H   0  0  0  0  0  0  0  0  0  0  0  0
  145.8780  140.2850  153.1129 H   0  0  0  0  0  0  0  0  0  0  0  0
  146.3519  142.5726  153.9394 H   0  0  0  0  0  0  0  0  0  0  0  0
  148.6092  143.0607  154.9125 H   0  0  0  0  0  0  0  0  0  0  0  0
  149.0044  137.8521  155.8378 H   0  0  0  0  0  0  0  0  0  0  0  0
  149.6298  136.9156  154.4779 H   0  0  0  0  0  0  0  0  0  0  0  0
  151.0638  137.8130  156.9586 H   0  0  0  0  0  0  0  0  0  0  0  0
  151.3195  136.3311  156.0363 H   0  0  0  0  0  0  0  0  0  0  0  0
  153.1026  138.3664  155.7857 H   0  0  0  0  0  0  0  0  0  0  0  0
  152.5521  137.5330  154.3278 H   0  0  0  0  0  0  0  0  0  0  0  0
  151.9709  139.8076  153.8013 H   0  0  0  0  0  0  0  0  0  0  0  0
  151.5023  140.1372  155.4746 H   0  0  0  0  0  0  0  0  0  0  0  0
  144.7109  136.7538  150.6193 H   0  0  0  0  0  0  0  0  0  0  0  0
  146.0340  135.8858  149.8785 H   0  0  0  0  0  0  0  0  0  0  0  0
  143.9016  135.0311  149.0202 H   0  0  0  0  0  0  0  0  0  0  0  0
  143.3107  134.7066  150.6387 H   0  0  0  0  0  0  0  0  0  0  0  0
  145.6491  133.4671  149.3962 H   0  0  0  0  0  0  0  0  0  0  0  0
  1  2  1  0  0  0  0
  1 26  1  0  0  0  0
  1 27  1  0  0  0  0
  2  3  2  0  0  0  0
  2  4  1  0  0  0  0
  4  5  1  0  0  0  0
  4 28  1  0  0  0  0
  4 29  1  0  0  0  0
  5 25  1  0  0  0  0
  5  6  1  0  0  0  0
  5 52  1  0  0  0  0
  6  7  1  0  0  0  0
  6 30  1  0  0  0  0
  6 31  1  0  0  0  0
  7  8  1  0  0  0  0
  7 32  1  0  0  0  0
  7 33  1  0  0  0  0
  8  9  1  0  0  0  0
  8 24  1  0  0  0  0
  8 34  1  0  0  0  0
  9 10  1  0  0  0  0
  9 35  1  0  0  0  0
 10 11  2  0  0  0  0
 10 12  1  0  0  0  0
 12 13  1  0  0  0  0
 12 36  1  0  0  0  0
 13 18  1  0  0  0  0
 13 14  2  0  0  0  0
 14 15  1  0  0  0  0
 14 37  1  0  0  0  0
 15 16  2  0  0  0  0
 15 38  1  0  0  0  0
 16 17  1  0  0  0  0
 16 39  1  0  0  0  0
 17 18  2  0  0  0  0
 18 19  1  0  0  0  0
 19 23  1  0  0  0  0
 19 20  1  0  0  0  0
 20 21  1  0  0  0  0
 20 40  1  0  0  0  0
 20 41  1  0  0  0  0
 21 22  1  0  0  0  0
 21 42  1  0  0  0  0
 21 43  1  0  0  0  0
 22 23  1  0  0  0  0
 22 44  1  0  0  0  0
 22 45  1  0  0  0  0
 23 46  1  0  0  0  0
 23 47  1  0  0  0  0
 24 25  1  0  0  0  0
 24 48  1  0  0  0  0
 24 49  1  0  0  0  0
 25 50  1  0  0  0  0
 25 51  1  0  0  0  0
M  CHG  1   5   1
M  END
> <s_m_source_file>
AV-unprocessed.smi

> <i_m_source_file_index>
1740

> <i_lp_mmshare_version>
43012

> <i_f3d_flags>
0

> <s_epik_input>
W05IMl1DKD1PKVtDSDJdTjFbQ0gyXVtDSDJdW0NIXShbQ0gyXVtDSDJdMSlbTkhdQyg9TylbTkhdYzJbY0hdW2NIXVtjSF1uYzJOM1tDSDJdW0NIMl1bQ0gyXVtDSDJdMw==

> <s_epik_cmdline>
J2VwaWtfcHl0aG9uJywgJy1waCcsICc3LjAnLCAnLXRuJywgJzgnLCAnLW1hJywgJzIwMCcsICctbWV0YWxfYmluZGluZycsICctaW1hZScsICc8aW5maWxlLm1hZT4nLCAnLW9tYWUnLCAnPG91dGZpbGUubWFlPic=

> <r_lp_tautomer_probability>
1

> <r_epik_Ionization_Penalty>
0.91661

> <r_epik_Ionization_Penalty_Charging>
0.838844

> <r_epik_Ionization_Penalty_Neutral>
0.0777664

> <r_epik_State_Penalty>
0.927046

> <r_epik_Charging_Adjusted_Penalty>
1.76589

> <i_epik_Tot_Q>
1

> <i_epik_Tot_abs_Q>
1

> <r_epik_Metal_State_Penalty>
0.950555

> <b_epik_Metal_Only>
0

> <s_lp_Force_Field>
OPLS_2005

> <r_lp_Energy>
39.0638

> <b_lp_Chiralities_Consistent>
1

> <s_lp_Variant>
AV-unprocessed.smi:1740-2

> <Gold.Version>
5.8.1

> <Gold.Id.Protein>
6NUR|6NUR_protein|mol2

> <Gold.PLP.Fitness>
52.2576

> <Gold.PLP.PLP>
-34.2828

> <Gold.PLP.part.hbond>
-6.5984

> <Gold.PLP.part.metal>
0.0000

> <Gold.PLP.part.buried>
0.5902

> <Gold.PLP.part.nonpolar>
-36.1020

> <Gold.PLP.part.repulsive>
6.7395

> <Gold.PLP.ligand.clash>
0.0000

> <Gold.PLP.ligand.torsion>
0.7248

> <Gold.PLP.Chemscore.Hbond>
5.3650

> <Gold.PLP.Chemscore.CHOScore>
1.0000

> <Gold.PLP.Chemscore.Metal>
0.0000

> <Gold.Chemscore.Hbonds>
donor molecule, donor type, donor heavy atom, donor atom, acceptor molecule, acceptor atom, score
      L1  H     1    26       P1 10195  0.41
      L1  H     1    27       P1 10952  0.81
      L1  H     5    52       P1  7921  0.26
      L1  H     9    35       P1  7948  0.55
      L1  H    12    36       P1  7948  0.50
      P1  H  7918  7932       L1     3  0.94
      L1  C    16    39       P1  8028  0.47

> <Gold.PLP.Chemscore.Internal.Correction>
0.3294

> <Gold.Rescore>
     Score         DG    S(hbond)    S(metal)    S(lipo)     H(rot)  DE(clash)    DE(int)     intcor
     16.85     -22.70       4.00        0.00      80.93       2.19       2.80       3.05       ----

> <Gold.Chemscore.Fitness>
16.8484

> <Gold.Chemscore.DG>
-22.6990

> <Gold.Chemscore.ZeroCoef>
-5.4800

> <Gold.Chemscore.Hbond>
4.0021

> <Gold.Chemscore.Metal>
0.0000

> <Gold.Chemscore.Lipo>
80.9269

> <Gold.Chemscore.Internal_Hbond>
0.0000

> <Gold.Chemscore.DEClash>
2.8016

> <Gold.Chemscore.DEInternal>
3.0490

> <Gold.Chemscore.Rot>
2.1939

> <Gold.Chemscore.Internal.Correction>
   9.000000E+99

> <Gold.Chemscore.Hbonds>
donor molecule, donor type, donor heavy atom, donor atom, acceptor molecule, acceptor atom, score
      L1  H     1    26       P1 10195  0.38
      L1  H     1    27       P1 10952  0.80
      L1  H     5    52       P1  7921  0.06
      L1  H     9    35       P1  7948  0.55
      L1  H    12    36       P1  7948  0.49
      P1  H  7918  7932       L1     3  0.90

> <Gold.Chemscore.Hbond.Weighted>
-13.3669

> <Gold.Chemscore.Metal.Weighted>
-0.0000

> <Gold.Chemscore.Lipo.Weighted>
-9.4684

> <Gold.Chemscore.Internal_Hbond.Weighted>
0.0000

> <Gold.Chemscore.DEClash.Weighted>
2.8016

> <Gold.Chemscore.DEInternal.Weighted>
3.0490

> <Gold.Chemscore.Rot.Weighted>
5.6163

> <Gold.Chemscore.Internal.Correction.Weighted>
   9.000000E+99

> <Gold.Protein.RotatedTorsions>
[ 6907 6896 6895 6894 ] final -156.41 input  -60.11 | X-H torsion
[ 7974 7965 7964 7962 ] final -142.85 input  175.53 | X-H torsion
[ 8008 7997 7996 7995 ] final  125.37 input   59.86 | X-H torsion
[ 10167 10162 10161 10158 ] final  146.52 input  -65.29 | X-H torsion
[ 10718 10713 10712 10709 ] final -162.90 input   66.30 | X-H torsion
[ 10763 10752 10751 10750 ] final   62.96 input  -60.55 | X-H torsion
[ 11005 11000 10999 10996 ] final   -1.28 input  -57.11 | X-H torsion

> <Gold.Protein.ActiveResidues>
 VAL166  LYS551  ARG553  GLY616  TRP617  ASP618  TYR619  PRO620  LYS621  CYS622 
 ASP623  PHE694  ASN695  SER759  ASP760  ASP761  ALA762  ILE779  LEU786  VAL792 
 PHE793  MET794  SER795  GLU796  ALA797  LYS798  CYS799  TRP800  GLU811  SER814 

> <Gold.Protein.RotatedAtoms>
  151.2872  133.4182  159.2630 H   0  0  0  0  0  0  0  0  0  0  0  0  # atno 6907 bound_to 6896
  151.0309  134.9538  159.8120 H   0  0  0  0  0  0  0  0  0  0  0  0  # atno 6908 bound_to 6896
  152.5345  134.2833  159.9068 H   0  0  0  0  0  0  0  0  0  0  0  0  # atno 6909 bound_to 6896
  144.8412  140.5907  143.5451 H   0  0  0  0  0  0  0  0  0  0  0  0  # atno 7974 bound_to 7965
  156.2832  140.2718  156.1939 H   0  0  0  0  0  0  0  0  0  0  0  0  # atno 8008 bound_to 7997
  155.0430  140.0386  157.2534 H   0  0  0  0  0  0  0  0  0  0  0  0  # atno 8009 bound_to 7997
  154.7258  140.2697  155.6505 H   0  0  0  0  0  0  0  0  0  0  0  0  # atno 8010 bound_to 7997
  139.4906  144.5823  151.6846 H   0  0  0  0  0  0  0  0  0  0  0  0  # atno 10167 bound_to 10162
  156.6171  130.8874  151.2949 H   0  0  0  0  0  0  0  0  0  0  0  0  # atno 10718 bound_to 10713
  153.0001  135.5446  154.6277 H   0  0  0  0  0  0  0  0  0  0  0  0  # atno 10763 bound_to 10752
  154.5561  135.2830  155.0965 H   0  0  0  0  0  0  0  0  0  0  0  0  # atno 10764 bound_to 10752
  154.2186  135.6455  153.5190 H   0  0  0  0  0  0  0  0  0  0  0  0  # atno 10765 bound_to 10752
  140.6456  133.9450  155.8351 H   0  0  0  0  0  0  0  0  0  0  0  0  # atno 11005 bound_to 11000
  145.4689  139.1505  143.3825 LP  0  0  0  0  0  0  0  0  0  0  0  0  # atno 17320 bound_to 7965
  146.2704  140.4822  142.8816 LP  0  0  0  0  0  0  0  0  0  0  0  0  # atno 17321 bound_to 7965
  140.5432  144.0545  150.6096 LP  0  0  0  0  0  0  0  0  0  0  0  0  # atno 17342 bound_to 10162
  140.3574  143.2927  152.0421 LP  0  0  0  0  0  0  0  0  0  0  0  0  # atno 17343 bound_to 10162
  157.7238  130.9594  150.1548 LP  0  0  0  0  0  0  0  0  0  0  0  0  # atno 17370 bound_to 10713
  156.2342  130.3685  149.8410 LP  0  0  0  0  0  0  0  0  0  0  0  0  # atno 17371 bound_to 10713
  141.0574  134.0396  157.3704 LP  0  0  0  0  0  0  0  0  0  0  0  0  # atno 17394 bound_to 11000
  139.9064  135.0180  156.7504 LP  0  0  0  0  0  0  0  0  0  0  0  0  # atno 17395 bound_to 11000

$$$$
