AV-unprocessed.smi:2226|AV-procd|sdf|9013|dock1
  -GOLD-   2272012213D 1   1.00000     0.00000
 Structure written by MMmdl.
 40 42  0  0  0  0  0  0  0  0  2 V2000
  147.0474  139.6776  152.7217 C   0  0  0  0  0  0  0  0  0  0  0  0
  146.2843  140.1686  153.8939 N   0  3  2  0  0  0  0  0  0  0  0  0
  146.6659  141.5220  154.3625 C   0  0  2  0  0  0  0  0  0  0  0  0
  148.0689  141.5192  155.0204 C   0  0  0  0  0  0  0  0  0  0  0  0
  148.2552  140.4456  156.1081 C   0  0  0  0  0  0  0  0  0  0  0  0
  147.6096  139.0999  155.7325 C   0  0  0  0  0  0  0  0  0  0  0  0
  146.2299  139.2301  155.0403 C   0  0  1  0  0  0  0  0  0  0  0  0
  145.0625  139.6352  155.9706 C   0  0  0  0  0  0  0  0  0  0  0  0
  144.9830  141.1430  156.3381 C   0  0  1  0  0  0  0  0  0  0  0  0
  145.5694  141.4450  157.6416 N   0  0  0  0  0  0  0  0  0  0  0  0
  145.7462  142.6646  158.1727 C   0  0  0  0  0  0  0  0  0  0  0  0
  145.4126  143.6889  157.5687 O   0  0  0  0  0  0  0  0  0  0  0  0
  146.3046  142.5529  159.4377 N   0  0  0  0  0  0  0  0  0  0  0  0
  146.8480  143.5890  160.0000 C   0  0  0  0  0  0  0  0  0  0  0  0
  147.0039  144.9137  159.6002 N   0  0  0  0  0  0  0  0  0  0  0  0
  147.6548  145.5859  160.5966 C   0  0  0  0  0  0  0  0  0  0  0  0
  147.8982  144.7271  161.5819 C   0  0  0  0  0  0  0  0  0  0  0  0
  147.4152  143.4979  161.2461 O   0  0  0  0  0  0  0  0  0  0  0  0
  145.5256  142.0917  155.2387 C   0  0  0  0  0  0  0  0  0  0  0  0
  148.1057  139.5436  152.9435 H   0  0  0  0  0  0  0  0  0  0  0  0
  146.9633  140.3806  151.8924 H   0  0  0  0  0  0  0  0  0  0  0  0
  146.6501  138.7205  152.3826 H   0  0  0  0  0  0  0  0  0  0  0  0
  146.7285  142.1707  153.4872 H   0  0  0  0  0  0  0  0  0  0  0  0
  148.8172  141.3527  154.2450 H   0  0  0  0  0  0  0  0  0  0  0  0
  148.2943  142.5040  155.4307 H   0  0  0  0  0  0  0  0  0  0  0  0
  149.3196  140.2976  156.2921 H   0  0  0  0  0  0  0  0  0  0  0  0
  147.8673  140.7973  157.0579 H   0  0  0  0  0  0  0  0  0  0  0  0
  148.2881  138.5697  155.0636 H   0  0  0  0  0  0  0  0  0  0  0  0
  147.5276  138.4701  156.6191 H   0  0  0  0  0  0  0  0  0  0  0  0
  145.9779  138.2433  154.6489 H   0  0  0  0  0  0  0  0  0  0  0  0
  144.1389  139.3875  155.4451 H   0  0  0  0  0  0  0  0  0  0  0  0
  145.0530  139.0070  156.8620 H   0  0  0  0  0  0  0  0  0  0  0  0
  143.9244  141.3873  156.4459 H   0  0  0  0  0  0  0  0  0  0  0  0
  145.8652  140.6544  158.1962 H   0  0  0  0  0  0  0  0  0  0  0  0
  146.7086  145.3456  158.7364 H   0  0  0  0  0  0  0  0  0  0  0  0
  147.8804  146.6368  160.4905 H   0  0  0  0  0  0  0  0  0  0  0  0
  148.3824  144.8302  162.5419 H   0  0  0  0  0  0  0  0  0  0  0  0
  145.8125  143.0555  155.6619 H   0  0  0  0  0  0  0  0  0  0  0  0
  144.6937  142.3148  154.5688 H   0  0  0  0  0  0  0  0  0  0  0  0
  145.3335  140.2516  153.5634 H   0  0  0  0  0  0  0  0  0  0  0  0
  1  2  1  0  0  0  0
  1 20  1  0  0  0  0
  1 21  1  0  0  0  0
  1 22  1  0  0  0  0
  2  7  1  0  0  0  0
  2  3  1  0  0  0  0
  2 40  1  0  0  0  0
  3 19  1  0  0  0  0
  3  4  1  0  0  0  0
  3 23  1  0  0  0  0
  4  5  1  0  0  0  0
  4 24  1  0  0  0  0
  4 25  1  0  0  0  0
  5  6  1  0  0  0  0
  5 26  1  0  0  0  0
  5 27  1  0  0  0  0
  6  7  1  0  0  0  0
  6 28  1  0  0  0  0
  6 29  1  0  0  0  0
  7  8  1  0  0  0  0
  7 30  1  0  0  0  0
  8  9  1  0  0  0  0
  8 31  1  0  0  0  0
  8 32  1  0  0  0  0
  9 10  1  0  0  0  0
  9 19  1  0  0  0  0
  9 33  1  0  0  0  0
 10 34  1  0  0  0  0
 10 11  1  0  0  0  0
 11 13  1  0  0  0  0
 11 12  2  0  0  0  0
 13 14  2  0  0  0  0
 14 18  1  0  0  0  0
 14 15  1  0  0  0  0
 15 35  1  0  0  0  0
 15 16  1  0  0  0  0
 16 36  1  0  0  0  0
 16 17  2  0  0  0  0
 17 37  1  0  0  0  0
 17 18  1  0  0  0  0
 19 38  1  0  0  0  0
 19 39  1  0  0  0  0
M  CHG  1   2   1
M  END
> <s_m_source_file>
AV-unprocessed.smi

> <i_m_source_file_index>
2226

> <i_lp_mmshare_version>
43012

> <i_f3d_flags>
0

> <s_epik_input>
W0NIMl0xW0NIMl1bQ0gyXVtDQEhdKE4oW0NIM10pW0NIXTEyKVtDSDJdW0NASF0oW0NIMl0yKVtOSF1DKD1PKVtOSF1jM25bY0hdW2NIXW8z

> <s_epik_cmdline>
J2VwaWtfcHl0aG9uJywgJy1waCcsICc3LjAnLCAnLXRuJywgJzgnLCAnLW1hJywgJzIwMCcsICctbWV0YWxfYmluZGluZycsICctaW1hZScsICc8aW5maWxlLm1hZT4nLCAnLW9tYWUnLCAnPG91dGZpbGUubWFlPic=

> <r_lp_tautomer_probability>
0.107061

> <r_epik_Ionization_Penalty>
1.08307

> <r_epik_Ionization_Penalty_Charging>
1.08272

> <r_epik_Ionization_Penalty_Neutral>
0.000345913

> <r_epik_State_Penalty>
2.5744

> <r_epik_Charging_Adjusted_Penalty>
3.65713

> <i_epik_Tot_Q>
1

> <i_epik_Tot_abs_Q>
1

> <r_epik_Metal_State_Penalty>
3.72133

> <b_epik_Metal_Only>
0

> <s_lp_Force_Field>
OPLS_2005

> <r_lp_Energy>
59.8025

> <b_lp_Chiralities_Consistent>
1

> <s_lp_Variant>
AV-unprocessed.smi:2226-13

> <Gold.Version>
5.8.1

> <Gold.Id.Protein>
6NUR|6NUR_protein|mol2

> <Gold.PLP.Fitness>
35.7138

> <Gold.PLP.PLP>
-23.7892

> <Gold.PLP.part.hbond>
-3.5721

> <Gold.PLP.part.metal>
0.0000

> <Gold.PLP.part.buried>
-4.0153

> <Gold.PLP.part.nonpolar>
-17.4582

> <Gold.PLP.part.repulsive>
0.3572

> <Gold.PLP.ligand.clash>
0.0000

> <Gold.PLP.ligand.torsion>
0.1860

> <Gold.PLP.Chemscore.Hbond>
4.0810

> <Gold.PLP.Chemscore.CHOScore>
0.0000

> <Gold.PLP.Chemscore.Metal>
0.0000

> <Gold.Chemscore.Hbonds>
donor molecule, donor type, donor heavy atom, donor atom, acceptor molecule, acceptor atom, score
      L1  H     2    40       P1 10175  2.00
      L1  H    15    35       P1  8029  0.54
      P1  H  6933  6944       L1    18  1.00
      P1  H  6934  6946       L1    13  0.57

> <Gold.PLP.Chemscore.Internal.Correction>
0.0535

> <Gold.Rescore>
     Score         DG    S(hbond)    S(metal)    S(lipo)     H(rot)  DE(clash)    DE(int)     intcor
     15.45     -17.02       2.80        0.00      40.68       1.00       0.00       1.57       ----

> <Gold.Chemscore.Fitness>
15.4458

> <Gold.Chemscore.DG>
-17.0176

> <Gold.Chemscore.ZeroCoef>
-5.4800

> <Gold.Chemscore.Hbond>
2.7958

> <Gold.Chemscore.Metal>
0.0000

> <Gold.Chemscore.Lipo>
40.6804

> <Gold.Chemscore.Internal_Hbond>
0.0000

> <Gold.Chemscore.DEClash>
0.0048

> <Gold.Chemscore.DEInternal>
1.5670

> <Gold.Chemscore.Rot>
1.0000

> <Gold.Chemscore.Internal.Correction>
   9.000000E+99

> <Gold.Chemscore.Hbonds>
donor molecule, donor type, donor heavy atom, donor atom, acceptor molecule, acceptor atom, score
      L1  H     2    40       P1 10175  0.97
      L1  H    15    35       P1  8029  0.56
      P1  H  6933  6944       L1    18  0.75
      P1  H  6934  6946       L1    13  0.25

> <Gold.Chemscore.Hbond.Weighted>
-9.3380

> <Gold.Chemscore.Metal.Weighted>
-0.0000

> <Gold.Chemscore.Lipo.Weighted>
-4.7596

> <Gold.Chemscore.Internal_Hbond.Weighted>
0.0000

> <Gold.Chemscore.DEClash.Weighted>
0.0048

> <Gold.Chemscore.DEInternal.Weighted>
1.5670

> <Gold.Chemscore.Rot.Weighted>
2.5600

> <Gold.Chemscore.Internal.Correction.Weighted>
   9.000000E+99

> <Gold.Protein.RotatedTorsions>
[ 6907 6896 6895 6894 ] final  103.73 input  -60.11 | X-H torsion
[ 7974 7965 7964 7962 ] final -174.41 input  175.53 | X-H torsion
[ 8008 7997 7996 7995 ] final  -25.80 input   59.86 | X-H torsion
[ 10167 10162 10161 10158 ] final  -66.76 input  -65.29 | X-H torsion
[ 10718 10713 10712 10709 ] final  -61.76 input   66.30 | X-H torsion
[ 10763 10752 10751 10750 ] final   33.67 input  -60.55 | X-H torsion
[ 11005 11000 10999 10996 ] final   -3.71 input  -57.11 | X-H torsion

> <Gold.Protein.ActiveResidues>
 VAL166  LYS551  ARG553  GLY616  TRP617  ASP618  TYR619  PRO620  LYS621  CYS622 
 ASP623  PHE694  ASN695  SER759  ASP760  ASP761  ALA762  ILE779  LEU786  VAL792 
 PHE793  MET794  SER795  GLU796  ALA797  LYS798  CYS799  TRP800  GLU811  SER814 

> <Gold.Protein.RotatedAtoms>
  152.5286  133.9782  159.7793 H   0  0  0  0  0  0  0  0  0  0  0  0  # atno 6907 bound_to 6896
  151.0041  133.6020  159.2698 H   0  0  0  0  0  0  0  0  0  0  0  0  # atno 6908 bound_to 6896
  151.3118  135.0802  159.9328 H   0  0  0  0  0  0  0  0  0  0  0  0  # atno 6909 bound_to 6896
  144.7132  140.1476  143.6387 H   0  0  0  0  0  0  0  0  0  0  0  0  # atno 7974 bound_to 7965
  154.4457  140.1916  156.0676 H   0  0  0  0  0  0  0  0  0  0  0  0  # atno 8008 bound_to 7997
  156.0536  140.3305  155.7352 H   0  0  0  0  0  0  0  0  0  0  0  0  # atno 8009 bound_to 7997
  155.5520  140.0596  157.2838 H   0  0  0  0  0  0  0  0  0  0  0  0  # atno 8010 bound_to 7997
  140.5633  143.2313  151.6685 H   0  0  0  0  0  0  0  0  0  0  0  0  # atno 10167 bound_to 10162
  156.0900  130.4202  150.1040 H   0  0  0  0  0  0  0  0  0  0  0  0  # atno 10718 bound_to 10713
  153.0201  135.6381  154.1548 H   0  0  0  0  0  0  0  0  0  0  0  0  # atno 10763 bound_to 10752
  154.1283  135.2842  155.3193 H   0  0  0  0  0  0  0  0  0  0  0  0  # atno 10764 bound_to 10752
  154.6213  135.5524  153.7640 H   0  0  0  0  0  0  0  0  0  0  0  0  # atno 10765 bound_to 10752
  140.6723  133.9226  155.8502 H   0  0  0  0  0  0  0  0  0  0  0  0  # atno 11005 bound_to 11000
  145.9145  139.2507  143.1417 LP  0  0  0  0  0  0  0  0  0  0  0  0  # atno 17320 bound_to 7965
  145.9682  140.8781  143.0176 LP  0  0  0  0  0  0  0  0  0  0  0  0  # atno 17321 bound_to 7965
  139.5080  144.3625  152.0548 LP  0  0  0  0  0  0  0  0  0  0  0  0  # atno 17342 bound_to 10162
  140.2754  144.3918  150.6137 LP  0  0  0  0  0  0  0  0  0  0  0  0  # atno 17343 bound_to 10162
  156.9052  130.9633  151.3571 LP  0  0  0  0  0  0  0  0  0  0  0  0  # atno 17370 bound_to 10713
  157.6046  130.8538  149.8855 LP  0  0  0  0  0  0  0  0  0  0  0  0  # atno 17371 bound_to 10713
  141.0383  134.0658  157.3933 LP  0  0  0  0  0  0  0  0  0  0  0  0  # atno 17394 bound_to 11000
  139.8978  135.0152  156.7116 LP  0  0  0  0  0  0  0  0  0  0  0  0  # atno 17395 bound_to 11000

$$$$
