AV-unprocessed.smi:1921|AV-procd|sdf|7785|dock4
  -GOLD-   22720 9533D 1   1.00000     0.00000
 Structure written by MMmdl.
 27 28  0  0  0  0  0  0  0  0  1 V2000
  152.5324  144.6095  157.9582 C   0  0  0  0  0  0  0  0  0  0  0  0
  151.9959  143.1715  157.9517 C   0  0  2  0  0  0  0  0  0  0  0  0
  150.8628  143.1001  157.0347 N   0  0  0  0  0  0  0  0  0  0  0  0
  150.4539  141.9981  156.3887 C   0  0  0  0  0  0  0  0  0  0  0  0
  151.0049  140.9020  156.4960 O   0  0  0  0  0  0  0  0  0  0  0  0
  149.3792  142.2552  155.6226 N   0  0  0  0  0  0  0  0  0  0  0  0
  148.6556  141.3568  154.7951 C   0  0  0  0  0  0  0  0  0  0  0  0
  149.0330  140.0998  154.5341 N   0  0  0  0  0  0  0  0  0  0  0  0
  148.1317  139.4462  153.6898 C   0  0  0  0  0  0  0  0  0  0  0  0
  147.0658  140.2258  153.3156 C   0  0  0  0  0  0  0  0  0  0  0  0
  147.1513  141.8213  154.0134 S   0  0  0  0  0  0  0  0  0  0  0  0
  151.6627  142.7118  159.3614 C   0  0  0  0  0  0  0  0  0  0  0  0
  151.9355  143.5999  160.5525 C   0  0  0  0  0  0  0  0  0  0  0  0
  152.7464  142.3413  160.3466 C   0  0  0  0  0  0  0  0  0  0  0  0
  153.4166  144.6956  158.5903 H   0  0  0  0  0  0  0  0  0  0  0  0
  151.7864  145.3105  158.3344 H   0  0  0  0  0  0  0  0  0  0  0  0
  152.8156  144.9292  156.9547 H   0  0  0  0  0  0  0  0  0  0  0  0
  152.7930  142.5317  157.5675 H   0  0  0  0  0  0  0  0  0  0  0  0
  150.3487  143.9557  156.8841 H   0  0  0  0  0  0  0  0  0  0  0  0
  149.0387  143.2053  155.6317 H   0  0  0  0  0  0  0  0  0  0  0  0
  148.3273  138.4231  153.4045 H   0  0  0  0  0  0  0  0  0  0  0  0
  146.2388  139.9591  152.6747 H   0  0  0  0  0  0  0  0  0  0  0  0
  150.7485  142.1236  159.4199 H   0  0  0  0  0  0  0  0  0  0  0  0
  152.4340  144.5508  160.3743 H   0  0  0  0  0  0  0  0  0  0  0  0
  151.2021  143.6009  161.3563 H   0  0  0  0  0  0  0  0  0  0  0  0
  152.5535  141.5017  161.0110 H   0  0  0  0  0  0  0  0  0  0  0  0
  153.7819  142.4591  160.0336 H   0  0  0  0  0  0  0  0  0  0  0  0
  1  2  1  0  0  0  0
  1 15  1  0  0  0  0
  1 16  1  0  0  0  0
  1 17  1  0  0  0  0
  2  3  1  0  0  0  0
  2 12  1  0  0  0  0
  2 18  1  0  0  0  0
  3  4  1  0  0  0  0
  3 19  1  0  0  0  0
  4  5  2  0  0  0  0
  4  6  1  0  0  0  0
  6  7  1  0  0  0  0
  6 20  1  0  0  0  0
  7 11  1  0  0  0  0
  7  8  2  0  0  0  0
  8  9  1  0  0  0  0
  9 10  2  0  0  0  0
  9 21  1  0  0  0  0
 10 11  1  0  0  0  0
 10 22  1  0  0  0  0
 12 14  1  0  0  0  0
 12 13  1  0  0  0  0
 12 23  1  0  0  0  0
 13 14  1  0  0  0  0
 13 24  1  0  0  0  0
 13 25  1  0  0  0  0
 14 26  1  0  0  0  0
 14 27  1  0  0  0  0
M  END
> <s_m_source_file>
AV-unprocessed.smi

> <i_m_source_file_index>
1921

> <i_lp_mmshare_version>
43012

> <i_f3d_flags>
0

> <s_epik_input>
W0NIMl0xW0NIMl1bQ0hdMVtDQEhdKFtDSDNdKVtOSF1DKD1PKVtOSF1jMm5bY0hdW2NIXXMy

> <s_epik_cmdline>
J2VwaWtfcHl0aG9uJywgJy1waCcsICc3LjAnLCAnLXRuJywgJzgnLCAnLW1hJywgJzIwMCcsICctbWV0YWxfYmluZGluZycsICctaW1hZScsICc8aW5maWxlLm1hZT4nLCAnLW9tYWUnLCAnPG91dGZpbGUubWFlPic=

> <r_lp_tautomer_probability>
0.999

> <r_epik_Ionization_Penalty>
0.000426276

> <r_epik_Ionization_Penalty_Charging>
0

> <r_epik_Ionization_Penalty_Neutral>
0.000426276

> <r_epik_State_Penalty>
0.000177984

> <r_epik_Charging_Adjusted_Penalty>
0.000177984

> <i_epik_Tot_Q>
0

> <i_epik_Tot_abs_Q>
0

> <r_epik_Metal_State_Penalty>
-0

> <b_epik_Metal_Only>
0

> <s_lp_Force_Field>
OPLS_2005

> <r_lp_Energy>
11.4039

> <b_lp_Chiralities_Consistent>
1

> <s_lp_Variant>
AV-unprocessed.smi:1921-1

> <Gold.Version>
5.8.1

> <Gold.Id.Protein>
6NUR|6NUR_protein|mol2

> <Gold.PLP.Fitness>
40.4790

> <Gold.PLP.PLP>
-32.2197

> <Gold.PLP.part.hbond>
-1.9648

> <Gold.PLP.part.metal>
0.0000

> <Gold.PLP.part.buried>
-3.6825

> <Gold.PLP.part.nonpolar>
-27.7731

> <Gold.PLP.part.repulsive>
0.3057

> <Gold.PLP.ligand.clash>
0.0000

> <Gold.PLP.ligand.torsion>
1.2167

> <Gold.PLP.Chemscore.Hbond>
1.8089

> <Gold.PLP.Chemscore.CHOScore>
1.4015

> <Gold.PLP.Chemscore.Metal>
0.0000

> <Gold.Chemscore.Hbonds>
donor molecule, donor type, donor heavy atom, donor atom, acceptor molecule, acceptor atom, score
      L1  H     3    19       P1  8028  0.82
      L1  H     6    20       P1  8028  0.98
      L1  C     9    21       P1  7948  0.49
      L1  C    10    22       P1 10175  0.80

> <Gold.PLP.Chemscore.Internal.Correction>
1.0616

> <Gold.Rescore>
     Score         DG    S(hbond)    S(metal)    S(lipo)     H(rot)  DE(clash)    DE(int)     intcor
     15.45     -17.94       1.93        0.00      79.06       1.26       0.09       2.39       ----

> <Gold.Chemscore.Fitness>
15.4539

> <Gold.Chemscore.DG>
-17.9367

> <Gold.Chemscore.ZeroCoef>
-5.4800

> <Gold.Chemscore.Hbond>
1.9251

> <Gold.Chemscore.Metal>
0.0000

> <Gold.Chemscore.Lipo>
79.0614

> <Gold.Chemscore.Internal_Hbond>
0.0000

> <Gold.Chemscore.DEClash>
0.0885

> <Gold.Chemscore.DEInternal>
2.3943

> <Gold.Chemscore.Rot>
1.2591

> <Gold.Chemscore.Internal.Correction>
   9.000000E+99

> <Gold.Chemscore.Hbonds>
donor molecule, donor type, donor heavy atom, donor atom, acceptor molecule, acceptor atom, score
      L1  H     3    19       P1  8028  0.75
      L1  H     6    20       P1  8028  0.91

> <Gold.Chemscore.Hbond.Weighted>
-6.4298

> <Gold.Chemscore.Metal.Weighted>
-0.0000

> <Gold.Chemscore.Lipo.Weighted>
-9.2502

> <Gold.Chemscore.Internal_Hbond.Weighted>
0.0000

> <Gold.Chemscore.DEClash.Weighted>
0.0885

> <Gold.Chemscore.DEInternal.Weighted>
2.3943

> <Gold.Chemscore.Rot.Weighted>
3.2233

> <Gold.Chemscore.Internal.Correction.Weighted>
   9.000000E+99

> <Gold.Protein.RotatedTorsions>
[ 6907 6896 6895 6894 ] final   16.58 input  -60.11 | X-H torsion
[ 7974 7965 7964 7962 ] final -158.99 input  175.53 | X-H torsion
[ 8008 7997 7996 7995 ] final -116.89 input   59.86 | X-H torsion
[ 10167 10162 10161 10158 ] final  172.32 input  -65.29 | X-H torsion
[ 10718 10713 10712 10709 ] final  139.34 input   66.30 | X-H torsion
[ 10763 10752 10751 10750 ] final   55.86 input  -60.55 | X-H torsion
[ 11005 11000 10999 10996 ] final  156.40 input  -57.11 | X-H torsion

> <Gold.Protein.ActiveResidues>
 VAL166  LYS551  ARG553  GLY616  TRP617  ASP618  TYR619  PRO620  LYS621  CYS622 
 ASP623  PHE694  ASN695  SER759  ASP760  ASP761  ALA762  ILE779  LEU786  VAL792 
 PHE793  MET794  SER795  GLU796  ALA797  LYS798  CYS799  TRP800  GLU811  SER814 

> <Gold.Protein.RotatedAtoms>
  151.8361  135.0605  160.0442 H   0  0  0  0  0  0  0  0  0  0  0  0  # atno 6907 bound_to 6896
  152.2844  133.5496  159.5526 H   0  0  0  0  0  0  0  0  0  0  0  0  # atno 6908 bound_to 6896
  150.7203  134.0434  159.3816 H   0  0  0  0  0  0  0  0  0  0  0  0  # atno 6909 bound_to 6896
  144.7483  140.3749  143.6068 H   0  0  0  0  0  0  0  0  0  0  0  0  # atno 7974 bound_to 7965
  155.0749  140.0394  157.2620 H   0  0  0  0  0  0  0  0  0  0  0  0  # atno 8008 bound_to 7997
  154.6953  140.2662  155.6748 H   0  0  0  0  0  0  0  0  0  0  0  0  # atno 8009 bound_to 7997
  156.2742  140.2751  156.1545 H   0  0  0  0  0  0  0  0  0  0  0  0  # atno 8010 bound_to 7997
  139.5073  144.3386  152.0040 H   0  0  0  0  0  0  0  0  0  0  0  0  # atno 10167 bound_to 10162
  157.4155  131.1033  151.0409 H   0  0  0  0  0  0  0  0  0  0  0  0  # atno 10718 bound_to 10713
  152.9823  135.5696  154.5136 H   0  0  0  0  0  0  0  0  0  0  0  0  # atno 10763 bound_to 10752
  154.4635  135.2782  155.1697 H   0  0  0  0  0  0  0  0  0  0  0  0  # atno 10764 bound_to 10752
  154.3275  135.6256  153.5589 H   0  0  0  0  0  0  0  0  0  0  0  0  # atno 10765 bound_to 10752
  140.1672  134.8569  157.2646 H   0  0  0  0  0  0  0  0  0  0  0  0  # atno 11005 bound_to 11000
  145.7038  139.1668  143.2577 LP  0  0  0  0  0  0  0  0  0  0  0  0  # atno 17320 bound_to 7965
  146.1396  140.7076  142.9373 LP  0  0  0  0  0  0  0  0  0  0  0  0  # atno 17321 bound_to 7965
  140.2825  144.3844  150.6114 LP  0  0  0  0  0  0  0  0  0  0  0  0  # atno 17342 bound_to 10162
  140.6008  143.2167  151.7077 LP  0  0  0  0  0  0  0  0  0  0  0  0  # atno 17343 bound_to 10162
  157.1358  130.6122  149.5542 LP  0  0  0  0  0  0  0  0  0  0  0  0  # atno 17370 bound_to 10713
  155.9864  130.4898  150.7076 LP  0  0  0  0  0  0  0  0  0  0  0  0  # atno 17371 bound_to 10713
  140.2420  134.3784  155.7476 LP  0  0  0  0  0  0  0  0  0  0  0  0  # atno 17394 bound_to 11000
  141.2214  133.7270  156.8804 LP  0  0  0  0  0  0  0  0  0  0  0  0  # atno 17395 bound_to 11000

$$$$
