#       Name:                AV-unprocessed.smi:972
#       Creating user name   scv26
#       Creation time:       Fri Mar 27 02:20:21 2020


#       File generated by GOLD software.
#

@<TRIPOS>MOLECULE
AV-unprocessed.smi:972
    55    57     1
SMALL
NO_CHARGES


@<TRIPOS>ATOM
      1 ****        -7.3195  -0.0098   0.3507 C.3            1 S1                 0.0000
      2 ****        -6.4935   1.2483   0.7095 C.3            1 S1                 0.0000
      3 ****        -7.1679   2.4273  -0.0309 C.3            1 S1                 0.0000
      4 ****        -6.5564   1.4898   2.2287 C.3            1 S1                 0.0000
      5 ****        -5.0255   1.0899   0.2763 C.ar           1 S1                 0.0000
      6 ****        -4.4888  -0.1333   0.3745 N.ar           1 S1                 0.0000
      7 ****        -3.1691  -0.2661   0.1228 C.ar           1 S1                 0.0000
      8 ****        -2.3580   0.8494  -0.1973 C.ar           1 S1                 0.0000
      9 ****        -0.9671   0.8055  -0.4894 N.am           1 S1                 0.0000
     10 ****        -0.1038  -0.2126  -0.3325 C.2            1 S1                 0.0000
     11 ****        -0.3767  -1.3160   0.1383 O.2            1 S1                 0.0000
     12 ****         1.1256   0.1267  -0.7470 N.am           1 S1                 0.0000
     13 ****         2.2920  -0.7521  -0.7230 C.3            1 S1                 0.0000
     14 ****         2.9164  -0.8054   0.6843 C.3            1 S1                 0.0000
     15 ****         4.2013  -1.6507   0.6891 C.3            1 S1                 0.0000
     16 ****         5.1810  -1.1394  -0.3013 N.4            1 S1                 1.0000
     17 ****         6.4674  -1.8669  -0.2398 C.3            1 S1                 0.0000
     18 ****         7.3996  -1.3656   0.8386 C.3            1 S1                 0.0000
     19 ****         7.6624  -1.0196  -0.6103 C.3            1 S1                 0.0000
     20 ****         4.6155  -1.1184  -1.6734 C.3            1 S1                 0.0000
     21 ****         3.3413  -0.2588  -1.7332 C.3            1 S1                 0.0000
     22 ****        -3.0204   2.0927  -0.2395 C.ar           1 S1                 0.0000
     23 ****        -4.3403   2.2107   0.0146 N.ar           1 S1                 0.0000
     24 ****        -8.3701   0.1168   0.6139 H              1 S1                 0.0000
     25 ****        -6.9679  -0.8952   0.8815 H              1 S1                 0.0000
     26 ****        -7.2734  -0.2245  -0.7175 H              1 S1                 0.0000
     27 ****        -7.1149   2.2996  -1.1128 H              1 S1                 0.0000
     28 ****        -6.7025   3.3831   0.2128 H              1 S1                 0.0000
     29 ****        -8.2214   2.5145   0.2373 H              1 S1                 0.0000
     30 ****        -7.5850   1.6077   2.5711 H              1 S1                 0.0000
     31 ****        -6.0109   2.3916   2.5092 H              1 S1                 0.0000
     32 ****        -6.1193   0.6567   2.7803 H              1 S1                 0.0000
     33 ****        -2.7910  -1.2743   0.1768 H              1 S1                 0.0000
     34 ****        -0.5763   1.6662  -0.8441 H              1 S1                 0.0000
     35 ****         1.2610   1.0563  -1.1168 H              1 S1                 0.0000
     36 ****         1.9838  -1.7583  -1.0144 H              1 S1                 0.0000
     37 ****         3.1451   0.2045   1.0281 H              1 S1                 0.0000
     38 ****         2.2051  -1.2209   1.3990 H              1 S1                 0.0000
     39 ****         4.6441  -1.6322   1.6858 H              1 S1                 0.0000
     40 ****         3.9670  -2.6929   0.4665 H              1 S1                 0.0000
     41 ****         6.4383  -2.9248  -0.4951 H              1 S1                 0.0000
     42 ****         7.0524  -0.5662   1.4909 H              1 S1                 0.0000
     43 ****         8.0630  -2.0908   1.3056 H              1 S1                 0.0000
     44 ****         8.4991  -1.5166  -1.0970 H              1 S1                 0.0000
     45 ****         7.4904   0.0102  -0.9188 H              1 S1                 0.0000
     46 ****         5.3559  -0.7206  -2.3685 H              1 S1                 0.0000
     47 ****         4.3964  -2.1383  -1.9941 H              1 S1                 0.0000
     48 ****         2.9289  -0.2814  -2.7429 H              1 S1                 0.0000
     49 ****         3.5972   0.7817  -1.5263 H              1 S1                 0.0000
     50 ****        -2.4880   3.0036  -0.4712 H              1 S1                 0.0000
     51 ****         5.3781  -0.1809  -0.0507 H              1 S1                 0.0000
     52 ****        -5.0479  -0.9232   0.6263 LP             1 S1                 0.0000
     53 ****        -1.3087  -1.5133   0.4423 LP             1 S1                 0.0000
     54 ****         0.3335  -2.0156   0.2170 LP             1 S1                 0.0000
     55 ****        -4.7910   3.1033   0.0078 LP             1 S1                 0.0000
@<TRIPOS>BOND
    1    1    2 1     
    2    1   24 1     
    3    1   25 1     
    4    1   26 1     
    5    2    3 1     
    6    2    4 1     
    7    2    5 1     
    8    3   27 1     
    9    3   28 1     
   10    3   29 1     
   11    4   30 1     
   12    4   31 1     
   13    4   32 1     
   14    5   23 ar    
   15    5    6 ar    
   16    6    7 ar    
   17    7    8 ar    
   18    7   33 1     
   19    8    9 1     
   20    8   22 ar    
   21    9   10 am    
   22    9   34 1     
   23   10   11 2     
   24   10   12 am    
   25   12   13 1     
   26   12   35 1     
   27   13   21 1     
   28   13   14 1     
   29   13   36 1     
   30   14   15 1     
   31   14   37 1     
   32   14   38 1     
   33   15   16 1     
   34   15   39 1     
   35   15   40 1     
   36   16   17 1     
   37   16   20 1     
   38   16   51 1     
   39   17   19 1     
   40   17   18 1     
   41   17   41 1     
   42   18   19 1     
   43   18   42 1     
   44   18   43 1     
   45   19   44 1     
   46   19   45 1     
   47   20   21 1     
   48   20   46 1     
   49   20   47 1     
   50   21   48 1     
   51   21   49 1     
   52   22   23 ar    
   53   22   50 1     
   54    6   52 1     
   55   11   53 1     
   56   11   54 1     
   57   23   55 1     
@<TRIPOS>SUBSTRUCTURE
      1 S1             1
@<TRIPOS>SET
LONE_PAIRS      STATIC     ATOMS    <user>   **** ""
4 52 53 54 55
DONOR_HYDROGENS      STATIC     ATOMS    <user>   **** ""
3 34 35 51
ATOM$BLUE        STATIC     ATOMS    COLORGROUP SYSTEM
4 52 53 54 55
ATOM$RED        STATIC     ATOMS    COLORGROUP SYSTEM
3 34 35 51
