AV-unprocessed.smi:197|AV-procd|sdf|1549|dock2
  -GOLD-   2262019413D 1   1.00000     0.00000
 Structure written by MMmdl.
 54 57  0  0  0  0  0  0  0  0  1 V2000
  154.8128  140.0422  160.1831 C   0  0  0  0  0  0  0  0  0  0  0  0
  154.1389  139.8251  158.9524 O   0  0  0  0  0  0  0  0  0  0  0  0
  152.7349  139.6488  159.0819 C   0  0  0  0  0  0  0  0  0  0  0  0
  151.9530  140.7797  158.3886 C   0  0  0  0  0  0  0  0  0  0  0  0
  151.6157  141.9643  159.3278 C   0  0  1  0  0  0  0  0  0  0  0  0
  152.8585  142.5502  160.0336 C   0  0  0  0  0  0  0  0  0  0  0  0
  153.6829  143.2332  159.0948 O   0  0  0  0  0  0  0  0  0  0  0  0
  153.0089  144.3394  158.5053 C   0  0  0  0  0  0  0  0  0  0  0  0
  151.7710  143.8431  157.7422 C   0  0  0  0  0  0  0  0  0  0  0  0
  150.9176  143.0474  158.6248 N   0  0  0  0  0  0  0  0  0  0  0  0
  149.6532  142.7702  158.2051 C   0  0  0  0  0  0  0  0  0  0  0  0
  149.4664  142.0113  157.0913 N   0  0  0  0  0  0  0  0  0  0  0  0
  148.2354  141.6792  156.6940 C   0  0  0  0  0  0  0  0  0  0  0  0
  147.0666  141.9887  157.2563 N   0  0  0  0  0  0  0  0  0  0  0  0
  147.2421  142.7623  158.3649 C   0  0  0  0  0  0  0  0  0  0  0  0
  148.4861  143.2053  158.8977 C   0  0  0  0  0  0  0  0  0  0  0  0
  148.2603  143.9932  160.0209 N   0  0  0  0  0  0  0  0  0  0  0  0
  146.9633  143.9914  160.1604 C   0  0  0  0  0  0  0  0  0  0  0  0
  146.2749  143.2594  159.2204 N   0  0  0  0  0  0  0  0  0  0  0  0
  144.8369  143.0559  159.1572 C   0  0  0  0  0  0  0  0  0  0  0  0
  144.2168  142.6675  160.5216 C   0  0  1  0  0  0  0  0  0  0  0  0
  144.9239  141.5489  161.0334 O   0  0  0  0  0  0  0  0  0  0  0  0
  144.3069  143.7914  161.5423 C   0  0  0  0  0  0  0  0  0  0  0  0
  143.1782  143.4536  162.5068 C   0  0  0  0  0  0  0  0  0  0  0  0
  142.1414  142.9583  161.6725 O   0  0  0  0  0  0  0  0  0  0  0  0
  142.6927  142.3872  160.4865 C   0  0  2  0  0  0  0  0  0  0  0  0
  142.2547  140.9174  160.3519 C   0  0  0  0  0  0  0  0  0  0  0  0
  155.8718  140.2120  159.9893 H   0  0  0  0  0  0  0  0  0  0  0  0
  154.7340  139.1851  160.8513 H   0  0  0  0  0  0  0  0  0  0  0  0
  154.4239  140.9217  160.6972 H   0  0  0  0  0  0  0  0  0  0  0  0
  152.4325  138.6702  158.7047 H   0  0  0  0  0  0  0  0  0  0  0  0
  152.5127  139.6513  160.1484 H   0  0  0  0  0  0  0  0  0  0  0  0
  152.5103  141.1301  157.5193 H   0  0  0  0  0  0  0  0  0  0  0  0
  151.0248  140.3646  157.9990 H   0  0  0  0  0  0  0  0  0  0  0  0
  150.9695  141.5792  160.1138 H   0  0  0  0  0  0  0  0  0  0  0  0
  152.5554  143.2406  160.8226 H   0  0  0  0  0  0  0  0  0  0  0  0
  153.4425  141.7710  160.5214 H   0  0  0  0  0  0  0  0  0  0  0  0
  152.7271  145.0598  159.2751 H   0  0  0  0  0  0  0  0  0  0  0  0
  153.6903  144.8507  157.8255 H   0  0  0  0  0  0  0  0  0  0  0  0
  151.2185  144.7005  157.3554 H   0  0  0  0  0  0  0  0  0  0  0  0
  152.0764  143.2417  156.8854 H   0  0  0  0  0  0  0  0  0  0  0  0
  148.1795  141.0703  155.8038 H   0  0  0  0  0  0  0  0  0  0  0  0
  146.4704  144.5137  160.9676 H   0  0  0  0  0  0  0  0  0  0  0  0
  144.3763  143.9677  158.7749 H   0  0  0  0  0  0  0  0  0  0  0  0
  144.6354  142.2801  158.4175 H   0  0  0  0  0  0  0  0  0  0  0  0
  144.3322  141.0425  161.5690 H   0  0  0  0  0  0  0  0  0  0  0  0
  145.2800  143.8672  162.0292 H   0  0  0  0  0  0  0  0  0  0  0  0
  144.0963  144.7513  161.0690 H   0  0  0  0  0  0  0  0  0  0  0  0
  143.4843  142.6687  163.1999 H   0  0  0  0  0  0  0  0  0  0  0  0
  142.8485  144.3138  163.0895 H   0  0  0  0  0  0  0  0  0  0  0  0
  142.2501  142.9528  159.6665 H   0  0  0  0  0  0  0  0  0  0  0  0
  142.6691  140.4563  159.4556 H   0  0  0  0  0  0  0  0  0  0  0  0
  141.1694  140.8447  160.2845 H   0  0  0  0  0  0  0  0  0  0  0  0
  142.5676  140.3236  161.2108 H   0  0  0  0  0  0  0  0  0  0  0  0
  1  2  1  0  0  0  0
  1 28  1  0  0  0  0
  1 29  1  0  0  0  0
  1 30  1  0  0  0  0
  2  3  1  0  0  0  0
  3  4  1  0  0  0  0
  3 31  1  0  0  0  0
  3 32  1  0  0  0  0
  4  5  1  0  0  0  0
  4 33  1  0  0  0  0
  4 34  1  0  0  0  0
  5 10  1  0  0  0  0
  5  6  1  0  0  0  0
  5 35  1  0  0  0  0
  6  7  1  0  0  0  0
  6 36  1  0  0  0  0
  6 37  1  0  0  0  0
  7  8  1  0  0  0  0
  8  9  1  0  0  0  0
  8 38  1  0  0  0  0
  8 39  1  0  0  0  0
  9 10  1  0  0  0  0
  9 40  1  0  0  0  0
  9 41  1  0  0  0  0
 10 11  1  0  0  0  0
 11 16  1  0  0  0  0
 11 12  2  0  0  0  0
 12 13  1  0  0  0  0
 13 14  2  0  0  0  0
 13 42  1  0  0  0  0
 14 15  1  0  0  0  0
 15 19  1  0  0  0  0
 15 16  2  0  0  0  0
 16 17  1  0  0  0  0
 17 18  2  0  0  0  0
 18 19  1  0  0  0  0
 18 43  1  0  0  0  0
 19 20  1  0  0  0  0
 20 21  1  0  0  0  0
 20 44  1  0  0  0  0
 20 45  1  0  0  0  0
 21 26  1  0  0  0  0
 21 22  1  0  0  0  0
 21 23  1  0  0  0  0
 22 46  1  0  0  0  0
 23 24  1  0  0  0  0
 23 47  1  0  0  0  0
 23 48  1  0  0  0  0
 24 25  1  0  0  0  0
 24 49  1  0  0  0  0
 24 50  1  0  0  0  0
 25 26  1  0  0  0  0
 26 27  1  0  0  0  0
 26 51  1  0  0  0  0
 27 52  1  0  0  0  0
 27 53  1  0  0  0  0
 27 54  1  0  0  0  0
M  END
> <s_m_source_file>
AV-unprocessed.smi

> <i_m_source_file_index>
197

> <i_lp_mmshare_version>
43012

> <i_f3d_flags>
0

> <s_epik_input>
W0NIM11PW0NIMl1bQ0gyXVtDQEBIXTFbQ0gyXU9bQ0gyXVtDSDJdTjFjKG5bY0hdbjIpYyhjMjMpbltjSF1uM1tDSDJdW0NAQF00KFtPSF0pW0NIMl1bQ0gyXU9bQ0BIXTRbQ0gzXQ==

> <s_epik_cmdline>
J2VwaWtfcHl0aG9uJywgJy1waCcsICc3LjAnLCAnLXRuJywgJzgnLCAnLW1hJywgJzIwMCcsICctbWV0YWxfYmluZGluZycsICctaW1hZScsICc8aW5maWxlLm1hZT4nLCAnLW9tYWUnLCAnPG91dGZpbGUubWFlPic=

> <r_lp_tautomer_probability>
1

> <r_epik_Ionization_Penalty>
0.000106218

> <r_epik_Ionization_Penalty_Charging>
0

> <r_epik_Ionization_Penalty_Neutral>
0.000106218

> <r_epik_State_Penalty>
-0

> <r_epik_Charging_Adjusted_Penalty>
0

> <i_epik_Tot_Q>
0

> <i_epik_Tot_abs_Q>
0

> <r_epik_Metal_State_Penalty>
-0

> <b_epik_Metal_Only>
0

> <s_lp_Force_Field>
OPLS_2005

> <r_lp_Energy>
41.5492

> <b_lp_Chiralities_Consistent>
1

> <s_lp_Variant>
AV-unprocessed.smi:197-6

> <Gold.Version>
5.8.1

> <Gold.Id.Protein>
6NUR|6NUR_protein|mol2

> <Gold.PLP.Fitness>
42.2398

> <Gold.PLP.PLP>
-37.6912

> <Gold.PLP.part.hbond>
-3.6386

> <Gold.PLP.part.metal>
0.0000

> <Gold.PLP.part.buried>
-3.6913

> <Gold.PLP.part.nonpolar>
-29.7250

> <Gold.PLP.part.repulsive>
0.5088

> <Gold.PLP.ligand.clash>
0.0000

> <Gold.PLP.ligand.torsion>
1.0136

> <Gold.PLP.Chemscore.Hbond>
1.9991

> <Gold.PLP.Chemscore.CHOScore>
0.0000

> <Gold.PLP.Chemscore.Metal>
0.0000

> <Gold.Chemscore.Hbonds>
donor molecule, donor type, donor heavy atom, donor atom, acceptor molecule, acceptor atom, score
      P1  H  6933  6944       L1    17  0.30
      P1  H  6934  6946       L1    22  0.62
      P1  H  7997  8009       L1     2  1.00

> <Gold.PLP.Chemscore.Internal.Correction>
0.5784

> <Gold.Rescore>
     Score         DG    S(hbond)    S(metal)    S(lipo)     H(rot)  DE(clash)    DE(int)     intcor
     12.91     -14.49       1.62        0.00      92.70       2.84       0.48       1.10       ----

> <Gold.Chemscore.Fitness>
12.9136

> <Gold.Chemscore.DG>
-14.4880

> <Gold.Chemscore.ZeroCoef>
-5.4800

> <Gold.Chemscore.Hbond>
1.6233

> <Gold.Chemscore.Metal>
0.0000

> <Gold.Chemscore.Lipo>
92.6995

> <Gold.Chemscore.Internal_Hbond>
0.0000

> <Gold.Chemscore.DEClash>
0.4763

> <Gold.Chemscore.DEInternal>
1.0981

> <Gold.Chemscore.Rot>
2.8358

> <Gold.Chemscore.Internal.Correction>
   9.000000E+99

> <Gold.Chemscore.Hbonds>
donor molecule, donor type, donor heavy atom, donor atom, acceptor molecule, acceptor atom, score
      P1  H  6934  6946       L1    22  0.60
      P1  H  7997  8009       L1     2  0.96

> <Gold.Chemscore.Hbond.Weighted>
-5.4217

> <Gold.Chemscore.Metal.Weighted>
-0.0000

> <Gold.Chemscore.Lipo.Weighted>
-10.8458

> <Gold.Chemscore.Internal_Hbond.Weighted>
0.0000

> <Gold.Chemscore.DEClash.Weighted>
0.4763

> <Gold.Chemscore.DEInternal.Weighted>
1.0981

> <Gold.Chemscore.Rot.Weighted>
7.2596

> <Gold.Chemscore.Internal.Correction.Weighted>
   9.000000E+99

> <Gold.Protein.RotatedTorsions>
[ 6907 6896 6895 6894 ] final  178.17 input  -60.11 | X-H torsion
[ 7974 7965 7964 7962 ] final  -48.08 input  175.53 | X-H torsion
[ 8008 7997 7996 7995 ] final  124.40 input   59.86 | X-H torsion
[ 10167 10162 10161 10158 ] final  147.67 input  -65.29 | X-H torsion
[ 10718 10713 10712 10709 ] final   74.36 input   66.30 | X-H torsion
[ 10763 10752 10751 10750 ] final  -74.46 input  -60.55 | X-H torsion
[ 11005 11000 10999 10996 ] final   57.05 input  -57.11 | X-H torsion

> <Gold.Protein.ActiveResidues>
 VAL166  LYS551  ARG553  GLY616  TRP617  ASP618  TYR619  PRO620  LYS621  CYS622 
 ASP623  PHE694  ASN695  SER759  ASP760  ASP761  ALA762  ILE779  LEU786  VAL792 
 PHE793  MET794  SER795  GLU796  ALA797  LYS798  CYS799  TRP800  GLU811  SER814 

> <Gold.Protein.RotatedAtoms>
  151.6922  133.3311  159.3245 H   0  0  0  0  0  0  0  0  0  0  0  0  # atno 6907 bound_to 6896
  150.7774  134.6688  159.6390 H   0  0  0  0  0  0  0  0  0  0  0  0  # atno 6908 bound_to 6896
  152.3820  134.6579  160.0191 H   0  0  0  0  0  0  0  0  0  0  0  0  # atno 6909 bound_to 6896
  145.9549  140.7536  142.9486 H   0  0  0  0  0  0  0  0  0  0  0  0  # atno 7974 bound_to 7965
  156.2800  140.2740  156.1782 H   0  0  0  0  0  0  0  0  0  0  0  0  # atno 8008 bound_to 7997
  155.0584  140.0386  157.2586 H   0  0  0  0  0  0  0  0  0  0  0  0  # atno 8009 bound_to 7997
  154.7137  140.2674  155.6610 H   0  0  0  0  0  0  0  0  0  0  0  0  # atno 8010 bound_to 7997
  139.4886  144.5737  151.7005 H   0  0  0  0  0  0  0  0  0  0  0  0  # atno 10167 bound_to 10162
  157.6589  130.9674  150.1200 H   0  0  0  0  0  0  0  0  0  0  0  0  # atno 10718 bound_to 10713
  154.4734  135.5863  153.6338 H   0  0  0  0  0  0  0  0  0  0  0  0  # atno 10763 bound_to 10752
  152.9837  135.6072  154.3337 H   0  0  0  0  0  0  0  0  0  0  0  0  # atno 10764 bound_to 10752
  154.3221  135.2843  155.2493 H   0  0  0  0  0  0  0  0  0  0  0  0  # atno 10765 bound_to 10752
  140.0482  134.5775  155.9296 H   0  0  0  0  0  0  0  0  0  0  0  0  # atno 11005 bound_to 11000
  144.6803  140.2496  143.7333 LP  0  0  0  0  0  0  0  0  0  0  0  0  # atno 17320 bound_to 7965
  145.8120  139.2007  143.1987 LP  0  0  0  0  0  0  0  0  0  0  0  0  # atno 17321 bound_to 7965
  140.5330  144.0701  150.6060 LP  0  0  0  0  0  0  0  0  0  0  0  0  # atno 17342 bound_to 10162
  140.3697  143.2861  152.0292 LP  0  0  0  0  0  0  0  0  0  0  0  0  # atno 17343 bound_to 10162
  156.2074  130.3664  149.8713 LP  0  0  0  0  0  0  0  0  0  0  0  0  # atno 17370 bound_to 10713
  156.6600  130.8778  151.3546 LP  0  0  0  0  0  0  0  0  0  0  0  0  # atno 17371 bound_to 10713
  141.1917  133.6572  156.5469 LP  0  0  0  0  0  0  0  0  0  0  0  0  # atno 17394 bound_to 11000
  140.3960  134.7398  157.4751 LP  0  0  0  0  0  0  0  0  0  0  0  0  # atno 17395 bound_to 11000

$$$$
