AV-unprocessed.smi:1944|AV-procd|sdf|7855|dock3
  -GOLD-   2272010 03D 1   1.00000     0.00000
 Structure written by MMmdl.
 46 47  0  0  0  0  0  0  0  0  2 V2000
  152.3582  138.6614  154.6850 C   0  0  0  0  0  0  0  0  0  0  0  0
  151.0000  138.3197  154.4293 O   0  0  0  0  0  0  0  0  0  0  0  0
  150.0373  139.3028  154.5569 C   0  0  0  0  0  0  0  0  0  0  0  0
  150.4413  140.5698  154.8265 N   0  0  0  0  0  0  0  0  0  0  0  0
  149.5037  141.5318  154.9475 C   0  0  0  0  0  0  0  0  0  0  0  0
  148.1261  141.2871  154.8010 C   0  0  0  0  0  0  0  0  0  0  0  0
  147.7044  139.9741  154.5217 C   0  0  0  0  0  0  0  0  0  0  0  0
  148.6755  138.9498  154.4068 C   0  0  0  0  0  0  0  0  0  0  0  0
  148.3601  137.5954  154.1073 N   0  0  0  0  0  0  0  0  0  0  0  0
  147.3211  136.8623  154.5414 C   0  0  0  0  0  0  0  0  0  0  0  0
  146.4467  137.2512  155.3154 O   0  0  0  0  0  0  0  0  0  0  0  0
  147.3597  135.6191  154.0410 N   0  0  0  0  0  0  0  0  0  0  0  0
  146.3807  134.5763  154.3255 C   0  0  0  0  0  0  0  0  0  0  0  0
  145.1012  134.7587  153.4850 C   0  0  0  0  0  0  0  0  0  0  0  0
  144.8729  133.6613  152.5063 N   0  3  2  0  0  0  0  0  0  0  0  0
  146.1514  133.0552  152.0441 C   0  0  0  0  0  0  0  0  0  0  0  0
  145.9047  131.7882  151.2100 C   0  0  0  0  0  0  0  0  0  0  0  0
  144.9803  132.0815  150.0238 C   0  0  0  0  0  0  0  0  0  0  0  0
  143.6774  132.7187  150.5251 C   0  0  0  0  0  0  0  0  0  0  0  0
  143.9343  133.9765  151.3828 C   0  0  2  0  0  0  0  0  0  0  0  0
  144.3747  135.1846  150.5283 C   0  0  0  0  0  0  0  0  0  0  0  0
  152.9833  137.7787  154.5521 H   0  0  0  0  0  0  0  0  0  0  0  0
  152.4958  139.0126  155.7088 H   0  0  0  0  0  0  0  0  0  0  0  0
  152.7140  139.4260  153.9929 H   0  0  0  0  0  0  0  0  0  0  0  0
  149.8628  142.5277  155.1604 H   0  0  0  0  0  0  0  0  0  0  0  0
  147.4092  142.0893  154.8951 H   0  0  0  0  0  0  0  0  0  0  0  0
  146.6509  139.7843  154.3870 H   0  0  0  0  0  0  0  0  0  0  0  0
  149.0446  137.1104  153.5452 H   0  0  0  0  0  0  0  0  0  0  0  0
  148.1146  135.3805  153.4140 H   0  0  0  0  0  0  0  0  0  0  0  0
  146.8202  133.5925  154.1508 H   0  0  0  0  0  0  0  0  0  0  0  0
  146.1574  134.6368  155.3902 H   0  0  0  0  0  0  0  0  0  0  0  0
  144.2307  134.8799  154.1301 H   0  0  0  0  0  0  0  0  0  0  0  0
  145.1887  135.6915  152.9262 H   0  0  0  0  0  0  0  0  0  0  0  0
  146.7252  133.7833  151.4698 H   0  0  0  0  0  0  0  0  0  0  0  0
  146.7637  132.7908  152.9071 H   0  0  0  0  0  0  0  0  0  0  0  0
  146.8536  131.3867  150.8529 H   0  0  0  0  0  0  0  0  0  0  0  0
  145.4594  131.0163  151.8394 H   0  0  0  0  0  0  0  0  0  0  0  0
  145.4787  132.7471  149.3183 H   0  0  0  0  0  0  0  0  0  0  0  0
  144.7631  131.1611  149.4807 H   0  0  0  0  0  0  0  0  0  0  0  0
  143.0302  132.9601  149.6810 H   0  0  0  0  0  0  0  0  0  0  0  0
  143.1324  131.9852  151.1212 H   0  0  0  0  0  0  0  0  0  0  0  0
  142.9696  134.2329  151.8190 H   0  0  0  0  0  0  0  0  0  0  0  0
  143.6708  135.3552  149.7131 H   0  0  0  0  0  0  0  0  0  0  0  0
  145.3579  135.0412  150.0815 H   0  0  0  0  0  0  0  0  0  0  0  0
  144.4043  136.1043  151.1121 H   0  0  0  0  0  0  0  0  0  0  0  0
  144.4167  132.9307  153.0344 H   0  0  0  0  0  0  0  0  0  0  0  0
  1  2  1  0  0  0  0
  1 22  1  0  0  0  0
  1 23  1  0  0  0  0
  1 24  1  0  0  0  0
  2  3  1  0  0  0  0
  3  8  1  0  0  0  0
  3  4  2  0  0  0  0
  4  5  1  0  0  0  0
  5  6  2  0  0  0  0
  5 25  1  0  0  0  0
  6  7  1  0  0  0  0
  6 26  1  0  0  0  0
  7  8  2  0  0  0  0
  7 27  1  0  0  0  0
  8  9  1  0  0  0  0
  9 10  1  0  0  0  0
  9 28  1  0  0  0  0
 10 11  2  0  0  0  0
 10 12  1  0  0  0  0
 12 13  1  0  0  0  0
 12 29  1  0  0  0  0
 13 14  1  0  0  0  0
 13 30  1  0  0  0  0
 13 31  1  0  0  0  0
 14 15  1  0  0  0  0
 14 32  1  0  0  0  0
 14 33  1  0  0  0  0
 15 20  1  0  0  0  0
 15 16  1  0  0  0  0
 15 46  1  0  0  0  0
 16 17  1  0  0  0  0
 16 34  1  0  0  0  0
 16 35  1  0  0  0  0
 17 18  1  0  0  0  0
 17 36  1  0  0  0  0
 17 37  1  0  0  0  0
 18 19  1  0  0  0  0
 18 38  1  0  0  0  0
 18 39  1  0  0  0  0
 19 20  1  0  0  0  0
 19 40  1  0  0  0  0
 19 41  1  0  0  0  0
 20 21  1  0  0  0  0
 20 42  1  0  0  0  0
 21 43  1  0  0  0  0
 21 44  1  0  0  0  0
 21 45  1  0  0  0  0
M  CHG  1  15   1
M  END
> <s_m_source_file>
AV-unprocessed.smi

> <i_m_source_file_index>
1944

> <i_lp_mmshare_version>
43012

> <i_f3d_flags>
0

> <s_epik_input>
W0NIM11PYzFuW2NIXVtjSF1bY0hdYzFbTkhdQyg9TylbTkhdW0NIMl1bQ0gyXU4yW0NIMl1bQ0gyXVtDSDJdW0NIMl1bQ0BIXTJbQ0gzXQ==

> <s_epik_cmdline>
J2VwaWtfcHl0aG9uJywgJy1waCcsICc3LjAnLCAnLXRuJywgJzgnLCAnLW1hJywgJzIwMCcsICctbWV0YWxfYmluZGluZycsICctaW1hZScsICc8aW5maWxlLm1hZT4nLCAnLW9tYWUnLCAnPG91dGZpbGUubWFlPic=

> <r_lp_tautomer_probability>
1

> <r_epik_Ionization_Penalty>
0.00219525

> <r_epik_Ionization_Penalty_Charging>
0.00211816

> <r_epik_Ionization_Penalty_Neutral>
7.7088e-05

> <r_epik_State_Penalty>
0.00145254

> <r_epik_Charging_Adjusted_Penalty>
0.0035707

> <i_epik_Tot_Q>
1

> <i_epik_Tot_abs_Q>
1

> <r_epik_Metal_State_Penalty>
-0

> <b_epik_Metal_Only>
0

> <s_lp_Force_Field>
OPLS_2005

> <r_lp_Energy>
23.2027

> <b_lp_Chiralities_Consistent>
1

> <s_lp_Variant>
AV-unprocessed.smi:1944-3

> <Gold.Version>
5.8.1

> <Gold.Id.Protein>
6NUR|6NUR_protein|mol2

> <Gold.PLP.Fitness>
43.1917

> <Gold.PLP.PLP>
-35.1391

> <Gold.PLP.part.hbond>
-3.0000

> <Gold.PLP.part.metal>
0.0000

> <Gold.PLP.part.buried>
-6.0370

> <Gold.PLP.part.nonpolar>
-27.5226

> <Gold.PLP.part.repulsive>
0.2995

> <Gold.PLP.ligand.clash>
0.0000

> <Gold.PLP.ligand.torsion>
1.0865

> <Gold.PLP.Chemscore.Hbond>
2.3840

> <Gold.PLP.Chemscore.CHOScore>
1.0000

> <Gold.PLP.Chemscore.Metal>
0.0000

> <Gold.Chemscore.Hbonds>
donor molecule, donor type, donor heavy atom, donor atom, acceptor molecule, acceptor atom, score
      L1  H     9    28       P1  7948  0.69
      L1  H    12    29       P1  7948  0.74
      P1  H  7989  7998       L1     4  0.96
      L1  C     5    25       P1  8028  1.00

> <Gold.PLP.Chemscore.Internal.Correction>
0.0736

> <Gold.Rescore>
     Score         DG    S(hbond)    S(metal)    S(lipo)     H(rot)  DE(clash)    DE(int)     intcor
     16.45     -17.58       1.98        0.00      84.28       1.71       0.06       1.07       ----

> <Gold.Chemscore.Fitness>
16.4530

> <Gold.Chemscore.DG>
-17.5820

> <Gold.Chemscore.ZeroCoef>
-5.4800

> <Gold.Chemscore.Hbond>
1.9821

> <Gold.Chemscore.Metal>
0.0000

> <Gold.Chemscore.Lipo>
84.2844

> <Gold.Chemscore.Internal_Hbond>
0.0000

> <Gold.Chemscore.DEClash>
0.0580

> <Gold.Chemscore.DEInternal>
1.0710

> <Gold.Chemscore.Rot>
1.7107

> <Gold.Chemscore.Internal.Correction>
   9.000000E+99

> <Gold.Chemscore.Hbonds>
donor molecule, donor type, donor heavy atom, donor atom, acceptor molecule, acceptor atom, score
      L1  H     9    28       P1  7948  0.68
      L1  H    12    29       P1  7948  0.71
      P1  H  7989  7998       L1     4  0.27

> <Gold.Chemscore.Hbond.Weighted>
-6.6201

> <Gold.Chemscore.Metal.Weighted>
-0.0000

> <Gold.Chemscore.Lipo.Weighted>
-9.8613

> <Gold.Chemscore.Internal_Hbond.Weighted>
0.0000

> <Gold.Chemscore.DEClash.Weighted>
0.0580

> <Gold.Chemscore.DEInternal.Weighted>
1.0710

> <Gold.Chemscore.Rot.Weighted>
4.3794

> <Gold.Chemscore.Internal.Correction.Weighted>
   9.000000E+99

> <Gold.Protein.RotatedTorsions>
[ 6907 6896 6895 6894 ] final  -70.46 input  -60.11 | X-H torsion
[ 7974 7965 7964 7962 ] final   44.56 input  175.53 | X-H torsion
[ 8008 7997 7996 7995 ] final -132.47 input   59.86 | X-H torsion
[ 10167 10162 10161 10158 ] final  -68.31 input  -65.29 | X-H torsion
[ 10718 10713 10712 10709 ] final   14.19 input   66.30 | X-H torsion
[ 10763 10752 10751 10750 ] final -163.07 input  -60.55 | X-H torsion
[ 11005 11000 10999 10996 ] final  -53.64 input  -57.11 | X-H torsion

> <Gold.Protein.ActiveResidues>
 VAL166  LYS551  ARG553  GLY616  TRP617  ASP618  TYR619  PRO620  LYS621  CYS622 
 ASP623  PHE694  ASN695  SER759  ASP760  ASP761  ALA762  ILE779  LEU786  VAL792 
 PHE793  MET794  SER795  GLU796  ALA797  LYS798  CYS799  TRP800  GLU811  SER814 

> <Gold.Protein.RotatedAtoms>
  150.7257  134.5450  159.5765 H   0  0  0  0  0  0  0  0  0  0  0  0  # atno 6907 bound_to 6896
  152.2951  134.7673  160.0379 H   0  0  0  0  0  0  0  0  0  0  0  0  # atno 6908 bound_to 6896
  151.8273  133.3368  159.3639 H   0  0  0  0  0  0  0  0  0  0  0  0  # atno 6909 bound_to 6896
  146.0557  139.5060  142.9690 H   0  0  0  0  0  0  0  0  0  0  0  0  # atno 7974 bound_to 7965
  155.3295  140.0466  157.3042 H   0  0  0  0  0  0  0  0  0  0  0  0  # atno 8008 bound_to 7997
  154.5336  140.2265  155.8727 H   0  0  0  0  0  0  0  0  0  0  0  0  # atno 8009 bound_to 7997
  156.1813  140.3073  155.9160 H   0  0  0  0  0  0  0  0  0  0  0  0  # atno 8010 bound_to 7997
  140.5517  143.2312  151.6899 H   0  0  0  0  0  0  0  0  0  0  0  0  # atno 10167 bound_to 10162
  157.0355  130.6210  149.5742 H   0  0  0  0  0  0  0  0  0  0  0  0  # atno 10718 bound_to 10713
  154.7156  135.3015  154.9128 H   0  0  0  0  0  0  0  0  0  0  0  0  # atno 10763 bound_to 10752
  154.0016  135.6706  153.4763 H   0  0  0  0  0  0  0  0  0  0  0  0  # atno 10764 bound_to 10752
  153.0791  135.5019  154.8381 H   0  0  0  0  0  0  0  0  0  0  0  0  # atno 10765 bound_to 10752
  141.0986  133.6621  156.4202 H   0  0  0  0  0  0  0  0  0  0  0  0  # atno 11005 bound_to 11000
  145.6647  141.0232  143.1690 LP  0  0  0  0  0  0  0  0  0  0  0  0  # atno 17320 bound_to 7965
  144.7147  139.8241  143.7403 LP  0  0  0  0  0  0  0  0  0  0  0  0  # atno 17321 bound_to 7965
  139.5030  144.3808  152.0378 LP  0  0  0  0  0  0  0  0  0  0  0  0  # atno 17342 bound_to 10162
  140.2925  144.3737  150.6084 LP  0  0  0  0  0  0  0  0  0  0  0  0  # atno 17343 bound_to 10162
  156.0055  130.5141  150.7815 LP  0  0  0  0  0  0  0  0  0  0  0  0  # atno 17370 bound_to 10713
  157.5144  131.0927  151.0157 LP  0  0  0  0  0  0  0  0  0  0  0  0  # atno 17371 bound_to 10713
  140.5079  134.6423  157.5273 LP  0  0  0  0  0  0  0  0  0  0  0  0  # atno 17394 bound_to 11000
  139.9830  134.7107  155.9825 LP  0  0  0  0  0  0  0  0  0  0  0  0  # atno 17395 bound_to 11000

$$$$
