AV-unprocessed.smi:2667|AV-procd|sdf|10337|dock2
  -GOLD-   2272014363D 1   1.00000     0.00000
 Structure written by MMmdl.
 45 47  0  0  0  0  0  0  0  0  2 V2000
  152.1584  143.9870  158.1671 C   0  0  0  0  0  0  0  0  0  0  0  0
  151.2089  143.2676  157.1961 C   0  0  0  0  0  0  0  0  0  0  0  0
  151.3601  141.7384  157.1933 C   0  0  0  0  0  0  0  0  0  0  0  0
  152.1459  141.1998  157.9744 O   0  0  0  0  0  0  0  0  0  0  0  0
  150.5295  140.9690  156.2217 C   0  0  0  0  0  0  0  0  0  0  0  0
  151.0414  139.8553  155.5155 C   0  0  0  0  0  0  0  0  0  0  0  0
  150.2283  139.1505  154.6076 C   0  0  0  0  0  0  0  0  0  0  0  0
  148.8921  139.5347  154.3833 C   0  0  0  0  0  0  0  0  0  0  0  0
  148.1701  138.7834  153.4827 O   0  0  0  0  0  0  0  0  0  0  0  0
  146.7967  139.0918  153.2875 C   0  0  0  0  0  0  0  0  0  0  0  0
  146.1459  138.1121  152.2914 C   0  0  1  0  0  0  0  0  0  0  0  0
  146.5544  138.4459  150.9811 O   0  0  0  0  0  0  0  0  0  0  0  0
  146.3158  136.6027  152.5962 C   0  0  0  0  0  0  0  0  0  0  0  0
  145.3961  135.7056  151.8782 N   0  0  0  0  0  0  0  0  0  0  0  0
  144.2361  135.9919  151.2248 C   0  0  0  0  0  0  0  0  0  0  0  0
  143.7465  134.8257  150.7211 N   0  3  0  0  0  0  0  0  0  0  0  0
  144.6156  133.7802  151.0389 C   0  0  0  0  0  0  0  0  0  0  0  0
  144.5521  132.4220  150.7423 C   0  0  0  0  0  0  0  0  0  0  0  0
  145.6136  131.6210  151.2122 C   0  0  0  0  0  0  0  0  0  0  0  0
  146.6839  132.1757  151.9433 C   0  0  0  0  0  0  0  0  0  0  0  0
  146.7379  133.5541  152.2376 C   0  0  0  0  0  0  0  0  0  0  0  0
  145.6822  134.3391  151.7752 C   0  0  0  0  0  0  0  0  0  0  0  0
  148.3779  140.6511  155.0860 C   0  0  0  0  0  0  0  0  0  0  0  0
  149.1897  141.3572  155.9944 C   0  0  0  0  0  0  0  0  0  0  0  0
  152.0087  145.0657  158.1200 H   0  0  0  0  0  0  0  0  0  0  0  0
  153.2031  143.7892  157.9235 H   0  0  0  0  0  0  0  0  0  0  0  0
  151.9853  143.6755  159.1978 H   0  0  0  0  0  0  0  0  0  0  0  0
  150.1785  143.5149  157.4528 H   0  0  0  0  0  0  0  0  0  0  0  0
  151.3843  143.6358  156.1851 H   0  0  0  0  0  0  0  0  0  0  0  0
  152.0584  139.5202  155.6531 H   0  0  0  0  0  0  0  0  0  0  0  0
  150.6354  138.3023  154.0767 H   0  0  0  0  0  0  0  0  0  0  0  0
  146.2686  139.0197  154.2397 H   0  0  0  0  0  0  0  0  0  0  0  0
  146.6887  140.1160  152.9264 H   0  0  0  0  0  0  0  0  0  0  0  0
  145.0744  138.3143  152.3134 H   0  0  0  0  0  0  0  0  0  0  0  0
  145.7843  138.5539  150.4446 H   0  0  0  0  0  0  0  0  0  0  0  0
  147.3276  136.2953  152.3286 H   0  0  0  0  0  0  0  0  0  0  0  0
  146.2201  136.4120  153.6657 H   0  0  0  0  0  0  0  0  0  0  0  0
  143.7775  136.9663  151.1384 H   0  0  0  0  0  0  0  0  0  0  0  0
  143.7349  131.9949  150.1798 H   0  0  0  0  0  0  0  0  0  0  0  0
  145.6075  130.5602  151.0065 H   0  0  0  0  0  0  0  0  0  0  0  0
  147.4799  131.5308  152.2865 H   0  0  0  0  0  0  0  0  0  0  0  0
  147.5622  133.9678  152.7984 H   0  0  0  0  0  0  0  0  0  0  0  0
  147.3623  140.9883  154.9458 H   0  0  0  0  0  0  0  0  0  0  0  0
  148.7670  142.2041  156.5155 H   0  0  0  0  0  0  0  0  0  0  0  0
  142.8842  134.7528  150.1963 H   0  0  0  0  0  0  0  0  0  0  0  0
  1  2  1  0  0  0  0
  1 25  1  0  0  0  0
  1 26  1  0  0  0  0
  1 27  1  0  0  0  0
  2  3  1  0  0  0  0
  2 28  1  0  0  0  0
  2 29  1  0  0  0  0
  3  4  2  0  0  0  0
  3  5  1  0  0  0  0
  5 24  1  0  0  0  0
  5  6  2  0  0  0  0
  6  7  1  0  0  0  0
  6 30  1  0  0  0  0
  7  8  2  0  0  0  0
  7 31  1  0  0  0  0
  8  9  1  0  0  0  0
  8 23  1  0  0  0  0
  9 10  1  0  0  0  0
 10 11  1  0  0  0  0
 10 32  1  0  0  0  0
 10 33  1  0  0  0  0
 11 12  1  0  0  0  0
 11 13  1  0  0  0  0
 11 34  1  0  0  0  0
 12 35  1  0  0  0  0
 13 14  1  0  0  0  0
 13 36  1  0  0  0  0
 13 37  1  0  0  0  0
 14 22  1  0  0  0  0
 14 15  1  0  0  0  0
 15 16  2  0  0  0  0
 15 38  1  0  0  0  0
 16 17  1  0  0  0  0
 16 45  1  0  0  0  0
 17 22  2  0  0  0  0
 17 18  1  0  0  0  0
 18 19  2  0  0  0  0
 18 39  1  0  0  0  0
 19 20  1  0  0  0  0
 19 40  1  0  0  0  0
 20 21  2  0  0  0  0
 20 41  1  0  0  0  0
 21 22  1  0  0  0  0
 21 42  1  0  0  0  0
 23 24  2  0  0  0  0
 23 43  1  0  0  0  0
 24 44  1  0  0  0  0
M  CHG  1  16   1
M  END
> <s_m_source_file>
AV-unprocessed.smi

> <i_m_source_file_index>
2667

> <i_lp_mmshare_version>
43012

> <i_f3d_flags>
0

> <s_epik_input>
W0NIM11bQ0gyXUMoPU8pYzFbY0hdW2NIXWMoW2NIXVtjSF0xKU9bQ0gyXVtDQEhdKFtPSF0pW0NIMl1uKFtjSF1uMiljKGMyMylbY0hdW2NIXVtjSF1bY0hdMw==

> <s_epik_cmdline>
J2VwaWtfcHl0aG9uJywgJy1waCcsICc3LjAnLCAnLXRuJywgJzgnLCAnLW1hJywgJzIwMCcsICctbWV0YWxfYmluZGluZycsICctaW1hZScsICc8aW5maWxlLm1hZT4nLCAnLW9tYWUnLCAnPG91dGZpbGUubWFlPic=

> <r_lp_tautomer_probability>
0.9999

> <r_epik_Ionization_Penalty>
1.40272

> <r_epik_Ionization_Penalty_Charging>
1.40272

> <r_epik_Ionization_Penalty_Neutral>
2.3993e-06

> <r_epik_State_Penalty>
1.48501

> <r_epik_Charging_Adjusted_Penalty>
2.88772

> <i_epik_Tot_Q>
1

> <i_epik_Tot_abs_Q>
1

> <r_epik_Metal_State_Penalty>
5.5274

> <b_epik_Metal_Only>
0

> <s_lp_Force_Field>
OPLS_2005

> <r_lp_Energy>
30.2485

> <b_lp_Chiralities_Consistent>
1

> <s_lp_Variant>
AV-unprocessed.smi:2667-4

> <Gold.Version>
5.8.1

> <Gold.Id.Protein>
6NUR|6NUR_protein|mol2

> <Gold.PLP.Fitness>
57.3422

> <Gold.PLP.PLP>
-44.1286

> <Gold.PLP.part.hbond>
-3.1694

> <Gold.PLP.part.metal>
0.0000

> <Gold.PLP.part.buried>
-2.3099

> <Gold.PLP.part.nonpolar>
-41.2405

> <Gold.PLP.part.repulsive>
1.3389

> <Gold.PLP.ligand.clash>
0.0000

> <Gold.PLP.ligand.torsion>
1.0390

> <Gold.PLP.Chemscore.Hbond>
3.9588

> <Gold.PLP.Chemscore.CHOScore>
1.0000

> <Gold.PLP.Chemscore.Metal>
0.0000

> <Gold.Chemscore.Hbonds>
donor molecule, donor type, donor heavy atom, donor atom, acceptor molecule, acceptor atom, score
      L1  H    12    35       P1 10171  1.00
      L1  H    16    45       P1 10186  2.00
      P1  H  7954  7966       L1    12  1.00
      L1  C    15    38       P1 10171  1.00

> <Gold.PLP.Chemscore.Internal.Correction>
0.4153

> <Gold.Rescore>
     Score         DG    S(hbond)    S(metal)    S(lipo)     H(rot)  DE(clash)    DE(int)     intcor
     17.99     -21.55       2.75        0.00     115.53       2.59       2.54       1.02       ----

> <Gold.Chemscore.Fitness>
17.9899

> <Gold.Chemscore.DG>
-21.5546

> <Gold.Chemscore.ZeroCoef>
-5.4800

> <Gold.Chemscore.Hbond>
2.7490

> <Gold.Chemscore.Metal>
0.0000

> <Gold.Chemscore.Lipo>
115.5257

> <Gold.Chemscore.Internal_Hbond>
0.0000

> <Gold.Chemscore.DEClash>
2.5397

> <Gold.Chemscore.DEInternal>
1.0250

> <Gold.Chemscore.Rot>
2.5873

> <Gold.Chemscore.Internal.Correction>
   9.000000E+99

> <Gold.Chemscore.Hbonds>
donor molecule, donor type, donor heavy atom, donor atom, acceptor molecule, acceptor atom, score
      L1  H    12    35       P1 10171  0.97
      L1  H    16    45       P1 10186  0.43
      P1  H  7954  7966       L1    12  0.74

> <Gold.Chemscore.Hbond.Weighted>
-9.1816

> <Gold.Chemscore.Metal.Weighted>
-0.0000

> <Gold.Chemscore.Lipo.Weighted>
-13.5165

> <Gold.Chemscore.Internal_Hbond.Weighted>
0.0000

> <Gold.Chemscore.DEClash.Weighted>
2.5397

> <Gold.Chemscore.DEInternal.Weighted>
1.0250

> <Gold.Chemscore.Rot.Weighted>
6.6235

> <Gold.Chemscore.Internal.Correction.Weighted>
   9.000000E+99

> <Gold.Protein.RotatedTorsions>
[ 6907 6896 6895 6894 ] final    7.01 input  -60.11 | X-H torsion
[ 7974 7965 7964 7962 ] final -155.65 input  175.53 | X-H torsion
[ 8008 7997 7996 7995 ] final  152.16 input   59.86 | X-H torsion
[ 10167 10162 10161 10158 ] final  -71.19 input  -65.29 | X-H torsion
[ 10718 10713 10712 10709 ] final  136.69 input   66.30 | X-H torsion
[ 10763 10752 10751 10750 ] final -172.99 input  -60.55 | X-H torsion
[ 11005 11000 10999 10996 ] final   70.65 input  -57.11 | X-H torsion

> <Gold.Protein.ActiveResidues>
 VAL166  LYS551  ARG553  GLY616  TRP617  ASP618  TYR619  PRO620  LYS621  CYS622 
 ASP623  PHE694  ASN695  SER759  ASP760  ASP761  ALA762  ILE779  LEU786  VAL792 
 PHE793  MET794  SER795  GLU796  ALA797  LYS798  CYS799  TRP800  GLU811  SER814 

> <Gold.Protein.RotatedAtoms>
  151.6829  135.0959  160.0219 H   0  0  0  0  0  0  0  0  0  0  0  0  # atno 6907 bound_to 6896
  152.3825  133.6561  159.6181 H   0  0  0  0  0  0  0  0  0  0  0  0  # atno 6908 bound_to 6896
  150.7758  133.9007  159.3382 H   0  0  0  0  0  0  0  0  0  0  0  0  # atno 6909 bound_to 6896
  144.7630  140.4220  143.5962 H   0  0  0  0  0  0  0  0  0  0  0  0  # atno 7974 bound_to 7965
  156.2641  140.2028  156.6290 H   0  0  0  0  0  0  0  0  0  0  0  0  # atno 8008 bound_to 7997
  154.6698  140.0551  157.0177 H   0  0  0  0  0  0  0  0  0  0  0  0  # atno 8009 bound_to 7997
  155.1154  140.3219  155.4514 H   0  0  0  0  0  0  0  0  0  0  0  0  # atno 8010 bound_to 7997
  140.5293  143.2323  151.7291 H   0  0  0  0  0  0  0  0  0  0  0  0  # atno 10167 bound_to 10162
  157.4440  131.1060  151.0110 H   0  0  0  0  0  0  0  0  0  0  0  0  # atno 10718 bound_to 10713
  154.6130  135.2866  155.0411 H   0  0  0  0  0  0  0  0  0  0  0  0  # atno 10763 bound_to 10752
  154.1634  135.6484  153.4995 H   0  0  0  0  0  0  0  0  0  0  0  0  # atno 10764 bound_to 10752
  153.0203  135.5384  154.6890 H   0  0  0  0  0  0  0  0  0  0  0  0  # atno 10765 bound_to 10752
  139.9586  134.7100  156.0697 H   0  0  0  0  0  0  0  0  0  0  0  0  # atno 11005 bound_to 11000
  145.6558  139.1573  143.2836 LP  0  0  0  0  0  0  0  0  0  0  0  0  # atno 17320 bound_to 7965
  146.1711  140.6643  142.9232 LP  0  0  0  0  0  0  0  0  0  0  0  0  # atno 17321 bound_to 7965
  139.4949  144.4138  152.0051 LP  0  0  0  0  0  0  0  0  0  0  0  0  # atno 17342 bound_to 10162
  140.3240  144.3395  150.6003 LP  0  0  0  0  0  0  0  0  0  0  0  0  # atno 17343 bound_to 10162
  157.0964  130.5963  149.5450 LP  0  0  0  0  0  0  0  0  0  0  0  0  # atno 17370 bound_to 10713
  155.9960  130.5028  150.7480 LP  0  0  0  0  0  0  0  0  0  0  0  0  # atno 17371 bound_to 10713
  141.1261  133.6599  156.3339 LP  0  0  0  0  0  0  0  0  0  0  0  0  # atno 17394 bound_to 11000
  140.5552  134.5988  157.5419 LP  0  0  0  0  0  0  0  0  0  0  0  0  # atno 17395 bound_to 11000

$$$$
