#       Name:                AV-unprocessed.smi:1447
#       Creating user name   scv26
#       Creation time:       Fri Mar 27 05:57:28 2020


#       File generated by GOLD software.
#

@<TRIPOS>MOLECULE
AV-unprocessed.smi:1447
    55    57     1
SMALL
NO_CHARGES


@<TRIPOS>ATOM
      1 ****        -3.5845   3.7176   4.6597 C.3            1 S1                 0.0000
      2 ****        -2.9224   2.4778   4.8347 O.3            1 S1                 0.0000
      3 ****        -3.0391   1.6323   3.7023 C.3            1 S1                 0.0000
      4 ****        -2.3013   0.3080   3.9596 C.3            1 S1                 0.0000
      5 ****        -0.8444   0.4831   3.9496 N.am           1 S1                 0.0000
      6 ****        -0.2752   0.3724   2.6917 N.2            1 S1                 0.0000
      7 ****         1.0017   0.5161   2.5401 C.2            1 S1                 0.0000
      8 ****         1.6504   0.4033   1.2044 C.2            1 S1                 0.0000
      9 ****         2.8650   0.5472   1.0555 O.2            1 S1                 0.0000
     10 ****         0.8192   0.1320   0.1816 N.am           1 S1                 0.0000
     11 ****         1.2197  -0.0193  -1.2134 C.3            1 S1                 0.0000
     12 ****         0.0065   0.2061  -2.1307 C.3            1 S1                 0.0000
     13 ****         0.3711  -0.0363  -3.6051 C.3            1 S1                 0.0000
     14 ****         0.9309  -1.3967  -3.8001 N.4            1 S1                 1.0000
     15 ****         1.1844  -1.6944  -5.2266 C.3            1 S1                 0.0000
     16 ****        -0.0345  -2.1918  -5.9682 C.3            1 S1                 0.0000
     17 ****         1.0598  -3.1593  -5.5753 C.3            1 S1                 0.0000
     18 ****         2.1320  -1.6224  -2.9585 C.3            1 S1                 0.0000
     19 ****         1.8084  -1.4199  -1.4690 C.3            1 S1                 0.0000
     20 ****         1.8596   0.7950   3.6788 C.2            1 S1                 0.0000
     21 ****         1.2904   0.9008   4.8995 C.2            1 S1                 0.0000
     22 ****        -0.1511   0.7429   5.0993 C.2            1 S1                 0.0000
     23 ****        -0.6898   0.8358   6.2017 O.2            1 S1                 0.0000
     24 ****        -3.4695   4.3241   5.5579 H              1 S1                 0.0000
     25 ****        -4.6516   3.5745   4.4850 H              1 S1                 0.0000
     26 ****        -3.1630   4.2738   3.8214 H              1 S1                 0.0000
     27 ****        -4.0942   1.4269   3.5146 H              1 S1                 0.0000
     28 ****        -2.6422   2.1245   2.8126 H              1 S1                 0.0000
     29 ****        -2.6458  -0.1422   4.8919 H              1 S1                 0.0000
     30 ****        -2.5757  -0.4061   3.1811 H              1 S1                 0.0000
     31 ****        -0.1638   0.0294   0.3906 H              1 S1                 0.0000
     32 ****         1.9733   0.7344  -1.4499 H              1 S1                 0.0000
     33 ****        -0.8060  -0.4639  -1.8449 H              1 S1                 0.0000
     34 ****        -0.3719   1.2216  -2.0075 H              1 S1                 0.0000
     35 ****        -0.5186   0.0848  -4.2241 H              1 S1                 0.0000
     36 ****         1.0944   0.7083  -3.9416 H              1 S1                 0.0000
     37 ****         1.9194  -1.0676  -5.7289 H              1 S1                 0.0000
     38 ****        -0.9775  -2.2560  -5.4281 H              1 S1                 0.0000
     39 ****        -0.1195  -1.9361  -7.0225 H              1 S1                 0.0000
     40 ****         1.6962  -3.5414  -6.3709 H              1 S1                 0.0000
     41 ****         0.8410  -3.8649  -4.7758 H              1 S1                 0.0000
     42 ****         2.5040  -2.6357  -3.1148 H              1 S1                 0.0000
     43 ****         2.9279  -0.9421  -3.2661 H              1 S1                 0.0000
     44 ****         2.7130  -1.5648  -0.8772 H              1 S1                 0.0000
     45 ****         1.1019  -2.1853  -1.1444 H              1 S1                 0.0000
     46 ****         2.9268   0.9153   3.5614 H              1 S1                 0.0000
     47 ****         1.9164   1.1080   5.7550 H              1 S1                 0.0000
     48 ****         0.2278  -2.0511  -3.4878 H              1 S1                 0.0000
     49 ****        -3.3198   2.0113   5.6250 LP             1 S1                 0.0000
     50 ****        -1.9527   2.6538   5.0044 LP             1 S1                 0.0000
     51 ****        -0.8529   0.1809   1.8983 LP             1 S1                 0.0000
     52 ****         3.4455   0.7460   1.8452 LP             1 S1                 0.0000
     53 ****         3.2703   0.4653   0.1450 LP             1 S1                 0.0000
     54 ****        -1.6795   0.7198   6.2860 LP             1 S1                 0.0000
     55 ****        -0.1379   1.0273   7.0134 LP             1 S1                 0.0000
@<TRIPOS>BOND
    1    1    2 1     
    2    1   24 1     
    3    1   25 1     
    4    1   26 1     
    5    2    3 1     
    6    3    4 1     
    7    3   27 1     
    8    3   28 1     
    9    4    5 1     
   10    4   29 1     
   11    4   30 1     
   12    5   22 am    
   13    5    6 1     
   14    6    7 2     
   15    7    8 1     
   16    7   20 1     
   17    8    9 2     
   18    8   10 am    
   19   10   11 1     
   20   10   31 1     
   21   11   19 1     
   22   11   12 1     
   23   11   32 1     
   24   12   13 1     
   25   12   33 1     
   26   12   34 1     
   27   13   14 1     
   28   13   35 1     
   29   13   36 1     
   30   14   15 1     
   31   14   18 1     
   32   14   48 1     
   33   15   17 1     
   34   15   16 1     
   35   15   37 1     
   36   16   17 1     
   37   16   38 1     
   38   16   39 1     
   39   17   40 1     
   40   17   41 1     
   41   18   19 1     
   42   18   42 1     
   43   18   43 1     
   44   19   44 1     
   45   19   45 1     
   46   20   21 2     
   47   20   46 1     
   48   21   22 1     
   49   21   47 1     
   50   22   23 2     
   51    2   49 1     
   52    2   50 1     
   53    6   51 1     
   54    9   52 1     
   55    9   53 1     
   56   23   54 1     
   57   23   55 1     
@<TRIPOS>SUBSTRUCTURE
      1 S1             1
@<TRIPOS>SET
LONE_PAIRS      STATIC     ATOMS    <user>   **** ""
7 49 50 51 52 53 54 55
DONOR_HYDROGENS      STATIC     ATOMS    <user>   **** ""
2 31 48
ATOM$BLUE        STATIC     ATOMS    COLORGROUP SYSTEM
7 49 50 51 52 53 54 55
ATOM$RED        STATIC     ATOMS    COLORGROUP SYSTEM
2 31 48
