AV-unprocessed.smi:1204|AV-procd|sdf|5038|dock1
  -GOLD-   22720 4 63D 1   1.00000     0.00000
 Structure written by MMmdl.
 27 28  0  0  0  0  0  0  0  0  1 V2000
  152.8049  140.1769  158.0306 O   0  0  0  0  0  0  0  0  0  0  0  0
  152.0469  141.0902  157.7010 C   0  0  0  0  0  0  0  0  0  0  0  0
  151.7644  142.1581  158.4718 N   0  0  0  0  0  0  0  0  0  0  0  0
  152.2256  142.4482  159.7833 C   0  0  0  0  0  0  0  0  0  0  0  0
  151.8040  143.6924  160.3046 C   0  0  0  0  0  0  0  0  0  0  0  0
  152.2058  144.0735  161.5998 C   0  0  0  0  0  0  0  0  0  0  0  0
  153.0197  143.1988  162.3417 C   0  0  0  0  0  0  0  0  0  0  0  0
  153.3948  141.9793  161.7486 C   0  0  0  0  0  0  0  0  0  0  0  0
  153.0115  141.6125  160.5074 N   0  0  0  0  0  0  0  0  0  0  0  0
  151.3733  141.0742  156.3210 C   0  0  1  0  0  0  0  0  0  0  0  0
  151.5317  139.7249  155.5813 C   0  0  0  0  0  0  0  0  0  0  0  0
  150.8460  139.7873  154.3371 O   0  0  0  0  0  0  0  0  0  0  0  0
  149.4614  140.0468  154.5212 C   0  0  0  0  0  0  0  0  0  0  0  0
  149.2991  141.3929  155.2457 C   0  0  0  0  0  0  0  0  0  0  0  0
  149.9820  141.3354  156.4908 O   0  0  0  0  0  0  0  0  0  0  0  0
  151.1353  142.8384  158.0711 H   0  0  0  0  0  0  0  0  0  0  0  0
  151.1783  144.3520  159.7209 H   0  0  0  0  0  0  0  0  0  0  0  0
  151.8946  145.0201  162.0160 H   0  0  0  0  0  0  0  0  0  0  0  0
  153.3480  143.4554  163.3379 H   0  0  0  0  0  0  0  0  0  0  0  0
  154.0192  141.2797  162.2841 H   0  0  0  0  0  0  0  0  0  0  0  0
  151.8204  141.8729  155.7264 H   0  0  0  0  0  0  0  0  0  0  0  0
  152.5832  139.5153  155.3817 H   0  0  0  0  0  0  0  0  0  0  0  0
  151.1451  138.8968  156.1783 H   0  0  0  0  0  0  0  0  0  0  0  0
  148.9720  140.0786  153.5476 H   0  0  0  0  0  0  0  0  0  0  0  0
  148.9973  139.2389  155.0892 H   0  0  0  0  0  0  0  0  0  0  0  0
  149.6896  142.2116  154.6394 H   0  0  0  0  0  0  0  0  0  0  0  0
  148.2446  141.6011  155.4270 H   0  0  0  0  0  0  0  0  0  0  0  0
  1  2  2  0  0  0  0
  2  3  1  0  0  0  0
  2 10  1  0  0  0  0
  3  4  1  0  0  0  0
  3 16  1  0  0  0  0
  4  9  1  0  0  0  0
  4  5  2  0  0  0  0
  5  6  1  0  0  0  0
  5 17  1  0  0  0  0
  6  7  2  0  0  0  0
  6 18  1  0  0  0  0
  7  8  1  0  0  0  0
  7 19  1  0  0  0  0
  8  9  2  0  0  0  0
  8 20  1  0  0  0  0
 10 15  1  0  0  0  0
 10 11  1  0  0  0  0
 10 21  1  0  0  0  0
 11 12  1  0  0  0  0
 11 22  1  0  0  0  0
 11 23  1  0  0  0  0
 12 13  1  0  0  0  0
 13 14  1  0  0  0  0
 13 24  1  0  0  0  0
 13 25  1  0  0  0  0
 14 15  1  0  0  0  0
 14 26  1  0  0  0  0
 14 27  1  0  0  0  0
M  END
> <s_m_source_file>
AV-unprocessed.smi

> <i_m_source_file_index>
1204

> <i_lp_mmshare_version>
43012

> <i_f3d_flags>
0

> <s_epik_input>
TzFbQ0gyXVtDSDJdT1tDSDJdW0NASF0xQyg9TylbTkhdYzJbY0hdW2NIXVtjSF1bY0hdbjI=

> <s_epik_cmdline>
J2VwaWtfcHl0aG9uJywgJy1waCcsICc3LjAnLCAnLXRuJywgJzgnLCAnLW1hJywgJzIwMCcsICctbWV0YWxfYmluZGluZycsICctaW1hZScsICc8aW5maWxlLm1hZT4nLCAnLW9tYWUnLCAnPG91dGZpbGUubWFlPic=

> <r_epik_Ionization_Penalty>
0.0014012

> <r_epik_Ionization_Penalty_Charging>
0

> <r_epik_Ionization_Penalty_Neutral>
0.0014012

> <r_epik_State_Penalty>
0.00242437

> <r_epik_Charging_Adjusted_Penalty>
0.00242437

> <i_epik_Tot_Q>
0

> <i_epik_Tot_abs_Q>
0

> <r_epik_Metal_State_Penalty>
-0

> <b_epik_Metal_Only>
0

> <s_lp_Force_Field>
OPLS_2005

> <r_lp_Energy>
11.5738

> <b_lp_Chiralities_Consistent>
1

> <s_lp_Variant>
AV-unprocessed.smi:1204-2

> <Gold.Version>
5.8.1

> <Gold.Id.Protein>
6NUR|6NUR_protein|mol2

> <Gold.PLP.Fitness>
39.9419

> <Gold.PLP.PLP>
-34.3974

> <Gold.PLP.part.hbond>
-2.0000

> <Gold.PLP.part.metal>
0.0000

> <Gold.PLP.part.buried>
-5.1049

> <Gold.PLP.part.nonpolar>
-26.0839

> <Gold.PLP.part.repulsive>
0.2705

> <Gold.PLP.ligand.clash>
0.0000

> <Gold.PLP.ligand.torsion>
0.2157

> <Gold.PLP.Chemscore.Hbond>
1.9913

> <Gold.PLP.Chemscore.CHOScore>
0.0000

> <Gold.PLP.Chemscore.Metal>
0.0000

> <Gold.Chemscore.Hbonds>
donor molecule, donor type, donor heavy atom, donor atom, acceptor molecule, acceptor atom, score
      P1  H  7989  7998       L1    12  1.00
      P1  H  7997  8010       L1     1  0.99

> <Gold.PLP.Chemscore.Internal.Correction>
0.0020

> <Gold.Rescore>
     Score         DG    S(hbond)    S(metal)    S(lipo)     H(rot)  DE(clash)    DE(int)     intcor
     15.85     -17.37       1.77        0.00      72.88       1.00       0.01       1.51       ----

> <Gold.Chemscore.Fitness>
15.8521

> <Gold.Chemscore.DG>
-17.3660

> <Gold.Chemscore.ZeroCoef>
-5.4800

> <Gold.Chemscore.Hbond>
1.7722

> <Gold.Chemscore.Metal>
0.0000

> <Gold.Chemscore.Lipo>
72.8804

> <Gold.Chemscore.Internal_Hbond>
0.0000

> <Gold.Chemscore.DEClash>
0.0089

> <Gold.Chemscore.DEInternal>
1.5051

> <Gold.Chemscore.Rot>
1.0000

> <Gold.Chemscore.Internal.Correction>
   9.000000E+99

> <Gold.Chemscore.Hbonds>
donor molecule, donor type, donor heavy atom, donor atom, acceptor molecule, acceptor atom, score
      P1  H  7989  7998       L1    12  0.45
      P1  H  7997  8010       L1     1  0.77

> <Gold.Chemscore.Hbond.Weighted>
-5.9190

> <Gold.Chemscore.Metal.Weighted>
-0.0000

> <Gold.Chemscore.Lipo.Weighted>
-8.5270

> <Gold.Chemscore.Internal_Hbond.Weighted>
0.0000

> <Gold.Chemscore.DEClash.Weighted>
0.0089

> <Gold.Chemscore.DEInternal.Weighted>
1.5051

> <Gold.Chemscore.Rot.Weighted>
2.5600

> <Gold.Chemscore.Internal.Correction.Weighted>
   9.000000E+99

> <Gold.Protein.RotatedTorsions>
[ 6907 6896 6895 6894 ] final  -13.89 input  -60.11 | X-H torsion
[ 7974 7965 7964 7962 ] final  -33.38 input  175.53 | X-H torsion
[ 8008 7997 7996 7995 ] final   43.97 input   59.86 | X-H torsion
[ 10167 10162 10161 10158 ] final    3.25 input  -65.29 | X-H torsion
[ 10718 10713 10712 10709 ] final   98.34 input   66.30 | X-H torsion
[ 10763 10752 10751 10750 ] final   -4.59 input  -60.55 | X-H torsion
[ 11005 11000 10999 10996 ] final   24.08 input  -57.11 | X-H torsion

> <Gold.Protein.ActiveResidues>
 VAL166  LYS551  ARG553  GLY616  TRP617  ASP618  TYR619  PRO620  LYS621  CYS622 
 ASP623  PHE694  ASN695  SER759  ASP760  ASP761  ALA762  ILE779  LEU786  VAL792 
 PHE793  MET794  SER795  GLU796  ALA797  LYS798  CYS799  TRP800  GLU811  SER814 

> <Gold.Protein.RotatedAtoms>
  151.3480  135.0878  159.9392 H   0  0  0  0  0  0  0  0  0  0  0  0  # atno 6907 bound_to 6896
  152.5194  133.9381  159.7623 H   0  0  0  0  0  0  0  0  0  0  0  0  # atno 6908 bound_to 6896
  150.9751  133.6250  159.2761 H   0  0  0  0  0  0  0  0  0  0  0  0  # atno 6909 bound_to 6896
  146.0915  140.5909  142.8862 H   0  0  0  0  0  0  0  0  0  0  0  0  # atno 7974 bound_to 7965
  155.3115  140.3391  155.4244 H   0  0  0  0  0  0  0  0  0  0  0  0  # atno 8008 bound_to 7997
  156.1953  140.1712  156.8048 H   0  0  0  0  0  0  0  0  0  0  0  0  # atno 8009 bound_to 7997
  154.5491  140.0709  156.8622 H   0  0  0  0  0  0  0  0  0  0  0  0  # atno 8010 bound_to 7997
  140.6595  143.7341  150.7713 H   0  0  0  0  0  0  0  0  0  0  0  0  # atno 10167 bound_to 10162
  157.6897  131.0637  150.4782 H   0  0  0  0  0  0  0  0  0  0  0  0  # atno 10718 bound_to 10713
  153.3869  135.7000  153.6523 H   0  0  0  0  0  0  0  0  0  0  0  0  # atno 10763 bound_to 10752
  153.5112  135.3631  155.2588 H   0  0  0  0  0  0  0  0  0  0  0  0  # atno 10764 bound_to 10752
  154.8698  135.4135  154.3178 H   0  0  0  0  0  0  0  0  0  0  0  0  # atno 10765 bound_to 10752
  140.3625  134.2109  155.7671 H   0  0  0  0  0  0  0  0  0  0  0  0  # atno 11005 bound_to 11000
  144.7364  140.4820  143.6901 LP  0  0  0  0  0  0  0  0  0  0  0  0  # atno 17320 bound_to 7965
  145.6029  139.1505  143.3119 LP  0  0  0  0  0  0  0  0  0  0  0  0  # atno 17321 bound_to 7965
  140.1007  143.4790  152.2427 LP  0  0  0  0  0  0  0  0  0  0  0  0  # atno 17342 bound_to 10162
  139.5825  144.7517  151.3603 LP  0  0  0  0  0  0  0  0  0  0  0  0  # atno 17343 bound_to 10162
  156.5115  130.4140  149.6298 LP  0  0  0  0  0  0  0  0  0  0  0  0  # atno 17370 bound_to 10713
  156.3236  130.7294  151.2210 LP  0  0  0  0  0  0  0  0  0  0  0  0  # atno 17371 bound_to 10713
  141.1979  133.8047  157.0604 LP  0  0  0  0  0  0  0  0  0  0  0  0  # atno 17394 bound_to 11000
  140.0615  134.9752  157.1313 LP  0  0  0  0  0  0  0  0  0  0  0  0  # atno 17395 bound_to 11000

$$$$
