AV-unprocessed.smi:961|AV-procd|sdf|4274|dock3
  -GOLD-   22720 2183D 1   1.00000     0.00000
 Structure written by MMmdl.
 37 38  0  0  0  0  0  0  0  0  1 V2000
  152.4183  144.9985  158.3521 C   0  0  0  0  0  0  0  0  0  0  0  0
  151.7676  144.1611  159.4707 C   0  0  0  0  0  0  0  0  0  0  0  0
  152.1787  144.7161  160.8488 C   0  0  0  0  0  0  0  0  0  0  0  0
  150.2355  144.3001  159.3398 C   0  0  0  0  0  0  0  0  0  0  0  0
  152.1978  142.7128  159.3476 C   0  0  0  0  0  0  0  0  0  0  0  0
  152.9051  141.9574  160.2551 C   0  0  0  0  0  0  0  0  0  0  0  0
  153.1813  140.3323  159.6926 S   0  0  0  0  0  0  0  0  0  0  0  0
  152.3013  140.7259  158.2242 C   0  0  0  0  0  0  0  0  0  0  0  0
  152.1117  139.7620  157.1022 C   0  0  0  0  0  0  0  0  0  0  0  0
  151.4093  140.4028  155.8946 C   0  0  0  0  0  0  0  0  0  0  0  0
  150.1497  139.7349  155.5881 N   0  0  0  0  0  0  0  0  0  0  0  0
  149.3034  140.0966  154.6120 C   0  0  0  0  0  0  0  0  0  0  0  0
  149.5131  141.0514  153.8621 O   0  0  0  0  0  0  0  0  0  0  0  0
  148.0871  139.2352  154.5136 C   0  0  0  0  0  0  0  0  0  0  0  0
  147.1797  139.4387  153.3173 C   0  0  0  0  0  0  0  0  0  0  0  0
  146.7364  139.9010  154.6827 C   0  0  0  0  0  0  0  0  0  0  0  0
  151.8713  141.9892  158.1925 N   0  0  0  0  0  0  0  0  0  0  0  0
  152.1135  146.0440  158.4091 H   0  0  0  0  0  0  0  0  0  0  0  0
  152.1378  144.6274  157.3656 H   0  0  0  0  0  0  0  0  0  0  0  0
  153.5069  144.9757  158.4134 H   0  0  0  0  0  0  0  0  0  0  0  0
  153.2602  144.6903  160.9866 H   0  0  0  0  0  0  0  0  0  0  0  0
  151.7313  144.1377  161.6579 H   0  0  0  0  0  0  0  0  0  0  0  0
  151.8622  145.7525  160.9709 H   0  0  0  0  0  0  0  0  0  0  0  0
  149.9227  145.3411  159.4285 H   0  0  0  0  0  0  0  0  0  0  0  0
  149.7144  143.7393  160.1169 H   0  0  0  0  0  0  0  0  0  0  0  0
  149.8808  143.9378  158.3741 H   0  0  0  0  0  0  0  0  0  0  0  0
  153.2850  142.2542  161.2212 H   0  0  0  0  0  0  0  0  0  0  0  0
  153.0901  139.3760  156.8138 H   0  0  0  0  0  0  0  0  0  0  0  0
  151.5350  138.9099  157.4649 H   0  0  0  0  0  0  0  0  0  0  0  0
  151.1950  141.4510  156.1038 H   0  0  0  0  0  0  0  0  0  0  0  0
  152.0623  140.3876  155.0201 H   0  0  0  0  0  0  0  0  0  0  0  0
  149.9037  138.9397  156.1597 H   0  0  0  0  0  0  0  0  0  0  0  0
  148.1802  138.2166  154.8883 H   0  0  0  0  0  0  0  0  0  0  0  0
  147.4415  140.2057  152.5901 H   0  0  0  0  0  0  0  0  0  0  0  0
  146.7087  138.5515  152.8992 H   0  0  0  0  0  0  0  0  0  0  0  0
  145.9641  139.3273  155.1910 H   0  0  0  0  0  0  0  0  0  0  0  0
  146.7026  140.9748  154.8602 H   0  0  0  0  0  0  0  0  0  0  0  0
  1  2  1  0  0  0  0
  1 18  1  0  0  0  0
  1 19  1  0  0  0  0
  1 20  1  0  0  0  0
  2  3  1  0  0  0  0
  2  4  1  0  0  0  0
  2  5  1  0  0  0  0
  3 21  1  0  0  0  0
  3 22  1  0  0  0  0
  3 23  1  0  0  0  0
  4 24  1  0  0  0  0
  4 25  1  0  0  0  0
  4 26  1  0  0  0  0
  5 17  1  0  0  0  0
  5  6  2  0  0  0  0
  6  7  1  0  0  0  0
  6 27  1  0  0  0  0
  7  8  1  0  0  0  0
  8  9  1  0  0  0  0
  8 17  2  0  0  0  0
  9 10  1  0  0  0  0
  9 28  1  0  0  0  0
  9 29  1  0  0  0  0
 10 11  1  0  0  0  0
 10 30  1  0  0  0  0
 10 31  1  0  0  0  0
 11 12  1  0  0  0  0
 11 32  1  0  0  0  0
 12 13  2  0  0  0  0
 12 14  1  0  0  0  0
 14 16  1  0  0  0  0
 14 15  1  0  0  0  0
 14 33  1  0  0  0  0
 15 16  1  0  0  0  0
 15 34  1  0  0  0  0
 15 35  1  0  0  0  0
 16 36  1  0  0  0  0
 16 37  1  0  0  0  0
M  END
> <s_m_source_file>
AV-unprocessed.smi

> <i_m_source_file_index>
961

> <i_lp_mmshare_version>
43012

> <i_f3d_flags>
0

> <s_epik_input>
W0NIM11DKFtDSDNdKShbQ0gzXSljMVtjSF1zYyhuMSlbQ0gyXVtDSDJdW05IXUMoPU8pW0NIXTJbQ0gyXVtDSDJdMg==

> <s_epik_cmdline>
J2VwaWtfcHl0aG9uJywgJy1waCcsICc3LjAnLCAnLXRuJywgJzgnLCAnLW1hJywgJzIwMCcsICctbWV0YWxfYmluZGluZycsICctaW1hZScsICc8aW5maWxlLm1hZT4nLCAnLW9tYWUnLCAnPG91dGZpbGUubWFlPic=

> <r_epik_Ionization_Penalty>
0.000842111

> <r_epik_Ionization_Penalty_Charging>
0

> <r_epik_Ionization_Penalty_Neutral>
0.000842111

> <r_epik_State_Penalty>
0.000542609

> <r_epik_Charging_Adjusted_Penalty>
0.000542609

> <i_epik_Tot_Q>
0

> <i_epik_Tot_abs_Q>
0

> <r_epik_Metal_State_Penalty>
-0

> <b_epik_Metal_Only>
0

> <s_lp_Force_Field>
OPLS_2005

> <r_lp_Energy>
-3.24501

> <b_lp_Chiralities_Consistent>
1

> <s_lp_Variant>
AV-unprocessed.smi:961-1

> <Gold.Version>
5.8.1

> <Gold.Id.Protein>
6NUR|6NUR_protein|mol2

> <Gold.PLP.Fitness>
40.0433

> <Gold.PLP.PLP>
-37.6862

> <Gold.PLP.part.hbond>
-2.0000

> <Gold.PLP.part.metal>
0.0000

> <Gold.PLP.part.buried>
-4.7507

> <Gold.PLP.part.nonpolar>
-31.7267

> <Gold.PLP.part.repulsive>
1.6681

> <Gold.PLP.ligand.clash>
0.0000

> <Gold.PLP.ligand.torsion>
0.4787

> <Gold.PLP.Chemscore.Hbond>
1.0652

> <Gold.PLP.Chemscore.CHOScore>
0.0000

> <Gold.PLP.Chemscore.Metal>
0.0000

> <Gold.Chemscore.Hbonds>
donor molecule, donor type, donor heavy atom, donor atom, acceptor molecule, acceptor atom, score
      P1  H  7989  7998       L1    13  0.28
      P1  H  8011  8017       L1    13  0.83

> <Gold.PLP.Chemscore.Internal.Correction>
0.1189

> <Gold.Rescore>
     Score         DG    S(hbond)    S(metal)    S(lipo)     H(rot)  DE(clash)    DE(int)     intcor
     16.47     -18.24       1.21        0.00     108.00       1.54       1.32       0.46       ----

> <Gold.Chemscore.Fitness>
16.4659

> <Gold.Chemscore.DG>
-18.2399

> <Gold.Chemscore.ZeroCoef>
-5.4800

> <Gold.Chemscore.Hbond>
1.2148

> <Gold.Chemscore.Metal>
0.0000

> <Gold.Chemscore.Lipo>
107.9990

> <Gold.Chemscore.Internal_Hbond>
0.0000

> <Gold.Chemscore.DEClash>
1.3152

> <Gold.Chemscore.DEInternal>
0.4588

> <Gold.Chemscore.Rot>
1.5364

> <Gold.Chemscore.Internal.Correction>
   9.000000E+99

> <Gold.Chemscore.Hbonds>
donor molecule, donor type, donor heavy atom, donor atom, acceptor molecule, acceptor atom, score
      P1  H  7989  7998       L1    13  0.11
      P1  H  8011  8017       L1    13  0.78

> <Gold.Chemscore.Hbond.Weighted>
-4.0573

> <Gold.Chemscore.Metal.Weighted>
-0.0000

> <Gold.Chemscore.Lipo.Weighted>
-12.6359

> <Gold.Chemscore.Internal_Hbond.Weighted>
0.0000

> <Gold.Chemscore.DEClash.Weighted>
1.3152

> <Gold.Chemscore.DEInternal.Weighted>
0.4588

> <Gold.Chemscore.Rot.Weighted>
3.9332

> <Gold.Chemscore.Internal.Correction.Weighted>
   9.000000E+99

> <Gold.Protein.RotatedTorsions>
[ 6907 6896 6895 6894 ] final  -83.74 input  -60.11 | X-H torsion
[ 7974 7965 7964 7962 ] final  -70.26 input  175.53 | X-H torsion
[ 8008 7997 7996 7995 ] final  170.26 input   59.86 | X-H torsion
[ 10167 10162 10161 10158 ] final -132.76 input  -65.29 | X-H torsion
[ 10718 10713 10712 10709 ] final   99.84 input   66.30 | X-H torsion
[ 10763 10752 10751 10750 ] final  173.10 input  -60.55 | X-H torsion
[ 11005 11000 10999 10996 ] final  148.10 input  -57.11 | X-H torsion

> <Gold.Protein.ActiveResidues>
 VAL166  LYS551  ARG553  GLY616  TRP617  ASP618  TYR619  PRO620  LYS621  CYS622 
 ASP623  PHE694  ASN695  SER759  ASP760  ASP761  ALA762  ILE779  LEU786  VAL792 
 PHE793  MET794  SER795  GLU796  ALA797  LYS798  CYS799  TRP800  GLU811  SER814 

> <Gold.Protein.RotatedAtoms>
  150.6882  134.3466  159.4890 H   0  0  0  0  0  0  0  0  0  0  0  0  # atno 6907 bound_to 6896
  152.1312  134.9131  160.0568 H   0  0  0  0  0  0  0  0  0  0  0  0  # atno 6908 bound_to 6896
  152.0300  133.3898  159.4330 H   0  0  0  0  0  0  0  0  0  0  0  0  # atno 6909 bound_to 6896
  145.6932  140.9145  143.0770 H   0  0  0  0  0  0  0  0  0  0  0  0  # atno 7974 bound_to 7965
  156.1382  140.1542  156.8962 H   0  0  0  0  0  0  0  0  0  0  0  0  # atno 8008 bound_to 7997
  154.4965  140.0837  156.7746 H   0  0  0  0  0  0  0  0  0  0  0  0  # atno 8009 bound_to 7997
  155.4129  140.3419  155.4267 H   0  0  0  0  0  0  0  0  0  0  0  0  # atno 8010 bound_to 7997
  139.9052  143.6560  152.2587 H   0  0  0  0  0  0  0  0  0  0  0  0  # atno 10167 bound_to 10162
  157.6867  131.0681  150.5009 H   0  0  0  0  0  0  0  0  0  0  0  0  # atno 10718 bound_to 10713
  154.4353  135.2761  155.1885 H   0  0  0  0  0  0  0  0  0  0  0  0  # atno 10763 bound_to 10752
  154.3773  135.6095  153.5776 H   0  0  0  0  0  0  0  0  0  0  0  0  # atno 10764 bound_to 10752
  152.9838  135.5872  154.4671 H   0  0  0  0  0  0  0  0  0  0  0  0  # atno 10765 bound_to 10752
  140.0931  134.9029  157.1681 H   0  0  0  0  0  0  0  0  0  0  0  0  # atno 11005 bound_to 11000
  144.6990  139.8849  143.7449 LP  0  0  0  0  0  0  0  0  0  0  0  0  # atno 17320 bound_to 7965
  146.0863  139.3852  143.0433 LP  0  0  0  0  0  0  0  0  0  0  0  0  # atno 17321 bound_to 7965
  139.6990  144.7637  151.1306 LP  0  0  0  0  0  0  0  0  0  0  0  0  # atno 17342 bound_to 10162
  140.7698  143.5483  150.9233 LP  0  0  0  0  0  0  0  0  0  0  0  0  # atno 17343 bound_to 10162
  156.5331  130.4189  149.6191 LP  0  0  0  0  0  0  0  0  0  0  0  0  # atno 17370 bound_to 10713
  156.3052  130.7198  151.2079 LP  0  0  0  0  0  0  0  0  0  0  0  0  # atno 17371 bound_to 10713
  140.3324  134.2794  155.7225 LP  0  0  0  0  0  0  0  0  0  0  0  0  # atno 17394 bound_to 11000
  141.2084  133.7779  157.0062 LP  0  0  0  0  0  0  0  0  0  0  0  0  # atno 17395 bound_to 11000

$$$$
