AV-unprocessed.smi:720|AV-procd|sdf|3499|dock6
  -GOLD-   22720 0493D 1   1.00000     0.00000
 Structure written by MMmdl.
 46 48  0  0  0  0  0  0  0  0  1 V2000
  152.0288  136.7199  156.7134 C   0  0  0  0  0  0  0  0  0  0  0  0
  151.7273  136.7300  155.2865 N   0  0  0  0  0  0  0  0  0  0  0  0
  151.9973  138.0691  154.7791 C   0  0  0  0  0  0  0  0  0  0  0  0
  150.3274  136.3955  155.0175 C   0  0  0  0  0  0  0  0  0  0  0  0
  149.3191  137.3010  155.7572 C   0  0  0  0  0  0  0  0  0  0  0  0
  149.3424  138.6830  155.3104 N   0  0  0  0  0  0  0  0  0  0  0  0
  148.9111  139.2040  154.1066 C   0  0  0  0  0  0  0  0  0  0  0  0
  149.1179  140.5535  154.1433 C   0  0  0  0  0  0  0  0  0  0  0  0
  149.6783  140.7614  155.4391 C   0  0  0  0  0  0  0  0  0  0  0  0
  150.0782  142.0062  155.9872 N   0  0  0  0  0  0  0  0  0  0  0  0
  150.9922  142.2471  156.9465 C   0  0  0  0  0  0  0  0  0  0  0  0
  151.6826  141.3878  157.4906 O   0  0  0  0  0  0  0  0  0  0  0  0
  151.0973  143.5433  157.2900 N   0  0  0  0  0  0  0  0  0  0  0  0
  151.9866  144.1416  158.2903 C   0  0  2  0  0  0  0  0  0  0  0  0
  152.1768  143.1990  159.4992 C   0  0  0  0  0  0  0  0  0  0  0  0
  151.7027  144.0545  160.6886 C   0  0  2  0  0  0  0  0  0  0  0  0
  150.1717  144.2183  160.6306 C   0  0  0  0  0  0  0  0  0  0  0  0
  149.9777  145.2027  159.4618 C   0  0  0  0  0  0  0  0  0  0  0  0
  151.4219  145.4209  158.9629 C   0  0  1  0  0  0  0  0  0  0  0  0
  152.1854  145.4403  160.2829 C   0  0  0  0  0  0  0  0  0  0  0  0
  149.7923  139.6480  156.1419 N   0  0  0  0  0  0  0  0  0  0  0  0
  151.9590  135.7153  157.1256 H   0  0  0  0  0  0  0  0  0  0  0  0
  151.3516  137.3699  157.2693 H   0  0  0  0  0  0  0  0  0  0  0  0
  153.0493  137.0612  156.8910 H   0  0  0  0  0  0  0  0  0  0  0  0
  151.8224  138.1169  153.7038 H   0  0  0  0  0  0  0  0  0  0  0  0
  153.0385  138.3436  154.9531 H   0  0  0  0  0  0  0  0  0  0  0  0
  151.3621  138.8132  155.2624 H   0  0  0  0  0  0  0  0  0  0  0  0
  150.1306  136.3686  153.9447 H   0  0  0  0  0  0  0  0  0  0  0  0
  150.1583  135.3803  155.3795 H   0  0  0  0  0  0  0  0  0  0  0  0
  148.3101  136.9277  155.5793 H   0  0  0  0  0  0  0  0  0  0  0  0
  149.4759  137.2546  156.8364 H   0  0  0  0  0  0  0  0  0  0  0  0
  148.5006  138.5767  153.3292 H   0  0  0  0  0  0  0  0  0  0  0  0
  148.8955  141.2634  153.3612 H   0  0  0  0  0  0  0  0  0  0  0  0
  149.5729  142.8100  155.6442 H   0  0  0  0  0  0  0  0  0  0  0  0
  150.4880  144.1869  156.8059 H   0  0  0  0  0  0  0  0  0  0  0  0
  152.9609  144.3481  157.8432 H   0  0  0  0  0  0  0  0  0  0  0  0
  151.6121  142.2690  159.4172 H   0  0  0  0  0  0  0  0  0  0  0  0
  153.2289  142.9343  159.6110 H   0  0  0  0  0  0  0  0  0  0  0  0
  152.0690  143.7018  161.6530 H   0  0  0  0  0  0  0  0  0  0  0  0
  149.6623  143.2688  160.4627 H   0  0  0  0  0  0  0  0  0  0  0  0
  149.7882  144.6451  161.5580 H   0  0  0  0  0  0  0  0  0  0  0  0
  149.3027  144.8206  158.6962 H   0  0  0  0  0  0  0  0  0  0  0  0
  149.5558  146.1411  159.8242 H   0  0  0  0  0  0  0  0  0  0  0  0
  151.5403  146.3218  158.3601 H   0  0  0  0  0  0  0  0  0  0  0  0
  151.8587  146.2296  160.9625 H   0  0  0  0  0  0  0  0  0  0  0  0
  153.2678  145.5028  160.1562 H   0  0  0  0  0  0  0  0  0  0  0  0
  1  2  1  0  0  0  0
  1 22  1  0  0  0  0
  1 23  1  0  0  0  0
  1 24  1  0  0  0  0
  2  3  1  0  0  0  0
  2  4  1  0  0  0  0
  3 25  1  0  0  0  0
  3 26  1  0  0  0  0
  3 27  1  0  0  0  0
  4  5  1  0  0  0  0
  4 28  1  0  0  0  0
  4 29  1  0  0  0  0
  5  6  1  0  0  0  0
  5 30  1  0  0  0  0
  5 31  1  0  0  0  0
  6 21  1  0  0  0  0
  6  7  1  0  0  0  0
  7  8  2  0  0  0  0
  7 32  1  0  0  0  0
  8  9  1  0  0  0  0
  8 33  1  0  0  0  0
  9 10  1  0  0  0  0
  9 21  2  0  0  0  0
 10 11  1  0  0  0  0
 10 34  1  0  0  0  0
 11 12  2  0  0  0  0
 11 13  1  0  0  0  0
 13 14  1  0  0  0  0
 13 35  1  0  0  0  0
 14 19  1  0  0  0  0
 14 15  1  0  0  0  0
 14 36  1  0  0  0  0
 15 16  1  0  0  0  0
 15 37  1  0  0  0  0
 15 38  1  0  0  0  0
 16 20  1  0  0  0  0
 16 17  1  0  0  0  0
 16 39  1  0  0  0  0
 17 18  1  0  0  0  0
 17 40  1  0  0  0  0
 17 41  1  0  0  0  0
 18 19  1  0  0  0  0
 18 42  1  0  0  0  0
 18 43  1  0  0  0  0
 19 20  1  0  0  0  0
 19 44  1  0  0  0  0
 20 45  1  0  0  0  0
 20 46  1  0  0  0  0
M  END
> <s_m_source_file>
AV-unprocessed.smi

> <i_m_source_file_index>
720

> <i_lp_mmshare_version>
43012

> <i_f3d_flags>
0

> <s_epik_input>
W0NIM11OKFtDSDNdKVtDSDJdW0NIMl1uMVtjSF1bY0hdYyhuMSlbTkhdQyg9TylbTkhdW0NASF0oW0NIMl1bQ0BIXTIzKVtDQEhdKFtDSDJdMylbQ0gyXVtDSDJdMg==

> <s_epik_cmdline>
J2VwaWtfcHl0aG9uJywgJy1waCcsICc3LjAnLCAnLXRuJywgJzgnLCAnLW1hJywgJzIwMCcsICctbWV0YWxfYmluZGluZycsICctaW1hZScsICc8aW5maWxlLm1hZT4nLCAnLW9tYWUnLCAnPG91dGZpbGUubWFlPic=

> <r_lp_tautomer_probability>
1

> <r_epik_Ionization_Penalty>
1.83819

> <r_epik_Ionization_Penalty_Charging>
0

> <r_epik_Ionization_Penalty_Neutral>
1.83819

> <r_epik_State_Penalty>
1.95467

> <r_epik_Charging_Adjusted_Penalty>
1.95467

> <i_epik_Tot_Q>
0

> <i_epik_Tot_abs_Q>
0

> <r_epik_Metal_State_Penalty>
1.95467

> <b_epik_Metal_Only>
0

> <s_lp_Force_Field>
OPLS_2005

> <r_lp_Energy>
64.6773

> <b_lp_Chiralities_Consistent>
1

> <s_lp_Variant>
AV-unprocessed.smi:720-5

> <Gold.Version>
5.8.1

> <Gold.Id.Protein>
6NUR|6NUR_protein|mol2

> <Gold.PLP.Fitness>
47.2039

> <Gold.PLP.PLP>
-38.0472

> <Gold.PLP.part.hbond>
-3.0000

> <Gold.PLP.part.metal>
0.0000

> <Gold.PLP.part.buried>
-0.7561

> <Gold.PLP.part.nonpolar>
-34.8988

> <Gold.PLP.part.repulsive>
0.2167

> <Gold.PLP.ligand.clash>
0.0212

> <Gold.PLP.ligand.torsion>
0.6002

> <Gold.PLP.Chemscore.Hbond>
3.0000

> <Gold.PLP.Chemscore.CHOScore>
0.4441

> <Gold.PLP.Chemscore.Metal>
0.0000

> <Gold.Chemscore.Hbonds>
donor molecule, donor type, donor heavy atom, donor atom, acceptor molecule, acceptor atom, score
      L1  H    10    34       P1  8028  1.00
      L1  H    13    35       P1  8028  1.00
      P1  H 10752 10763       L1     2  1.00
      L1  C     7    32       P1  7948  0.37
      L1  C     7    32       P1  7957  0.08

> <Gold.PLP.Chemscore.Internal.Correction>
0.0459

> <Gold.Rescore>
     Score         DG    S(hbond)    S(metal)    S(lipo)     H(rot)  DE(clash)    DE(int)     intcor
     15.62     -20.43       1.95        0.00     105.67       1.53       0.31       4.50       ----

> <Gold.Chemscore.Fitness>
15.6191

> <Gold.Chemscore.DG>
-20.4310

> <Gold.Chemscore.ZeroCoef>
-5.4800

> <Gold.Chemscore.Hbond>
1.9483

> <Gold.Chemscore.Metal>
0.0000

> <Gold.Chemscore.Lipo>
105.6697

> <Gold.Chemscore.Internal_Hbond>
0.0000

> <Gold.Chemscore.DEClash>
0.3104

> <Gold.Chemscore.DEInternal>
4.5015

> <Gold.Chemscore.Rot>
1.5312

> <Gold.Chemscore.Internal.Correction>
   9.000000E+99

> <Gold.Chemscore.Hbonds>
donor molecule, donor type, donor heavy atom, donor atom, acceptor molecule, acceptor atom, score
      L1  H    10    34       P1  8028  0.92
      L1  H    13    35       P1  8028  0.92
      P1  H 10752 10763       L1     2  0.29

> <Gold.Chemscore.Hbond.Weighted>
-6.5075

> <Gold.Chemscore.Metal.Weighted>
-0.0000

> <Gold.Chemscore.Lipo.Weighted>
-12.3633

> <Gold.Chemscore.Internal_Hbond.Weighted>
0.0000

> <Gold.Chemscore.DEClash.Weighted>
0.3104

> <Gold.Chemscore.DEInternal.Weighted>
4.5015

> <Gold.Chemscore.Rot.Weighted>
3.9199

> <Gold.Chemscore.Internal.Correction.Weighted>
   9.000000E+99

> <Gold.Protein.RotatedTorsions>
[ 6907 6896 6895 6894 ] final  149.75 input  -60.11 | X-H torsion
[ 7974 7965 7964 7962 ] final  155.58 input  175.53 | X-H torsion
[ 8008 7997 7996 7995 ] final  135.83 input   59.86 | X-H torsion
[ 10167 10162 10161 10158 ] final  -12.30 input  -65.29 | X-H torsion
[ 10718 10713 10712 10709 ] final  143.99 input   66.30 | X-H torsion
[ 10763 10752 10751 10750 ] final   52.51 input  -60.55 | X-H torsion
[ 11005 11000 10999 10996 ] final  150.72 input  -57.11 | X-H torsion

> <Gold.Protein.ActiveResidues>
 VAL166  LYS551  ARG553  GLY616  TRP617  ASP618  TYR619  PRO620  LYS621  CYS622 
 ASP623  PHE694  ASN695  SER759  ASP760  ASP761  ALA762  ILE779  LEU786  VAL792 
 PHE793  MET794  SER795  GLU796  ALA797  LYS798  CYS799  TRP800  GLU811  SER814 

> <Gold.Protein.RotatedAtoms>
  152.1237  133.4368  159.4687 H   0  0  0  0  0  0  0  0  0  0  0  0  # atno 6907 bound_to 6896
  150.6873  134.2504  159.4517 H   0  0  0  0  0  0  0  0  0  0  0  0  # atno 6908 bound_to 6896
  152.0382  134.9727  160.0624 H   0  0  0  0  0  0  0  0  0  0  0  0  # atno 6909 bound_to 6896
  144.8016  139.7087  143.6179 H   0  0  0  0  0  0  0  0  0  0  0  0  # atno 7974 bound_to 7965
  156.3003  140.2461  156.3645 H   0  0  0  0  0  0  0  0  0  0  0  0  # atno 8008 bound_to 7997
  154.8846  140.0411  157.1822 H   0  0  0  0  0  0  0  0  0  0  0  0  # atno 8009 bound_to 7997
  154.8660  140.2928  155.5514 H   0  0  0  0  0  0  0  0  0  0  0  0  # atno 8010 bound_to 7997
  140.7158  143.5547  150.9261 H   0  0  0  0  0  0  0  0  0  0  0  0  # atno 10167 bound_to 10162
  157.3625  131.0967  151.0902 H   0  0  0  0  0  0  0  0  0  0  0  0  # atno 10718 bound_to 10713
  152.9789  135.5810  154.4590 H   0  0  0  0  0  0  0  0  0  0  0  0  # atno 10763 bound_to 10752
  154.4169  135.2771  155.2003 H   0  0  0  0  0  0  0  0  0  0  0  0  # atno 10764 bound_to 10752
  154.3769  135.6155  153.5823 H   0  0  0  0  0  0  0  0  0  0  0  0  # atno 10765 bound_to 10752
  140.1155  134.8897  157.1998 H   0  0  0  0  0  0  0  0  0  0  0  0  # atno 11005 bound_to 11000
  146.2298  139.5793  142.9562 LP  0  0  0  0  0  0  0  0  0  0  0  0  # atno 17320 bound_to 7965
  145.5539  141.0411  143.2263 LP  0  0  0  0  0  0  0  0  0  0  0  0  # atno 17321 bound_to 7965
  139.9272  143.6536  152.3084 LP  0  0  0  0  0  0  0  0  0  0  0  0  # atno 17342 bound_to 10162
  139.6974  144.7639  151.1333 LP  0  0  0  0  0  0  0  0  0  0  0  0  # atno 17343 bound_to 10162
  157.2037  130.6406  149.5748 LP  0  0  0  0  0  0  0  0  0  0  0  0  # atno 17370 bound_to 10713
  155.9740  130.4682  150.6353 LP  0  0  0  0  0  0  0  0  0  0  0  0  # atno 17371 bound_to 10713
  140.3033  134.3106  155.7284 LP  0  0  0  0  0  0  0  0  0  0  0  0  # atno 17394 bound_to 11000
  141.2140  133.7605  156.9672 LP  0  0  0  0  0  0  0  0  0  0  0  0  # atno 17395 bound_to 11000

$$$$
