AV-unprocessed.smi:1087|AV-procd|sdf|4727|dock3
  -GOLD-   22720 3253D 1   1.00000     0.00000
 Structure written by MMmdl.
 46 47  0  0  0  0  0  0  0  0  1 V2000
  151.4178  143.1750  157.4010 C   0  0  0  0  0  0  0  0  0  0  0  0
  151.4482  141.7631  157.2648 O   0  0  0  0  0  0  0  0  0  0  0  0
  151.1096  141.2938  155.9658 C   0  0  0  0  0  0  0  0  0  0  0  0
  149.8567  141.9683  155.3676 C   0  0  0  0  0  0  0  0  0  0  0  0
  149.1742  141.2228  154.3079 N   0  0  0  0  0  0  0  0  0  0  0  0
  147.8002  141.6812  154.0882 C   0  0  0  0  0  0  0  0  0  0  0  0
  147.0975  140.9237  152.9486 C   0  0  0  0  0  0  0  0  0  0  0  0
  147.0942  139.4066  153.2082 C   0  0  0  0  0  0  0  0  0  0  0  0
  146.4410  138.6399  152.0387 C   0  0  0  0  0  0  0  0  0  0  0  0
  146.6158  137.1961  152.1528 N   0  0  0  0  0  0  0  0  0  0  0  0
  145.6342  136.3169  152.4027 C   0  0  0  0  0  0  0  0  0  0  0  0
  144.4520  136.6404  152.5227 O   0  0  0  0  0  0  0  0  0  0  0  0
  146.0612  134.8472  152.5200 C   0  0  0  0  0  0  0  0  0  0  0  0
  145.1862  133.9300  151.7715 N   0  0  0  0  0  0  0  0  0  0  0  0
  145.7581  133.2024  150.7141 C   0  0  0  0  0  0  0  0  0  0  0  0
  145.0209  132.3499  149.9878 C   0  0  0  0  0  0  0  0  0  0  0  0
  143.6056  132.2285  150.3613 C   0  0  0  0  0  0  0  0  0  0  0  0
  143.0807  132.8920  151.3228 N   0  0  0  0  0  0  0  0  0  0  0  0
  143.8560  133.7888  152.0822 C   0  0  0  0  0  0  0  0  0  0  0  0
  143.3571  134.4336  153.0050 O   0  0  0  0  0  0  0  0  0  0  0  0
  148.5370  138.9449  153.4975 C   0  0  0  0  0  0  0  0  0  0  0  0
  149.1680  139.7920  154.6146 C   0  0  0  0  0  0  0  0  0  0  0  0
  151.6436  143.4433  158.4330 H   0  0  0  0  0  0  0  0  0  0  0  0
  150.4312  143.5742  157.1616 H   0  0  0  0  0  0  0  0  0  0  0  0
  152.1571  143.6621  156.7655 H   0  0  0  0  0  0  0  0  0  0  0  0
  151.9612  141.4698  155.3075 H   0  0  0  0  0  0  0  0  0  0  0  0
  150.9737  140.2117  155.9957 H   0  0  0  0  0  0  0  0  0  0  0  0
  149.1551  142.0922  156.1937 H   0  0  0  0  0  0  0  0  0  0  0  0
  150.0824  142.9799  155.0308 H   0  0  0  0  0  0  0  0  0  0  0  0
  147.2225  141.5793  155.0083 H   0  0  0  0  0  0  0  0  0  0  0  0
  147.7936  142.7391  153.8320 H   0  0  0  0  0  0  0  0  0  0  0  0
  146.0754  141.2878  152.8402 H   0  0  0  0  0  0  0  0  0  0  0  0
  147.6042  141.1378  152.0065 H   0  0  0  0  0  0  0  0  0  0  0  0
  146.5000  139.2287  154.1060 H   0  0  0  0  0  0  0  0  0  0  0  0
  145.3775  138.8768  151.9758 H   0  0  0  0  0  0  0  0  0  0  0  0
  146.8813  138.9578  151.0930 H   0  0  0  0  0  0  0  0  0  0  0  0
  147.5570  136.8425  152.0607 H   0  0  0  0  0  0  0  0  0  0  0  0
  147.0918  134.7660  152.1721 H   0  0  0  0  0  0  0  0  0  0  0  0
  146.0882  134.5545  153.5715 H   0  0  0  0  0  0  0  0  0  0  0  0
  146.8078  133.3841  150.5349 H   0  0  0  0  0  0  0  0  0  0  0  0
  145.3961  131.7628  149.1625 H   0  0  0  0  0  0  0  0  0  0  0  0
  143.0217  131.5276  149.7591 H   0  0  0  0  0  0  0  0  0  0  0  0
  148.5513  137.8948  153.7909 H   0  0  0  0  0  0  0  0  0  0  0  0
  149.1422  139.0241  152.5933 H   0  0  0  0  0  0  0  0  0  0  0  0
  150.1900  139.4470  154.7770 H   0  0  0  0  0  0  0  0  0  0  0  0
  148.6324  139.6162  155.5490 H   0  0  0  0  0  0  0  0  0  0  0  0
  1  2  1  0  0  0  0
  1 23  1  0  0  0  0
  1 24  1  0  0  0  0
  1 25  1  0  0  0  0
  2  3  1  0  0  0  0
  3  4  1  0  0  0  0
  3 26  1  0  0  0  0
  3 27  1  0  0  0  0
  4  5  1  0  0  0  0
  4 28  1  0  0  0  0
  4 29  1  0  0  0  0
  5 22  1  0  0  0  0
  5  6  1  0  0  0  0
  6  7  1  0  0  0  0
  6 30  1  0  0  0  0
  6 31  1  0  0  0  0
  7  8  1  0  0  0  0
  7 32  1  0  0  0  0
  7 33  1  0  0  0  0
  8  9  1  0  0  0  0
  8 21  1  0  0  0  0
  8 34  1  0  0  0  0
  9 10  1  0  0  0  0
  9 35  1  0  0  0  0
  9 36  1  0  0  0  0
 10 11  1  0  0  0  0
 10 37  1  0  0  0  0
 11 12  2  0  0  0  0
 11 13  1  0  0  0  0
 13 14  1  0  0  0  0
 13 38  1  0  0  0  0
 13 39  1  0  0  0  0
 14 19  1  0  0  0  0
 14 15  1  0  0  0  0
 15 16  2  0  0  0  0
 15 40  1  0  0  0  0
 16 17  1  0  0  0  0
 16 41  1  0  0  0  0
 17 18  2  0  0  0  0
 17 42  1  0  0  0  0
 18 19  1  0  0  0  0
 19 20  2  0  0  0  0
 21 22  1  0  0  0  0
 21 43  1  0  0  0  0
 21 44  1  0  0  0  0
 22 45  1  0  0  0  0
 22 46  1  0  0  0  0
M  END
> <s_m_source_file>
AV-unprocessed.smi

> <i_m_source_file_index>
1087

> <i_lp_mmshare_version>
43012

> <i_f3d_flags>
0

> <s_epik_input>
W0NIM11PW0NIMl1bQ0gyXU4xW0NIMl1bQ0gyXVtDSF0oW0NIMl1bQ0gyXTEpW0NIMl1bTkhdQyg9TylbQ0gyXW4yW2NIXVtjSF1bY0hdbmMyPU8=

> <s_epik_cmdline>
J2VwaWtfcHl0aG9uJywgJy1waCcsICc3LjAnLCAnLXRuJywgJzgnLCAnLW1hJywgJzIwMCcsICctbWV0YWxfYmluZGluZycsICctaW1hZScsICc8aW5maWxlLm1hZT4nLCAnLW9tYWUnLCAnPG91dGZpbGUubWFlPic=

> <r_lp_tautomer_probability>
1

> <r_epik_Ionization_Penalty>
2.43401

> <r_epik_Ionization_Penalty_Charging>
1.64716e-08

> <r_epik_Ionization_Penalty_Neutral>
2.43401

> <r_epik_State_Penalty>
2.59428

> <r_epik_Charging_Adjusted_Penalty>
2.59428

> <i_epik_Tot_Q>
0

> <i_epik_Tot_abs_Q>
0

> <r_epik_Metal_State_Penalty>
2.59427

> <b_epik_Metal_Only>
0

> <s_lp_Force_Field>
OPLS_2005

> <r_lp_Energy>
30.2677

> <b_lp_Chiralities_Consistent>
1

> <s_lp_Variant>
AV-unprocessed.smi:1087-3

> <Gold.Version>
5.8.1

> <Gold.Id.Protein>
6NUR|6NUR_protein|mol2

> <Gold.PLP.Fitness>
42.5816

> <Gold.PLP.PLP>
-37.7632

> <Gold.PLP.part.hbond>
-1.3886

> <Gold.PLP.part.metal>
0.0000

> <Gold.PLP.part.buried>
-2.7135

> <Gold.PLP.part.nonpolar>
-35.7971

> <Gold.PLP.part.repulsive>
1.9529

> <Gold.PLP.ligand.clash>
0.0000

> <Gold.PLP.ligand.torsion>
0.6256

> <Gold.PLP.Chemscore.Hbond>
0.9913

> <Gold.PLP.Chemscore.CHOScore>
1.0000

> <Gold.PLP.Chemscore.Metal>
0.0000

> <Gold.Chemscore.Hbonds>
donor molecule, donor type, donor heavy atom, donor atom, acceptor molecule, acceptor atom, score
      L1  H    10    37       P1  7948  0.98
      P1  H  8011  8017       L1     5  0.03
      L1  C    17    42       P1 10952  1.00

> <Gold.PLP.Chemscore.Internal.Correction>
0.0959

> <Gold.Rescore>
     Score         DG    S(hbond)    S(metal)    S(lipo)     H(rot)  DE(clash)    DE(int)     intcor
     10.05     -14.13       0.97        0.00      98.22       2.37       1.05       3.02       ----

> <Gold.Chemscore.Fitness>
10.0540

> <Gold.Chemscore.DG>
-14.1296

> <Gold.Chemscore.ZeroCoef>
-5.4800

> <Gold.Chemscore.Hbond>
0.9675

> <Gold.Chemscore.Metal>
0.0000

> <Gold.Chemscore.Lipo>
98.2155

> <Gold.Chemscore.Internal_Hbond>
0.0000

> <Gold.Chemscore.DEClash>
1.0531

> <Gold.Chemscore.DEInternal>
3.0224

> <Gold.Chemscore.Rot>
2.3723

> <Gold.Chemscore.Internal.Correction>
   9.000000E+99

> <Gold.Chemscore.Hbonds>
donor molecule, donor type, donor heavy atom, donor atom, acceptor molecule, acceptor atom, score
      L1  H    10    37       P1  7948  0.91

> <Gold.Chemscore.Hbond.Weighted>
-3.2315

> <Gold.Chemscore.Metal.Weighted>
-0.0000

> <Gold.Chemscore.Lipo.Weighted>
-11.4912

> <Gold.Chemscore.Internal_Hbond.Weighted>
0.0000

> <Gold.Chemscore.DEClash.Weighted>
1.0531

> <Gold.Chemscore.DEInternal.Weighted>
3.0224

> <Gold.Chemscore.Rot.Weighted>
6.0731

> <Gold.Chemscore.Internal.Correction.Weighted>
   9.000000E+99

> <Gold.Protein.RotatedTorsions>
[ 6907 6896 6895 6894 ] final  147.26 input  -60.11 | X-H torsion
[ 7974 7965 7964 7962 ] final  -51.94 input  175.53 | X-H torsion
[ 8008 7997 7996 7995 ] final   -9.36 input   59.86 | X-H torsion
[ 10167 10162 10161 10158 ] final  105.65 input  -65.29 | X-H torsion
[ 10718 10713 10712 10709 ] final   58.60 input   66.30 | X-H torsion
[ 10763 10752 10751 10750 ] final -103.83 input  -60.55 | X-H torsion
[ 11005 11000 10999 10996 ] final  -92.38 input  -57.11 | X-H torsion

> <Gold.Protein.ActiveResidues>
 VAL166  LYS551  ARG553  GLY616  TRP617  ASP618  TYR619  PRO620  LYS621  CYS622 
 ASP623  PHE694  ASN695  SER759  ASP760  ASP761  ALA762  ILE779  LEU786  VAL792 
 PHE793  MET794  SER795  GLU796  ALA797  LYS798  CYS799  TRP800  GLU811  SER814 

> <Gold.Protein.RotatedAtoms>
  152.1571  133.4558  159.4842 H   0  0  0  0  0  0  0  0  0  0  0  0  # atno 6907 bound_to 6896
  150.6902  134.2117  159.4371 H   0  0  0  0  0  0  0  0  0  0  0  0  # atno 6908 bound_to 6896
  152.0017  134.9924  160.0616 H   0  0  0  0  0  0  0  0  0  0  0  0  # atno 6909 bound_to 6896
  145.9135  140.7895  142.9683 H   0  0  0  0  0  0  0  0  0  0  0  0  # atno 7974 bound_to 7965
  154.5654  140.2357  155.8271 H   0  0  0  0  0  0  0  0  0  0  0  0  # atno 8008 bound_to 7997
  156.2064  140.3038  155.9595 H   0  0  0  0  0  0  0  0  0  0  0  0  # atno 8009 bound_to 7997
  155.2810  140.0422  157.3006 H   0  0  0  0  0  0  0  0  0  0  0  0  # atno 8010 bound_to 7997
  139.7075  144.7084  151.1082 H   0  0  0  0  0  0  0  0  0  0  0  0  # atno 10167 bound_to 10162
  157.5609  130.8835  149.9110 H   0  0  0  0  0  0  0  0  0  0  0  0  # atno 10718 bound_to 10713
  154.7836  135.4808  153.9896 H   0  0  0  0  0  0  0  0  0  0  0  0  # atno 10763 bound_to 10752
  153.1528  135.6794  153.8864 H   0  0  0  0  0  0  0  0  0  0  0  0  # atno 10764 bound_to 10752
  153.8503  135.3168  155.3410 H   0  0  0  0  0  0  0  0  0  0  0  0  # atno 10765 bound_to 10752
  141.1523  133.7817  157.0012 H   0  0  0  0  0  0  0  0  0  0  0  0  # atno 11005 bound_to 11000
  144.6745  140.1863  143.7401 LP  0  0  0  0  0  0  0  0  0  0  0  0  # atno 17320 bound_to 7965
  145.8641  139.2238  143.1699 LP  0  0  0  0  0  0  0  0  0  0  0  0  # atno 17321 bound_to 7965
  140.7725  143.5339  150.9391 LP  0  0  0  0  0  0  0  0  0  0  0  0  # atno 17342 bound_to 10162
  139.9022  143.6821  152.3129 LP  0  0  0  0  0  0  0  0  0  0  0  0  # atno 17343 bound_to 10162
  156.0662  130.3692  150.0873 LP  0  0  0  0  0  0  0  0  0  0  0  0  # atno 17370 bound_to 10713
  156.9037  130.9629  151.3573 LP  0  0  0  0  0  0  0  0  0  0  0  0  # atno 17371 bound_to 10713
  140.0939  134.9576  157.1818 LP  0  0  0  0  0  0  0  0  0  0  0  0  # atno 17394 bound_to 11000
  140.3409  134.2705  155.7212 LP  0  0  0  0  0  0  0  0  0  0  0  0  # atno 17395 bound_to 11000

$$$$
