AV-unprocessed.smi:2266|AV-procd|sdf|9147|dock2
  -GOLD-   2272012353D 1   1.00000     0.00000
 Structure written by MMmdl.
 33 34  0  0  0  0  0  0  0  0  1 V2000
  146.6099  139.3211  153.9050 C   0  0  0  0  0  0  0  0  0  0  0  0
  147.9889  139.6170  154.2941 N   0  0  0  0  0  0  0  0  0  0  0  0
  148.9777  138.6584  154.0319 C   0  0  0  0  0  0  0  0  0  0  0  0
  150.2597  138.8844  154.3703 C   0  0  0  0  0  0  0  0  0  0  0  0
  150.6369  140.0764  154.9888 N   0  0  0  0  0  0  0  0  0  0  0  0
  149.7707  141.0118  155.2626 C   0  0  0  0  0  0  0  0  0  0  0  0
  150.1144  142.2200  155.8828 N   0  0  0  0  0  0  0  0  0  0  0  0
  150.9760  142.4182  156.9004 C   0  0  0  0  0  0  0  0  0  0  0  0
  151.6289  141.5453  157.4757 O   0  0  0  0  0  0  0  0  0  0  0  0
  151.0409  143.7203  157.2229 N   0  0  0  0  0  0  0  0  0  0  0  0
  151.8668  144.3168  158.2755 C   0  0  0  0  0  0  0  0  0  0  0  0
  153.2068  144.7789  157.6933 C   0  0  0  0  0  0  0  0  0  0  0  0
  151.0670  145.2945  159.1634 C   0  0  0  0  0  0  0  0  0  0  0  0
  151.7222  144.6387  160.3817 C   0  0  0  0  0  0  0  0  0  0  0  0
  151.9024  143.3938  159.5084 C   0  0  0  0  0  0  0  0  0  0  0  0
  148.2990  140.7969  154.8969 C   0  0  0  0  0  0  0  0  0  0  0  0
  147.4643  141.6681  155.1492 O   0  0  0  0  0  0  0  0  0  0  0  0
  146.5120  138.3485  153.4215 H   0  0  0  0  0  0  0  0  0  0  0  0
  146.2399  140.0723  153.2057 H   0  0  0  0  0  0  0  0  0  0  0  0
  145.9579  139.3199  154.7793 H   0  0  0  0  0  0  0  0  0  0  0  0
  148.6381  137.7520  153.5522 H   0  0  0  0  0  0  0  0  0  0  0  0
  151.0433  138.1654  154.1818 H   0  0  0  0  0  0  0  0  0  0  0  0
  149.6643  143.0499  155.5250 H   0  0  0  0  0  0  0  0  0  0  0  0
  150.4675  144.3605  156.6931 H   0  0  0  0  0  0  0  0  0  0  0  0
  153.8736  145.1516  158.4709 H   0  0  0  0  0  0  0  0  0  0  0  0
  153.0775  145.5849  156.9706 H   0  0  0  0  0  0  0  0  0  0  0  0
  153.7239  143.9627  157.1881 H   0  0  0  0  0  0  0  0  0  0  0  0
  151.3179  146.3466  159.0259 H   0  0  0  0  0  0  0  0  0  0  0  0
  149.9869  145.1349  159.1367 H   0  0  0  0  0  0  0  0  0  0  0  0
  152.6673  145.1058  160.6632 H   0  0  0  0  0  0  0  0  0  0  0  0
  151.0629  144.5051  161.2397 H   0  0  0  0  0  0  0  0  0  0  0  0
  151.0512  142.7132  159.5755 H   0  0  0  0  0  0  0  0  0  0  0  0
  152.8454  142.8680  159.6613 H   0  0  0  0  0  0  0  0  0  0  0  0
  1  2  1  0  0  0  0
  1 18  1  0  0  0  0
  1 19  1  0  0  0  0
  1 20  1  0  0  0  0
  2 16  1  0  0  0  0
  2  3  1  0  0  0  0
  3  4  2  0  0  0  0
  3 21  1  0  0  0  0
  4  5  1  0  0  0  0
  4 22  1  0  0  0  0
  5  6  2  0  0  0  0
  6  7  1  0  0  0  0
  6 16  1  0  0  0  0
  7  8  1  0  0  0  0
  7 23  1  0  0  0  0
  8  9  2  0  0  0  0
  8 10  1  0  0  0  0
 10 11  1  0  0  0  0
 10 24  1  0  0  0  0
 11 15  1  0  0  0  0
 11 12  1  0  0  0  0
 11 13  1  0  0  0  0
 12 25  1  0  0  0  0
 12 26  1  0  0  0  0
 12 27  1  0  0  0  0
 13 14  1  0  0  0  0
 13 28  1  0  0  0  0
 13 29  1  0  0  0  0
 14 15  1  0  0  0  0
 14 30  1  0  0  0  0
 14 31  1  0  0  0  0
 15 32  1  0  0  0  0
 15 33  1  0  0  0  0
 16 17  2  0  0  0  0
M  END
> <s_m_source_file>
AV-unprocessed.smi

> <i_m_source_file_index>
2266

> <i_lp_mmshare_version>
43012

> <i_f3d_flags>
0

> <s_epik_input>
W0NIM11uMVtjSF1bY0hdbmMoYzE9TylbTkhdQyg9TylbTkhdQzIoW0NIM10pW0NIMl1bQ0gyXVtDSDJdMg==

> <s_epik_cmdline>
J2VwaWtfcHl0aG9uJywgJy1waCcsICc3LjAnLCAnLXRuJywgJzgnLCAnLW1hJywgJzIwMCcsICctbWV0YWxfYmluZGluZycsICctaW1hZScsICc8aW5maWxlLm1hZT4nLCAnLW9tYWUnLCAnPG91dGZpbGUubWFlPic=

> <r_lp_tautomer_probability>
1

> <r_epik_Ionization_Penalty>
0.000856168

> <r_epik_Ionization_Penalty_Charging>
1.7225e-07

> <r_epik_Ionization_Penalty_Neutral>
0.000855996

> <r_epik_State_Penalty>
-0

> <r_epik_Charging_Adjusted_Penalty>
1.7225e-07

> <i_epik_Tot_Q>
0

> <i_epik_Tot_abs_Q>
0

> <r_epik_Metal_State_Penalty>
-0

> <b_epik_Metal_Only>
0

> <s_lp_Force_Field>
OPLS_2005

> <r_lp_Energy>
29.342

> <b_lp_Chiralities_Consistent>
1

> <s_lp_Variant>
AV-unprocessed.smi:2266-1

> <Gold.Version>
5.8.1

> <Gold.Id.Protein>
6NUR|6NUR_protein|mol2

> <Gold.PLP.Fitness>
46.2153

> <Gold.PLP.PLP>
-35.5120

> <Gold.PLP.part.hbond>
-3.0000

> <Gold.PLP.part.metal>
0.0000

> <Gold.PLP.part.buried>
-5.6024

> <Gold.PLP.part.nonpolar>
-28.4709

> <Gold.PLP.part.repulsive>
0.3331

> <Gold.PLP.ligand.clash>
0.0000

> <Gold.PLP.ligand.torsion>
0.7220

> <Gold.PLP.Chemscore.Hbond>
2.9500

> <Gold.PLP.Chemscore.CHOScore>
1.0000

> <Gold.PLP.Chemscore.Metal>
0.0000

> <Gold.Chemscore.Hbonds>
donor molecule, donor type, donor heavy atom, donor atom, acceptor molecule, acceptor atom, score
      L1  H     7    23       P1  8028  1.00
      L1  H    10    24       P1  8028  1.00
      P1  H  7989  7998       L1     5  0.95
      L1  C     3    21       P1  7948  1.00

> <Gold.PLP.Chemscore.Internal.Correction>
0.2972

> <Gold.Rescore>
     Score         DG    S(hbond)    S(metal)    S(lipo)     H(rot)  DE(clash)    DE(int)     intcor
     17.18     -21.04       2.52        0.00      83.00       1.00       1.60       2.27       ----

> <Gold.Chemscore.Fitness>
17.1751

> <Gold.Chemscore.DG>
-21.0410

> <Gold.Chemscore.ZeroCoef>
-5.4800

> <Gold.Chemscore.Hbond>
2.5180

> <Gold.Chemscore.Metal>
0.0000

> <Gold.Chemscore.Lipo>
82.9986

> <Gold.Chemscore.Internal_Hbond>
0.0000

> <Gold.Chemscore.DEClash>
1.5994

> <Gold.Chemscore.DEInternal>
2.2664

> <Gold.Chemscore.Rot>
1.0000

> <Gold.Chemscore.Internal.Correction>
   9.000000E+99

> <Gold.Chemscore.Hbonds>
donor molecule, donor type, donor heavy atom, donor atom, acceptor molecule, acceptor atom, score
      L1  H     7    23       P1  8028  0.98
      L1  H    10    24       P1  8028  0.95
      P1  H  7989  7998       L1     5  0.07

> <Gold.Chemscore.Hbond.Weighted>
-8.4101

> <Gold.Chemscore.Metal.Weighted>
-0.0000

> <Gold.Chemscore.Lipo.Weighted>
-9.7108

> <Gold.Chemscore.Internal_Hbond.Weighted>
0.0000

> <Gold.Chemscore.DEClash.Weighted>
1.5994

> <Gold.Chemscore.DEInternal.Weighted>
2.2664

> <Gold.Chemscore.Rot.Weighted>
2.5600

> <Gold.Chemscore.Internal.Correction.Weighted>
   9.000000E+99

> <Gold.Protein.RotatedTorsions>
[ 6907 6896 6895 6894 ] final  -53.68 input  -60.11 | X-H torsion
[ 7974 7965 7964 7962 ] final  125.55 input  175.53 | X-H torsion
[ 8008 7997 7996 7995 ] final   12.25 input   59.86 | X-H torsion
[ 10167 10162 10161 10158 ] final -124.32 input  -65.29 | X-H torsion
[ 10718 10713 10712 10709 ] final  -56.89 input   66.30 | X-H torsion
[ 10763 10752 10751 10750 ] final  165.05 input  -60.55 | X-H torsion
[ 11005 11000 10999 10996 ] final   93.76 input  -57.11 | X-H torsion

> <Gold.Protein.ActiveResidues>
 VAL166  LYS551  ARG553  GLY616  TRP617  ASP618  TYR619  PRO620  LYS621  CYS622 
 ASP623  PHE694  ASN695  SER759  ASP760  ASP761  ALA762  ILE779  LEU786  VAL792 
 PHE793  MET794  SER795  GLU796  ALA797  LYS798  CYS799  TRP800  GLU811  SER814 

> <Gold.Protein.RotatedAtoms>
  150.8405  134.7695  159.6927 H   0  0  0  0  0  0  0  0  0  0  0  0  # atno 6907 bound_to 6896
  152.4493  134.5424  159.9853 H   0  0  0  0  0  0  0  0  0  0  0  0  # atno 6908 bound_to 6896
  151.5565  133.3371  159.2999 H   0  0  0  0  0  0  0  0  0  0  0  0  # atno 6909 bound_to 6896
  145.0717  139.3725  143.4954 H   0  0  0  0  0  0  0  0  0  0  0  0  # atno 7974 bound_to 7965
  154.8180  140.2879  155.5807 H   0  0  0  0  0  0  0  0  0  0  0  0  # atno 8008 bound_to 7997
  156.2995  140.2555  156.3011 H   0  0  0  0  0  0  0  0  0  0  0  0  # atno 8009 bound_to 7997
  154.9371  140.0382  157.2067 H   0  0  0  0  0  0  0  0  0  0  0  0  # atno 8010 bound_to 7997
  139.9941  143.5610  152.2330 H   0  0  0  0  0  0  0  0  0  0  0  0  # atno 10167 bound_to 10162
  156.1253  130.4163  150.0367 H   0  0  0  0  0  0  0  0  0  0  0  0  # atno 10718 bound_to 10713
  154.3181  135.2756  155.2533 H   0  0  0  0  0  0  0  0  0  0  0  0  # atno 10763 bound_to 10752
  154.4898  135.5836  153.6454 H   0  0  0  0  0  0  0  0  0  0  0  0  # atno 10764 bound_to 10752
  152.9880  135.6132  154.3364 H   0  0  0  0  0  0  0  0  0  0  0  0  # atno 10765 bound_to 10752
  139.8806  134.8808  156.3764 H   0  0  0  0  0  0  0  0  0  0  0  0  # atno 11005 bound_to 11000
  146.3529  140.0465  142.8639 LP  0  0  0  0  0  0  0  0  0  0  0  0  # atno 17320 bound_to 7965
  145.1284  140.9504  143.4559 LP  0  0  0  0  0  0  0  0  0  0  0  0  # atno 17321 bound_to 7965
  139.6319  144.7645  151.2519 LP  0  0  0  0  0  0  0  0  0  0  0  0  # atno 17342 bound_to 10162
  140.7444  143.6465  150.8287 LP  0  0  0  0  0  0  0  0  0  0  0  0  # atno 17343 bound_to 10162
  156.8294  130.9387  151.3638 LP  0  0  0  0  0  0  0  0  0  0  0  0  # atno 17370 bound_to 10713
  157.6435  130.8825  149.9493 LP  0  0  0  0  0  0  0  0  0  0  0  0  # atno 17371 bound_to 10713
  140.9429  133.7503  156.0169 LP  0  0  0  0  0  0  0  0  0  0  0  0  # atno 17394 bound_to 11000
  140.8198  134.3302  157.5385 LP  0  0  0  0  0  0  0  0  0  0  0  0  # atno 17395 bound_to 11000

$$$$
