AV-unprocessed.smi:1738|AV-procd|sdf|6998|dock3
  -GOLD-   22720 8213D 1   1.00000     0.00000
 Structure written by MMmdl.
 46 48  0  0  0  0  0  0  0  0  2 V2000
  152.6798  137.5281  159.7022 C   0  0  0  0  0  0  0  0  0  0  0  0
  153.1254  137.9482  157.9679 S   0  0  0  0  0  0  0  0  0  0  0  0
  153.1639  139.4135  157.8429 O   0  0  0  0  0  0  0  0  0  0  0  0
  154.3105  137.1566  157.6023 O   0  0  0  0  0  0  0  0  0  0  0  0
  151.7342  137.3509  157.0144 C   0  0  0  0  0  0  0  0  0  0  0  0
  150.4460  137.3039  157.5842 C   0  0  0  0  0  0  0  0  0  0  0  0
  149.3799  136.8597  156.7791 C   0  0  0  0  0  0  0  0  0  0  0  0
  149.6436  136.4841  155.4389 C   0  0  0  0  0  0  0  0  0  0  0  0
  148.6522  136.0371  154.5242 N   0  0  0  0  0  0  0  0  0  0  0  0
  147.4225  135.5643  154.7894 C   0  0  0  0  0  0  0  0  0  0  0  0
  146.9405  135.4168  155.9121 O   0  0  0  0  0  0  0  0  0  0  0  0
  146.7730  135.2377  153.6631 N   0  0  0  0  0  0  0  0  0  0  0  0
  145.4167  134.6974  153.6137 C   0  0  1  0  0  0  0  0  0  0  0  0
  144.4174  135.6297  152.9413 C   0  0  0  0  0  0  0  0  0  0  0  0
  143.2532  134.6960  152.5938 C   0  0  0  0  0  0  0  0  0  0  0  0
  143.8245  133.3351  152.4402 N   0  3  1  0  0  0  0  0  0  0  0  0
  143.5252  132.6973  151.1300 C   0  0  0  0  0  0  0  0  0  0  0  0
  144.4503  131.4976  150.8787 C   0  0  0  0  0  0  0  0  0  0  0  0
  145.9282  131.9283  150.8190 C   0  0  0  0  0  0  0  0  0  0  0  0
  146.1911  133.2431  151.5786 C   0  0  0  0  0  0  0  0  0  0  0  0
  145.2672  133.3888  152.8129 C   0  0  1  0  0  0  0  0  0  0  0  0
  150.9697  136.6024  154.9695 C   0  0  0  0  0  0  0  0  0  0  0  0
  151.9996  137.0266  155.7313 N   0  0  0  0  0  0  0  0  0  0  0  0
  153.4787  137.8497  160.3698 H   0  0  0  0  0  0  0  0  0  0  0  0
  152.5417  136.4510  159.7916 H   0  0  0  0  0  0  0  0  0  0  0  0
  151.7546  138.0362  159.9730 H   0  0  0  0  0  0  0  0  0  0  0  0
  150.2724  137.6013  158.6078 H   0  0  0  0  0  0  0  0  0  0  0  0
  148.3864  136.8323  157.1987 H   0  0  0  0  0  0  0  0  0  0  0  0
  148.9355  136.0214  153.5551 H   0  0  0  0  0  0  0  0  0  0  0  0
  147.2431  135.3812  152.7811 H   0  0  0  0  0  0  0  0  0  0  0  0
  145.0713  134.5240  154.6355 H   0  0  0  0  0  0  0  0  0  0  0  0
  144.1144  136.4602  153.5798 H   0  0  0  0  0  0  0  0  0  0  0  0
  144.8434  136.0460  152.0270 H   0  0  0  0  0  0  0  0  0  0  0  0
  142.5387  134.6663  153.4171 H   0  0  0  0  0  0  0  0  0  0  0  0
  142.7143  135.0393  151.7096 H   0  0  0  0  0  0  0  0  0  0  0  0
  142.4801  132.3863  151.1171 H   0  0  0  0  0  0  0  0  0  0  0  0
  143.6498  133.4196  150.3214 H   0  0  0  0  0  0  0  0  0  0  0  0
  144.3137  130.7709  151.6807 H   0  0  0  0  0  0  0  0  0  0  0  0
  144.1740  130.9868  149.9556 H   0  0  0  0  0  0  0  0  0  0  0  0
  146.5465  131.1289  151.2290 H   0  0  0  0  0  0  0  0  0  0  0  0
  146.2412  132.0513  149.7816 H   0  0  0  0  0  0  0  0  0  0  0  0
  147.2425  133.2810  151.8646 H   0  0  0  0  0  0  0  0  0  0  0  0
  146.0300  134.0867  150.9061 H   0  0  0  0  0  0  0  0  0  0  0  0
  145.4736  132.5475  153.4762 H   0  0  0  0  0  0  0  0  0  0  0  0
  151.2141  136.3458  153.9490 H   0  0  0  0  0  0  0  0  0  0  0  0
  143.3821  132.7631  153.1454 H   0  0  0  0  0  0  0  0  0  0  0  0
  1  2  1  0  0  0  0
  1 24  1  0  0  0  0
  1 25  1  0  0  0  0
  1 26  1  0  0  0  0
  2  3  2  0  0  0  0
  2  4  2  0  0  0  0
  2  5  1  0  0  0  0
  5 23  1  0  0  0  0
  5  6  2  0  0  0  0
  6  7  1  0  0  0  0
  6 27  1  0  0  0  0
  7  8  2  0  0  0  0
  7 28  1  0  0  0  0
  8  9  1  0  0  0  0
  8 22  1  0  0  0  0
  9 10  1  0  0  0  0
  9 29  1  0  0  0  0
 10 11  2  0  0  0  0
 10 12  1  0  0  0  0
 12 13  1  0  0  0  0
 12 30  1  0  0  0  0
 13 21  1  0  0  0  0
 13 14  1  0  0  0  0
 13 31  1  0  0  0  0
 14 15  1  0  0  0  0
 14 32  1  0  0  0  0
 14 33  1  0  0  0  0
 15 16  1  0  0  0  0
 15 34  1  0  0  0  0
 15 35  1  0  0  0  0
 16 21  1  0  0  0  0
 16 17  1  0  0  0  0
 16 46  1  0  0  0  0
 17 18  1  0  0  0  0
 17 36  1  0  0  0  0
 17 37  1  0  0  0  0
 18 19  1  0  0  0  0
 18 38  1  0  0  0  0
 18 39  1  0  0  0  0
 19 20  1  0  0  0  0
 19 40  1  0  0  0  0
 19 41  1  0  0  0  0
 20 21  1  0  0  0  0
 20 42  1  0  0  0  0
 20 43  1  0  0  0  0
 21 44  1  0  0  0  0
 22 23  2  0  0  0  0
 22 45  1  0  0  0  0
M  CHG  1  16   1
M  END
> <s_m_source_file>
AV-unprocessed.smi

> <i_m_source_file_index>
1738

> <i_lp_mmshare_version>
43012

> <i_f3d_flags>
0

> <s_epik_input>
W0NIM11TKD1PKSg9TyljMVtjSF1bY0hdYyhbY0hdbjEpW05IXUMoPU8pW05IXVtDQEhdKFtDSDJdW0NIMl0yKVtDQEBIXShOMjMpW0NIMl1bQ0gyXVtDSDJdW0NIMl0z

> <s_epik_cmdline>
J2VwaWtfcHl0aG9uJywgJy1waCcsICc3LjAnLCAnLXRuJywgJzgnLCAnLW1hJywgJzIwMCcsICctbWV0YWxfYmluZGluZycsICctaW1hZScsICc8aW5maWxlLm1hZT4nLCAnLW9tYWUnLCAnPG91dGZpbGUubWFlPic=

> <r_epik_Ionization_Penalty>
0.00100042

> <r_epik_Ionization_Penalty_Charging>
0.000974069

> <r_epik_Ionization_Penalty_Neutral>
2.63543e-05

> <r_epik_State_Penalty>
0.000633842

> <r_epik_Charging_Adjusted_Penalty>
0.00160791

> <i_epik_Tot_Q>
1

> <i_epik_Tot_abs_Q>
1

> <r_epik_Metal_State_Penalty>
-0

> <b_epik_Metal_Only>
0

> <s_lp_Force_Field>
OPLS_2005

> <r_lp_Energy>
43.9485

> <b_lp_Chiralities_Consistent>
1

> <s_lp_Variant>
AV-unprocessed.smi:1738-2

> <Gold.Version>
5.8.1

> <Gold.Id.Protein>
6NUR|6NUR_protein|mol2

> <Gold.PLP.Fitness>
45.9686

> <Gold.PLP.PLP>
-27.9935

> <Gold.PLP.part.hbond>
-4.9665

> <Gold.PLP.part.metal>
0.0000

> <Gold.PLP.part.buried>
-5.6546

> <Gold.PLP.part.nonpolar>
-18.0623

> <Gold.PLP.part.repulsive>
0.0565

> <Gold.PLP.ligand.clash>
0.0000

> <Gold.PLP.ligand.torsion>
1.3008

> <Gold.PLP.Chemscore.Hbond>
5.1846

> <Gold.PLP.Chemscore.CHOScore>
1.0000

> <Gold.PLP.Chemscore.Metal>
0.0000

> <Gold.Chemscore.Hbonds>
donor molecule, donor type, donor heavy atom, donor atom, acceptor molecule, acceptor atom, score
      L1  H     9    29       P1  7948  1.00
      L1  H    12    30       P1  7948  0.76
      L1  H    16    46       P1 10957  1.98
      P1  H  7997  8010       L1     3  1.00
      P1  H 10752 10765       L1    23  0.44
      L1  C    22    45       P1  7949  1.00

> <Gold.PLP.Chemscore.Internal.Correction>
2.0231

> <Gold.Rescore>
     Score         DG    S(hbond)    S(metal)    S(lipo)     H(rot)  DE(clash)    DE(int)     intcor
     19.83     -22.23       3.60        0.00      62.22       1.00       0.00       2.40       ----

> <Gold.Chemscore.Fitness>
19.8263

> <Gold.Chemscore.DG>
-22.2251

> <Gold.Chemscore.ZeroCoef>
-5.4800

> <Gold.Chemscore.Hbond>
3.6004

> <Gold.Chemscore.Metal>
0.0000

> <Gold.Chemscore.Lipo>
62.2213

> <Gold.Chemscore.Internal_Hbond>
0.0000

> <Gold.Chemscore.DEClash>
0.0004

> <Gold.Chemscore.DEInternal>
2.3983

> <Gold.Chemscore.Rot>
1.0000

> <Gold.Chemscore.Internal.Correction>
   9.000000E+99

> <Gold.Chemscore.Hbonds>
donor molecule, donor type, donor heavy atom, donor atom, acceptor molecule, acceptor atom, score
      L1  H     9    29       P1  7948  0.98
      L1  H    12    30       P1  7948  0.71
      L1  H    16    46       P1 10957  0.37
      P1  H  7997  8010       L1     3  0.90
      P1  H 10752 10765       L1    23  0.01

> <Gold.Chemscore.Hbond.Weighted>
-12.0252

> <Gold.Chemscore.Metal.Weighted>
-0.0000

> <Gold.Chemscore.Lipo.Weighted>
-7.2799

> <Gold.Chemscore.Internal_Hbond.Weighted>
0.0000

> <Gold.Chemscore.DEClash.Weighted>
0.0004

> <Gold.Chemscore.DEInternal.Weighted>
2.3983

> <Gold.Chemscore.Rot.Weighted>
2.5600

> <Gold.Chemscore.Internal.Correction.Weighted>
   9.000000E+99

> <Gold.Protein.RotatedTorsions>
[ 6907 6896 6895 6894 ] final   71.23 input  -60.11 | X-H torsion
[ 7974 7965 7964 7962 ] final -122.27 input  175.53 | X-H torsion
[ 8008 7997 7996 7995 ] final   58.96 input   59.86 | X-H torsion
[ 10167 10162 10161 10158 ] final -122.56 input  -65.29 | X-H torsion
[ 10718 10713 10712 10709 ] final  -62.65 input   66.30 | X-H torsion
[ 10763 10752 10751 10750 ] final -154.74 input  -60.55 | X-H torsion
[ 11005 11000 10999 10996 ] final   87.19 input  -57.11 | X-H torsion

> <Gold.Protein.ActiveResidues>
 VAL166  LYS551  ARG553  GLY616  TRP617  ASP618  TYR619  PRO620  LYS621  CYS622 
 ASP623  PHE694  ASN695  SER759  ASP760  ASP761  ALA762  ILE779  LEU786  VAL792 
 PHE793  MET794  SER795  GLU796  ALA797  LYS798  CYS799  TRP800  GLU811  SER814 

> <Gold.Protein.RotatedAtoms>
  152.4797  134.4751  159.9647 H   0  0  0  0  0  0  0  0  0  0  0  0  # atno 6907 bound_to 6896
  151.4760  133.3552  159.2838 H   0  0  0  0  0  0  0  0  0  0  0  0  # atno 6908 bound_to 6896
  150.8861  134.8285  159.7321 H   0  0  0  0  0  0  0  0  0  0  0  0  # atno 6909 bound_to 6896
  145.0313  140.8070  143.4322 H   0  0  0  0  0  0  0  0  0  0  0  0  # atno 7974 bound_to 7965
  155.5584  140.3488  155.4485 H   0  0  0  0  0  0  0  0  0  0  0  0  # atno 8008 bound_to 7997
  156.0532  140.1322  157.0052 H   0  0  0  0  0  0  0  0  0  0  0  0  # atno 8009 bound_to 7997
  154.4444  140.1000  156.6392 H   0  0  0  0  0  0  0  0  0  0  0  0  # atno 8010 bound_to 7997
  140.0129  143.5423  152.2255 H   0  0  0  0  0  0  0  0  0  0  0  0  # atno 10167 bound_to 10162
  156.0842  130.4211  150.1165 H   0  0  0  0  0  0  0  0  0  0  0  0  # atno 10718 bound_to 10713
  154.7837  135.3183  154.7934 H   0  0  0  0  0  0  0  0  0  0  0  0  # atno 10763 bound_to 10752
  153.8639  135.6851  153.4784 H   0  0  0  0  0  0  0  0  0  0  0  0  # atno 10764 bound_to 10752
  153.1481  135.4710  154.9535 H   0  0  0  0  0  0  0  0  0  0  0  0  # atno 10765 bound_to 10752
  139.8925  134.8406  156.2826 H   0  0  0  0  0  0  0  0  0  0  0  0  # atno 11005 bound_to 11000
  145.1767  139.2374  143.5314 LP  0  0  0  0  0  0  0  0  0  0  0  0  # atno 17320 bound_to 7965
  146.3499  140.1531  142.8592 LP  0  0  0  0  0  0  0  0  0  0  0  0  # atno 17321 bound_to 7965
  139.6192  144.7626  151.2777 LP  0  0  0  0  0  0  0  0  0  0  0  0  # atno 17342 bound_to 10162
  140.7374  143.6679  150.8107 LP  0  0  0  0  0  0  0  0  0  0  0  0  # atno 17343 bound_to 10162
  156.9189  130.9676  151.3551 LP  0  0  0  0  0  0  0  0  0  0  0  0  # atno 17370 bound_to 10713
  157.5970  130.8485  149.8744 LP  0  0  0  0  0  0  0  0  0  0  0  0  # atno 17371 bound_to 10713
  141.0029  133.7141  156.0988 LP  0  0  0  0  0  0  0  0  0  0  0  0  # atno 17394 bound_to 11000
  140.7474  134.4083  157.5546 LP  0  0  0  0  0  0  0  0  0  0  0  0  # atno 17395 bound_to 11000

$$$$
