#       Name:                AV-unprocessed.smi:3017
#       Creating user name   scv26
#       Creation time:       Fri Mar 27 16:41:30 2020


#       File generated by GOLD software.
#

@<TRIPOS>MOLECULE
AV-unprocessed.smi:3017
    43    44     1
SMALL
NO_CHARGES


@<TRIPOS>ATOM
      1 ****        -2.8046   1.4616   2.7156 C.3            1 S1                 0.0000
      2 ****        -2.0426   1.3249   1.3899 C.3            1 S1                 0.0000
      3 ****        -2.9851   1.4674   0.1793 C.3            1 S1                 0.0000
      4 ****        -2.2219   1.3336  -1.1477 C.3            1 S1                 0.0000
      5 ****        -1.0641   2.3420  -1.2317 C.3            1 S1                 0.0000
      6 ****        -0.1099   2.2185  -0.0308 C.3            1 S1                 0.0000
      7 ****         0.5435   0.9586  -0.1262 O.3            1 S1                 0.0000
      8 ****         1.7832   0.8754   0.5665 C.3            1 S1                 0.0000
      9 ****         2.3605  -0.5357   0.4304 C.2            1 S1                 0.0000
     10 ****         3.2201  -0.9068   1.2291 O.2            1 S1                 0.0000
     11 ****         1.8882  -1.2865  -0.5831 N.am           1 S1                 0.0000
     12 ****         2.2293  -2.6218  -0.9212 C.ar           1 S1                 0.0000
     13 ****         1.5567  -3.1614  -2.0430 C.ar           1 S1                 0.0000
     14 ****         1.7697  -4.4210  -2.4848 N.ar           1 S1                 0.0000
     15 ****         2.6683  -5.1578  -1.7975 C.ar           1 S1                 0.0000
     16 ****         3.3479  -4.6370  -0.6783 C.ar           1 S1                 0.0000
     17 ****         3.1308  -3.3769  -0.2426 N.ar           1 S1                 0.0000
     18 ****        -0.8887   2.3436   1.2964 C.3            1 S1                 0.0000
     19 ****        -3.2663   2.4451   2.8089 H              1 S1                 0.0000
     20 ****        -2.1368   1.3252   3.5668 H              1 S1                 0.0000
     21 ****        -3.5939   0.7135   2.7939 H              1 S1                 0.0000
     22 ****        -1.6116   0.3228   1.3646 H              1 S1                 0.0000
     23 ****        -3.7708   0.7124   0.2261 H              1 S1                 0.0000
     24 ****        -3.4858   2.4359   0.2133 H              1 S1                 0.0000
     25 ****        -1.8339   0.3187  -1.2453 H              1 S1                 0.0000
     26 ****        -2.9041   1.4831  -1.9847 H              1 S1                 0.0000
     27 ****        -0.5135   2.2013  -2.1623 H              1 S1                 0.0000
     28 ****        -1.4706   3.3537  -1.2661 H              1 S1                 0.0000
     29 ****         0.6305   3.0174  -0.1004 H              1 S1                 0.0000
     30 ****         2.4956   1.5914   0.1548 H              1 S1                 0.0000
     31 ****         1.6566   1.1014   1.6252 H              1 S1                 0.0000
     32 ****         1.1896  -0.8513  -1.1685 H              1 S1                 0.0000
     33 ****         0.8352  -2.5760  -2.5944 H              1 S1                 0.0000
     34 ****         2.8458  -6.1662  -2.1408 H              1 S1                 0.0000
     35 ****         4.0652  -5.2314  -0.1322 H              1 S1                 0.0000
     36 ****        -1.2948   3.3532   1.3727 H              1 S1                 0.0000
     37 ****        -0.2189   2.2298   2.1482 H              1 S1                 0.0000
     38 ****         0.7142   0.7691  -1.0931 LP             1 S1                 0.0000
     39 ****        -0.0687   0.2616   0.2470 LP             1 S1                 0.0000
     40 ****         3.5305  -0.2897   1.9522 LP             1 S1                 0.0000
     41 ****         3.6082  -1.8254   1.1550 LP             1 S1                 0.0000
     42 ****         1.2867  -4.7882  -3.2797 LP             1 S1                 0.0000
     43 ****         3.6170  -3.0130   0.5519 LP             1 S1                 0.0000
@<TRIPOS>BOND
    1    1    2 1     
    2    1   19 1     
    3    1   20 1     
    4    1   21 1     
    5    2   18 1     
    6    2    3 1     
    7    2   22 1     
    8    3    4 1     
    9    3   23 1     
   10    3   24 1     
   11    4    5 1     
   12    4   25 1     
   13    4   26 1     
   14    5    6 1     
   15    5   27 1     
   16    5   28 1     
   17    6    7 1     
   18    6   18 1     
   19    6   29 1     
   20    7    8 1     
   21    8    9 1     
   22    8   30 1     
   23    8   31 1     
   24    9   10 2     
   25    9   11 am    
   26   11   12 1     
   27   11   32 1     
   28   12   17 ar    
   29   12   13 ar    
   30   13   14 ar    
   31   13   33 1     
   32   14   15 ar    
   33   15   16 ar    
   34   15   34 1     
   35   16   17 ar    
   36   16   35 1     
   37   18   36 1     
   38   18   37 1     
   39    7   38 1     
   40    7   39 1     
   41   10   40 1     
   42   10   41 1     
   43   14   42 1     
   44   17   43 1     
@<TRIPOS>SUBSTRUCTURE
      1 S1             1
@<TRIPOS>SET
LONE_PAIRS      STATIC     ATOMS    <user>   **** ""
6 38 39 40 41 42 43
DONOR_HYDROGENS      STATIC     ATOMS    <user>   **** ""
1 32
ATOM$BLUE        STATIC     ATOMS    COLORGROUP SYSTEM
6 38 39 40 41 42 43
ATOM$RED        STATIC     ATOMS    COLORGROUP SYSTEM
1 32
