AV-unprocessed.smi:2740|AV-procd|sdf|10554|dock10
  -GOLD-   2272015 03D 1   1.00000     0.00000
 Structure written by MMmdl.
 31 32  0  0  0  0  0  0  0  0  1 V2000
  147.1396  138.5946  153.1937 C   0  0  0  0  0  0  0  0  0  0  0  0
  148.1778  139.4202  153.8747 C   0  0  0  0  0  0  0  0  0  0  0  0
  149.4944  139.0953  154.0961 C   0  0  0  0  0  0  0  0  0  0  0  0
  150.2172  140.0860  154.7646 N   0  0  0  0  0  0  0  0  0  0  0  0
  149.4616  141.1525  155.0480 C   0  0  0  0  0  0  0  0  0  0  0  0
  149.9292  142.3088  155.7261 N   0  0  0  0  0  0  0  0  0  0  0  0
  150.9222  142.3986  156.6283 C   0  0  0  0  0  0  0  0  0  0  0  0
  151.6208  141.4609  157.0143 O   0  0  0  0  0  0  0  0  0  0  0  0
  151.0670  143.6569  157.0675 N   0  0  0  0  0  0  0  0  0  0  0  0
  152.0574  144.0917  158.0458 C   0  0  0  0  0  0  0  0  0  0  0  0
  151.9003  143.3470  159.3816 C   0  0  2  0  0  0  0  0  0  0  0  0
  152.1468  144.2242  160.6059 C   0  0  0  0  0  0  0  0  0  0  0  0
  152.4916  143.1897  161.6529 C   0  0  0  0  0  0  0  0  0  0  0  0
  153.3001  142.1766  160.8457 C   0  0  0  0  0  0  0  0  0  0  0  0
  152.8641  142.3033  159.4936 O   0  0  0  0  0  0  0  0  0  0  0  0
  147.7984  141.0041  154.5027 S   0  0  0  0  0  0  0  0  0  0  0  0
  147.4076  137.5378  153.2101 H   0  0  0  0  0  0  0  0  0  0  0  0
  147.0271  138.8983  152.1529 H   0  0  0  0  0  0  0  0  0  0  0  0
  146.1721  138.7022  153.6845 H   0  0  0  0  0  0  0  0  0  0  0  0
  149.9992  138.1836  153.8129 H   0  0  0  0  0  0  0  0  0  0  0  0
  149.4464  143.1668  155.5038 H   0  0  0  0  0  0  0  0  0  0  0  0
  150.4552  144.3677  156.6942 H   0  0  0  0  0  0  0  0  0  0  0  0
  153.0511  143.9156  157.6327 H   0  0  0  0  0  0  0  0  0  0  0  0
  151.9736  145.1684  158.2021 H   0  0  0  0  0  0  0  0  0  0  0  0
  150.9067  142.9025  159.4607 H   0  0  0  0  0  0  0  0  0  0  0  0
  152.9971  144.8879  160.4415 H   0  0  0  0  0  0  0  0  0  0  0  0
  151.2827  144.8329  160.8734 H   0  0  0  0  0  0  0  0  0  0  0  0
  153.0438  143.5996  162.4989 H   0  0  0  0  0  0  0  0  0  0  0  0
  151.5798  142.7258  162.0318 H   0  0  0  0  0  0  0  0  0  0  0  0
  154.3638  142.4127  160.8892 H   0  0  0  0  0  0  0  0  0  0  0  0
  153.1643  141.1586  161.2115 H   0  0  0  0  0  0  0  0  0  0  0  0
  1  2  1  0  0  0  0
  1 17  1  0  0  0  0
  1 18  1  0  0  0  0
  1 19  1  0  0  0  0
  2 16  1  0  0  0  0
  2  3  2  0  0  0  0
  3  4  1  0  0  0  0
  3 20  1  0  0  0  0
  4  5  2  0  0  0  0
  5  6  1  0  0  0  0
  5 16  1  0  0  0  0
  6  7  1  0  0  0  0
  6 21  1  0  0  0  0
  7  8  2  0  0  0  0
  7  9  1  0  0  0  0
  9 10  1  0  0  0  0
  9 22  1  0  0  0  0
 10 11  1  0  0  0  0
 10 23  1  0  0  0  0
 10 24  1  0  0  0  0
 11 15  1  0  0  0  0
 11 12  1  0  0  0  0
 11 25  1  0  0  0  0
 12 13  1  0  0  0  0
 12 26  1  0  0  0  0
 12 27  1  0  0  0  0
 13 14  1  0  0  0  0
 13 28  1  0  0  0  0
 13 29  1  0  0  0  0
 14 15  1  0  0  0  0
 14 30  1  0  0  0  0
 14 31  1  0  0  0  0
M  END
> <s_m_source_file>
AV-unprocessed.smi

> <i_m_source_file_index>
2740

> <i_lp_mmshare_version>
43012

> <i_f3d_flags>
0

> <s_epik_input>
W0NIM11jMVtjSF1uYyhzMSlbTkhdQyg9TylbTkhdW0NIMl1bQ0BASF0yW0NIMl1bQ0gyXVtDSDJdTzI=

> <s_epik_cmdline>
J2VwaWtfcHl0aG9uJywgJy1waCcsICc3LjAnLCAnLXRuJywgJzgnLCAnLW1hJywgJzIwMCcsICctbWV0YWxfYmluZGluZycsICctaW1hZScsICc8aW5maWxlLm1hZT4nLCAnLW9tYWUnLCAnPG91dGZpbGUubWFlPic=

> <r_lp_tautomer_probability>
0.999

> <r_epik_Ionization_Penalty>
0.000387528

> <r_epik_Ionization_Penalty_Charging>
0

> <r_epik_Ionization_Penalty_Neutral>
0.000387528

> <r_epik_State_Penalty>
0.000177984

> <r_epik_Charging_Adjusted_Penalty>
0.000177984

> <i_epik_Tot_Q>
0

> <i_epik_Tot_abs_Q>
0

> <r_epik_Metal_State_Penalty>
0.00626158

> <b_epik_Metal_Only>
0

> <s_lp_Force_Field>
OPLS_2005

> <r_lp_Energy>
15.1526

> <b_lp_Chiralities_Consistent>
1

> <s_lp_Variant>
AV-unprocessed.smi:2740-1

> <Gold.Version>
5.8.1

> <Gold.Id.Protein>
6NUR|6NUR_protein|mol2

> <Gold.PLP.Fitness>
44.7366

> <Gold.PLP.PLP>
-36.8240

> <Gold.PLP.part.hbond>
-3.0000

> <Gold.PLP.part.metal>
0.0000

> <Gold.PLP.part.buried>
-1.9780

> <Gold.PLP.part.nonpolar>
-31.6392

> <Gold.PLP.part.repulsive>
0.2750

> <Gold.PLP.ligand.clash>
0.0000

> <Gold.PLP.ligand.torsion>
0.7205

> <Gold.PLP.Chemscore.Hbond>
2.9193

> <Gold.PLP.Chemscore.CHOScore>
0.1977

> <Gold.PLP.Chemscore.Metal>
0.0000

> <Gold.Chemscore.Hbonds>
donor molecule, donor type, donor heavy atom, donor atom, acceptor molecule, acceptor atom, score
      L1  H     6    21       P1  8028  1.00
      L1  H     9    22       P1  8028  0.94
      P1  H  7989  7998       L1     4  0.94
      L1  C     3    20       P1  7948  0.04

> <Gold.PLP.Chemscore.Internal.Correction>
0.0026

> <Gold.Rescore>
     Score         DG    S(hbond)    S(metal)    S(lipo)     H(rot)  DE(clash)    DE(int)     intcor
     19.04     -20.83       2.76        0.00      80.10       1.27       0.56       1.23       ----

> <Gold.Chemscore.Fitness>
19.0389

> <Gold.Chemscore.DG>
-20.8269

> <Gold.Chemscore.ZeroCoef>
-5.4800

> <Gold.Chemscore.Hbond>
2.7607

> <Gold.Chemscore.Metal>
0.0000

> <Gold.Chemscore.Lipo>
80.1002

> <Gold.Chemscore.Internal_Hbond>
0.0000

> <Gold.Chemscore.DEClash>
0.5611

> <Gold.Chemscore.DEInternal>
1.2269

> <Gold.Chemscore.Rot>
1.2678

> <Gold.Chemscore.Internal.Correction>
   9.000000E+99

> <Gold.Chemscore.Hbonds>
donor molecule, donor type, donor heavy atom, donor atom, acceptor molecule, acceptor atom, score
      L1  H     6    21       P1  8028  0.99
      L1  H     9    22       P1  8028  0.89
      P1  H  7989  7998       L1     4  0.22

> <Gold.Chemscore.Hbond.Weighted>
-9.2207

> <Gold.Chemscore.Metal.Weighted>
-0.0000

> <Gold.Chemscore.Lipo.Weighted>
-9.3717

> <Gold.Chemscore.Internal_Hbond.Weighted>
0.0000

> <Gold.Chemscore.DEClash.Weighted>
0.5611

> <Gold.Chemscore.DEInternal.Weighted>
1.2269

> <Gold.Chemscore.Rot.Weighted>
3.2455

> <Gold.Chemscore.Internal.Correction.Weighted>
   9.000000E+99

> <Gold.Protein.RotatedTorsions>
[ 6907 6896 6895 6894 ] final  170.37 input  -60.11 | X-H torsion
[ 7974 7965 7964 7962 ] final   -0.99 input  175.53 | X-H torsion
[ 8008 7997 7996 7995 ] final   49.33 input   59.86 | X-H torsion
[ 10167 10162 10161 10158 ] final -103.58 input  -65.29 | X-H torsion
[ 10718 10713 10712 10709 ] final   -5.96 input   66.30 | X-H torsion
[ 10763 10752 10751 10750 ] final  163.24 input  -60.55 | X-H torsion
[ 11005 11000 10999 10996 ] final  130.29 input  -57.11 | X-H torsion

> <Gold.Protein.ActiveResidues>
 VAL166  LYS551  ARG553  GLY616  TRP617  ASP618  TYR619  PRO620  LYS621  CYS622 
 ASP623  PHE694  ASN695  SER759  ASP760  ASP761  ALA762  ILE779  LEU786  VAL792 
 PHE793  MET794  SER795  GLU796  ALA797  LYS798  CYS799  TRP800  GLU811  SER814 

> <Gold.Protein.RotatedAtoms>
  151.8172  133.3389  159.3572 H   0  0  0  0  0  0  0  0  0  0  0  0  # atno 6907 bound_to 6896
  150.7306  134.5608  159.5850 H   0  0  0  0  0  0  0  0  0  0  0  0  # atno 6908 bound_to 6896
  152.3032  134.7587  160.0404 H   0  0  0  0  0  0  0  0  0  0  0  0  # atno 6909 bound_to 6896
  146.2422  140.1354  142.8337 H   0  0  0  0  0  0  0  0  0  0  0  0  # atno 7974 bound_to 7965
  155.4004  140.3437  155.4256 H   0  0  0  0  0  0  0  0  0  0  0  0  # atno 8008 bound_to 7997
  156.1506  140.1570  156.8807 H   0  0  0  0  0  0  0  0  0  0  0  0  # atno 8009 bound_to 7997
  154.5049  140.0805  156.7856 H   0  0  0  0  0  0  0  0  0  0  0  0  # atno 8010 bound_to 7997
  140.2184  143.3694  152.0990 H   0  0  0  0  0  0  0  0  0  0  0  0  # atno 10167 bound_to 10162
  156.7389  130.5203  149.5828 H   0  0  0  0  0  0  0  0  0  0  0  0  # atno 10718 bound_to 10713
  154.2907  135.2761  155.2656 H   0  0  0  0  0  0  0  0  0  0  0  0  # atno 10763 bound_to 10752
  154.5136  135.5775  153.6628 H   0  0  0  0  0  0  0  0  0  0  0  0  # atno 10764 bound_to 10752
  152.9915  135.6187  154.3071 H   0  0  0  0  0  0  0  0  0  0  0  0  # atno 10765 bound_to 10752
  139.9664  134.9589  156.9272 H   0  0  0  0  0  0  0  0  0  0  0  0  # atno 11005 bound_to 11000
  145.0291  140.8856  143.5120 LP  0  0  0  0  0  0  0  0  0  0  0  0  # atno 17320 bound_to 7965
  145.1415  139.2569  143.5488 LP  0  0  0  0  0  0  0  0  0  0  0  0  # atno 17321 bound_to 7965
  139.5153  144.6961  151.5626 LP  0  0  0  0  0  0  0  0  0  0  0  0  # atno 17342 bound_to 10162
  140.6273  143.9145  150.6575 LP  0  0  0  0  0  0  0  0  0  0  0  0  # atno 17343 bound_to 10162
  156.1478  130.6289  151.0555 LP  0  0  0  0  0  0  0  0  0  0  0  0  # atno 17370 bound_to 10713
  157.6827  131.0833  150.7327 LP  0  0  0  0  0  0  0  0  0  0  0  0  # atno 17371 bound_to 10713
  140.5388  134.0740  155.7336 LP  0  0  0  0  0  0  0  0  0  0  0  0  # atno 17394 bound_to 11000
  141.1343  133.9248  157.2468 LP  0  0  0  0  0  0  0  0  0  0  0  0  # atno 17395 bound_to 11000

$$$$
