AV-unprocessed.smi:1423|AV-procd|sdf|5797|dock7
  -GOLD-   22720 5443D 1   1.00000     0.00000
 Structure written by MMmdl.
 43 44  0  0  0  0  0  0  0  0  3 V2000
  151.0389  142.4286  156.2676 C   0  0  0  0  0  0  0  0  0  0  0  0
  151.0380  141.1843  155.5764 O   0  0  0  0  0  0  0  0  0  0  0  0
  149.8599  140.7563  154.9995 C   0  0  0  0  0  0  0  0  0  0  0  0
  148.7142  141.5665  155.1257 C   0  0  0  0  0  0  0  0  0  0  0  0
  147.5070  141.1367  154.5422 C   0  0  0  0  0  0  0  0  0  0  0  0
  147.4853  139.9071  153.8404 C   0  0  0  0  0  0  0  0  0  0  0  0
  146.3327  139.3495  153.2216 N   0  0  0  0  0  0  0  0  0  0  0  0
  146.0706  138.0653  152.9223 C   0  0  0  0  0  0  0  0  0  0  0  0
  146.8002  137.1080  153.1782 O   0  0  0  0  0  0  0  0  0  0  0  0
  144.8850  137.9441  152.3079 N   0  0  0  0  0  0  0  0  0  0  0  0
  144.3034  136.6876  151.8439 C   0  0  2  0  0  0  0  0  0  0  0  0
  143.9399  135.7815  153.0346 C   0  0  0  0  0  0  0  0  0  0  0  0
  143.4256  134.4138  152.5564 C   0  0  0  0  0  0  0  0  0  0  0  0
  144.4186  133.7476  151.6723 N   0  3  1  0  0  0  0  0  0  0  0  0
  144.0342  132.3634  151.2956 C   0  0  0  0  0  0  0  0  0  0  0  0
  144.9537  131.8240  150.1942 C   0  0  0  0  0  0  0  0  0  0  0  0
  146.0745  131.2617  150.6903 N   0  5  0  0  0  0  0  0  0  0  0  0
  144.6227  131.9363  149.0162 O   0  0  0  0  0  0  0  0  0  0  0  0
  144.7535  134.5860  150.4940 C   0  0  0  0  0  0  0  0  0  0  0  0
  145.2980  135.9578  150.9267 C   0  0  0  0  0  0  0  0  0  0  0  0
  148.6847  139.1671  153.7805 C   0  0  0  0  0  0  0  0  0  0  0  0
  149.8449  139.5729  154.3380 N   0  0  0  0  0  0  0  0  0  0  0  0
  152.0368  142.6216  156.6608 H   0  0  0  0  0  0  0  0  0  0  0  0
  150.3475  142.4171  157.1114 H   0  0  0  0  0  0  0  0  0  0  0  0
  150.7802  143.2544  155.6031 H   0  0  0  0  0  0  0  0  0  0  0  0
  148.7589  142.5008  155.6657 H   0  0  0  0  0  0  0  0  0  0  0  0
  146.6293  141.7521  154.6587 H   0  0  0  0  0  0  0  0  0  0  0  0
  145.6005  140.0105  153.0067 H   0  0  0  0  0  0  0  0  0  0  0  0
  144.3483  138.7830  152.1418 H   0  0  0  0  0  0  0  0  0  0  0  0
  143.4003  136.8999  151.2682 H   0  0  0  0  0  0  0  0  0  0  0  0
  144.8141  135.6355  153.6711 H   0  0  0  0  0  0  0  0  0  0  0  0
  143.1818  136.2597  153.6559 H   0  0  0  0  0  0  0  0  0  0  0  0
  143.2157  133.7892  153.4251 H   0  0  0  0  0  0  0  0  0  0  0  0
  142.4829  134.5345  152.0206 H   0  0  0  0  0  0  0  0  0  0  0  0
  144.0545  131.7109  152.1700 H   0  0  0  0  0  0  0  0  0  0  0  0
  143.0115  132.3419  150.9152 H   0  0  0  0  0  0  0  0  0  0  0  0
  146.9484  131.3530  150.1578 H   0  0  0  0  0  0  0  0  0  0  0  0
  145.5037  134.0807  149.8846 H   0  0  0  0  0  0  0  0  0  0  0  0
  143.8669  134.7096  149.8699 H   0  0  0  0  0  0  0  0  0  0  0  0
  145.5091  136.5642  150.0452 H   0  0  0  0  0  0  0  0  0  0  0  0
  146.2491  135.8206  151.4435 H   0  0  0  0  0  0  0  0  0  0  0  0
  148.7172  138.2172  153.2668 H   0  0  0  0  0  0  0  0  0  0  0  0
  145.2718  133.6486  152.2053 H   0  0  0  0  0  0  0  0  0  0  0  0
  1  2  1  0  0  0  0
  1 23  1  0  0  0  0
  1 24  1  0  0  0  0
  1 25  1  0  0  0  0
  2  3  1  0  0  0  0
  3 22  1  0  0  0  0
  3  4  2  0  0  0  0
  4  5  1  0  0  0  0
  4 26  1  0  0  0  0
  5  6  2  0  0  0  0
  5 27  1  0  0  0  0
  6  7  1  0  0  0  0
  6 21  1  0  0  0  0
  7  8  1  0  0  0  0
  7 28  1  0  0  0  0
  8  9  2  0  0  0  0
  8 10  1  0  0  0  0
 10 11  1  0  0  0  0
 10 29  1  0  0  0  0
 11 20  1  0  0  0  0
 11 12  1  0  0  0  0
 11 30  1  0  0  0  0
 12 13  1  0  0  0  0
 12 31  1  0  0  0  0
 12 32  1  0  0  0  0
 13 14  1  0  0  0  0
 13 33  1  0  0  0  0
 13 34  1  0  0  0  0
 14 15  1  0  0  0  0
 14 19  1  0  0  0  0
 14 43  1  0  0  0  0
 15 16  1  0  0  0  0
 15 35  1  0  0  0  0
 15 36  1  0  0  0  0
 16 17  1  0  0  0  0
 16 18  2  0  0  0  0
 17 37  1  0  0  0  0
 19 20  1  0  0  0  0
 19 38  1  0  0  0  0
 19 39  1  0  0  0  0
 20 40  1  0  0  0  0
 20 41  1  0  0  0  0
 21 22  2  0  0  0  0
 21 42  1  0  0  0  0
M  CHG  1  14   1
M  CHG  1  17  -1
M  END
> <s_m_source_file>
AV-unprocessed.smi

> <i_m_source_file_index>
1423

> <i_lp_mmshare_version>
43012

> <i_f3d_flags>
0

> <s_epik_input>
W0NIM11PYzFbY0hdW2NIXWMoW2NIXW4xKVtOSF1DKD1PKVtOSF1bQ0hdMltDSDJdW0NIMl1OKFtDSDJdW0NIMl0yKVtDSDJdQyg9TylbTkgyXQ==

> <s_epik_cmdline>
J2VwaWtfcHl0aG9uJywgJy1waCcsICc3LjAnLCAnLXRuJywgJzgnLCAnLW1hJywgJzIwMCcsICctbWV0YWxfYmluZGluZycsICctaW1hZScsICc8aW5maWxlLm1hZT4nLCAnLW9tYWUnLCAnPG91dGZpbGUubWFlPic=

> <r_lp_tautomer_probability>
1

> <r_epik_Ionization_Penalty>
5.72888

> <r_epik_Ionization_Penalty_Charging>
5.7288

> <r_epik_Ionization_Penalty_Neutral>
7.8452e-05

> <r_epik_State_Penalty>
6.54882

> <r_epik_Charging_Adjusted_Penalty>
12.2776

> <i_epik_Tot_Q>
0

> <i_epik_Tot_abs_Q>
2

> <r_epik_Metal_State_Penalty>
2.51301

> <b_epik_Metal_Only>
1

> <s_lp_Force_Field>
OPLS_2005

> <r_lp_Energy>
10.9641

> <b_lp_Chiralities_Consistent>
1

> <s_lp_Variant>
AV-unprocessed.smi:1423-4

> <Gold.Version>
5.8.1

> <Gold.Id.Protein>
6NUR|6NUR_protein|mol2

> <Gold.PLP.Fitness>
42.8024

> <Gold.PLP.PLP>
-32.8082

> <Gold.PLP.part.hbond>
-5.4680

> <Gold.PLP.part.metal>
0.0000

> <Gold.PLP.part.buried>
-1.9259

> <Gold.PLP.part.nonpolar>
-28.5895

> <Gold.PLP.part.repulsive>
2.9090

> <Gold.PLP.ligand.clash>
0.7329

> <Gold.PLP.ligand.torsion>
0.6243

> <Gold.PLP.Chemscore.Hbond>
2.9807

> <Gold.PLP.Chemscore.CHOScore>
1.0000

> <Gold.PLP.Chemscore.Metal>
0.0000

> <Gold.Chemscore.Hbonds>
donor molecule, donor type, donor heavy atom, donor atom, acceptor molecule, acceptor atom, score
      L1  H     7    28       P1 10175  0.98
      L1  H    10    29       P1 10175  1.00
      L1  H    17    37       P1 10747  0.73
      P1  H 10785 10796       L1    18  0.13
      L1  C    21    42       P1  7948  1.00

> <Gold.PLP.Chemscore.Internal.Correction>
0.0337

> <Gold.Rescore>
     Score         DG    S(hbond)    S(metal)    S(lipo)     H(rot)  DE(clash)    DE(int)     intcor
     12.15     -16.45       2.95        0.00      59.57       2.29       1.30       2.99       ----

> <Gold.Chemscore.Fitness>
12.1540

> <Gold.Chemscore.DG>
-16.4476

> <Gold.Chemscore.ZeroCoef>
-5.4800

> <Gold.Chemscore.Hbond>
2.9519

> <Gold.Chemscore.Metal>
0.0000

> <Gold.Chemscore.Lipo>
59.5651

> <Gold.Chemscore.Internal_Hbond>
0.0000

> <Gold.Chemscore.DEClash>
1.3013

> <Gold.Chemscore.DEInternal>
2.9923

> <Gold.Chemscore.Rot>
2.2894

> <Gold.Chemscore.Internal.Correction>
   9.000000E+99

> <Gold.Chemscore.Hbonds>
donor molecule, donor type, donor heavy atom, donor atom, acceptor molecule, acceptor atom, score
      L1  H     7    28       P1 10175  0.88
      L1  H    10    29       P1 10175  0.99
      L1  H    17    37       P1 10747  0.71
      P1  H 10785 10796       L1    18  0.05

> <Gold.Chemscore.Hbond.Weighted>
-9.8593

> <Gold.Chemscore.Metal.Weighted>
-0.0000

> <Gold.Chemscore.Lipo.Weighted>
-6.9691

> <Gold.Chemscore.Internal_Hbond.Weighted>
0.0000

> <Gold.Chemscore.DEClash.Weighted>
1.3013

> <Gold.Chemscore.DEInternal.Weighted>
2.9923

> <Gold.Chemscore.Rot.Weighted>
5.8608

> <Gold.Chemscore.Internal.Correction.Weighted>
   9.000000E+99

> <Gold.Protein.RotatedTorsions>
[ 6907 6896 6895 6894 ] final  -44.93 input  -60.11 | X-H torsion
[ 7974 7965 7964 7962 ] final -144.69 input  175.53 | X-H torsion
[ 8008 7997 7996 7995 ] final  170.11 input   59.86 | X-H torsion
[ 10167 10162 10161 10158 ] final   70.92 input  -65.29 | X-H torsion
[ 10718 10713 10712 10709 ] final  -23.63 input   66.30 | X-H torsion
[ 10763 10752 10751 10750 ] final   45.81 input  -60.55 | X-H torsion
[ 11005 11000 10999 10996 ] final  131.57 input  -57.11 | X-H torsion

> <Gold.Protein.ActiveResidues>
 VAL166  LYS551  ARG553  GLY616  TRP617  ASP618  TYR619  PRO620  LYS621  CYS622 
 ASP623  PHE694  ASN695  SER759  ASP760  ASP761  ALA762  ILE779  LEU786  VAL792 
 PHE793  MET794  SER795  GLU796  ALA797  LYS798  CYS799  TRP800  GLU811  SER814 

> <Gold.Protein.RotatedAtoms>
  150.9275  134.8691  159.7529 H   0  0  0  0  0  0  0  0  0  0  0  0  # atno 6907 bound_to 6896
  152.5022  134.4128  159.9464 H   0  0  0  0  0  0  0  0  0  0  0  0  # atno 6908 bound_to 6896
  151.4157  133.3674  159.2784 H   0  0  0  0  0  0  0  0  0  0  0  0  # atno 6909 bound_to 6896
  144.8280  140.5678  143.5534 H   0  0  0  0  0  0  0  0  0  0  0  0  # atno 7974 bound_to 7965
  156.1395  140.1546  156.8942 H   0  0  0  0  0  0  0  0  0  0  0  0  # atno 8008 bound_to 7997
  154.4976  140.0834  156.7768 H   0  0  0  0  0  0  0  0  0  0  0  0  # atno 8009 bound_to 7997
  155.4104  140.3418  155.4265 H   0  0  0  0  0  0  0  0  0  0  0  0  # atno 8010 bound_to 7997
  140.0518  144.5306  150.7358 H   0  0  0  0  0  0  0  0  0  0  0  0  # atno 10167 bound_to 10162
  156.4884  130.4561  149.6770 H   0  0  0  0  0  0  0  0  0  0  0  0  # atno 10718 bound_to 10713
  152.9819  135.6028  154.3497 H   0  0  0  0  0  0  0  0  0  0  0  0  # atno 10763 bound_to 10752
  154.3187  135.2770  155.2532 H   0  0  0  0  0  0  0  0  0  0  0  0  # atno 10764 bound_to 10752
  154.4708  135.5942  153.6376 H   0  0  0  0  0  0  0  0  0  0  0  0  # atno 10765 bound_to 10752
  139.9738  134.9569  156.9457 H   0  0  0  0  0  0  0  0  0  0  0  0  # atno 11005 bound_to 11000
  145.4958  139.1486  143.3684 LP  0  0  0  0  0  0  0  0  0  0  0  0  # atno 17320 bound_to 7965
  146.2584  140.5097  142.8864 LP  0  0  0  0  0  0  0  0  0  0  0  0  # atno 17321 bound_to 7965
  140.7213  143.2592  151.4268 LP  0  0  0  0  0  0  0  0  0  0  0  0  # atno 17342 bound_to 10162
  139.5948  144.1420  152.2131 LP  0  0  0  0  0  0  0  0  0  0  0  0  # atno 17343 bound_to 10162
  156.3451  130.7402  151.2353 LP  0  0  0  0  0  0  0  0  0  0  0  0  # atno 17370 bound_to 10713
  157.7476  131.0393  150.4543 LP  0  0  0  0  0  0  0  0  0  0  0  0  # atno 17371 bound_to 10713
  140.5237  134.0881  155.7298 LP  0  0  0  0  0  0  0  0  0  0  0  0  # atno 17394 bound_to 11000
  141.1416  133.9128  157.2312 LP  0  0  0  0  0  0  0  0  0  0  0  0  # atno 17395 bound_to 11000

$$$$
