AV-unprocessed.smi:263|AV-procd|sdf|2003|dock5
  -GOLD-   2262021193D 1   1.00000     0.00000
 Structure written by MMmdl.
 57 61  0  0  0  0  0  0  0  0  1 V2000
  144.9692  135.5643  149.9689 O   0  0  0  0  0  0  0  0  0  0  0  0
  144.7307  134.7658  151.1156 C   0  0  0  0  0  0  0  0  0  0  0  0
  144.2322  135.7041  152.2430 C   0  0  0  0  0  0  0  0  0  0  0  0
  145.2886  136.4868  152.8664 N   0  0  0  0  0  0  0  0  0  0  0  0
  145.6014  137.8034  152.6145 C   0  0  0  0  0  0  0  0  0  0  0  0
  146.5957  138.2820  153.3116 N   0  0  0  0  0  0  0  0  0  0  0  0
  147.0001  137.2150  154.1057 C   0  0  0  0  0  0  0  0  0  0  0  0
  148.0162  137.0376  155.0872 C   0  0  0  0  0  0  0  0  0  0  0  0
  148.8520  138.0374  155.4687 N   0  0  0  0  0  0  0  0  0  0  0  0
  149.9814  138.2571  154.5651 C   0  0  0  0  0  0  0  0  0  0  0  0
  151.0651  139.1326  155.2232 C   0  0  0  0  0  0  0  0  0  0  0  0
  150.4855  140.4491  155.7823 C   0  0  2  0  0  0  0  0  0  0  0  0
  150.0425  141.2232  154.6790 O   0  0  0  0  0  0  0  0  0  0  0  0
  151.5559  141.2733  156.5323 C   0  0  0  0  0  0  0  0  0  0  0  0
  150.9666  142.5356  157.1905 C   0  0  0  0  0  0  0  0  0  0  0  0
  149.7811  142.1951  158.1077 C   0  0  0  0  0  0  0  0  0  0  0  0
  148.7033  141.3924  157.3604 C   0  0  0  0  0  0  0  0  0  0  0  0
  149.3008  140.1206  156.7275 C   0  0  1  0  0  0  0  0  0  0  0  0
  148.2440  139.2499  156.0215 C   0  0  0  0  0  0  0  0  0  0  0  0
  148.1279  135.8059  155.6543 N   0  0  0  0  0  0  0  0  0  0  0  0
  147.3012  134.8190  155.2963 C   0  0  0  0  0  0  0  0  0  0  0  0
  146.3089  134.8444  154.4051 N   0  0  0  0  0  0  0  0  0  0  0  0
  146.1950  136.0744  153.8275 C   0  0  0  0  0  0  0  0  0  0  0  0
  143.6990  133.6774  150.7441 C   0  0  0  0  0  0  0  0  0  0  0  0
  144.2806  132.6338  149.7742 C   0  0  0  0  0  0  0  0  0  0  0  0
  145.4626  132.0630  150.3218 O   0  0  0  0  0  0  0  0  0  0  0  0
  146.4982  133.0204  150.5061 C   0  0  0  0  0  0  0  0  0  0  0  0
  146.0553  134.0884  151.5224 C   0  0  0  0  0  0  0  0  0  0  0  0
  145.3783  135.0266  149.3084 H   0  0  0  0  0  0  0  0  0  0  0  0
  143.4899  136.3985  151.8467 H   0  0  0  0  0  0  0  0  0  0  0  0
  143.7238  135.1322  153.0206 H   0  0  0  0  0  0  0  0  0  0  0  0
  145.0621  138.4033  151.8959 H   0  0  0  0  0  0  0  0  0  0  0  0
  150.4291  137.3141  154.2537 H   0  0  0  0  0  0  0  0  0  0  0  0
  149.6126  138.7362  153.6574 H   0  0  0  0  0  0  0  0  0  0  0  0
  151.5272  138.5671  156.0335 H   0  0  0  0  0  0  0  0  0  0  0  0
  151.8601  139.3396  154.5056 H   0  0  0  0  0  0  0  0  0  0  0  0
  149.3234  141.7655  154.9645 H   0  0  0  0  0  0  0  0  0  0  0  0
  152.0105  140.6550  157.3076 H   0  0  0  0  0  0  0  0  0  0  0  0
  152.3646  141.5525  155.8554 H   0  0  0  0  0  0  0  0  0  0  0  0
  151.7398  143.0501  157.7617 H   0  0  0  0  0  0  0  0  0  0  0  0
  150.6410  143.2357  156.4203 H   0  0  0  0  0  0  0  0  0  0  0  0
  150.1371  141.6184  158.9624 H   0  0  0  0  0  0  0  0  0  0  0  0
  149.3490  143.1108  158.5120 H   0  0  0  0  0  0  0  0  0  0  0  0
  147.9048  141.1235  158.0527 H   0  0  0  0  0  0  0  0  0  0  0  0
  148.2457  142.0161  156.5916 H   0  0  0  0  0  0  0  0  0  0  0  0
  149.6977  139.5214  157.5492 H   0  0  0  0  0  0  0  0  0  0  0  0
  147.7598  139.8131  155.2225 H   0  0  0  0  0  0  0  0  0  0  0  0
  147.4674  138.9759  156.7371 H   0  0  0  0  0  0  0  0  0  0  0  0
  147.4555  133.8747  155.7973 H   0  0  0  0  0  0  0  0  0  0  0  0
  143.3764  133.1645  151.6510 H   0  0  0  0  0  0  0  0  0  0  0  0
  142.8034  134.1210  150.3071 H   0  0  0  0  0  0  0  0  0  0  0  0
  143.5540  131.8392  149.6045 H   0  0  0  0  0  0  0  0  0  0  0  0
  144.4940  133.0778  148.8006 H   0  0  0  0  0  0  0  0  0  0  0  0
  147.3877  132.5066  150.8707 H   0  0  0  0  0  0  0  0  0  0  0  0
  146.7659  133.4727  149.5500 H   0  0  0  0  0  0  0  0  0  0  0  0
  146.8430  134.8317  151.6519 H   0  0  0  0  0  0  0  0  0  0  0  0
  145.9301  133.6061  152.4928 H   0  0  0  0  0  0  0  0  0  0  0  0
  1  2  1  0  0  0  0
  1 29  1  0  0  0  0
  2 28  1  0  0  0  0
  2  3  1  0  0  0  0
  2 24  1  0  0  0  0
  3  4  1  0  0  0  0
  3 30  1  0  0  0  0
  3 31  1  0  0  0  0
  4 23  1  0  0  0  0
  4  5  1  0  0  0  0
  5  6  2  0  0  0  0
  5 32  1  0  0  0  0
  6  7  1  0  0  0  0
  7 23  2  0  0  0  0
  7  8  1  0  0  0  0
  8  9  1  0  0  0  0
  8 20  2  0  0  0  0
  9 19  1  0  0  0  0
  9 10  1  0  0  0  0
 10 11  1  0  0  0  0
 10 33  1  0  0  0  0
 10 34  1  0  0  0  0
 11 12  1  0  0  0  0
 11 35  1  0  0  0  0
 11 36  1  0  0  0  0
 12 18  1  0  0  0  0
 12 13  1  0  0  0  0
 12 14  1  0  0  0  0
 13 37  1  0  0  0  0
 14 15  1  0  0  0  0
 14 38  1  0  0  0  0
 14 39  1  0  0  0  0
 15 16  1  0  0  0  0
 15 40  1  0  0  0  0
 15 41  1  0  0  0  0
 16 17  1  0  0  0  0
 16 42  1  0  0  0  0
 16 43  1  0  0  0  0
 17 18  1  0  0  0  0
 17 44  1  0  0  0  0
 17 45  1  0  0  0  0
 18 19  1  0  0  0  0
 18 46  1  0  0  0  0
 19 47  1  0  0  0  0
 19 48  1  0  0  0  0
 20 21  1  0  0  0  0
 21 22  2  0  0  0  0
 21 49  1  0  0  0  0
 22 23  1  0  0  0  0
 24 25  1  0  0  0  0
 24 50  1  0  0  0  0
 24 51  1  0  0  0  0
 25 26  1  0  0  0  0
 25 52  1  0  0  0  0
 25 53  1  0  0  0  0
 26 27  1  0  0  0  0
 27 28  1  0  0  0  0
 27 54  1  0  0  0  0
 27 55  1  0  0  0  0
 28 56  1  0  0  0  0
 28 57  1  0  0  0  0
M  END
> <s_m_source_file>
AV-unprocessed.smi

> <i_m_source_file_index>
263

> <i_lp_mmshare_version>
43012

> <i_f3d_flags>
0

> <s_epik_input>
W0NIMl0xW0NIMl1PW0NIMl1bQ0gyXUMxKFtPSF0pW0NIMl1uKFtjSF1uMiljKGMyMyluW2NIXW5jM04oW0NIMl1bQ0gyXTQpW0NIMl1bQ0BASF0oW0NAXTQ1W09IXSlbQ0gyXVtDSDJdW0NIMl1bQ0gyXTU=

> <s_epik_cmdline>
J2VwaWtfcHl0aG9uJywgJy1waCcsICc3LjAnLCAnLXRuJywgJzgnLCAnLW1hJywgJzIwMCcsICctbWV0YWxfYmluZGluZycsICctaW1hZScsICc8aW5maWxlLm1hZT4nLCAnLW9tYWUnLCAnPG91dGZpbGUubWFlPic=

> <r_lp_tautomer_probability>
1

> <r_epik_Ionization_Penalty>
0.00747493

> <r_epik_Ionization_Penalty_Charging>
0

> <r_epik_Ionization_Penalty_Neutral>
0.00747493

> <r_epik_State_Penalty>
0.00549307

> <r_epik_Charging_Adjusted_Penalty>
0.00549307

> <i_epik_Tot_Q>
0

> <i_epik_Tot_abs_Q>
0

> <r_epik_Metal_State_Penalty>
-0

> <b_epik_Metal_Only>
0

> <s_lp_Force_Field>
OPLS_2005

> <r_lp_Energy>
38.6154

> <b_lp_Chiralities_Consistent>
1

> <s_lp_Variant>
AV-unprocessed.smi:263-1

> <Gold.Version>
5.8.1

> <Gold.Id.Protein>
6NUR|6NUR_protein|mol2

> <Gold.PLP.Fitness>
43.5962

> <Gold.PLP.PLP>
-34.1664

> <Gold.PLP.part.hbond>
-2.4980

> <Gold.PLP.part.metal>
0.0000

> <Gold.PLP.part.buried>
-4.9466

> <Gold.PLP.part.nonpolar>
-27.5960

> <Gold.PLP.part.repulsive>
0.5194

> <Gold.PLP.ligand.clash>
0.0000

> <Gold.PLP.ligand.torsion>
0.7826

> <Gold.PLP.Chemscore.Hbond>
1.5760

> <Gold.PLP.Chemscore.CHOScore>
1.9642

> <Gold.PLP.Chemscore.Metal>
0.0000

> <Gold.Chemscore.Hbonds>
donor molecule, donor type, donor heavy atom, donor atom, acceptor molecule, acceptor atom, score
      L1  H     1    29       P1  7921  1.00
      P1  H  7989  7998       L1    13  0.48
      L1  C     5    32       P1 10171  1.00
      L1  C     5    32       P1 10175  0.91

> <Gold.PLP.Chemscore.Internal.Correction>
0.3743

> <Gold.Rescore>
     Score         DG    S(hbond)    S(metal)    S(lipo)     H(rot)  DE(clash)    DE(int)     intcor
     13.52     -14.49       1.84        0.00      81.87       2.62       0.06       0.91       ----

> <Gold.Chemscore.Fitness>
13.5216

> <Gold.Chemscore.DG>
-14.4885

> <Gold.Chemscore.ZeroCoef>
-5.4800

> <Gold.Chemscore.Hbond>
1.8398

> <Gold.Chemscore.Metal>
0.0000

> <Gold.Chemscore.Lipo>
81.8739

> <Gold.Chemscore.Internal_Hbond>
0.0000

> <Gold.Chemscore.DEClash>
0.0572

> <Gold.Chemscore.DEInternal>
0.9098

> <Gold.Chemscore.Rot>
2.6232

> <Gold.Chemscore.Internal.Correction>
   9.000000E+99

> <Gold.Chemscore.Hbonds>
donor molecule, donor type, donor heavy atom, donor atom, acceptor molecule, acceptor atom, score
      L1  H     1    29       P1  7921  0.95
      P1  H  7989  7998       L1    13  0.09

> <Gold.Chemscore.Hbond.Weighted>
-6.1448

> <Gold.Chemscore.Metal.Weighted>
-0.0000

> <Gold.Chemscore.Lipo.Weighted>
-9.5792

> <Gold.Chemscore.Internal_Hbond.Weighted>
0.0000

> <Gold.Chemscore.DEClash.Weighted>
0.0572

> <Gold.Chemscore.DEInternal.Weighted>
0.9098

> <Gold.Chemscore.Rot.Weighted>
6.7155

> <Gold.Chemscore.Internal.Correction.Weighted>
   9.000000E+99

> <Gold.Protein.RotatedTorsions>
[ 6907 6896 6895 6894 ] final  145.08 input  -60.11 | X-H torsion
[ 7974 7965 7964 7962 ] final -138.11 input  175.53 | X-H torsion
[ 8008 7997 7996 7995 ] final  -79.23 input   59.86 | X-H torsion
[ 10167 10162 10161 10158 ] final  -52.72 input  -65.29 | X-H torsion
[ 10718 10713 10712 10709 ] final  149.31 input   66.30 | X-H torsion
[ 10763 10752 10751 10750 ] final    3.95 input  -60.55 | X-H torsion
[ 11005 11000 10999 10996 ] final  -24.93 input  -57.11 | X-H torsion

> <Gold.Protein.ActiveResidues>
 VAL166  LYS551  ARG553  GLY616  TRP617  ASP618  TYR619  PRO620  LYS621  CYS622 
 ASP623  PHE694  ASN695  SER759  ASP760  ASP761  ALA762  ILE779  LEU786  VAL792 
 PHE793  MET794  SER795  GLU796  ALA797  LYS798  CYS799  TRP800  GLU811  SER814 

> <Gold.Protein.RotatedAtoms>
  152.1855  133.4736  159.4979 H   0  0  0  0  0  0  0  0  0  0  0  0  # atno 6907 bound_to 6896
  150.6942  134.1780  159.4246 H   0  0  0  0  0  0  0  0  0  0  0  0  # atno 6908 bound_to 6896
  151.9692  135.0085  160.0602 H   0  0  0  0  0  0  0  0  0  0  0  0  # atno 6909 bound_to 6896
  144.8785  140.6473  143.5221 H   0  0  0  0  0  0  0  0  0  0  0  0  # atno 7974 bound_to 7965
  154.5765  140.0681  156.9041 H   0  0  0  0  0  0  0  0  0  0  0  0  # atno 8008 bound_to 7997
  155.2540  140.3353  155.4261 H   0  0  0  0  0  0  0  0  0  0  0  0  # atno 8009 bound_to 7997
  156.2158  140.1777  156.7578 H   0  0  0  0  0  0  0  0  0  0  0  0  # atno 8010 bound_to 7997
  140.6523  143.2574  151.4688 H   0  0  0  0  0  0  0  0  0  0  0  0  # atno 10167 bound_to 10162
  157.2977  131.0865  151.1414 H   0  0  0  0  0  0  0  0  0  0  0  0  # atno 10718 bound_to 10713
  153.2771  135.6937  153.7422 H   0  0  0  0  0  0  0  0  0  0  0  0  # atno 10763 bound_to 10752
  153.6423  135.3391  155.3076 H   0  0  0  0  0  0  0  0  0  0  0  0  # atno 10764 bound_to 10752
  154.8483  135.4434  154.1813 H   0  0  0  0  0  0  0  0  0  0  0  0  # atno 10765 bound_to 10752
  140.8890  133.7601  156.0397 H   0  0  0  0  0  0  0  0  0  0  0  0  # atno 11005 bound_to 11000
  145.3997  139.1600  143.4184 LP  0  0  0  0  0  0  0  0  0  0  0  0  # atno 17320 bound_to 7965
  146.2979  140.4093  142.8715 LP  0  0  0  0  0  0  0  0  0  0  0  0  # atno 17321 bound_to 7965
  139.5739  144.1863  152.1876 LP  0  0  0  0  0  0  0  0  0  0  0  0  # atno 17342 bound_to 10162
  140.1168  144.5408  150.6889 LP  0  0  0  0  0  0  0  0  0  0  0  0  # atno 17343 bound_to 10162
  157.2786  130.6739  149.6054 LP  0  0  0  0  0  0  0  0  0  0  0  0  # atno 17370 bound_to 10713
  155.9670  130.4457  150.5511 LP  0  0  0  0  0  0  0  0  0  0  0  0  # atno 17371 bound_to 10713
  140.8369  134.3112  157.5328 LP  0  0  0  0  0  0  0  0  0  0  0  0  # atno 17394 bound_to 11000
  139.8727  134.9394  156.3742 LP  0  0  0  0  0  0  0  0  0  0  0  0  # atno 17395 bound_to 11000

$$$$
