AV-unprocessed.smi:2140|AV-procd|sdf|8715|dock5
  -GOLD-   2272011483D 1   1.00000     0.00000
 Structure written by MMmdl.
 39 40  0  0  0  0  0  0  0  0  1 V2000
  145.5300  139.6621  155.1716 C   0  0  0  0  0  0  0  0  0  0  0  0
  146.6660  138.7652  154.6163 C   0  0  1  0  0  0  0  0  0  0  0  0
  146.5054  138.6488  153.0721 C   0  0  0  0  0  0  0  0  0  0  0  0
  146.6731  137.2877  152.5699 N   0  0  0  0  0  0  0  0  0  0  0  0
  145.6737  136.4779  152.1933 C   0  0  0  0  0  0  0  0  0  0  0  0
  144.4863  136.7991  152.2389 O   0  0  0  0  0  0  0  0  0  0  0  0
  146.1450  135.3012  151.7468 N   0  0  0  0  0  0  0  0  0  0  0  0
  145.4136  134.1853  151.2582 C   0  0  0  0  0  0  0  0  0  0  0  0
  145.9762  133.1419  150.4839 C   0  0  0  0  0  0  0  0  0  0  0  0
  145.1409  132.0979  150.0416 C   0  0  0  0  0  0  0  0  0  0  0  0
  143.7751  132.1385  150.3827 C   0  0  0  0  0  0  0  0  0  0  0  0
  143.2228  133.1340  151.1078 N   0  0  0  0  0  0  0  0  0  0  0  0
  144.0295  134.1319  151.5272 C   0  0  0  0  0  0  0  0  0  0  0  0
  148.0128  139.2242  155.0295 N   0  0  0  0  0  0  0  0  0  0  0  0
  149.0843  138.3597  154.5210 C   0  0  0  0  0  0  0  0  0  0  0  0
  150.4861  138.8448  154.9285 C   0  0  0  0  0  0  0  0  0  0  0  0
  150.6821  140.1753  154.4710 O   0  0  0  0  0  0  0  0  0  0  0  0
  149.7107  141.0678  154.9982 C   0  0  0  0  0  0  0  0  0  0  0  0
  148.3003  140.5980  154.5999 C   0  0  0  0  0  0  0  0  0  0  0  0
  144.5454  139.3519  154.8239 H   0  0  0  0  0  0  0  0  0  0  0  0
  145.6688  140.7026  154.8763 H   0  0  0  0  0  0  0  0  0  0  0  0
  145.4688  139.6250  156.2583 H   0  0  0  0  0  0  0  0  0  0  0  0
  146.5134  137.7680  155.0322 H   0  0  0  0  0  0  0  0  0  0  0  0
  145.5160  138.9985  152.7759 H   0  0  0  0  0  0  0  0  0  0  0  0
  147.2230  139.2692  152.5371 H   0  0  0  0  0  0  0  0  0  0  0  0
  147.6194  136.9445  152.4956 H   0  0  0  0  0  0  0  0  0  0  0  0
  147.1495  135.2178  151.6915 H   0  0  0  0  0  0  0  0  0  0  0  0
  147.0196  133.1283  150.2097 H   0  0  0  0  0  0  0  0  0  0  0  0
  145.5379  131.2861  149.4500 H   0  0  0  0  0  0  0  0  0  0  0  0
  143.1074  131.3536  150.0595 H   0  0  0  0  0  0  0  0  0  0  0  0
  143.5527  134.9123  152.1025 H   0  0  0  0  0  0  0  0  0  0  0  0
  148.9754  137.3467  154.9040 H   0  0  0  0  0  0  0  0  0  0  0  0
  149.0245  138.2963  153.4333 H   0  0  0  0  0  0  0  0  0  0  0  0
  150.6111  138.8003  156.0117 H   0  0  0  0  0  0  0  0  0  0  0  0
  151.2507  138.2023  154.4919 H   0  0  0  0  0  0  0  0  0  0  0  0
  149.8072  141.1237  156.0837 H   0  0  0  0  0  0  0  0  0  0  0  0
  149.8998  142.0683  154.6089 H   0  0  0  0  0  0  0  0  0  0  0  0
  148.1833  140.6793  153.5182 H   0  0  0  0  0  0  0  0  0  0  0  0
  147.5990  141.2983  155.0482 H   0  0  0  0  0  0  0  0  0  0  0  0
  1  2  1  0  0  0  0
  1 20  1  0  0  0  0
  1 21  1  0  0  0  0
  1 22  1  0  0  0  0
  2  3  1  0  0  0  0
  2 14  1  0  0  0  0
  2 23  1  0  0  0  0
  3  4  1  0  0  0  0
  3 24  1  0  0  0  0
  3 25  1  0  0  0  0
  4  5  1  0  0  0  0
  4 26  1  0  0  0  0
  5  6  2  0  0  0  0
  5  7  1  0  0  0  0
  7  8  1  0  0  0  0
  7 27  1  0  0  0  0
  8 13  1  0  0  0  0
  8  9  2  0  0  0  0
  9 10  1  0  0  0  0
  9 28  1  0  0  0  0
 10 11  2  0  0  0  0
 10 29  1  0  0  0  0
 11 12  1  0  0  0  0
 11 30  1  0  0  0  0
 12 13  2  0  0  0  0
 13 31  1  0  0  0  0
 14 19  1  0  0  0  0
 14 15  1  0  0  0  0
 15 16  1  0  0  0  0
 15 32  1  0  0  0  0
 15 33  1  0  0  0  0
 16 17  1  0  0  0  0
 16 34  1  0  0  0  0
 16 35  1  0  0  0  0
 17 18  1  0  0  0  0
 18 19  1  0  0  0  0
 18 36  1  0  0  0  0
 18 37  1  0  0  0  0
 19 38  1  0  0  0  0
 19 39  1  0  0  0  0
M  END
> <s_m_source_file>
AV-unprocessed.smi

> <i_m_source_file_index>
2140

> <i_lp_mmshare_version>
43012

> <i_f3d_flags>
0

> <s_epik_input>
W0NIMl0xW0NIMl1PW0NIMl1bQ0gyXU4xW0NASF0oW0NIM10pW0NIMl1bTkhdQyg9TylbTkhdYzJbY0hdW2NIXVtjSF1uW2NIXTI=

> <s_epik_cmdline>
J2VwaWtfcHl0aG9uJywgJy1waCcsICc3LjAnLCAnLXRuJywgJzgnLCAnLW1hJywgJzIwMCcsICctbWV0YWxfYmluZGluZycsICctaW1hZScsICc8aW5maWxlLm1hZT4nLCAnLW9tYWUnLCAnPG91dGZpbGUubWFlPic=

> <r_epik_Ionization_Penalty>
0.270748

> <r_epik_Ionization_Penalty_Charging>
0

> <r_epik_Ionization_Penalty_Neutral>
0.270748

> <r_epik_State_Penalty>
0.268258

> <r_epik_Charging_Adjusted_Penalty>
0.268258

> <i_epik_Tot_Q>
0

> <i_epik_Tot_abs_Q>
0

> <r_epik_Metal_State_Penalty>
0.264828

> <b_epik_Metal_Only>
0

> <s_lp_Force_Field>
OPLS_2005

> <r_lp_Energy>
31.3995

> <b_lp_Chiralities_Consistent>
1

> <s_lp_Variant>
AV-unprocessed.smi:2140-2

> <Gold.Version>
5.8.1

> <Gold.Id.Protein>
6NUR|6NUR_protein|mol2

> <Gold.PLP.Fitness>
40.0950

> <Gold.PLP.PLP>
-30.0942

> <Gold.PLP.part.hbond>
-2.8731

> <Gold.PLP.part.metal>
0.0000

> <Gold.PLP.part.buried>
-6.8263

> <Gold.PLP.part.nonpolar>
-22.9386

> <Gold.PLP.part.repulsive>
1.2854

> <Gold.PLP.ligand.clash>
0.0000

> <Gold.PLP.ligand.torsion>
0.7690

> <Gold.PLP.Chemscore.Hbond>
2.9028

> <Gold.PLP.Chemscore.CHOScore>
0.9353

> <Gold.PLP.Chemscore.Metal>
0.0000

> <Gold.Chemscore.Hbonds>
donor molecule, donor type, donor heavy atom, donor atom, acceptor molecule, acceptor atom, score
      L1  H     4    26       P1  7948  1.00
      L1  H     7    27       P1  7948  0.92
      P1  H  7989  7998       L1    17  0.99
      L1  C    11    30       P1 10952  0.96

> <Gold.PLP.Chemscore.Internal.Correction>
0.0248

> <Gold.Rescore>
     Score         DG    S(hbond)    S(metal)    S(lipo)     H(rot)  DE(clash)    DE(int)     intcor
     17.35     -19.56       2.85        0.00      71.13       1.47       0.03       2.18       ----

> <Gold.Chemscore.Fitness>
17.3531

> <Gold.Chemscore.DG>
-19.5633

> <Gold.Chemscore.ZeroCoef>
-5.4800

> <Gold.Chemscore.Hbond>
2.8531

> <Gold.Chemscore.Metal>
0.0000

> <Gold.Chemscore.Lipo>
71.1298

> <Gold.Chemscore.Internal_Hbond>
0.0000

> <Gold.Chemscore.DEClash>
0.0327

> <Gold.Chemscore.DEInternal>
2.1776

> <Gold.Chemscore.Rot>
1.4719

> <Gold.Chemscore.Internal.Correction>
   9.000000E+99

> <Gold.Chemscore.Hbonds>
donor molecule, donor type, donor heavy atom, donor atom, acceptor molecule, acceptor atom, score
      L1  H     4    26       P1  7948  0.99
      L1  H     7    27       P1  7948  0.80
      P1  H  7989  7998       L1    17  0.76

> <Gold.Chemscore.Hbond.Weighted>
-9.5292

> <Gold.Chemscore.Metal.Weighted>
-0.0000

> <Gold.Chemscore.Lipo.Weighted>
-8.3222

> <Gold.Chemscore.Internal_Hbond.Weighted>
0.0000

> <Gold.Chemscore.DEClash.Weighted>
0.0327

> <Gold.Chemscore.DEInternal.Weighted>
2.1776

> <Gold.Chemscore.Rot.Weighted>
3.7681

> <Gold.Chemscore.Internal.Correction.Weighted>
   9.000000E+99

> <Gold.Protein.RotatedTorsions>
[ 6907 6896 6895 6894 ] final -132.29 input  -60.11 | X-H torsion
[ 7974 7965 7964 7962 ] final  -63.33 input  175.53 | X-H torsion
[ 8008 7997 7996 7995 ] final -169.20 input   59.86 | X-H torsion
[ 10167 10162 10161 10158 ] final   61.26 input  -65.29 | X-H torsion
[ 10718 10713 10712 10709 ] final   57.68 input   66.30 | X-H torsion
[ 10763 10752 10751 10750 ] final -138.46 input  -60.55 | X-H torsion
[ 11005 11000 10999 10996 ] final   -5.75 input  -57.11 | X-H torsion

> <Gold.Protein.ActiveResidues>
 VAL166  LYS551  ARG553  GLY616  TRP617  ASP618  TYR619  PRO620  LYS621  CYS622 
 ASP623  PHE694  ASN695  SER759  ASP760  ASP761  ALA762  ILE779  LEU786  VAL792 
 PHE793  MET794  SER795  GLU796  ALA797  LYS798  CYS799  TRP800  GLU811  SER814 

> <Gold.Protein.RotatedAtoms>
  150.9607  133.6448  159.2754 H   0  0  0  0  0  0  0  0  0  0  0  0  # atno 6907 bound_to 6896
  151.3772  135.0932  159.9494 H   0  0  0  0  0  0  0  0  0  0  0  0  # atno 6908 bound_to 6896
  152.5146  133.9149  159.7561 H   0  0  0  0  0  0  0  0  0  0  0  0  # atno 6909 bound_to 6896
  145.7804  140.8765  143.0333 H   0  0  0  0  0  0  0  0  0  0  0  0  # atno 7974 bound_to 7965
  155.9018  140.1042  157.1344 H   0  0  0  0  0  0  0  0  0  0  0  0  # atno 8008 bound_to 7997
  154.4027  140.1291  156.4510 H   0  0  0  0  0  0  0  0  0  0  0  0  # atno 8009 bound_to 7997
  155.7414  140.3467  155.5108 H   0  0  0  0  0  0  0  0  0  0  0  0  # atno 8010 bound_to 7997
  140.1567  144.4410  150.6730 H   0  0  0  0  0  0  0  0  0  0  0  0  # atno 10167 bound_to 10162
  157.5534  130.8782  149.8999 H   0  0  0  0  0  0  0  0  0  0  0  0  # atno 10718 bound_to 10713
  154.8636  135.3611  154.5388 H   0  0  0  0  0  0  0  0  0  0  0  0  # atno 10763 bound_to 10752
  153.6011  135.7012  153.5389 H   0  0  0  0  0  0  0  0  0  0  0  0  # atno 10764 bound_to 10752
  153.3290  135.4130  155.1441 H   0  0  0  0  0  0  0  0  0  0  0  0  # atno 10765 bound_to 10752
  140.6946  133.9042  155.8641 H   0  0  0  0  0  0  0  0  0  0  0  0  # atno 11005 bound_to 11000
  144.6797  139.9980  143.7484 LP  0  0  0  0  0  0  0  0  0  0  0  0  # atno 17320 bound_to 7965
  146.0080  139.3146  143.0887 LP  0  0  0  0  0  0  0  0  0  0  0  0  # atno 17321 bound_to 7965
  140.6669  143.2271  151.5722 LP  0  0  0  0  0  0  0  0  0  0  0  0  # atno 17342 bound_to 10162
  139.5400  144.2674  152.1331 LP  0  0  0  0  0  0  0  0  0  0  0  0  # atno 17343 bound_to 10162
  156.0597  130.3702  150.1010 LP  0  0  0  0  0  0  0  0  0  0  0  0  # atno 17370 bound_to 10713
  156.9181  130.9674  151.3553 LP  0  0  0  0  0  0  0  0  0  0  0  0  # atno 17371 bound_to 10713
  141.0214  134.0884  157.4116 LP  0  0  0  0  0  0  0  0  0  0  0  0  # atno 17394 bound_to 11000
  139.8914  135.0118  156.6788 LP  0  0  0  0  0  0  0  0  0  0  0  0  # atno 17395 bound_to 11000

$$$$
