AV-unprocessed.smi:2124|AV-procd|sdf|8651|dock5
  -GOLD-   2272011403D 1   1.00000     0.00000
 Structure written by MMmdl.
 47 49  0  0  0  0  0  0  0  0  1 V2000
  145.9196  137.8510  152.0822 C   0  0  0  0  0  0  0  0  0  0  0  0
  146.7942  138.7847  152.8920 C   0  0  0  0  0  0  0  0  0  0  0  0
  147.9667  138.4707  153.3357 N   0  0  0  0  0  0  0  0  0  0  0  0
  148.6865  139.4214  154.0729 C   0  0  0  0  0  0  0  0  0  0  0  0
  150.0580  138.9750  154.5500 C   0  0  0  0  0  0  0  0  0  0  0  0
  148.1770  140.6626  154.3292 C   0  0  0  0  0  0  0  0  0  0  0  0
  148.9227  141.7279  155.1336 C   0  0  0  0  0  0  0  0  0  0  0  0
  149.2353  141.3847  156.5933 C   0  0  0  0  0  0  0  0  0  0  0  0
  148.3139  141.2558  157.3985 O   0  0  0  0  0  0  0  0  0  0  0  0
  150.5300  141.2533  156.9234 N   0  0  0  0  0  0  0  0  0  0  0  0
  151.0540  140.9442  158.2510 C   0  0  1  0  0  0  0  0  0  0  0  0
  151.4095  139.4502  158.3086 C   0  0  0  0  0  0  0  0  0  0  0  0
  152.2722  141.8478  158.5550 C   0  0  2  0  0  0  0  0  0  0  0  0
  152.8396  141.7163  159.9866 C   0  0  0  0  0  0  0  0  0  0  0  0
  152.9414  143.1799  160.4560 C   0  0  2  0  0  0  0  0  0  0  0  0
  151.5284  143.7096  160.7610 C   0  0  0  0  0  0  0  0  0  0  0  0
  150.9176  143.8680  159.3571 C   0  0  0  0  0  0  0  0  0  0  0  0
  152.0511  143.3773  158.4324 C   0  0  1  0  0  0  0  0  0  0  0  0
  153.2792  143.9120  159.1622 C   0  0  0  0  0  0  0  0  0  0  0  0
  146.8351  141.0082  153.8221 C   0  0  0  0  0  0  0  0  0  0  0  0
  146.2799  142.0904  154.0041 O   0  0  0  0  0  0  0  0  0  0  0  0
  146.2164  140.0320  153.1210 N   0  0  0  0  0  0  0  0  0  0  0  0
  145.2959  140.2210  152.7518 H   0  0  0  0  0  0  0  0  0  0  0  0
  144.9678  138.3152  151.8204 H   0  0  0  0  0  0  0  0  0  0  0  0
  145.7116  136.9440  152.6503 H   0  0  0  0  0  0  0  0  0  0  0  0
  146.4264  137.5693  151.1589 H   0  0  0  0  0  0  0  0  0  0  0  0
  150.8390  139.5619  154.0664 H   0  0  0  0  0  0  0  0  0  0  0  0
  150.2364  137.9250  154.3149 H   0  0  0  0  0  0  0  0  0  0  0  0
  150.1540  139.0926  155.6287 H   0  0  0  0  0  0  0  0  0  0  0  0
  149.8685  141.9611  154.6457 H   0  0  0  0  0  0  0  0  0  0  0  0
  148.3608  142.6627  155.1029 H   0  0  0  0  0  0  0  0  0  0  0  0
  151.2127  141.3829  156.1907 H   0  0  0  0  0  0  0  0  0  0  0  0
  150.2890  141.1255  159.0070 H   0  0  0  0  0  0  0  0  0  0  0  0
  151.7769  139.1661  159.2947 H   0  0  0  0  0  0  0  0  0  0  0  0
  152.1807  139.1966  157.5806 H   0  0  0  0  0  0  0  0  0  0  0  0
  150.5361  138.8325  158.0966 H   0  0  0  0  0  0  0  0  0  0  0  0
  153.0646  141.5810  157.8527 H   0  0  0  0  0  0  0  0  0  0  0  0
  152.2032  141.1260  160.6471 H   0  0  0  0  0  0  0  0  0  0  0  0
  153.8217  141.2425  159.9651 H   0  0  0  0  0  0  0  0  0  0  0  0
  153.6493  143.3300  161.2715 H   0  0  0  0  0  0  0  0  0  0  0  0
  150.9560  143.0260  161.3892 H   0  0  0  0  0  0  0  0  0  0  0  0
  151.5743  144.6730  161.2699 H   0  0  0  0  0  0  0  0  0  0  0  0
  149.9876  143.3137  159.2364 H   0  0  0  0  0  0  0  0  0  0  0  0
  150.6946  144.9173  159.1597 H   0  0  0  0  0  0  0  0  0  0  0  0
  151.9533  143.7243  157.4033 H   0  0  0  0  0  0  0  0  0  0  0  0
  153.2825  144.9985  159.2673 H   0  0  0  0  0  0  0  0  0  0  0  0
  154.2236  143.5929  158.7174 H   0  0  0  0  0  0  0  0  0  0  0  0
  1  2  1  0  0  0  0
  1 24  1  0  0  0  0
  1 25  1  0  0  0  0
  1 26  1  0  0  0  0
  2 22  1  0  0  0  0
  2  3  2  0  0  0  0
  3  4  1  0  0  0  0
  4  5  1  0  0  0  0
  4  6  2  0  0  0  0
  5 27  1  0  0  0  0
  5 28  1  0  0  0  0
  5 29  1  0  0  0  0
  6  7  1  0  0  0  0
  6 20  1  0  0  0  0
  7  8  1  0  0  0  0
  7 30  1  0  0  0  0
  7 31  1  0  0  0  0
  8  9  2  0  0  0  0
  8 10  1  0  0  0  0
 10 11  1  0  0  0  0
 10 32  1  0  0  0  0
 11 12  1  0  0  0  0
 11 13  1  0  0  0  0
 11 33  1  0  0  0  0
 12 34  1  0  0  0  0
 12 35  1  0  0  0  0
 12 36  1  0  0  0  0
 13 18  1  0  0  0  0
 13 14  1  0  0  0  0
 13 37  1  0  0  0  0
 14 15  1  0  0  0  0
 14 38  1  0  0  0  0
 14 39  1  0  0  0  0
 15 19  1  0  0  0  0
 15 16  1  0  0  0  0
 15 40  1  0  0  0  0
 16 17  1  0  0  0  0
 16 41  1  0  0  0  0
 16 42  1  0  0  0  0
 17 18  1  0  0  0  0
 17 43  1  0  0  0  0
 17 44  1  0  0  0  0
 18 19  1  0  0  0  0
 18 45  1  0  0  0  0
 19 46  1  0  0  0  0
 19 47  1  0  0  0  0
 20 21  2  0  0  0  0
 20 22  1  0  0  0  0
 22 23  1  0  0  0  0
M  END
> <s_m_source_file>
AV-unprocessed.smi

> <i_m_source_file_index>
2124

> <i_lp_mmshare_version>
43012

> <i_f3d_flags>
0

> <s_epik_input>
W0NIM11jMW5jKFtDSDNdKWMoYyg9TylbbkhdMSlbQ0gyXUMoPU8pW05IXVtDQEhdKFtDSDNdKVtDQEhdKFtDSDJdW0NASF0yMylbQ0BIXShbQ0gyXTMpW0NIMl1bQ0gyXTI=

> <s_epik_cmdline>
J2VwaWtfcHl0aG9uJywgJy1waCcsICc3LjAnLCAnLXRuJywgJzgnLCAnLW1hJywgJzIwMCcsICctbWV0YWxfYmluZGluZycsICctaW1hZScsICc8aW5maWxlLm1hZT4nLCAnLW9tYWUnLCAnPG91dGZpbGUubWFlPic=

> <r_lp_tautomer_probability>
0.839158

> <r_epik_Ionization_Penalty>
0.000383628

> <r_epik_Ionization_Penalty_Charging>
0.00035045

> <r_epik_Ionization_Penalty_Neutral>
3.31781e-05

> <r_epik_State_Penalty>
0.09125

> <r_epik_Charging_Adjusted_Penalty>
0.0916005

> <i_epik_Tot_Q>
0

> <i_epik_Tot_abs_Q>
0

> <r_epik_Metal_State_Penalty>
0.255229

> <b_epik_Metal_Only>
0

> <s_lp_Force_Field>
OPLS_2005

> <r_lp_Energy>
53.2281

> <b_lp_Chiralities_Consistent>
1

> <s_lp_Variant>
AV-unprocessed.smi:2124-2

> <Gold.Version>
5.8.1

> <Gold.Id.Protein>
6NUR|6NUR_protein|mol2

> <Gold.PLP.Fitness>
41.8913

> <Gold.PLP.PLP>
-39.4860

> <Gold.PLP.part.hbond>
-1.0000

> <Gold.PLP.part.metal>
0.0000

> <Gold.PLP.part.buried>
-5.2029

> <Gold.PLP.part.nonpolar>
-36.4941

> <Gold.PLP.part.repulsive>
2.6255

> <Gold.PLP.ligand.clash>
0.0000

> <Gold.PLP.ligand.torsion>
0.3131

> <Gold.PLP.Chemscore.Hbond>
1.0000

> <Gold.PLP.Chemscore.CHOScore>
0.0000

> <Gold.PLP.Chemscore.Metal>
0.0000

> <Gold.Chemscore.Hbonds>
donor molecule, donor type, donor heavy atom, donor atom, acceptor molecule, acceptor atom, score
      L1  H    22    23       P1 10175  1.00

> <Gold.PLP.Chemscore.Internal.Correction>
0.0316

> <Gold.Rescore>
     Score         DG    S(hbond)    S(metal)    S(lipo)     H(rot)  DE(clash)    DE(int)     intcor
     17.28     -18.48       0.99        0.00     118.99       1.65       0.96       0.24       ----

> <Gold.Chemscore.Fitness>
17.2823

> <Gold.Chemscore.DG>
-18.4825

> <Gold.Chemscore.ZeroCoef>
-5.4800

> <Gold.Chemscore.Hbond>
0.9920

> <Gold.Chemscore.Metal>
0.0000

> <Gold.Chemscore.Lipo>
118.9890

> <Gold.Chemscore.Internal_Hbond>
0.0000

> <Gold.Chemscore.DEClash>
0.9582

> <Gold.Chemscore.DEInternal>
0.2420

> <Gold.Chemscore.Rot>
1.6534

> <Gold.Chemscore.Internal.Correction>
   9.000000E+99

> <Gold.Chemscore.Hbonds>
donor molecule, donor type, donor heavy atom, donor atom, acceptor molecule, acceptor atom, score
      L1  H    22    23       P1 10175  0.96

> <Gold.Chemscore.Hbond.Weighted>
-3.3134

> <Gold.Chemscore.Metal.Weighted>
-0.0000

> <Gold.Chemscore.Lipo.Weighted>
-13.9217

> <Gold.Chemscore.Internal_Hbond.Weighted>
0.0000

> <Gold.Chemscore.DEClash.Weighted>
0.9582

> <Gold.Chemscore.DEInternal.Weighted>
0.2420

> <Gold.Chemscore.Rot.Weighted>
4.2326

> <Gold.Chemscore.Internal.Correction.Weighted>
   9.000000E+99

> <Gold.Protein.RotatedTorsions>
[ 6907 6896 6895 6894 ] final  136.35 input  -60.11 | X-H torsion
[ 7974 7965 7964 7962 ] final  -48.36 input  175.53 | X-H torsion
[ 8008 7997 7996 7995 ] final  -55.38 input   59.86 | X-H torsion
[ 10167 10162 10161 10158 ] final  109.31 input  -65.29 | X-H torsion
[ 10718 10713 10712 10709 ] final -102.36 input   66.30 | X-H torsion
[ 10763 10752 10751 10750 ] final   66.17 input  -60.55 | X-H torsion
[ 11005 11000 10999 10996 ] final -179.82 input  -57.11 | X-H torsion

> <Gold.Protein.ActiveResidues>
 VAL166  LYS551  ARG553  GLY616  TRP617  ASP618  TYR619  PRO620  LYS621  CYS622 
 ASP623  PHE694  ASN695  SER759  ASP760  ASP761  ALA762  ILE779  LEU786  VAL792 
 PHE793  MET794  SER795  GLU796  ALA797  LYS798  CYS799  TRP800  GLU811  SER814 

> <Gold.Protein.RotatedAtoms>
  152.2903  133.5554  159.5552 H   0  0  0  0  0  0  0  0  0  0  0  0  # atno 6907 bound_to 6896
  150.7232  134.0438  159.3784 H   0  0  0  0  0  0  0  0  0  0  0  0  # atno 6908 bound_to 6896
  151.8345  135.0611  160.0491 H   0  0  0  0  0  0  0  0  0  0  0  0  # atno 6909 bound_to 6896
  145.9520  140.7563  142.9500 H   0  0  0  0  0  0  0  0  0  0  0  0  # atno 7974 bound_to 7965
  154.4193  140.1154  156.5467 H   0  0  0  0  0  0  0  0  0  0  0  0  # atno 8008 bound_to 7997
  155.6452  140.3496  155.4710 H   0  0  0  0  0  0  0  0  0  0  0  0  # atno 8009 bound_to 7997
  155.9838  140.1165  157.0692 H   0  0  0  0  0  0  0  0  0  0  0  0  # atno 8010 bound_to 7997
  139.6777  144.7121  151.1573 H   0  0  0  0  0  0  0  0  0  0  0  0  # atno 10167 bound_to 10162
  156.0226  130.5416  150.7097 H   0  0  0  0  0  0  0  0  0  0  0  0  # atno 10718 bound_to 10713
  153.0128  135.5330  154.6782 H   0  0  0  0  0  0  0  0  0  0  0  0  # atno 10763 bound_to 10752
  154.5949  135.2862  155.0599 H   0  0  0  0  0  0  0  0  0  0  0  0  # atno 10764 bound_to 10752
  154.1678  135.6537  153.5054 H   0  0  0  0  0  0  0  0  0  0  0  0  # atno 10765 bound_to 10752
  140.4144  134.6662  157.4631 H   0  0  0  0  0  0  0  0  0  0  0  0  # atno 11005 bound_to 11000
  144.6797  140.2450  143.7339 LP  0  0  0  0  0  0  0  0  0  0  0  0  # atno 17320 bound_to 7965
  145.8158  139.2022  143.1967 LP  0  0  0  0  0  0  0  0  0  0  0  0  # atno 17321 bound_to 7965
  140.7641  143.5747  150.8958 LP  0  0  0  0  0  0  0  0  0  0  0  0  # atno 17342 bound_to 10162
  139.9417  143.6374  152.3052 LP  0  0  0  0  0  0  0  0  0  0  0  0  # atno 17343 bound_to 10162
  157.4738  131.0896  151.0613 LP  0  0  0  0  0  0  0  0  0  0  0  0  # atno 17370 bound_to 10713
  157.1065  130.6004  149.5472 LP  0  0  0  0  0  0  0  0  0  0  0  0  # atno 17371 bound_to 10713
  140.0244  134.6498  155.9193 LP  0  0  0  0  0  0  0  0  0  0  0  0  # atno 17394 bound_to 11000
  141.1808  133.6546  156.5014 LP  0  0  0  0  0  0  0  0  0  0  0  0  # atno 17395 bound_to 11000

$$$$
