#       Name:                AV-unprocessed.smi:2789
#       Creating user name   scv26
#       Creation time:       Fri Mar 27 15:20:00 2020


#       File generated by GOLD software.
#

@<TRIPOS>MOLECULE
AV-unprocessed.smi:2789
    40    41     1
SMALL
NO_CHARGES


@<TRIPOS>ATOM
      1 ****        -2.6569  -0.1279   3.0495 C.3            1 S1                 0.0000
      2 ****        -2.5972   0.3444   1.7134 O.3            1 S1                 0.0000
      3 ****        -2.1803  -0.6409   0.7783 C.3            1 S1                 0.0000
      4 ****        -3.2930  -1.6500   0.4689 C.3            1 S1                 0.0000
      5 ****        -3.0110  -2.0934  -0.9620 C.3            1 S1                 0.0000
      6 ****        -2.5381  -0.8165  -1.6569 C.3            1 S1                 0.0000
      7 ****        -1.8317   0.0209  -0.5743 C.3            1 S1                 0.0000
      8 ****        -0.3899   0.0421  -0.8071 N.am           1 S1                 0.0000
      9 ****         0.4649   0.8968  -0.2268 C.2            1 S1                 0.0000
     10 ****         0.1149   1.7702   0.5672 O.2            1 S1                 0.0000
     11 ****         1.7289   0.6625  -0.6202 N.am           1 S1                 0.0000
     12 ****         2.8660   1.3100  -0.2506 C.2            1 S1                 0.0000
     13 ****         3.0053   2.4279   0.5262 C.2            1 S1                 0.0000
     14 ****         4.4168   2.6174   0.5430 C.2            1 S1                 0.0000
     15 ****         5.0729   1.7023  -0.1598 N.2            1 S1                 0.0000
     16 ****         4.1142   0.8901  -0.6561 N.pl3          1 S1                 0.0000
     17 ****         4.4794  -0.2405  -1.4870 C.3            1 S1                 0.0000
     18 ****        -2.9642   0.6837   3.7088 H              1 S1                 0.0000
     19 ****        -1.6812  -0.4807   3.3859 H              1 S1                 0.0000
     20 ****        -3.3792  -0.9375   3.1573 H              1 S1                 0.0000
     21 ****        -1.3085  -1.1790   1.1572 H              1 S1                 0.0000
     22 ****        -3.3139  -2.4838   1.1711 H              1 S1                 0.0000
     23 ****        -4.2650  -1.1558   0.5087 H              1 S1                 0.0000
     24 ****        -2.2112  -2.8351  -0.9670 H              1 S1                 0.0000
     25 ****        -3.8824  -2.5366  -1.4449 H              1 S1                 0.0000
     26 ****        -1.9077  -1.0304  -2.5212 H              1 S1                 0.0000
     27 ****        -3.4064  -0.2675  -2.0244 H              1 S1                 0.0000
     28 ****        -2.2194   1.0408  -0.6166 H              1 S1                 0.0000
     29 ****        -0.0210  -0.6458  -1.4471 H              1 S1                 0.0000
     30 ****         1.8599  -0.1054  -1.2620 H              1 S1                 0.0000
     31 ****         2.2441   3.0238   1.0070 H              1 S1                 0.0000
     32 ****         4.9827   3.3906   1.0415 H              1 S1                 0.0000
     33 ****         4.1516  -1.1648  -1.0109 H              1 S1                 0.0000
     34 ****         5.5602  -0.2807  -1.6294 H              1 S1                 0.0000
     35 ****         3.9979  -0.1496  -2.4608 H              1 S1                 0.0000
     36 ****        -1.9522   1.1076   1.6767 LP             1 S1                 0.0000
     37 ****        -3.5075   0.6643   1.4505 LP             1 S1                 0.0000
     38 ****        -0.8505   1.8685   0.8088 LP             1 S1                 0.0000
     39 ****         0.7960   2.3812   0.9706 LP             1 S1                 0.0000
     40 ****         6.0613   1.6298  -0.2929 LP             1 S1                 0.0000
@<TRIPOS>BOND
    1    1    2 1     
    2    1   18 1     
    3    1   19 1     
    4    1   20 1     
    5    2    3 1     
    6    3    7 1     
    7    3    4 1     
    8    3   21 1     
    9    4    5 1     
   10    4   22 1     
   11    4   23 1     
   12    5    6 1     
   13    5   24 1     
   14    5   25 1     
   15    6    7 1     
   16    6   26 1     
   17    6   27 1     
   18    7    8 1     
   19    7   28 1     
   20    8    9 am    
   21    8   29 1     
   22    9   10 2     
   23    9   11 am    
   24   11   12 1     
   25   11   30 1     
   26   12   16 1     
   27   12   13 2     
   28   13   14 1     
   29   13   31 1     
   30   14   15 2     
   31   14   32 1     
   32   15   16 1     
   33   16   17 1     
   34   17   33 1     
   35   17   34 1     
   36   17   35 1     
   37    2   36 1     
   38    2   37 1     
   39   10   38 1     
   40   10   39 1     
   41   15   40 1     
@<TRIPOS>SUBSTRUCTURE
      1 S1             1
@<TRIPOS>SET
LONE_PAIRS      STATIC     ATOMS    <user>   **** ""
5 36 37 38 39 40
DONOR_HYDROGENS      STATIC     ATOMS    <user>   **** ""
2 29 30
ATOM$BLUE        STATIC     ATOMS    COLORGROUP SYSTEM
5 36 37 38 39 40
ATOM$RED        STATIC     ATOMS    COLORGROUP SYSTEM
2 29 30
