#       Name:                AV-unprocessed.smi:97
#       Creating user name   scv26
#       Creation time:       Thu Mar 26 17:31:02 2020


#       File generated by GOLD software.
#

@<TRIPOS>MOLECULE
AV-unprocessed.smi:97
    58    61     1
SMALL
NO_CHARGES


@<TRIPOS>ATOM
      1 ****        -1.4133   3.6682  -1.0980 O.2            1 S1                 0.0000
      2 ****        -1.0393   2.9703  -0.1564 C.2            1 S1                 0.0000
      3 ****         0.3568   3.2096   0.4463 C.3            1 S1                 0.0000
      4 ****         0.8368   2.1278   1.3379 N.am           1 S1                 0.0000
      5 ****         0.6559   2.2583   2.7375 C.2            1 S1                 0.0000
      6 ****         0.1092   3.2502   3.2211 O.2            1 S1                 0.0000
      7 ****         1.1470   1.1453   3.5426 C.2            1 S1                 0.0000
      8 ****         1.0390   1.1934   4.8811 F              1 S1                 0.0000
      9 ****         1.7078   0.0637   2.9637 C.2            1 S1                 0.0000
     10 ****         1.8515  -0.0622   1.5947 N.am           1 S1                 0.0000
     11 ****         2.4751  -1.2967   0.9847 C.3            1 S1                 0.0000
     12 ****         3.9948  -1.1259   0.8754 C.3            1 S1                 0.0000
     13 ****         4.4847  -1.8563   2.1073 C.3            1 S1                 0.0000
     14 ****         3.4583  -2.9759   2.2280 C.3            1 S1                 0.0000
     15 ****         2.2260  -2.3897   1.8212 O.3            1 S1                 0.0000
     16 ****         1.4308   0.9855   0.7483 C.2            1 S1                 0.0000
     17 ****         1.5715   0.9044  -0.4738 O.2            1 S1                 0.0000
     18 ****        -1.7858   1.9780   0.3568 N.am           1 S1                 0.0000
     19 ****        -3.0612   1.5181  -0.1782 C.3            1 S1                 0.0000
     20 ****        -2.9105   0.4731  -1.2747 C.ar           1 S1                 0.0000
     21 ****        -1.8650  -0.4903  -1.2236 C.ar           1 S1                 0.0000
     22 ****        -1.7246  -1.4633  -2.2384 C.ar           1 S1                 0.0000
     23 ****        -2.6538  -1.4494  -3.2906 C.ar           1 S1                 0.0000
     24 ****        -3.6738  -0.5221  -3.3428 C.ar           1 S1                 0.0000
     25 ****        -3.8344   0.4556  -2.3473 C.ar           1 S1                 0.0000
     26 ****        -4.4225  -0.7326  -4.4554 O.3            1 S1                 0.0000
     27 ****        -3.8387  -1.8297  -5.1093 C.3            1 S1                 0.0000
     28 ****        -2.7303  -2.2711  -4.3682 O.3            1 S1                 0.0000
     29 ****         1.0619   3.3612  -0.3728 H              1 S1                 0.0000
     30 ****         0.3403   4.1734   0.9566 H              1 S1                 0.0000
     31 ****         2.0569  -0.7297   3.6077 H              1 S1                 0.0000
     32 ****         1.9796  -1.4563   0.0258 H              1 S1                 0.0000
     33 ****         4.3368  -1.6302  -0.0292 H              1 S1                 0.0000
     34 ****         4.2943  -0.0781   0.8310 H              1 S1                 0.0000
     35 ****         5.5069  -2.2230   2.0100 H              1 S1                 0.0000
     36 ****         4.4370  -1.2024   2.9788 H              1 S1                 0.0000
     37 ****         3.7025  -3.7911   1.5455 H              1 S1                 0.0000
     38 ****         3.3946  -3.3833   3.2371 H              1 S1                 0.0000
     39 ****        -1.4083   1.4602   1.1367 H              1 S1                 0.0000
     40 ****        -3.6319   1.0757   0.6383 H              1 S1                 0.0000
     41 ****        -3.6475   2.3642  -0.5410 H              1 S1                 0.0000
     42 ****        -1.1622  -0.4895  -0.4034 H              1 S1                 0.0000
     43 ****        -0.9307  -2.1946  -2.2044 H              1 S1                 0.0000
     44 ****        -4.6397   1.1732  -2.4058 H              1 S1                 0.0000
     45 ****        -4.5680  -2.6362  -5.1919 H              1 S1                 0.0000
     46 ****        -3.5151  -1.5308  -6.1071 H              1 S1                 0.0000
     47 ****        -0.8128   4.3801  -1.4622 LP             1 S1                 0.0000
     48 ****        -2.3178   3.5236  -1.4992 LP             1 S1                 0.0000
     49 ****        -0.2167   3.9828   2.6234 LP             1 S1                 0.0000
     50 ****        -0.0088   3.3231   4.2114 LP             1 S1                 0.0000
     51 ****         1.6823  -3.0685   1.3276 LP             1 S1                 0.0000
     52 ****         1.7222  -2.0821   2.6283 LP             1 S1                 0.0000
     53 ****         1.2644   1.6516  -1.0632 LP             1 S1                 0.0000
     54 ****         1.9928   0.0914  -0.8758 LP             1 S1                 0.0000
     55 ****        -4.4035   0.0746  -5.0455 LP             1 S1                 0.0000
     56 ****        -5.3680  -0.9399  -4.2045 LP             1 S1                 0.0000
     57 ****        -2.8623  -3.2180  -4.0752 LP             1 S1                 0.0000
     58 ****        -1.8965  -2.2049  -4.9163 LP             1 S1                 0.0000
@<TRIPOS>BOND
    1    1    2 2     
    2    2    3 1     
    3    2   18 am    
    4    3    4 1     
    5    3   29 1     
    6    3   30 1     
    7    4   16 am    
    8    4    5 am    
    9    5    6 2     
   10    5    7 1     
   11    7    8 1     
   12    7    9 2     
   13    9   10 1     
   14    9   31 1     
   15   10   11 1     
   16   10   16 am    
   17   11   15 1     
   18   11   12 1     
   19   11   32 1     
   20   12   13 1     
   21   12   33 1     
   22   12   34 1     
   23   13   14 1     
   24   13   35 1     
   25   13   36 1     
   26   14   15 1     
   27   14   37 1     
   28   14   38 1     
   29   16   17 2     
   30   18   19 1     
   31   18   39 1     
   32   19   20 1     
   33   19   40 1     
   34   19   41 1     
   35   20   25 ar    
   36   20   21 ar    
   37   21   22 ar    
   38   21   42 1     
   39   22   23 ar    
   40   22   43 1     
   41   23   28 1     
   42   23   24 ar    
   43   24   25 ar    
   44   24   26 1     
   45   25   44 1     
   46   26   27 1     
   47   27   28 1     
   48   27   45 1     
   49   27   46 1     
   50    1   47 1     
   51    1   48 1     
   52    6   49 1     
   53    6   50 1     
   54   15   51 1     
   55   15   52 1     
   56   17   53 1     
   57   17   54 1     
   58   26   55 1     
   59   26   56 1     
   60   28   57 1     
   61   28   58 1     
@<TRIPOS>SUBSTRUCTURE
      1 S1             1
@<TRIPOS>SET
LONE_PAIRS      STATIC     ATOMS    <user>   **** ""
12 47 48 49 50 51 52 53 54 55 56 57 58
DONOR_HYDROGENS      STATIC     ATOMS    <user>   **** ""
1 39
ATOM$BLUE        STATIC     ATOMS    COLORGROUP SYSTEM
12 47 48 49 50 51 52 53 54 55 56 57 58
ATOM$RED        STATIC     ATOMS    COLORGROUP SYSTEM
1 39
