#       Name:                AV-unprocessed.smi:1047
#       Creating user name   scv26
#       Creation time:       Fri Mar 27 03:06:51 2020


#       File generated by GOLD software.
#

@<TRIPOS>MOLECULE
AV-unprocessed.smi:1047
    62    64     1
SMALL
NO_CHARGES


@<TRIPOS>ATOM
      1 ****        -4.6656   5.9593   0.4251 C.3            1 S1                 0.0000
      2 ****        -4.1588   4.5131   0.5194 C.3            1 S1                 0.0000
      3 ****        -2.7085   4.3749   0.6430 N.3            1 S1                 0.0000
      4 ****        -2.2026   4.8921   1.9122 C.3            1 S1                 0.0000
      5 ****        -0.6805   4.7099   2.0378 C.3            1 S1                 0.0000
      6 ****        -0.3483   3.3354   1.8700 O.3            1 S1                 0.0000
      7 ****        -0.7746   2.8083   0.6159 C.3            1 S1                 0.0000
      8 ****        -0.3567   1.3331   0.5506 C.3            1 S1                 0.0000
      9 ****         1.1129   1.1990   0.5178 N.4            1 S1                 1.0000
     10 ****         1.5885  -0.1986   0.4934 C.3            1 S1                 0.0000
     11 ****         3.1277  -0.2756   0.4707 C.3            1 S1                 0.0000
     12 ****         3.6349   0.2330   1.6881 O.3            1 S1                 0.0000
     13 ****         3.6789  -1.7079   0.3150 C.3            1 S1                 0.0000
     14 ****         3.2995  -2.3416  -0.9558 N.pl3          1 S1                 0.0000
     15 ****         3.8689  -2.2200  -2.1861 C.2            1 S1                 0.0000
     16 ****         3.1724  -3.0169  -3.0426 N.pl3          1 S1                 1.0000
     17 ****         2.1452  -3.6607  -2.3497 C.ar           1 S1                 0.0000
     18 ****         1.1803  -4.5612  -2.7849 C.ar           1 S1                 0.0000
     19 ****         0.2656  -5.0427  -1.8215 C.ar           1 S1                 0.0000
     20 ****        -0.8003  -6.0312  -2.2640 C.3            1 S1                 0.0000
     21 ****         0.3373  -4.6158  -0.4703 C.ar           1 S1                 0.0000
     22 ****        -0.6527  -5.1377   0.5573 C.3            1 S1                 0.0000
     23 ****         1.3262  -3.6990  -0.0474 C.ar           1 S1                 0.0000
     24 ****         2.2217  -3.2350  -1.0088 C.ar           1 S1                 0.0000
     25 ****        -2.3024   2.9808   0.5042 C.3            1 S1                 0.0000
     26 ****        -5.7370   5.9761   0.2243 H              1 S1                 0.0000
     27 ****        -4.1698   6.4989  -0.3824 H              1 S1                 0.0000
     28 ****        -4.5025   6.5099   1.3510 H              1 S1                 0.0000
     29 ****        -4.6526   4.0084   1.3512 H              1 S1                 0.0000
     30 ****        -4.4860   3.9939  -0.3824 H              1 S1                 0.0000
     31 ****        -2.4356   5.9521   2.0097 H              1 S1                 0.0000
     32 ****        -2.6966   4.3848   2.7425 H              1 S1                 0.0000
     33 ****        -0.1566   5.3113   1.2930 H              1 S1                 0.0000
     34 ****        -0.3380   5.0432   3.0176 H              1 S1                 0.0000
     35 ****        -0.2889   3.3575  -0.1932 H              1 S1                 0.0000
     36 ****        -0.7583   0.7899   1.4073 H              1 S1                 0.0000
     37 ****        -0.7696   0.8709  -0.3469 H              1 S1                 0.0000
     38 ****         1.4637   1.6775  -0.2997 H              1 S1                 0.0000
     39 ****         1.1938  -0.7387   1.3555 H              1 S1                 0.0000
     40 ****         1.1754  -0.6716  -0.3974 H              1 S1                 0.0000
     41 ****         3.5136   0.3411  -0.3423 H              1 S1                 0.0000
     42 ****         3.4572   1.1599   1.7342 H              1 S1                 0.0000
     43 ****         4.7696  -1.6882   0.3413 H              1 S1                 0.0000
     44 ****         3.3703  -2.3443   1.1445 H              1 S1                 0.0000
     45 ****         4.7230  -1.6069  -2.4364 H              1 S1                 0.0000
     46 ****         1.1317  -4.8812  -3.8156 H              1 S1                 0.0000
     47 ****        -0.7190  -6.9613  -1.7010 H              1 S1                 0.0000
     48 ****        -0.7039  -6.2746  -3.3227 H              1 S1                 0.0000
     49 ****        -1.7965  -5.6163  -2.1067 H              1 S1                 0.0000
     50 ****        -0.4797  -4.6959   1.5390 H              1 S1                 0.0000
     51 ****        -0.5640  -6.2196   0.6590 H              1 S1                 0.0000
     52 ****        -1.6747  -4.8996   0.2614 H              1 S1                 0.0000
     53 ****         1.3761  -3.3769   0.9820 H              1 S1                 0.0000
     54 ****        -2.7936   2.3762   1.2684 H              1 S1                 0.0000
     55 ****        -2.6384   2.5957  -0.4595 H              1 S1                 0.0000
     56 ****         1.4872   1.6491   1.3413 H              1 S1                 0.0000
     57 ****         3.3891  -3.1183  -4.0262 H              1 S1                 0.0000
     58 ****        -2.3141   4.9197  -0.0971 LP             1 S1                 0.0000
     59 ****        -0.7844   2.8107   2.6010 LP             1 S1                 0.0000
     60 ****         0.6447   3.2372   1.9360 LP             1 S1                 0.0000
     61 ****         4.6221   0.0789   1.7299 LP             1 S1                 0.0000
     62 ****         3.1923  -0.2313   2.4552 LP             1 S1                 0.0000
@<TRIPOS>BOND
    1    1    2 1     
    2    1   26 1     
    3    1   27 1     
    4    1   28 1     
    5    2    3 1     
    6    2   29 1     
    7    2   30 1     
    8    3   25 1     
    9    3    4 1     
   10    4    5 1     
   11    4   31 1     
   12    4   32 1     
   13    5    6 1     
   14    5   33 1     
   15    5   34 1     
   16    6    7 1     
   17    7    8 1     
   18    7   25 1     
   19    7   35 1     
   20    8    9 1     
   21    8   36 1     
   22    8   37 1     
   23    9   10 1     
   24    9   38 1     
   25    9   56 1     
   26   10   11 1     
   27   10   39 1     
   28   10   40 1     
   29   11   12 1     
   30   11   13 1     
   31   11   41 1     
   32   12   42 1     
   33   13   14 1     
   34   13   43 1     
   35   13   44 1     
   36   14   24 1     
   37   14   15 1     
   38   15   16 2     
   39   15   45 1     
   40   16   17 1     
   41   16   57 1     
   42   17   24 ar    
   43   17   18 ar    
   44   18   19 ar    
   45   18   46 1     
   46   19   20 1     
   47   19   21 ar    
   48   20   47 1     
   49   20   48 1     
   50   20   49 1     
   51   21   22 1     
   52   21   23 ar    
   53   22   50 1     
   54   22   51 1     
   55   22   52 1     
   56   23   24 ar    
   57   23   53 1     
   58   25   54 1     
   59   25   55 1     
   60    3   58 1     
   61    6   59 1     
   62    6   60 1     
   63   12   61 1     
   64   12   62 1     
@<TRIPOS>SUBSTRUCTURE
      1 S1             1
@<TRIPOS>SET
LONE_PAIRS      STATIC     ATOMS    <user>   **** ""
5 58 59 60 61 62
DONOR_HYDROGENS      STATIC     ATOMS    <user>   **** ""
4 38 56 42 57
ATOM$BLUE        STATIC     ATOMS    COLORGROUP SYSTEM
5 58 59 60 61 62
ATOM$RED        STATIC     ATOMS    COLORGROUP SYSTEM
4 38 56 42 57
