AV-unprocessed.smi:2730|AV-procd|sdf|10529|dock10
  -GOLD-   2272014573D 1   1.00000     0.00000
 Structure written by MMmdl.
 43 44  0  0  0  0  0  0  0  0  1 V2000
  148.3339  133.9025  156.8350 C   0  0  0  0  0  0  0  0  0  0  0  0
  148.8176  133.8256  158.2905 C   0  0  0  0  0  0  0  0  0  0  0  0
  148.1361  134.8408  159.2266 C   0  0  1  0  0  0  0  0  0  0  0  0
  148.6832  134.7261  160.6596 C   0  0  0  0  0  0  0  0  0  0  0  0
  148.3708  135.8871  161.5088 C   0  0  0  0  0  0  0  0  0  0  0  0
  148.1245  136.7990  162.1767 N   0  0  0  0  0  0  0  0  0  0  0  0
  148.3326  136.1984  158.7175 N   0  0  0  0  0  0  0  0  0  0  0  0
  149.5170  136.7724  158.4578 C   0  0  0  0  0  0  0  0  0  0  0  0
  150.5970  136.2004  158.6076 O   0  0  0  0  0  0  0  0  0  0  0  0
  149.3602  138.0342  158.0209 N   0  0  0  0  0  0  0  0  0  0  0  0
  150.3659  138.9676  157.6573 C   0  0  0  0  0  0  0  0  0  0  0  0
  151.1545  138.8563  156.5444 N   0  0  0  0  0  0  0  0  0  0  0  0
  151.8864  139.9518  156.6945 C   0  0  0  0  0  0  0  0  0  0  0  0
  151.5783  140.6679  157.7811 N   0  0  0  0  0  0  0  0  0  0  0  0
  152.1467  141.9025  158.2999 C   0  0  0  0  0  0  0  0  0  0  0  0
  152.6942  141.7095  159.7287 C   0  0  0  0  0  0  0  0  0  0  0  0
  153.2826  143.0172  160.2836 C   0  0  0  0  0  0  0  0  0  0  0  0
  152.2538  144.1581  160.2337 C   0  0  0  0  0  0  0  0  0  0  0  0
  151.7093  144.3546  158.8096 C   0  0  0  0  0  0  0  0  0  0  0  0
  151.1171  143.0489  158.2539 C   0  0  0  0  0  0  0  0  0  0  0  0
  150.5780  140.0281  158.4342 N   0  0  0  0  0  0  0  0  0  0  0  0
  148.8084  133.1305  156.2290 H   0  0  0  0  0  0  0  0  0  0  0  0
  148.5700  134.8660  156.3830 H   0  0  0  0  0  0  0  0  0  0  0  0
  147.2552  133.7572  156.7713 H   0  0  0  0  0  0  0  0  0  0  0  0
  148.6325  132.8180  158.6641 H   0  0  0  0  0  0  0  0  0  0  0  0
  149.8991  133.9642  158.3199 H   0  0  0  0  0  0  0  0  0  0  0  0
  147.0717  134.6002  159.2498 H   0  0  0  0  0  0  0  0  0  0  0  0
  148.2605  133.8505  161.1528 H   0  0  0  0  0  0  0  0  0  0  0  0
  149.7655  134.5944  160.6497 H   0  0  0  0  0  0  0  0  0  0  0  0
  147.4991  136.7471  158.5643 H   0  0  0  0  0  0  0  0  0  0  0  0
  148.4117  138.3704  157.9455 H   0  0  0  0  0  0  0  0  0  0  0  0
  152.6628  140.2372  156.0000 H   0  0  0  0  0  0  0  0  0  0  0  0
  152.9844  142.1774  157.6560 H   0  0  0  0  0  0  0  0  0  0  0  0
  151.8989  141.3655  160.3913 H   0  0  0  0  0  0  0  0  0  0  0  0
  153.4588  140.9318  159.7333 H   0  0  0  0  0  0  0  0  0  0  0  0
  153.6207  142.8669  161.3092 H   0  0  0  0  0  0  0  0  0  0  0  0
  154.1645  143.2953  159.7050 H   0  0  0  0  0  0  0  0  0  0  0  0
  151.4294  143.9373  160.9131 H   0  0  0  0  0  0  0  0  0  0  0  0
  152.7074  145.0836  160.5895 H   0  0  0  0  0  0  0  0  0  0  0  0
  150.9510  145.1379  158.8067 H   0  0  0  0  0  0  0  0  0  0  0  0
  152.5116  144.6993  158.1560 H   0  0  0  0  0  0  0  0  0  0  0  0
  150.7782  143.2062  157.2291 H   0  0  0  0  0  0  0  0  0  0  0  0
  150.2334  142.7792  158.8337 H   0  0  0  0  0  0  0  0  0  0  0  0
  1  2  1  0  0  0  0
  1 22  1  0  0  0  0
  1 23  1  0  0  0  0
  1 24  1  0  0  0  0
  2  3  1  0  0  0  0
  2 25  1  0  0  0  0
  2 26  1  0  0  0  0
  3  4  1  0  0  0  0
  3  7  1  0  0  0  0
  3 27  1  0  0  0  0
  4  5  1  0  0  0  0
  4 28  1  0  0  0  0
  4 29  1  0  0  0  0
  5  6  3  0  0  0  0
  7  8  1  0  0  0  0
  7 30  1  0  0  0  0
  8  9  2  0  0  0  0
  8 10  1  0  0  0  0
 10 11  1  0  0  0  0
 10 31  1  0  0  0  0
 11 21  2  0  0  0  0
 11 12  1  0  0  0  0
 12 13  2  0  0  0  0
 13 14  1  0  0  0  0
 13 32  1  0  0  0  0
 14 15  1  0  0  0  0
 14 21  1  0  0  0  0
 15 20  1  0  0  0  0
 15 16  1  0  0  0  0
 15 33  1  0  0  0  0
 16 17  1  0  0  0  0
 16 34  1  0  0  0  0
 16 35  1  0  0  0  0
 17 18  1  0  0  0  0
 17 36  1  0  0  0  0
 17 37  1  0  0  0  0
 18 19  1  0  0  0  0
 18 38  1  0  0  0  0
 18 39  1  0  0  0  0
 19 20  1  0  0  0  0
 19 40  1  0  0  0  0
 19 41  1  0  0  0  0
 20 42  1  0  0  0  0
 20 43  1  0  0  0  0
M  END
> <s_m_source_file>
AV-unprocessed.smi

> <i_m_source_file_index>
2730

> <i_lp_mmshare_version>
43012

> <i_f3d_flags>
0

> <s_epik_input>
TiNDW0NIMl1bQ0BASF0oW0NIMl1bQ0gzXSlbTkhdQyg9TylbTkhdYzFuW2NIXW4objEpW0NIXTJbQ0gyXVtDSDJdW0NIMl1bQ0gyXVtDSDJdMg==

> <s_epik_cmdline>
J2VwaWtfcHl0aG9uJywgJy1waCcsICc3LjAnLCAnLXRuJywgJzgnLCAnLW1hJywgJzIwMCcsICctbWV0YWxfYmluZGluZycsICctaW1hZScsICc8aW5maWxlLm1hZT4nLCAnLW9tYWUnLCAnPG91dGZpbGUubWFlPic=

> <r_lp_tautomer_probability>
1

> <r_epik_Ionization_Penalty>
7.18854e-05

> <r_epik_Ionization_Penalty_Charging>
0

> <r_epik_Ionization_Penalty_Neutral>
7.18854e-05

> <r_epik_State_Penalty>
-0

> <r_epik_Charging_Adjusted_Penalty>
0

> <i_epik_Tot_Q>
0

> <i_epik_Tot_abs_Q>
0

> <r_epik_Metal_State_Penalty>
-0

> <b_epik_Metal_Only>
0

> <s_lp_Force_Field>
OPLS_2005

> <r_lp_Energy>
17.9717

> <b_lp_Chiralities_Consistent>
1

> <s_lp_Variant>
AV-unprocessed.smi:2730-2

> <Gold.Version>
5.8.1

> <Gold.Id.Protein>
6NUR|6NUR_protein|mol2

> <Gold.PLP.Fitness>
41.0594

> <Gold.PLP.PLP>
-34.8877

> <Gold.PLP.part.hbond>
-3.0000

> <Gold.PLP.part.metal>
0.0000

> <Gold.PLP.part.buried>
-4.8086

> <Gold.PLP.part.nonpolar>
-27.3116

> <Gold.PLP.part.repulsive>
0.1694

> <Gold.PLP.ligand.clash>
0.0000

> <Gold.PLP.ligand.torsion>
0.8800

> <Gold.PLP.Chemscore.Hbond>
2.6160

> <Gold.PLP.Chemscore.CHOScore>
0.0000

> <Gold.PLP.Chemscore.Metal>
0.0000

> <Gold.Chemscore.Hbonds>
donor molecule, donor type, donor heavy atom, donor atom, acceptor molecule, acceptor atom, score
      P1  H  6896  6909       L1     9  0.88
      P1  H  6931  6943       L1     6  1.00

> <Gold.PLP.Chemscore.Internal.Correction>
0.0838

> <Gold.Rescore>
     Score         DG    S(hbond)    S(metal)    S(lipo)     H(rot)  DE(clash)    DE(int)     intcor
     16.95     -18.75       2.71        0.00      75.90       1.82       0.01       1.80       ----

> <Gold.Chemscore.Fitness>
16.9468

> <Gold.Chemscore.DG>
-18.7545

> <Gold.Chemscore.ZeroCoef>
-5.4800

> <Gold.Chemscore.Hbond>
2.7143

> <Gold.Chemscore.Metal>
0.0000

> <Gold.Chemscore.Lipo>
75.9009

> <Gold.Chemscore.Internal_Hbond>
0.0000

> <Gold.Chemscore.DEClash>
0.0096

> <Gold.Chemscore.DEInternal>
1.7981

> <Gold.Chemscore.Rot>
1.8249

> <Gold.Chemscore.Internal.Correction>
   9.000000E+99

> <Gold.Chemscore.Hbonds>
donor molecule, donor type, donor heavy atom, donor atom, acceptor molecule, acceptor atom, score
      P1  H  6896  6909       L1     9  0.86
      P1  H  6931  6943       L1     6  0.96

> <Gold.Chemscore.Hbond.Weighted>
-9.0659

> <Gold.Chemscore.Metal.Weighted>
-0.0000

> <Gold.Chemscore.Lipo.Weighted>
-8.8804

> <Gold.Chemscore.Internal_Hbond.Weighted>
0.0000

> <Gold.Chemscore.DEClash.Weighted>
0.0096

> <Gold.Chemscore.DEInternal.Weighted>
1.7981

> <Gold.Chemscore.Rot.Weighted>
4.6718

> <Gold.Chemscore.Internal.Correction.Weighted>
   9.000000E+99

> <Gold.Protein.RotatedTorsions>
[ 6907 6896 6895 6894 ] final   73.96 input  -60.11 | X-H torsion
[ 7974 7965 7964 7962 ] final  -78.89 input  175.53 | X-H torsion
[ 8008 7997 7996 7995 ] final  -18.42 input   59.86 | X-H torsion
[ 10167 10162 10161 10158 ] final   38.64 input  -65.29 | X-H torsion
[ 10718 10713 10712 10709 ] final  -79.29 input   66.30 | X-H torsion
[ 10763 10752 10751 10750 ] final -137.75 input  -60.55 | X-H torsion
[ 11005 11000 10999 10996 ] final -124.38 input  -57.11 | X-H torsion

> <Gold.Protein.ActiveResidues>
 VAL166  LYS551  ARG553  GLY616  TRP617  ASP618  TYR619  PRO620  LYS621  CYS622 
 ASP623  PHE694  ASN695  SER759  ASP760  ASP761  ALA762  ILE779  LEU786  VAL792 
 PHE793  MET794  SER795  GLU796  ALA797  LYS798  CYS799  TRP800  GLU811  SER814 

> <Gold.Protein.RotatedAtoms>
  152.4951  134.4343  159.9522 H   0  0  0  0  0  0  0  0  0  0  0  0  # atno 6907 bound_to 6896
  151.4323  133.3660  159.2778 H   0  0  0  0  0  0  0  0  0  0  0  0  # atno 6908 bound_to 6896
  150.9146  134.8586  159.7508 H   0  0  0  0  0  0  0  0  0  0  0  0  # atno 6909 bound_to 6896
  145.5805  140.9449  143.1346 H   0  0  0  0  0  0  0  0  0  0  0  0  # atno 7974 bound_to 7965
  154.4908  140.2116  155.9554 H   0  0  0  0  0  0  0  0  0  0  0  0  # atno 8008 bound_to 7997
  156.1302  140.3198  155.8306 H   0  0  0  0  0  0  0  0  0  0  0  0  # atno 8009 bound_to 7997
  155.4310  140.0503  157.3009 H   0  0  0  0  0  0  0  0  0  0  0  0  # atno 8010 bound_to 7997
  140.3917  144.1843  150.6131 H   0  0  0  0  0  0  0  0  0  0  0  0  # atno 10167 bound_to 10162
  156.0096  130.4542  150.3626 H   0  0  0  0  0  0  0  0  0  0  0  0  # atno 10718 bound_to 10713
  154.8654  135.3633  154.5273 H   0  0  0  0  0  0  0  0  0  0  0  0  # atno 10763 bound_to 10752
  153.5900  135.7016  153.5432 H   0  0  0  0  0  0  0  0  0  0  0  0  # atno 10764 bound_to 10752
  153.3381  135.4105  155.1512 H   0  0  0  0  0  0  0  0  0  0  0  0  # atno 10765 bound_to 10752
  140.9846  134.0625  157.3726 H   0  0  0  0  0  0  0  0  0  0  0  0  # atno 11005 bound_to 11000
  144.7396  139.7486  143.7316 LP  0  0  0  0  0  0  0  0  0  0  0  0  # atno 17320 bound_to 7965
  146.1720  139.4874  142.9922 LP  0  0  0  0  0  0  0  0  0  0  0  0  # atno 17321 bound_to 7965
  140.4833  143.2372  151.8924 LP  0  0  0  0  0  0  0  0  0  0  0  0  # atno 17342 bound_to 10162
  139.4789  144.5246  151.8753 LP  0  0  0  0  0  0  0  0  0  0  0  0  # atno 17343 bound_to 10162
  157.1714  131.0370  151.2793 LP  0  0  0  0  0  0  0  0  0  0  0  0  # atno 17370 bound_to 10713
  157.4225  130.7445  149.6925 LP  0  0  0  0  0  0  0  0  0  0  0  0  # atno 17371 bound_to 10713
  139.8965  135.0146  156.7053 LP  0  0  0  0  0  0  0  0  0  0  0  0  # atno 17394 bound_to 11000
  140.7135  133.9203  155.8099 LP  0  0  0  0  0  0  0  0  0  0  0  0  # atno 17395 bound_to 11000

$$$$
