AV-unprocessed.smi:1205|AV-procd|sdf|5041|dock9
  -GOLD-   22720 4 63D 1   1.00000     0.00000
 Structure written by MMmdl.
 49 50  0  0  0  0  0  0  0  0  2 V2000
  146.2688  129.8650  151.8950 C   0  0  0  0  0  0  0  0  0  0  0  0
  146.1103  131.3523  151.7816 C   0  0  0  0  0  0  0  0  0  0  0  0
  146.8779  132.3680  152.4223 C   0  0  0  0  0  0  0  0  0  0  0  0
  146.2987  133.5189  151.9619 C   0  0  0  0  0  0  0  0  0  0  0  0
  146.6177  134.8099  152.2460 N   0  0  0  0  0  0  0  0  0  0  0  0
  145.8389  135.7690  152.7761 C   0  0  0  0  0  0  0  0  0  0  0  0
  144.6637  135.6306  153.1159 O   0  0  0  0  0  0  0  0  0  0  0  0
  146.5046  136.9270  152.8938 N   0  0  0  0  0  0  0  0  0  0  0  0
  145.9390  138.1605  153.4316 C   0  0  0  0  0  0  0  0  0  0  0  0
  146.8872  139.3721  153.2690 C   0  0  2  0  0  0  0  0  0  0  0  0
  148.3381  139.0556  153.6921 C   0  0  0  0  0  0  0  0  0  0  0  0
  146.3286  140.5737  153.9550 N   0  3  2  0  0  0  0  0  0  0  0  0
  146.9762  141.8470  153.5433 C   0  0  0  0  0  0  0  0  0  0  0  0
  146.1805  143.0555  154.0614 C   0  0  0  0  0  0  0  0  0  0  0  0
  145.9991  142.9874  155.5849 C   0  0  0  0  0  0  0  0  0  0  0  0
  145.3942  141.6389  156.0202 C   0  0  1  0  0  0  0  0  0  0  0  0
  143.8954  141.5230  155.6913 C   0  0  0  0  0  0  0  0  0  0  0  0
  146.2110  140.4682  155.4363 C   0  0  0  0  0  0  0  0  0  0  0  0
  145.2656  133.1883  151.1135 N   0  0  0  0  0  0  0  0  0  0  0  0
  144.3584  134.0538  150.3855 C   0  0  0  0  0  0  0  0  0  0  0  0
  145.1529  131.8467  151.0049 N   0  0  0  0  0  0  0  0  0  0  0  0
  147.0792  129.6065  152.5769 H   0  0  0  0  0  0  0  0  0  0  0  0
  146.4952  129.4190  150.9261 H   0  0  0  0  0  0  0  0  0  0  0  0
  145.3574  129.4006  152.2726 H   0  0  0  0  0  0  0  0  0  0  0  0
  147.7078  132.2484  153.1021 H   0  0  0  0  0  0  0  0  0  0  0  0
  147.5672  135.0748  152.0286 H   0  0  0  0  0  0  0  0  0  0  0  0
  147.4685  136.9573  152.5943 H   0  0  0  0  0  0  0  0  0  0  0  0
  144.9802  138.3612  152.9502 H   0  0  0  0  0  0  0  0  0  0  0  0
  145.7208  137.9800  154.4837 H   0  0  0  0  0  0  0  0  0  0  0  0
  146.9087  139.6053  152.2037 H   0  0  0  0  0  0  0  0  0  0  0  0
  148.7656  138.2680  153.0712 H   0  0  0  0  0  0  0  0  0  0  0  0
  148.3945  138.7161  154.7263 H   0  0  0  0  0  0  0  0  0  0  0  0
  148.9863  139.9257  153.5883 H   0  0  0  0  0  0  0  0  0  0  0  0
  147.9994  141.8831  153.9196 H   0  0  0  0  0  0  0  0  0  0  0  0
  147.0353  141.9042  152.4559 H   0  0  0  0  0  0  0  0  0  0  0  0
  146.6917  143.9798  153.7907 H   0  0  0  0  0  0  0  0  0  0  0  0
  145.2068  143.0918  153.5714 H   0  0  0  0  0  0  0  0  0  0  0  0
  146.9711  143.1150  156.0634 H   0  0  0  0  0  0  0  0  0  0  0  0
  145.3789  143.8154  155.9304 H   0  0  0  0  0  0  0  0  0  0  0  0
  145.4745  141.5839  157.1067 H   0  0  0  0  0  0  0  0  0  0  0  0
  143.7105  141.5421  154.6173 H   0  0  0  0  0  0  0  0  0  0  0  0
  143.3320  142.3422  156.1391 H   0  0  0  0  0  0  0  0  0  0  0  0
  143.4813  140.5919  156.0792 H   0  0  0  0  0  0  0  0  0  0  0  0
  145.7459  139.5253  155.7219 H   0  0  0  0  0  0  0  0  0  0  0  0
  147.2071  140.4707  155.8811 H   0  0  0  0  0  0  0  0  0  0  0  0
  144.9297  134.7721  149.7967 H   0  0  0  0  0  0  0  0  0  0  0  0
  143.7243  134.5928  151.0899 H   0  0  0  0  0  0  0  0  0  0  0  0
  143.7269  133.4706  149.7135 H   0  0  0  0  0  0  0  0  0  0  0  0
  145.3813  140.6458  153.6119 H   0  0  0  0  0  0  0  0  0  0  0  0
  1  2  1  0  0  0  0
  1 22  1  0  0  0  0
  1 23  1  0  0  0  0
  1 24  1  0  0  0  0
  2 21  2  0  0  0  0
  2  3  1  0  0  0  0
  3  4  2  0  0  0  0
  3 25  1  0  0  0  0
  4  5  1  0  0  0  0
  4 19  1  0  0  0  0
  5  6  1  0  0  0  0
  5 26  1  0  0  0  0
  6  7  2  0  0  0  0
  6  8  1  0  0  0  0
  8  9  1  0  0  0  0
  8 27  1  0  0  0  0
  9 10  1  0  0  0  0
  9 28  1  0  0  0  0
  9 29  1  0  0  0  0
 10 11  1  0  0  0  0
 10 12  1  0  0  0  0
 10 30  1  0  0  0  0
 11 31  1  0  0  0  0
 11 32  1  0  0  0  0
 11 33  1  0  0  0  0
 12 18  1  0  0  0  0
 12 13  1  0  0  0  0
 12 49  1  0  0  0  0
 13 14  1  0  0  0  0
 13 34  1  0  0  0  0
 13 35  1  0  0  0  0
 14 15  1  0  0  0  0
 14 36  1  0  0  0  0
 14 37  1  0  0  0  0
 15 16  1  0  0  0  0
 15 38  1  0  0  0  0
 15 39  1  0  0  0  0
 16 17  1  0  0  0  0
 16 18  1  0  0  0  0
 16 40  1  0  0  0  0
 17 41  1  0  0  0  0
 17 42  1  0  0  0  0
 17 43  1  0  0  0  0
 18 44  1  0  0  0  0
 18 45  1  0  0  0  0
 19 20  1  0  0  0  0
 19 21  1  0  0  0  0
 20 46  1  0  0  0  0
 20 47  1  0  0  0  0
 20 48  1  0  0  0  0
M  CHG  1  12   1
M  END
> <s_m_source_file>
AV-unprocessed.smi

> <i_m_source_file_index>
1205

> <i_lp_mmshare_version>
43012

> <i_f3d_flags>
0

> <s_epik_input>
W0NIM11jMVtjSF1jKG4objEpW0NIM10pW05IXUMoPU8pW05IXVtDSDJdW0NASF0oW0NIM10pTjJbQ0gyXVtDSDJdW0NIMl1bQ0BASF0oW0NIM10pW0NIMl0y

> <s_epik_cmdline>
J2VwaWtfcHl0aG9uJywgJy1waCcsICc3LjAnLCAnLXRuJywgJzgnLCAnLW1hJywgJzIwMCcsICctbWV0YWxfYmluZGluZycsICctaW1hZScsICc8aW5maWxlLm1hZT4nLCAnLW9tYWUnLCAnPG91dGZpbGUubWFlPic=

> <r_lp_tautomer_probability>
1

> <r_epik_Ionization_Penalty>
0.0020309

> <r_epik_Ionization_Penalty_Charging>
0.00195276

> <r_epik_Ionization_Penalty_Neutral>
7.81448e-05

> <r_epik_State_Penalty>
0.00133177

> <r_epik_Charging_Adjusted_Penalty>
0.00328452

> <i_epik_Tot_Q>
1

> <i_epik_Tot_abs_Q>
1

> <r_epik_Metal_State_Penalty>
-0

> <b_epik_Metal_Only>
0

> <s_lp_Force_Field>
OPLS_2005

> <r_lp_Energy>
24.2768

> <b_lp_Chiralities_Consistent>
1

> <s_lp_Variant>
AV-unprocessed.smi:1205-3

> <Gold.Version>
5.8.1

> <Gold.Id.Protein>
6NUR|6NUR_protein|mol2

> <Gold.PLP.Fitness>
43.6709

> <Gold.PLP.PLP>
-32.9609

> <Gold.PLP.part.hbond>
-3.0000

> <Gold.PLP.part.metal>
0.0000

> <Gold.PLP.part.buried>
-4.1419

> <Gold.PLP.part.nonpolar>
-25.5155

> <Gold.PLP.part.repulsive>
0.2119

> <Gold.PLP.ligand.clash>
0.0000

> <Gold.PLP.ligand.torsion>
0.7054

> <Gold.PLP.Chemscore.Hbond>
4.0000

> <Gold.PLP.Chemscore.CHOScore>
0.0000

> <Gold.PLP.Chemscore.Metal>
0.0000

> <Gold.Chemscore.Hbonds>
donor molecule, donor type, donor heavy atom, donor atom, acceptor molecule, acceptor atom, score
      L1  H     5    26       P1  7948  1.00
      L1  H     8    27       P1  7948  1.00
      L1  H    12    49       P1 10175  1.92

> <Gold.PLP.Chemscore.Internal.Correction>
0.1208

> <Gold.Rescore>
     Score         DG    S(hbond)    S(metal)    S(lipo)     H(rot)  DE(clash)    DE(int)     intcor
     18.57     -19.46       2.80        0.00      71.53       1.47       0.12       0.77       ----

> <Gold.Chemscore.Fitness>
18.5734

> <Gold.Chemscore.DG>
-19.4625

> <Gold.Chemscore.ZeroCoef>
-5.4800

> <Gold.Chemscore.Hbond>
2.8044

> <Gold.Chemscore.Metal>
0.0000

> <Gold.Chemscore.Lipo>
71.5251

> <Gold.Chemscore.Internal_Hbond>
0.0000

> <Gold.Chemscore.DEClash>
0.1202

> <Gold.Chemscore.DEInternal>
0.7689

> <Gold.Chemscore.Rot>
1.4658

> <Gold.Chemscore.Internal.Correction>
   9.000000E+99

> <Gold.Chemscore.Hbonds>
donor molecule, donor type, donor heavy atom, donor atom, acceptor molecule, acceptor atom, score
      L1  H     5    26       P1  7948  0.92
      L1  H     8    27       P1  7948  0.97
      L1  H    12    49       P1 10175  0.87

> <Gold.Chemscore.Hbond.Weighted>
-9.3666

> <Gold.Chemscore.Metal.Weighted>
-0.0000

> <Gold.Chemscore.Lipo.Weighted>
-8.3684

> <Gold.Chemscore.Internal_Hbond.Weighted>
0.0000

> <Gold.Chemscore.DEClash.Weighted>
0.1202

> <Gold.Chemscore.DEInternal.Weighted>
0.7689

> <Gold.Chemscore.Rot.Weighted>
3.7526

> <Gold.Chemscore.Internal.Correction.Weighted>
   9.000000E+99

> <Gold.Protein.RotatedTorsions>
[ 6907 6896 6895 6894 ] final  107.22 input  -60.11 | X-H torsion
[ 7974 7965 7964 7962 ] final -144.80 input  175.53 | X-H torsion
[ 8008 7997 7996 7995 ] final  134.61 input   59.86 | X-H torsion
[ 10167 10162 10161 10158 ] final  134.75 input  -65.29 | X-H torsion
[ 10718 10713 10712 10709 ] final   57.53 input   66.30 | X-H torsion
[ 10763 10752 10751 10750 ] final -106.50 input  -60.55 | X-H torsion
[ 11005 11000 10999 10996 ] final -118.81 input  -57.11 | X-H torsion

> <Gold.Protein.ActiveResidues>
 VAL166  LYS551  ARG553  GLY616  TRP617  ASP618  TYR619  PRO620  LYS621  CYS622 
 ASP623  PHE694  ASN695  SER759  ASP760  ASP761  ALA762  ILE779  LEU786  VAL792 
 PHE793  MET794  SER795  GLU796  ALA797  LYS798  CYS799  TRP800  GLU811  SER814 

> <Gold.Protein.RotatedAtoms>
  152.5163  133.9266  159.7560 H   0  0  0  0  0  0  0  0  0  0  0  0  # atno 6907 bound_to 6896
  150.9626  133.6420  159.2758 H   0  0  0  0  0  0  0  0  0  0  0  0  # atno 6908 bound_to 6896
  151.3660  135.0919  159.9503 H   0  0  0  0  0  0  0  0  0  0  0  0  # atno 6909 bound_to 6896
  144.8272  140.5664  143.5539 H   0  0  0  0  0  0  0  0  0  0  0  0  # atno 7974 bound_to 7965
  156.3000  140.2492  156.3445 H   0  0  0  0  0  0  0  0  0  0  0  0  # atno 8008 bound_to 7997
  154.9024  140.0406  157.1919 H   0  0  0  0  0  0  0  0  0  0  0  0  # atno 8009 bound_to 7997
  154.8488  140.2902  155.5616 H   0  0  0  0  0  0  0  0  0  0  0  0  # atno 8010 bound_to 7997
  139.5244  144.6552  151.5184 H   0  0  0  0  0  0  0  0  0  0  0  0  # atno 10167 bound_to 10162
  157.5522  130.8774  149.8981 H   0  0  0  0  0  0  0  0  0  0  0  0  # atno 10718 bound_to 10713
  154.8016  135.4709  154.0290 H   0  0  0  0  0  0  0  0  0  0  0  0  # atno 10763 bound_to 10752
  153.1791  135.6837  153.8509 H   0  0  0  0  0  0  0  0  0  0  0  0  # atno 10764 bound_to 10752
  153.8066  135.3222  155.3374 H   0  0  0  0  0  0  0  0  0  0  0  0  # atno 10765 bound_to 10752
  141.0260  134.0053  157.3214 H   0  0  0  0  0  0  0  0  0  0  0  0  # atno 11005 bound_to 11000
  145.4975  139.1485  143.3675 LP  0  0  0  0  0  0  0  0  0  0  0  0  # atno 17320 bound_to 7965
  146.2576  140.5114  142.8867 LP  0  0  0  0  0  0  0  0  0  0  0  0  # atno 17321 bound_to 7965
  140.6374  143.8957  150.6660 LP  0  0  0  0  0  0  0  0  0  0  0  0  # atno 17342 bound_to 10162
  140.2280  143.3757  152.1589 LP  0  0  0  0  0  0  0  0  0  0  0  0  # atno 17343 bound_to 10162
  156.0587  130.3704  150.1032 LP  0  0  0  0  0  0  0  0  0  0  0  0  # atno 17370 bound_to 10713
  156.9204  130.9681  151.3549 LP  0  0  0  0  0  0  0  0  0  0  0  0  # atno 17371 bound_to 10713
  139.9176  135.0198  156.7941 LP  0  0  0  0  0  0  0  0  0  0  0  0  # atno 17394 bound_to 11000
  140.6491  133.9748  155.7746 LP  0  0  0  0  0  0  0  0  0  0  0  0  # atno 17395 bound_to 11000

$$$$
