AV-unprocessed.smi:2626|AV-procd|sdf|10237|dock3
  -GOLD-   2272014243D 1   1.00000     0.00000
 Structure written by MMmdl.
 27 28  0  0  0  0  0  0  0  0  1 V2000
  151.8310  144.1013  160.5882 C   0  0  0  0  0  0  0  0  0  0  0  0
  152.3833  142.8378  159.9620 C   0  0  0  0  0  0  0  0  0  0  0  0
  153.4506  142.1676  160.4402 C   0  0  0  0  0  0  0  0  0  0  0  0
  153.9061  140.9502  159.7571 C   0  0  0  0  0  0  0  0  0  0  0  0
  154.8762  140.3191  160.1703 O   0  0  0  0  0  0  0  0  0  0  0  0
  153.1916  140.5399  158.6193 N   0  0  0  0  0  0  0  0  0  0  0  0
  152.1678  141.2340  158.2088 C   0  0  0  0  0  0  0  0  0  0  0  0
  151.4263  140.8784  157.0929 N   0  0  0  0  0  0  0  0  0  0  0  0
  150.9254  141.9508  156.2392 C   0  0  0  0  0  0  0  0  0  0  0  0
  149.8543  141.4264  155.2676 C   0  0  0  0  0  0  0  0  0  0  0  0
  150.3902  140.3547  154.5011 O   0  0  0  0  0  0  0  0  0  0  0  0
  150.7948  139.2702  155.3276 C   0  0  0  0  0  0  0  0  0  0  0  0
  151.8883  139.7436  156.3000 C   0  0  0  0  0  0  0  0  0  0  0  0
  151.7161  142.3892  158.8362 N   0  0  0  0  0  0  0  0  0  0  0  0
  150.9209  142.9186  158.5090 H   0  0  0  0  0  0  0  0  0  0  0  0
  152.4090  144.3909  161.4665 H   0  0  0  0  0  0  0  0  0  0  0  0
  150.7962  143.9516  160.8972 H   0  0  0  0  0  0  0  0  0  0  0  0
  151.8627  144.9249  159.8744 H   0  0  0  0  0  0  0  0  0  0  0  0
  153.9719  142.5179  161.3192 H   0  0  0  0  0  0  0  0  0  0  0  0
  151.7567  142.3818  155.6792 H   0  0  0  0  0  0  0  0  0  0  0  0
  150.5057  142.7500  156.8521 H   0  0  0  0  0  0  0  0  0  0  0  0
  148.9671  141.0943  155.8091 H   0  0  0  0  0  0  0  0  0  0  0  0
  149.5375  142.2221  154.5934 H   0  0  0  0  0  0  0  0  0  0  0  0
  149.9367  138.8714  155.8711 H   0  0  0  0  0  0  0  0  0  0  0  0
  151.1751  138.4659  154.6977 H   0  0  0  0  0  0  0  0  0  0  0  0
  152.1759  138.9220  156.9579 H   0  0  0  0  0  0  0  0  0  0  0  0
  152.7810  140.0336  155.7436 H   0  0  0  0  0  0  0  0  0  0  0  0
  1 16  1  0  0  0  0
  1 17  1  0  0  0  0
  1 18  1  0  0  0  0
  1  2  1  0  0  0  0
  2  3  2  0  0  0  0
  2 14  1  0  0  0  0
  3  4  1  0  0  0  0
  3 19  1  0  0  0  0
  4  6  1  0  0  0  0
  4  5  2  0  0  0  0
  6  7  2  0  0  0  0
  7 14  1  0  0  0  0
  7  8  1  0  0  0  0
  8 13  1  0  0  0  0
  8  9  1  0  0  0  0
  9 10  1  0  0  0  0
  9 20  1  0  0  0  0
  9 21  1  0  0  0  0
 10 11  1  0  0  0  0
 10 22  1  0  0  0  0
 10 23  1  0  0  0  0
 11 12  1  0  0  0  0
 12 13  1  0  0  0  0
 12 24  1  0  0  0  0
 12 25  1  0  0  0  0
 13 26  1  0  0  0  0
 13 27  1  0  0  0  0
 14 15  1  0  0  0  0
M  END
> <s_m_source_file>
AV-unprocessed.smi

> <i_m_source_file_index>
2626

> <i_lp_mmshare_version>
43012

> <i_f3d_flags>
0

> <s_epik_input>
W0NIM11jMVtjSF1jKD1PKVtuSF1jKG4xKU4yW0NIMl1bQ0gyXU9bQ0gyXVtDSDJdMg==

> <s_epik_cmdline>
J2VwaWtfcHl0aG9uJywgJy1waCcsICc3LjAnLCAnLXRuJywgJzgnLCAnLW1hJywgJzIwMCcsICctbWV0YWxfYmluZGluZycsICctaW1hZScsICc8aW5maWxlLm1hZT4nLCAnLW9tYWUnLCAnPG91dGZpbGUubWFlPic=

> <r_lp_tautomer_probability>
0.108306

> <r_epik_Ionization_Penalty>
0.0767095

> <r_epik_Ionization_Penalty_Charging>
0.066018

> <r_epik_Ionization_Penalty_Neutral>
0.0106915

> <r_epik_State_Penalty>
1.70202

> <r_epik_Charging_Adjusted_Penalty>
1.76804

> <i_epik_Tot_Q>
0

> <i_epik_Tot_abs_Q>
0

> <r_epik_Metal_State_Penalty>
2.70096

> <b_epik_Metal_Only>
0

> <s_lp_Force_Field>
OPLS_2005

> <r_lp_Energy>
27.4859

> <b_lp_Chiralities_Consistent>
1

> <s_lp_Variant>
AV-unprocessed.smi:2626-2

> <Gold.Version>
5.8.1

> <Gold.Id.Protein>
6NUR|6NUR_protein|mol2

> <Gold.PLP.Fitness>
32.0315

> <Gold.PLP.PLP>
-29.4305

> <Gold.PLP.part.hbond>
-2.0000

> <Gold.PLP.part.metal>
0.0000

> <Gold.PLP.part.buried>
-3.5596

> <Gold.PLP.part.nonpolar>
-23.6323

> <Gold.PLP.part.repulsive>
0.1851

> <Gold.PLP.ligand.clash>
0.0060

> <Gold.PLP.ligand.torsion>
0.3490

> <Gold.PLP.Chemscore.Hbond>
1.0000

> <Gold.PLP.Chemscore.CHOScore>
0.0000

> <Gold.PLP.Chemscore.Metal>
0.0000

> <Gold.Chemscore.Hbonds>
donor molecule, donor type, donor heavy atom, donor atom, acceptor molecule, acceptor atom, score
      P1  H  7989  7998       L1    11  1.00

> <Gold.PLP.Chemscore.Internal.Correction>
0.3051

> <Gold.Rescore>
     Score         DG    S(hbond)    S(metal)    S(lipo)     H(rot)  DE(clash)    DE(int)     intcor
     12.63     -13.20       0.90        0.00      62.17       1.00       0.13       0.44       ----

> <Gold.Chemscore.Fitness>
12.6262

> <Gold.Chemscore.DG>
-13.1985

> <Gold.Chemscore.ZeroCoef>
-5.4800

> <Gold.Chemscore.Hbond>
0.8995

> <Gold.Chemscore.Metal>
0.0000

> <Gold.Chemscore.Lipo>
62.1727

> <Gold.Chemscore.Internal_Hbond>
0.0000

> <Gold.Chemscore.DEClash>
0.1334

> <Gold.Chemscore.DEInternal>
0.4389

> <Gold.Chemscore.Rot>
1.0000

> <Gold.Chemscore.Internal.Correction>
   9.000000E+99

> <Gold.Chemscore.Hbonds>
donor molecule, donor type, donor heavy atom, donor atom, acceptor molecule, acceptor atom, score
      P1  H  7989  7998       L1    11  0.65

> <Gold.Chemscore.Hbond.Weighted>
-3.0043

> <Gold.Chemscore.Metal.Weighted>
-0.0000

> <Gold.Chemscore.Lipo.Weighted>
-7.2742

> <Gold.Chemscore.Internal_Hbond.Weighted>
0.0000

> <Gold.Chemscore.DEClash.Weighted>
0.1334

> <Gold.Chemscore.DEInternal.Weighted>
0.4389

> <Gold.Chemscore.Rot.Weighted>
2.5600

> <Gold.Chemscore.Internal.Correction.Weighted>
   9.000000E+99

> <Gold.Protein.RotatedTorsions>
[ 6907 6896 6895 6894 ] final  -37.02 input  -60.11 | X-H torsion
[ 7974 7965 7964 7962 ] final -133.36 input  175.53 | X-H torsion
[ 8008 7997 7996 7995 ] final  -14.55 input   59.86 | X-H torsion
[ 10167 10162 10161 10158 ] final   66.42 input  -65.29 | X-H torsion
[ 10718 10713 10712 10709 ] final -140.85 input   66.30 | X-H torsion
[ 10763 10752 10751 10750 ] final   -0.28 input  -60.55 | X-H torsion
[ 11005 11000 10999 10996 ] final   61.31 input  -57.11 | X-H torsion

> <Gold.Protein.ActiveResidues>
 VAL166  LYS551  ARG553  GLY616  TRP617  ASP618  TYR619  PRO620  LYS621  CYS622 
 ASP623  PHE694  ASN695  SER759  ASP760  ASP761  ALA762  ILE779  LEU786  VAL792 
 PHE793  MET794  SER795  GLU796  ALA797  LYS798  CYS799  TRP800  GLU811  SER814 

> <Gold.Protein.RotatedAtoms>
  151.0199  134.9461  159.8053 H   0  0  0  0  0  0  0  0  0  0  0  0  # atno 6907 bound_to 6896
  152.5322  134.2917  159.9055 H   0  0  0  0  0  0  0  0  0  0  0  0  # atno 6908 bound_to 6896
  151.2925  133.4117  159.2668 H   0  0  0  0  0  0  0  0  0  0  0  0  # atno 6909 bound_to 6896
  144.9200  140.7002  143.4971 H   0  0  0  0  0  0  0  0  0  0  0  0  # atno 7974 bound_to 7965
  154.5201  140.2220  155.8992 H   0  0  0  0  0  0  0  0  0  0  0  0  # atno 8008 bound_to 7997
  156.1652  140.3133  155.8842 H   0  0  0  0  0  0  0  0  0  0  0  0  # atno 8009 bound_to 7997
  155.3670  140.0464  157.3036 H   0  0  0  0  0  0  0  0  0  0  0  0  # atno 8010 bound_to 7997
  140.1006  144.4907  150.7040 H   0  0  0  0  0  0  0  0  0  0  0  0  # atno 10167 bound_to 10162
  156.3272  130.7566  151.1676 H   0  0  0  0  0  0  0  0  0  0  0  0  # atno 10718 bound_to 10713
  153.3299  135.6974  153.6957 H   0  0  0  0  0  0  0  0  0  0  0  0  # atno 10763 bound_to 10752
  153.5763  135.3506  155.2858 H   0  0  0  0  0  0  0  0  0  0  0  0  # atno 10764 bound_to 10752
  154.8616  135.4284  154.2485 H   0  0  0  0  0  0  0  0  0  0  0  0  # atno 10765 bound_to 10752
  140.0170  134.6210  155.9695 H   0  0  0  0  0  0  0  0  0  0  0  0  # atno 11005 bound_to 11000
  145.3311  139.1759  143.4536 LP  0  0  0  0  0  0  0  0  0  0  0  0  # atno 17320 bound_to 7965
  146.3200  140.3341  142.8642 LP  0  0  0  0  0  0  0  0  0  0  0  0  # atno 17321 bound_to 7965
  140.6980  143.2416  151.4946 LP  0  0  0  0  0  0  0  0  0  0  0  0  # atno 17342 bound_to 10162
  139.5673  144.2011  152.1784 LP  0  0  0  0  0  0  0  0  0  0  0  0  # atno 17343 bound_to 10162
  157.7423  131.0491  150.5031 LP  0  0  0  0  0  0  0  0  0  0  0  0  # atno 17370 bound_to 10713
  156.5192  130.4158  149.6260 LP  0  0  0  0  0  0  0  0  0  0  0  0  # atno 17371 bound_to 10713
  141.1749  133.6539  156.4791 LP  0  0  0  0  0  0  0  0  0  0  0  0  # atno 17394 bound_to 11000
  140.4453  134.6978  157.5013 LP  0  0  0  0  0  0  0  0  0  0  0  0  # atno 17395 bound_to 11000

$$$$
