AV-unprocessed.smi:2818|AV-procd|sdf|10848|dock2
  -GOLD-   2272015293D 1   1.00000     0.00000
 Structure written by MMmdl.
 25 26  0  0  0  0  0  0  0  0  2 V2000
  151.7780  137.3943  154.6781 O   0  0  0  0  0  0  0  0  0  0  0  0
  152.1961  138.3835  155.3204 C   0  0  0  0  0  0  0  0  0  0  0  0
  153.2480  138.3468  155.9970 O   0  5  0  0  0  0  0  0  0  0  0  0
  151.4058  139.6621  155.2767 C   0  0  0  0  0  0  0  0  0  0  0  0
  150.3688  139.8455  154.3346 C   0  0  0  0  0  0  0  0  0  0  0  0
  149.6610  141.0621  154.3366 C   0  0  0  0  0  0  0  0  0  0  0  0
  149.9199  142.0704  155.1948 N   0  0  0  0  0  0  0  0  0  0  0  0
  150.9149  141.9002  156.1001 C   0  0  0  0  0  0  0  0  0  0  0  0
  151.1967  142.9200  156.9877 O   0  0  0  0  0  0  0  0  0  0  0  0
  152.3371  142.8170  157.8425 C   0  0  2  0  0  0  0  0  0  0  0  0
  151.9788  142.1250  159.1515 C   0  0  0  0  0  0  0  0  0  0  0  0
  151.5029  143.2836  160.0145 C   0  0  0  0  0  0  0  0  0  0  0  0
  152.4141  144.3182  159.6852 O   0  0  0  0  0  0  0  0  0  0  0  0
  152.7183  144.2345  158.2961 C   0  0  0  0  0  0  0  0  0  0  0  0
  151.6779  140.7179  156.1763 C   0  0  0  0  0  0  0  0  0  0  0  0
  150.1147  139.0749  153.6216 H   0  0  0  0  0  0  0  0  0  0  0  0
  148.8633  141.2299  153.6282 H   0  0  0  0  0  0  0  0  0  0  0  0
  153.1790  142.3424  157.3358 H   0  0  0  0  0  0  0  0  0  0  0  0
  151.2310  141.3384  159.0478 H   0  0  0  0  0  0  0  0  0  0  0  0
  152.8730  141.6829  159.5928 H   0  0  0  0  0  0  0  0  0  0  0  0
  150.4904  143.5847  159.7406 H   0  0  0  0  0  0  0  0  0  0  0  0
  151.5215  143.0538  161.0799 H   0  0  0  0  0  0  0  0  0  0  0  0
  153.7809  144.4303  158.1501 H   0  0  0  0  0  0  0  0  0  0  0  0
  152.1626  144.9950  157.7459 H   0  0  0  0  0  0  0  0  0  0  0  0
  152.4599  140.6317  156.9168 H   0  0  0  0  0  0  0  0  0  0  0  0
  1  2  2  0  0  0  0
  2  3  1  0  0  0  0
  2  4  1  0  0  0  0
  4 15  1  0  0  0  0
  4  5  2  0  0  0  0
  5  6  1  0  0  0  0
  5 16  1  0  0  0  0
  6  7  2  0  0  0  0
  6 17  1  0  0  0  0
  7  8  1  0  0  0  0
  8  9  1  0  0  0  0
  8 15  2  0  0  0  0
  9 10  1  0  0  0  0
 10 14  1  0  0  0  0
 10 11  1  0  0  0  0
 10 18  1  0  0  0  0
 11 12  1  0  0  0  0
 11 19  1  0  0  0  0
 11 20  1  0  0  0  0
 12 13  1  0  0  0  0
 12 21  1  0  0  0  0
 12 22  1  0  0  0  0
 13 14  1  0  0  0  0
 14 23  1  0  0  0  0
 14 24  1  0  0  0  0
 15 25  1  0  0  0  0
M  CHG  1   3  -1
M  END
> <s_m_source_file>
AV-unprocessed.smi

> <i_m_source_file_index>
2818

> <i_lp_mmshare_version>
43012

> <i_f3d_flags>
0

> <s_epik_input>
Tz1DKFtPSF0pYzFbY0hdW2NIXW5jKFtjSF0xKU9bQ0BASF0yW0NIMl1bQ0gyXU9bQ0gyXTI=

> <s_epik_cmdline>
J2VwaWtfcHl0aG9uJywgJy1waCcsICc3LjAnLCAnLXRuJywgJzgnLCAnLW1hJywgJzIwMCcsICctbWV0YWxfYmluZGluZycsICctaW1hZScsICc8aW5maWxlLm1hZT4nLCAnLW9tYWUnLCAnPG91dGZpbGUubWFlPic=

> <r_lp_tautomer_probability>
1

> <r_epik_Ionization_Penalty>
0.000147497

> <r_epik_Ionization_Penalty_Charging>
0.00010957

> <r_epik_Ionization_Penalty_Neutral>
3.79274e-05

> <r_epik_State_Penalty>
-0

> <r_epik_Charging_Adjusted_Penalty>
0.00010957

> <i_epik_Tot_Q>
-1

> <i_epik_Tot_abs_Q>
1

> <r_epik_Metal_State_Penalty>
-0

> <b_epik_Metal_Only>
0

> <s_lp_Force_Field>
OPLS_2005

> <r_lp_Energy>
14.7061

> <b_lp_Chiralities_Consistent>
1

> <s_lp_Variant>
AV-unprocessed.smi:2818-1

> <Gold.Version>
5.8.1

> <Gold.Id.Protein>
6NUR|6NUR_protein|mol2

> <Gold.PLP.Fitness>
41.1459

> <Gold.PLP.PLP>
-30.8553

> <Gold.PLP.part.hbond>
-2.0000

> <Gold.PLP.part.metal>
0.0000

> <Gold.PLP.part.buried>
-5.3019

> <Gold.PLP.part.nonpolar>
-24.1677

> <Gold.PLP.part.repulsive>
0.6335

> <Gold.PLP.ligand.clash>
0.0000

> <Gold.PLP.ligand.torsion>
0.4078

> <Gold.PLP.Chemscore.Hbond>
3.6960

> <Gold.PLP.Chemscore.CHOScore>
0.0000

> <Gold.PLP.Chemscore.Metal>
0.0000

> <Gold.Chemscore.Hbonds>
donor molecule, donor type, donor heavy atom, donor atom, acceptor molecule, acceptor atom, score
      P1  H  7997  8008       L1     3  0.58
      P1  H 10752 10764       L1     1  1.23
      L1  C     6    17       P1  7957  0.14

> <Gold.PLP.Chemscore.Internal.Correction>
0.0183

> <Gold.Rescore>
     Score         DG    S(hbond)    S(metal)    S(lipo)     H(rot)  DE(clash)    DE(int)     intcor
     15.15     -15.66       1.63        0.00      68.35       1.28       0.22       0.30       ----

> <Gold.Chemscore.Fitness>
15.1487

> <Gold.Chemscore.DG>
-15.6632

> <Gold.Chemscore.ZeroCoef>
-5.4800

> <Gold.Chemscore.Hbond>
1.6346

> <Gold.Chemscore.Metal>
0.0000

> <Gold.Chemscore.Lipo>
68.3538

> <Gold.Chemscore.Internal_Hbond>
0.0000

> <Gold.Chemscore.DEClash>
0.2154

> <Gold.Chemscore.DEInternal>
0.2991

> <Gold.Chemscore.Rot>
1.2788

> <Gold.Chemscore.Internal.Correction>
   9.000000E+99

> <Gold.Chemscore.Hbonds>
donor molecule, donor type, donor heavy atom, donor atom, acceptor molecule, acceptor atom, score
      P1  H  7997  8008       L1     3  0.26
      P1  H 10752 10764       L1     1  0.61

> <Gold.Chemscore.Hbond.Weighted>
-5.4596

> <Gold.Chemscore.Metal.Weighted>
-0.0000

> <Gold.Chemscore.Lipo.Weighted>
-7.9974

> <Gold.Chemscore.Internal_Hbond.Weighted>
0.0000

> <Gold.Chemscore.DEClash.Weighted>
0.2154

> <Gold.Chemscore.DEInternal.Weighted>
0.2991

> <Gold.Chemscore.Rot.Weighted>
3.2738

> <Gold.Chemscore.Internal.Correction.Weighted>
   9.000000E+99

> <Gold.Protein.RotatedTorsions>
[ 6907 6896 6895 6894 ] final   35.84 input  -60.11 | X-H torsion
[ 7974 7965 7964 7962 ] final  -12.56 input  175.53 | X-H torsion
[ 8008 7997 7996 7995 ] final  -10.21 input   59.86 | X-H torsion
[ 10167 10162 10161 10158 ] final   70.14 input  -65.29 | X-H torsion
[ 10718 10713 10712 10709 ] final  154.93 input   66.30 | X-H torsion
[ 10763 10752 10751 10750 ] final  -86.59 input  -60.55 | X-H torsion
[ 11005 11000 10999 10996 ] final  121.34 input  -57.11 | X-H torsion

> <Gold.Protein.ActiveResidues>
 VAL166  LYS551  ARG553  GLY616  TRP617  ASP618  TYR619  PRO620  LYS621  CYS622 
 ASP623  PHE694  ASN695  SER759  ASP760  ASP761  ALA762  ILE779  LEU786  VAL792 
 PHE793  MET794  SER795  GLU796  ALA797  LYS798  CYS799  TRP800  GLU811  SER814 

> <Gold.Protein.RotatedAtoms>
  152.1216  134.9201  160.0562 H   0  0  0  0  0  0  0  0  0  0  0  0  # atno 6907 bound_to 6896
  152.0339  133.3944  159.4317 H   0  0  0  0  0  0  0  0  0  0  0  0  # atno 6908 bound_to 6896
  150.6849  134.3411  159.4912 H   0  0  0  0  0  0  0  0  0  0  0  0  # atno 6909 bound_to 6896
  146.2147  140.3075  142.8380 H   0  0  0  0  0  0  0  0  0  0  0  0  # atno 7974 bound_to 7965
  154.5575  140.2335  155.8387 H   0  0  0  0  0  0  0  0  0  0  0  0  # atno 8008 bound_to 7997
  156.2001  140.3055  155.9468 H   0  0  0  0  0  0  0  0  0  0  0  0  # atno 8009 bound_to 7997
  155.2952  140.0428  157.3016 H   0  0  0  0  0  0  0  0  0  0  0  0  # atno 8010 bound_to 7997
  140.0602  144.5239  150.7300 H   0  0  0  0  0  0  0  0  0  0  0  0  # atno 10167 bound_to 10162
  157.2251  131.0727  151.1888 H   0  0  0  0  0  0  0  0  0  0  0  0  # atno 10718 bound_to 10713
  154.6242  135.5443  153.7608 H   0  0  0  0  0  0  0  0  0  0  0  0  # atno 10763 bound_to 10752
  153.0253  135.6420  154.1396 H   0  0  0  0  0  0  0  0  0  0  0  0  # atno 10764 bound_to 10752
  154.1329  135.2913  155.3160 H   0  0  0  0  0  0  0  0  0  0  0  0  # atno 10765 bound_to 10752
  139.9222  134.9638  156.7943 H   0  0  0  0  0  0  0  0  0  0  0  0  # atno 11005 bound_to 11000
  144.9012  140.7645  143.5866 LP  0  0  0  0  0  0  0  0  0  0  0  0  # atno 17320 bound_to 7965
  145.3001  139.1853  143.4694 LP  0  0  0  0  0  0  0  0  0  0  0  0  # atno 17321 bound_to 7965
  140.7175  143.2558  151.4386 LP  0  0  0  0  0  0  0  0  0  0  0  0  # atno 17342 bound_to 10162
  139.5898  144.1523  152.2074 LP  0  0  0  0  0  0  0  0  0  0  0  0  # atno 17343 bound_to 10162
  157.3536  130.7095  149.6456 LP  0  0  0  0  0  0  0  0  0  0  0  0  # atno 17370 bound_to 10713
  155.9679  130.4245  150.4613 LP  0  0  0  0  0  0  0  0  0  0  0  0  # atno 17371 bound_to 10713
  140.6441  133.9791  155.7722 LP  0  0  0  0  0  0  0  0  0  0  0  0  # atno 17394 bound_to 11000
  141.0752  134.0146  157.3469 LP  0  0  0  0  0  0  0  0  0  0  0  0  # atno 17395 bound_to 11000

$$$$
