AV-unprocessed.smi:72|AV-procd|sdf|718|dock6
  -GOLD-   2262017 43D 1   1.00000     0.00000
 Structure written by MMmdl.
 28 29  0  0  0  0  0  0  0  0  2 V2000
  152.1755  137.0917  153.5260 N   0  0  0  0  0  0  0  0  0  0  0  0
  151.8383  137.8881  154.4432 C   0  0  0  0  0  0  0  0  0  0  0  0
  152.8433  138.4689  155.3072 N   0  0  0  0  0  0  0  0  0  0  0  0
  152.4436  139.2717  156.2452 C   0  0  0  0  0  0  0  0  0  0  0  0
  151.0332  139.5776  156.4437 N   0  0  0  0  0  0  0  0  0  0  0  0
  150.5788  140.5224  157.5382 C   0  0  1  0  0  0  0  0  0  0  0  0
  151.6696  140.8667  158.3325 O   0  0  0  0  0  0  0  0  0  0  0  0
  151.4144  142.1370  158.9100 C   0  0  1  0  0  0  0  0  0  0  0  0
  152.7277  142.7659  159.4000 C   0  0  0  0  0  0  0  0  0  0  0  0
  153.2886  141.9814  160.4310 O   0  0  0  0  0  0  0  0  0  0  0  0
  150.7618  142.9055  157.7542 C   0  0  2  0  0  0  0  0  0  0  0  0
  149.9042  143.9093  158.2606 O   0  0  0  0  0  0  0  0  0  0  0  0
  149.9636  141.8375  157.0080 C   0  0  1  0  0  0  0  0  0  0  0  0
  150.0841  142.0169  155.6080 O   0  0  0  0  0  0  0  0  0  0  0  0
  150.0714  139.0170  155.5629 C   0  0  0  0  0  0  0  0  0  0  0  0
  148.8903  139.3269  155.7197 O   0  0  0  0  0  0  0  0  0  0  0  0
  150.4981  138.1760  154.5796 N   0  5  0  0  0  0  0  0  0  0  0  0
  149.8880  139.9587  158.1677 H   0  0  0  0  0  0  0  0  0  0  0  0
  150.7014  142.0179  159.7293 H   0  0  0  0  0  0  0  0  0  0  0  0
  151.5278  143.3430  157.1113 H   0  0  0  0  0  0  0  0  0  0  0  0
  148.9078  141.8443  157.2831 H   0  0  0  0  0  0  0  0  0  0  0  0
  151.3833  136.7603  152.9948 H   0  0  0  0  0  0  0  0  0  0  0  0
  153.1300  139.7679  156.9322 H   0  0  0  0  0  0  0  0  0  0  0  0
  153.4387  142.8870  158.5820 H   0  0  0  0  0  0  0  0  0  0  0  0
  152.5373  143.7570  159.8128 H   0  0  0  0  0  0  0  0  0  0  0  0
  152.8649  142.2074  161.2449 H   0  0  0  0  0  0  0  0  0  0  0  0
  149.5284  144.3771  157.5307 H   0  0  0  0  0  0  0  0  0  0  0  0
  149.8073  142.8957  155.3958 H   0  0  0  0  0  0  0  0  0  0  0  0
  1  2  2  0  0  0  0
  1 22  1  0  0  0  0
  2 17  1  0  0  0  0
  2  3  1  0  0  0  0
  3  4  2  0  0  0  0
  4  5  1  0  0  0  0
  4 23  1  0  0  0  0
  5  6  1  0  0  0  0
  5 15  1  0  0  0  0
  6 18  1  0  0  0  0
  6 13  1  0  0  0  0
  6  7  1  0  0  0  0
  7  8  1  0  0  0  0
  8 19  1  0  0  0  0
  8  9  1  0  0  0  0
  8 11  1  0  0  0  0
  9 10  1  0  0  0  0
  9 24  1  0  0  0  0
  9 25  1  0  0  0  0
 10 26  1  0  0  0  0
 11 20  1  0  0  0  0
 11 12  1  0  0  0  0
 11 13  1  0  0  0  0
 12 27  1  0  0  0  0
 13 21  1  0  0  0  0
 13 14  1  0  0  0  0
 14 28  1  0  0  0  0
 15 16  2  0  0  0  0
 15 17  1  0  0  0  0
M  CHG  1  17  -1
M  END
> <s_m_source_file>
AV-unprocessed.smi

> <i_m_source_file_index>
72

> <i_lp_mmshare_version>
43012

> <i_f3d_flags>
0

> <s_epik_input>
W05IMl1jMW5bY0hdbihjKD1PKW4xKVtDQEBIXTJPW0NASF0oW0NIMl1bT0hdKVtDQEBIXShbT0hdKVtDQEhdMltPSF0=

> <s_epik_cmdline>
J2VwaWtfcHl0aG9uJywgJy1waCcsICc3LjAnLCAnLXRuJywgJzgnLCAnLW1hJywgJzIwMCcsICctbWV0YWxfYmluZGluZycsICctaW1hZScsICc8aW5maWxlLm1hZT4nLCAnLW9tYWUnLCAnPG91dGZpbGUubWFlPic=

> <r_lp_tautomer_probability>
7.17554e-07

> <r_epik_Ionization_Penalty>
12.8705

> <r_epik_Ionization_Penalty_Charging>
5.64144

> <r_epik_Ionization_Penalty_Neutral>
7.22905

> <r_epik_State_Penalty>
3.30104

> <r_epik_Charging_Adjusted_Penalty>
8.94249

> <i_epik_Tot_Q>
-1

> <i_epik_Tot_abs_Q>
1

> <r_epik_Metal_State_Penalty>
0.529074

> <b_epik_Metal_Only>
1

> <s_epik_Chemistry_Notes>
This compound contains an acetal/aminal-like group ( X-CH(R)-Y where X, Y are N, S, or O) that may be acid/base labile, releasing an aldehyde.

> <s_lp_Force_Field>
OPLS_2005

> <r_lp_Energy>
37.5202

> <b_lp_Chiralities_Consistent>
1

> <s_lp_Variant>
AV-unprocessed.smi:72-56

> <Gold.Version>
5.8.1

> <Gold.Id.Protein>
6NUR|6NUR_protein|mol2

> <Gold.PLP.Fitness>
35.6715

> <Gold.PLP.PLP>
-25.5849

> <Gold.PLP.part.hbond>
-4.9528

> <Gold.PLP.part.metal>
0.0000

> <Gold.PLP.part.buried>
-3.1691

> <Gold.PLP.part.nonpolar>
-17.5714

> <Gold.PLP.part.repulsive>
0.2071

> <Gold.PLP.ligand.clash>
0.0000

> <Gold.PLP.ligand.torsion>
0.0665

> <Gold.PLP.Chemscore.Hbond>
3.3625

> <Gold.PLP.Chemscore.CHOScore>
0.0000

> <Gold.PLP.Chemscore.Metal>
0.0000

> <Gold.Chemscore.Hbonds>
donor molecule, donor type, donor heavy atom, donor atom, acceptor molecule, acceptor atom, score
      L1  H     1    22       P1  7949  0.70
      L1  H    12    27       P1  8028  0.70
      L1  H    14    28       P1  8028  0.94
      P1  H 10752 10765       L1     1  1.00

> <Gold.PLP.Chemscore.Internal.Correction>
0.1322

> <Gold.Rescore>
     Score         DG    S(hbond)    S(metal)    S(lipo)     H(rot)  DE(clash)    DE(int)     intcor
      5.64      -5.94       1.97        0.00      36.06       4.04       0.02       0.28       ----

> <Gold.Chemscore.Fitness>
5.6446

> <Gold.Chemscore.DG>
-5.9438

> <Gold.Chemscore.ZeroCoef>
-5.4800

> <Gold.Chemscore.Hbond>
1.9723

> <Gold.Chemscore.Metal>
0.0000

> <Gold.Chemscore.Lipo>
36.0637

> <Gold.Chemscore.Internal_Hbond>
0.0000

> <Gold.Chemscore.DEClash>
0.0178

> <Gold.Chemscore.DEInternal>
0.2814

> <Gold.Chemscore.Rot>
4.0403

> <Gold.Chemscore.Internal.Correction>
   9.000000E+99

> <Gold.Chemscore.Hbonds>
donor molecule, donor type, donor heavy atom, donor atom, acceptor molecule, acceptor atom, score
      L1  H     1    22       P1  7949  0.57
      L1  H    12    27       P1  8028  0.07
      L1  H    14    28       P1  8028  0.89
      P1  H 10752 10765       L1     1  0.58

> <Gold.Chemscore.Hbond.Weighted>
-6.5874

> <Gold.Chemscore.Metal.Weighted>
-0.0000

> <Gold.Chemscore.Lipo.Weighted>
-4.2195

> <Gold.Chemscore.Internal_Hbond.Weighted>
0.0000

> <Gold.Chemscore.DEClash.Weighted>
0.0178

> <Gold.Chemscore.DEInternal.Weighted>
0.2814

> <Gold.Chemscore.Rot.Weighted>
10.3431

> <Gold.Chemscore.Internal.Correction.Weighted>
   9.000000E+99

> <Gold.Protein.RotatedTorsions>
[ 6907 6896 6895 6894 ] final  116.08 input  -60.11 | X-H torsion
[ 7974 7965 7964 7962 ] final   38.93 input  175.53 | X-H torsion
[ 8008 7997 7996 7995 ] final   83.21 input   59.86 | X-H torsion
[ 10167 10162 10161 10158 ] final   31.81 input  -65.29 | X-H torsion
[ 10718 10713 10712 10709 ] final  -81.04 input   66.30 | X-H torsion
[ 10763 10752 10751 10750 ] final  132.86 input  -60.55 | X-H torsion
[ 11005 11000 10999 10996 ] final  -42.23 input  -57.11 | X-H torsion

> <Gold.Protein.ActiveResidues>
 VAL166  LYS551  ARG553  GLY616  TRP617  ASP618  TYR619  PRO620  LYS621  CYS622 
 ASP623  PHE694  ASN695  SER759  ASP760  ASP761  ALA762  ILE779  LEU786  VAL792 
 PHE793  MET794  SER795  GLU796  ALA797  LYS798  CYS799  TRP800  GLU811  SER814 

> <Gold.Protein.RotatedAtoms>
  152.4701  133.8009  159.6952 H   0  0  0  0  0  0  0  0  0  0  0  0  # atno 6907 bound_to 6896
  150.8685  133.7530  159.2975 H   0  0  0  0  0  0  0  0  0  0  0  0  # atno 6908 bound_to 6896
  151.5073  135.1067  159.9896 H   0  0  0  0  0  0  0  0  0  0  0  0  # atno 6909 bound_to 6896
  146.1023  139.5712  142.9406 H   0  0  0  0  0  0  0  0  0  0  0  0  # atno 7974 bound_to 7965
  155.9209  140.3421  155.6172 H   0  0  0  0  0  0  0  0  0  0  0  0  # atno 8008 bound_to 7997
  155.7274  140.0791  157.2322 H   0  0  0  0  0  0  0  0  0  0  0  0  # atno 8009 bound_to 7997
  154.4069  140.1594  156.2458 H   0  0  0  0  0  0  0  0  0  0  0  0  # atno 8010 bound_to 7997
  140.4555  144.0984  150.6201 H   0  0  0  0  0  0  0  0  0  0  0  0  # atno 10167 bound_to 10162
  156.0058  130.4592  150.3891 H   0  0  0  0  0  0  0  0  0  0  0  0  # atno 10718 bound_to 10713
  153.7976  135.3146  155.3386 H   0  0  0  0  0  0  0  0  0  0  0  0  # atno 10763 bound_to 10752
  154.8101  135.4672  154.0498 H   0  0  0  0  0  0  0  0  0  0  0  0  # atno 10764 bound_to 10752
  153.1836  135.6897  153.8533 H   0  0  0  0  0  0  0  0  0  0  0  0  # atno 10765 bound_to 10752
  141.0301  133.6824  156.2566 H   0  0  0  0  0  0  0  0  0  0  0  0  # atno 11005 bound_to 11000
  145.5829  141.0380  143.2112 LP  0  0  0  0  0  0  0  0  0  0  0  0  # atno 17320 bound_to 7965
  144.7443  139.7363  143.7298 LP  0  0  0  0  0  0  0  0  0  0  0  0  # atno 17321 bound_to 7965
  140.4156  143.2636  151.9779 LP  0  0  0  0  0  0  0  0  0  0  0  0  # atno 17342 bound_to 10162
  139.4801  144.5877  151.7825 LP  0  0  0  0  0  0  0  0  0  0  0  0  # atno 17343 bound_to 10162
  157.1967  131.0428  151.2672 LP  0  0  0  0  0  0  0  0  0  0  0  0  # atno 17370 bound_to 10713
  157.4013  130.7334  149.6769 LP  0  0  0  0  0  0  0  0  0  0  0  0  # atno 17371 bound_to 10713
  140.6421  134.5154  157.5570 LP  0  0  0  0  0  0  0  0  0  0  0  0  # atno 17394 bound_to 11000
  139.9202  134.8164  156.1235 LP  0  0  0  0  0  0  0  0  0  0  0  0  # atno 17395 bound_to 11000

$$$$
