AV-unprocessed.smi:3157|AV-procd|sdf|12040|dock4
  -GOLD-   2272017463D 1   1.00000     0.00000
 Structure written by MMmdl.
 40 41  0  0  0  0  0  0  0  0  2 V2000
  150.3867  140.6459  157.9507 C   0  0  0  0  0  0  0  0  0  0  0  0
  149.6019  141.5020  156.9433 C   0  0  1  0  0  0  0  0  0  0  0  0
  149.8904  142.9299  157.2148 N   0  3  0  0  0  0  0  0  0  0  0  0
  151.2865  143.2227  157.6000 C   0  0  0  0  0  0  0  0  0  0  0  0
  151.4555  143.2168  159.1271 C   0  0  0  0  0  0  0  0  0  0  0  0
  151.5532  144.6191  159.7338 C   0  0  0  0  0  0  0  0  0  0  0  0
  152.2266  144.4250  161.0982 C   0  0  0  0  0  0  0  0  0  0  0  0
  152.9466  143.0695  161.0358 C   0  0  0  0  0  0  0  0  0  0  0  0
  152.7449  142.5468  159.6109 C   0  0  0  0  0  0  0  0  0  0  0  0
  149.9368  141.1507  155.4687 C   0  0  1  0  0  0  0  0  0  0  0  0
  150.7926  139.8784  155.3206 C   0  0  0  0  0  0  0  0  0  0  0  0
  148.7237  141.0258  154.6680 N   0  0  0  0  0  0  0  0  0  0  0  0
  147.7768  141.9867  154.3715 C   0  0  0  0  0  0  0  0  0  0  0  0
  146.8455  141.4059  153.5595 C   0  0  0  0  0  0  0  0  0  0  0  0
  147.3154  140.0724  153.4056 C   0  0  0  0  0  0  0  0  0  0  0  0
  148.4439  139.8514  154.0604 N   0  0  0  0  0  0  0  0  0  0  0  0
  150.1186  139.5918  157.8802 H   0  0  0  0  0  0  0  0  0  0  0  0
  150.1769  140.9578  158.9745 H   0  0  0  0  0  0  0  0  0  0  0  0
  151.4623  140.7301  157.7918 H   0  0  0  0  0  0  0  0  0  0  0  0
  148.5404  141.3147  157.1154 H   0  0  0  0  0  0  0  0  0  0  0  0
  149.6756  143.4635  156.3847 H   0  0  0  0  0  0  0  0  0  0  0  0
  151.9602  142.4950  157.1466 H   0  0  0  0  0  0  0  0  0  0  0  0
  151.5583  144.2006  157.2005 H   0  0  0  0  0  0  0  0  0  0  0  0
  150.6039  142.7094  159.5842 H   0  0  0  0  0  0  0  0  0  0  0  0
  152.1849  145.2513  159.1075 H   0  0  0  0  0  0  0  0  0  0  0  0
  150.5811  145.1069  159.8161 H   0  0  0  0  0  0  0  0  0  0  0  0
  152.9174  145.2407  161.3146 H   0  0  0  0  0  0  0  0  0  0  0  0
  151.4799  144.4120  161.8931 H   0  0  0  0  0  0  0  0  0  0  0  0
  154.0046  143.1537  161.2870 H   0  0  0  0  0  0  0  0  0  0  0  0
  152.4951  142.3815  161.7518 H   0  0  0  0  0  0  0  0  0  0  0  0
  152.6967  141.4581  159.5697 H   0  0  0  0  0  0  0  0  0  0  0  0
  153.5842  142.8639  158.9905 H   0  0  0  0  0  0  0  0  0  0  0  0
  150.5191  141.9742  155.0502 H   0  0  0  0  0  0  0  0  0  0  0  0
  151.7853  140.0086  155.7509 H   0  0  0  0  0  0  0  0  0  0  0  0
  150.9348  139.6252  154.2693 H   0  0  0  0  0  0  0  0  0  0  0  0
  150.3275  139.0213  155.8085 H   0  0  0  0  0  0  0  0  0  0  0  0
  147.8437  142.9937  154.7559 H   0  0  0  0  0  0  0  0  0  0  0  0
  145.9633  141.8643  153.1375 H   0  0  0  0  0  0  0  0  0  0  0  0
  146.8777  139.2667  152.8351 H   0  0  0  0  0  0  0  0  0  0  0  0
  149.2800  143.2366  157.9593 H   0  0  0  0  0  0  0  0  0  0  0  0
  1  2  1  0  0  0  0
  1 17  1  0  0  0  0
  1 18  1  0  0  0  0
  1 19  1  0  0  0  0
  2  3  1  0  0  0  0
  2 10  1  0  0  0  0
  2 20  1  0  0  0  0
  3  4  1  0  0  0  0
  3 21  1  0  0  0  0
  3 40  1  0  0  0  0
  4  5  1  0  0  0  0
  4 22  1  0  0  0  0
  4 23  1  0  0  0  0
  5  9  1  0  0  0  0
  5  6  1  0  0  0  0
  5 24  1  0  0  0  0
  6  7  1  0  0  0  0
  6 25  1  0  0  0  0
  6 26  1  0  0  0  0
  7  8  1  0  0  0  0
  7 27  1  0  0  0  0
  7 28  1  0  0  0  0
  8  9  1  0  0  0  0
  8 29  1  0  0  0  0
  8 30  1  0  0  0  0
  9 31  1  0  0  0  0
  9 32  1  0  0  0  0
 10 11  1  0  0  0  0
 10 12  1  0  0  0  0
 10 33  1  0  0  0  0
 11 34  1  0  0  0  0
 11 35  1  0  0  0  0
 11 36  1  0  0  0  0
 12 16  1  0  0  0  0
 12 13  1  0  0  0  0
 13 14  2  0  0  0  0
 13 37  1  0  0  0  0
 14 15  1  0  0  0  0
 14 38  1  0  0  0  0
 15 16  2  0  0  0  0
 15 39  1  0  0  0  0
M  CHG  1   3   1
M  END
> <s_m_source_file>
AV-unprocessed.smi

> <i_m_source_file_index>
3157

> <i_lp_mmshare_version>
43012

> <i_f3d_flags>
0

> <s_epik_input>
bjFbY0hdW2NIXVtjSF1uMVtDQEBIXShbQ0gzXSlbQ0BIXShbQ0gzXSlbTkhdW0NIMl1bQ0hdMltDSDJdW0NIMl1bQ0gyXVtDSDJdMg==

> <s_epik_cmdline>
J2VwaWtfcHl0aG9uJywgJy1waCcsICc3LjAnLCAnLXRuJywgJzgnLCAnLW1hJywgJzIwMCcsICctbWV0YWxfYmluZGluZycsICctaW1hZScsICc8aW5maWxlLm1hZT4nLCAnLW9tYWUnLCAnPG91dGZpbGUubWFlPic=

> <r_lp_tautomer_probability>
1

> <r_epik_Ionization_Penalty>
0.00132192

> <r_epik_Ionization_Penalty_Charging>
0.0013111

> <r_epik_Ionization_Penalty_Neutral>
1.08112e-05

> <r_epik_State_Penalty>
-0

> <r_epik_Charging_Adjusted_Penalty>
0.0013111

> <i_epik_Tot_Q>
1

> <i_epik_Tot_abs_Q>
1

> <r_epik_Metal_State_Penalty>
-0

> <b_epik_Metal_Only>
0

> <s_lp_Force_Field>
OPLS_2005

> <r_lp_Energy>
31.1459

> <b_lp_Chiralities_Consistent>
1

> <s_lp_Variant>
AV-unprocessed.smi:3157-4

> <Gold.Version>
5.8.1

> <Gold.Id.Protein>
6NUR|6NUR_protein|mol2

> <Gold.PLP.Fitness>
43.9789

> <Gold.PLP.PLP>
-39.8729

> <Gold.PLP.part.hbond>
-1.0000

> <Gold.PLP.part.metal>
0.0000

> <Gold.PLP.part.buried>
-4.3057

> <Gold.PLP.part.nonpolar>
-35.2123

> <Gold.PLP.part.repulsive>
0.3365

> <Gold.PLP.ligand.clash>
0.0000

> <Gold.PLP.ligand.torsion>
2.4881

> <Gold.PLP.Chemscore.Hbond>
2.0000

> <Gold.PLP.Chemscore.CHOScore>
1.0000

> <Gold.PLP.Chemscore.Metal>
0.0000

> <Gold.Chemscore.Hbonds>
donor molecule, donor type, donor heavy atom, donor atom, acceptor molecule, acceptor atom, score
      L1  H     3    21       P1  8028  1.98
      L1  C    13    37       P1  8028  1.00

> <Gold.PLP.Chemscore.Internal.Correction>
0.0822

> <Gold.Rescore>
     Score         DG    S(hbond)    S(metal)    S(lipo)     H(rot)  DE(clash)    DE(int)     intcor
     15.51     -18.09       1.00        0.00     112.31       1.50       0.14       2.45       ----

> <Gold.Chemscore.Fitness>
15.5071

> <Gold.Chemscore.DG>
-18.0946

> <Gold.Chemscore.ZeroCoef>
-5.4800

> <Gold.Chemscore.Hbond>
0.9957

> <Gold.Chemscore.Metal>
0.0000

> <Gold.Chemscore.Lipo>
112.3146

> <Gold.Chemscore.Internal_Hbond>
0.0000

> <Gold.Chemscore.DEClash>
0.1376

> <Gold.Chemscore.DEInternal>
2.4499

> <Gold.Chemscore.Rot>
1.5047

> <Gold.Chemscore.Internal.Correction>
   9.000000E+99

> <Gold.Chemscore.Hbonds>
donor molecule, donor type, donor heavy atom, donor atom, acceptor molecule, acceptor atom, score
      L1  H     3    21       P1  8028  0.93

> <Gold.Chemscore.Hbond.Weighted>
-3.3258

> <Gold.Chemscore.Metal.Weighted>
-0.0000

> <Gold.Chemscore.Lipo.Weighted>
-13.1408

> <Gold.Chemscore.Internal_Hbond.Weighted>
0.0000

> <Gold.Chemscore.DEClash.Weighted>
0.1376

> <Gold.Chemscore.DEInternal.Weighted>
2.4499

> <Gold.Chemscore.Rot.Weighted>
3.8520

> <Gold.Chemscore.Internal.Correction.Weighted>
   9.000000E+99

> <Gold.Protein.RotatedTorsions>
[ 6907 6896 6895 6894 ] final  -16.90 input  -60.11 | X-H torsion
[ 7974 7965 7964 7962 ] final  -12.90 input  175.53 | X-H torsion
[ 8008 7997 7996 7995 ] final  -14.42 input   59.86 | X-H torsion
[ 10167 10162 10161 10158 ] final   38.69 input  -65.29 | X-H torsion
[ 10718 10713 10712 10709 ] final   11.88 input   66.30 | X-H torsion
[ 10763 10752 10751 10750 ] final  -34.58 input  -60.55 | X-H torsion
[ 11005 11000 10999 10996 ] final  -50.94 input  -57.11 | X-H torsion

> <Gold.Protein.ActiveResidues>
 VAL166  LYS551  ARG553  GLY616  TRP617  ASP618  TYR619  PRO620  LYS621  CYS622 
 ASP623  PHE694  ASN695  SER759  ASP760  ASP761  ALA762  ILE779  LEU786  VAL792 
 PHE793  MET794  SER795  GLU796  ALA797  LYS798  CYS799  TRP800  GLU811  SER814 

> <Gold.Protein.RotatedAtoms>
  151.3015  135.0770  159.9239 H   0  0  0  0  0  0  0  0  0  0  0  0  # atno 6907 bound_to 6896
  152.5296  133.9829  159.7825 H   0  0  0  0  0  0  0  0  0  0  0  0  # atno 6908 bound_to 6896
  151.0116  133.5908  159.2712 H   0  0  0  0  0  0  0  0  0  0  0  0  # atno 6909 bound_to 6896
  146.2134  140.3125  142.8383 H   0  0  0  0  0  0  0  0  0  0  0  0  # atno 7974 bound_to 7965
  154.5212  140.2223  155.8973 H   0  0  0  0  0  0  0  0  0  0  0  0  # atno 8008 bound_to 7997
  156.1664  140.3131  155.8860 H   0  0  0  0  0  0  0  0  0  0  0  0  # atno 8009 bound_to 7997
  155.3648  140.0463  157.3037 H   0  0  0  0  0  0  0  0  0  0  0  0  # atno 8010 bound_to 7997
  140.3912  144.1849  150.6131 H   0  0  0  0  0  0  0  0  0  0  0  0  # atno 10167 bound_to 10162
  157.0020  130.6083  149.5697 H   0  0  0  0  0  0  0  0  0  0  0  0  # atno 10718 bound_to 10713
  153.8490  135.6850  153.4794 H   0  0  0  0  0  0  0  0  0  0  0  0  # atno 10763 bound_to 10752
  153.1408  135.4658  154.9491 H   0  0  0  0  0  0  0  0  0  0  0  0  # atno 10764 bound_to 10752
  154.7811  135.3269  154.7935 H   0  0  0  0  0  0  0  0  0  0  0  0  # atno 10765 bound_to 10752
  141.0844  133.6646  156.3805 H   0  0  0  0  0  0  0  0  0  0  0  0  # atno 11005 bound_to 11000
  144.8978  140.7605  143.5886 LP  0  0  0  0  0  0  0  0  0  0  0  0  # atno 17320 bound_to 7965
  145.3050  139.1837  143.4669 LP  0  0  0  0  0  0  0  0  0  0  0  0  # atno 17321 bound_to 7965
  140.4837  143.2370  151.8918 LP  0  0  0  0  0  0  0  0  0  0  0  0  # atno 17342 bound_to 10162
  139.4789  144.5241  151.8760 LP  0  0  0  0  0  0  0  0  0  0  0  0  # atno 17343 bound_to 10162
  156.0167  130.5262  150.8156 LP  0  0  0  0  0  0  0  0  0  0  0  0  # atno 17370 bound_to 10713
  157.5383  131.0939  150.9862 LP  0  0  0  0  0  0  0  0  0  0  0  0  # atno 17371 bound_to 10713
  140.5396  134.6133  157.5376 LP  0  0  0  0  0  0  0  0  0  0  0  0  # atno 17394 bound_to 11000
  139.9661  134.7371  156.0136 LP  0  0  0  0  0  0  0  0  0  0  0  0  # atno 17395 bound_to 11000

$$$$
