AV-unprocessed.smi:652|AV-procd|sdf|3201|dock5
  -GOLD-   22720 0133D 1   1.00000     0.00000
 Structure written by MMmdl.
 49 50  0  0  0  0  0  0  0  0  3 V2000
  152.2111  145.1084  158.7838 C   0  0  0  0  0  0  0  0  0  0  0  0
  151.9237  143.6483  159.1583 C   0  0  0  0  0  0  0  0  0  0  0  0
  153.2029  142.7963  159.1357 C   0  0  0  0  0  0  0  0  0  0  0  0
  150.9252  143.1006  158.2439 N   0  0  0  0  0  0  0  0  0  0  0  0
  150.5972  141.8035  158.1360 C   0  0  0  0  0  0  0  0  0  0  0  0
  151.1210  140.9160  158.8098 O   0  0  0  0  0  0  0  0  0  0  0  0
  149.5195  141.4679  157.0995 C   0  0  0  0  0  0  0  0  0  0  0  0
  150.0775  141.2981  155.6706 C   0  0  0  0  0  0  0  0  0  0  0  0
  149.0110  141.0725  154.6628 N   0  3  2  0  0  0  0  0  0  0  0  0
  148.0379  142.1893  154.6187 C   0  0  0  0  0  0  0  0  0  0  0  0
  146.9769  141.9380  153.5358 C   0  0  0  0  0  0  0  0  0  0  0  0
  146.3319  140.6950  153.7838 O   0  0  0  0  0  0  0  0  0  0  0  0
  147.2330  139.5950  153.7287 C   0  0  2  0  0  0  0  0  0  0  0  0
  146.4041  138.3132  153.9122 C   0  0  0  0  0  0  0  0  0  0  0  0
  146.7646  137.2824  152.9495 N   0  0  0  0  0  0  0  0  0  0  0  0
  145.7780  136.5005  152.3342 C   0  0  0  0  0  0  0  0  0  0  0  0
  144.3915  136.6339  152.5796 C   0  0  0  0  0  0  0  0  0  0  0  0
  143.5086  135.7836  151.8926 C   0  0  0  0  0  0  0  0  0  0  0  0
  144.0646  134.8505  150.9999 C   0  0  0  0  0  0  0  0  0  0  0  0
  145.3936  134.7385  150.7792 N   0  0  0  0  0  0  0  0  0  0  0  0
  146.2126  135.5661  151.4517 N   0  3  0  0  0  0  0  0  0  0  0  0
  148.3037  139.7773  154.8262 C   0  0  0  0  0  0  0  0  0  0  0  0
  152.9307  145.5541  159.4711 H   0  0  0  0  0  0  0  0  0  0  0  0
  151.3033  145.7112  158.8230 H   0  0  0  0  0  0  0  0  0  0  0  0
  152.6213  145.1876  157.7765 H   0  0  0  0  0  0  0  0  0  0  0  0
  151.5177  143.6395  160.1715 H   0  0  0  0  0  0  0  0  0  0  0  0
  153.9535  143.2009  159.8152 H   0  0  0  0  0  0  0  0  0  0  0  0
  153.6416  142.7638  158.1379 H   0  0  0  0  0  0  0  0  0  0  0  0
  153.0027  141.7701  159.4453 H   0  0  0  0  0  0  0  0  0  0  0  0
  150.4473  143.7624  157.6494 H   0  0  0  0  0  0  0  0  0  0  0  0
  149.0220  140.5472  157.4079 H   0  0  0  0  0  0  0  0  0  0  0  0
  148.7703  142.2589  157.1301 H   0  0  0  0  0  0  0  0  0  0  0  0
  150.6792  142.1621  155.3828 H   0  0  0  0  0  0  0  0  0  0  0  0
  150.7472  140.4359  155.6596 H   0  0  0  0  0  0  0  0  0  0  0  0
  147.5586  142.2959  155.5932 H   0  0  0  0  0  0  0  0  0  0  0  0
  148.5561  143.1265  154.4119 H   0  0  0  0  0  0  0  0  0  0  0  0
  146.2303  142.7322  153.5505 H   0  0  0  0  0  0  0  0  0  0  0  0
  147.4247  141.9400  152.5407 H   0  0  0  0  0  0  0  0  0  0  0  0
  147.7046  139.5761  152.7441 H   0  0  0  0  0  0  0  0  0  0  0  0
  146.5274  137.9315  154.9265 H   0  0  0  0  0  0  0  0  0  0  0  0
  145.3466  138.5470  153.7829 H   0  0  0  0  0  0  0  0  0  0  0  0
  147.7362  137.1528  152.7073 H   0  0  0  0  0  0  0  0  0  0  0  0
  144.0004  137.3638  153.2726 H   0  0  0  0  0  0  0  0  0  0  0  0
  142.4409  135.8437  152.0434 H   0  0  0  0  0  0  0  0  0  0  0  0
  143.4283  134.1751  150.4469 H   0  0  0  0  0  0  0  0  0  0  0  0
  149.0162  138.9547  154.7762 H   0  0  0  0  0  0  0  0  0  0  0  0
  147.8405  139.7390  155.8136 H   0  0  0  0  0  0  0  0  0  0  0  0
  149.4634  141.0549  153.7597 H   0  0  0  0  0  0  0  0  0  0  0  0
  147.2165  135.4868  151.2887 H   0  0  0  0  0  0  0  0  0  0  0  0
  1  2  1  0  0  0  0
  1 23  1  0  0  0  0
  1 24  1  0  0  0  0
  1 25  1  0  0  0  0
  2  3  1  0  0  0  0
  2  4  1  0  0  0  0
  2 26  1  0  0  0  0
  3 27  1  0  0  0  0
  3 28  1  0  0  0  0
  3 29  1  0  0  0  0
  4  5  1  0  0  0  0
  4 30  1  0  0  0  0
  5  6  2  0  0  0  0
  5  7  1  0  0  0  0
  7  8  1  0  0  0  0
  7 31  1  0  0  0  0
  7 32  1  0  0  0  0
  8  9  1  0  0  0  0
  8 33  1  0  0  0  0
  8 34  1  0  0  0  0
  9 22  1  0  0  0  0
  9 10  1  0  0  0  0
  9 48  1  0  0  0  0
 10 11  1  0  0  0  0
 10 35  1  0  0  0  0
 10 36  1  0  0  0  0
 11 12  1  0  0  0  0
 11 37  1  0  0  0  0
 11 38  1  0  0  0  0
 12 13  1  0  0  0  0
 13 14  1  0  0  0  0
 13 22  1  0  0  0  0
 13 39  1  0  0  0  0
 14 15  1  0  0  0  0
 14 40  1  0  0  0  0
 14 41  1  0  0  0  0
 15 16  1  0  0  0  0
 15 42  1  0  0  0  0
 16 21  1  0  0  0  0
 16 17  2  0  0  0  0
 17 18  1  0  0  0  0
 17 43  1  0  0  0  0
 18 19  2  0  0  0  0
 18 44  1  0  0  0  0
 19 20  1  0  0  0  0
 19 45  1  0  0  0  0
 20 21  2  0  0  0  0
 21 49  1  0  0  0  0
 22 46  1  0  0  0  0
 22 47  1  0  0  0  0
M  CHG  1   9   1
M  CHG  1  21   1
M  END
> <s_m_source_file>
AV-unprocessed.smi

> <i_m_source_file_index>
652

> <i_lp_mmshare_version>
43012

> <i_f3d_flags>
0

> <s_epik_input>
W0NIM11bQ0hdKFtDSDNdKVtOSF1DKD1PKVtDSDJdW0NIMl1OMVtDSDJdW0NIMl1PW0NASF0oW0NIMl0xKVtDSDJdW05IXWMyW2NIXVtjSF1bY0hdbm4y

> <s_epik_cmdline>
J2VwaWtfcHl0aG9uJywgJy1waCcsICc3LjAnLCAnLXRuJywgJzgnLCAnLW1hJywgJzIwMCcsICctbWV0YWxfYmluZGluZycsICctaW1hZScsICc8aW5maWxlLm1hZT4nLCAnLW9tYWUnLCAnPG91dGZpbGUubWFlPic=

> <r_lp_tautomer_probability>
0.966961

> <r_epik_Ionization_Penalty>
2.79885

> <r_epik_Ionization_Penalty_Charging>
2.79884

> <r_epik_Ionization_Penalty_Neutral>
3.2567e-06

> <r_epik_State_Penalty>
2.43203

> <r_epik_Charging_Adjusted_Penalty>
5.23087

> <i_epik_Tot_Q>
2

> <i_epik_Tot_abs_Q>
2

> <r_epik_Metal_State_Penalty>
2.43963

> <b_epik_Metal_Only>
0

> <s_lp_Force_Field>
OPLS_2005

> <r_lp_Energy>
30.0621

> <b_lp_Chiralities_Consistent>
1

> <s_lp_Variant>
AV-unprocessed.smi:652-10

> <Gold.Version>
5.8.1

> <Gold.Id.Protein>
6NUR|6NUR_protein|mol2

> <Gold.PLP.Fitness>
44.9656

> <Gold.PLP.PLP>
-33.3450

> <Gold.PLP.part.hbond>
-2.0000

> <Gold.PLP.part.metal>
0.0000

> <Gold.PLP.part.buried>
-5.7699

> <Gold.PLP.part.nonpolar>
-28.6934

> <Gold.PLP.part.repulsive>
1.7644

> <Gold.PLP.ligand.clash>
0.0000

> <Gold.PLP.ligand.torsion>
1.2966

> <Gold.PLP.Chemscore.Hbond>
3.7440

> <Gold.PLP.Chemscore.CHOScore>
0.9641

> <Gold.PLP.Chemscore.Metal>
0.0000

> <Gold.Chemscore.Hbonds>
donor molecule, donor type, donor heavy atom, donor atom, acceptor molecule, acceptor atom, score
      L1  H    15    42       P1  7948  1.95
      L1  H    21    49       P1  7948  1.76
      L1  C    19    45       P1 10186  0.85

> <Gold.PLP.Chemscore.Internal.Correction>
0.0893

> <Gold.Rescore>
     Score         DG    S(hbond)    S(metal)    S(lipo)     H(rot)  DE(clash)    DE(int)     intcor
     12.44     -15.69       1.78        0.00      87.38       2.33       1.01       2.24       ----

> <Gold.Chemscore.Fitness>
12.4385

> <Gold.Chemscore.DG>
-15.6913

> <Gold.Chemscore.ZeroCoef>
-5.4800

> <Gold.Chemscore.Hbond>
1.7840

> <Gold.Chemscore.Metal>
0.0000

> <Gold.Chemscore.Lipo>
87.3844

> <Gold.Chemscore.Internal_Hbond>
0.0000

> <Gold.Chemscore.DEClash>
1.0140

> <Gold.Chemscore.DEInternal>
2.2387

> <Gold.Chemscore.Rot>
2.3326

> <Gold.Chemscore.Internal.Correction>
   9.000000E+99

> <Gold.Chemscore.Hbonds>
donor molecule, donor type, donor heavy atom, donor atom, acceptor molecule, acceptor atom, score
      L1  H    15    42       P1  7948  0.93
      L1  H    21    49       P1  7948  0.78

> <Gold.Chemscore.Hbond.Weighted>
-5.9587

> <Gold.Chemscore.Metal.Weighted>
-0.0000

> <Gold.Chemscore.Lipo.Weighted>
-10.2240

> <Gold.Chemscore.Internal_Hbond.Weighted>
0.0000

> <Gold.Chemscore.DEClash.Weighted>
1.0140

> <Gold.Chemscore.DEInternal.Weighted>
2.2387

> <Gold.Chemscore.Rot.Weighted>
5.9714

> <Gold.Chemscore.Internal.Correction.Weighted>
   9.000000E+99

> <Gold.Protein.RotatedTorsions>
[ 6907 6896 6895 6894 ] final  -22.81 input  -60.11 | X-H torsion
[ 7974 7965 7964 7962 ] final  -22.43 input  175.53 | X-H torsion
[ 8008 7997 7996 7995 ] final -125.31 input   59.86 | X-H torsion
[ 10167 10162 10161 10158 ] final -129.84 input  -65.29 | X-H torsion
[ 10718 10713 10712 10709 ] final  -98.13 input   66.30 | X-H torsion
[ 10763 10752 10751 10750 ] final  171.05 input  -60.55 | X-H torsion
[ 11005 11000 10999 10996 ] final  148.88 input  -57.11 | X-H torsion

> <Gold.Protein.ActiveResidues>
 VAL166  LYS551  ARG553  GLY616  TRP617  ASP618  TYR619  PRO620  LYS621  CYS622 
 ASP623  PHE694  ASN695  SER759  ASP760  ASP761  ALA762  ILE779  LEU786  VAL792 
 PHE793  MET794  SER795  GLU796  ALA797  LYS798  CYS799  TRP800  GLU811  SER814 

> <Gold.Protein.RotatedAtoms>
  151.2132  135.0489  159.8919 H   0  0  0  0  0  0  0  0  0  0  0  0  # atno 6907 bound_to 6896
  152.5422  134.0722  159.8209 H   0  0  0  0  0  0  0  0  0  0  0  0  # atno 6908 bound_to 6896
  151.0878  133.5292  159.2648 H   0  0  0  0  0  0  0  0  0  0  0  0  # atno 6909 bound_to 6896
  146.1676  140.4478  142.8545 H   0  0  0  0  0  0  0  0  0  0  0  0  # atno 7974 bound_to 7965
  155.2113  140.0419  157.2934 H   0  0  0  0  0  0  0  0  0  0  0  0  # atno 8008 bound_to 7997
  154.6010  140.2452  155.7764 H   0  0  0  0  0  0  0  0  0  0  0  0  # atno 8009 bound_to 7997
  156.2321  140.2934  156.0224 H   0  0  0  0  0  0  0  0  0  0  0  0  # atno 8010 bound_to 7997
  139.9355  143.6222  152.2518 H   0  0  0  0  0  0  0  0  0  0  0  0  # atno 10167 bound_to 10162
  156.0100  130.5224  150.6477 H   0  0  0  0  0  0  0  0  0  0  0  0  # atno 10718 bound_to 10713
  154.4063  135.2755  155.2065 H   0  0  0  0  0  0  0  0  0  0  0  0  # atno 10763 bound_to 10752
  154.4069  135.6031  153.5933 H   0  0  0  0  0  0  0  0  0  0  0  0  # atno 10764 bound_to 10752
  152.9831  135.5940  154.4339 H   0  0  0  0  0  0  0  0  0  0  0  0  # atno 10765 bound_to 10752
  140.0997  134.8990  157.1778 H   0  0  0  0  0  0  0  0  0  0  0  0  # atno 11005 bound_to 11000
  144.8115  140.6393  143.6412 LP  0  0  0  0  0  0  0  0  0  0  0  0  # atno 17320 bound_to 7965
  145.4427  139.1533  143.3962 LP  0  0  0  0  0  0  0  0  0  0  0  0  # atno 17321 bound_to 7965
  139.6747  144.7659  151.1718 LP  0  0  0  0  0  0  0  0  0  0  0  0  # atno 17342 bound_to 10162
  140.7625  143.5813  150.8892 LP  0  0  0  0  0  0  0  0  0  0  0  0  # atno 17343 bound_to 10162
  157.4245  131.0841  151.1099 LP  0  0  0  0  0  0  0  0  0  0  0  0  # atno 17370 bound_to 10713
  157.1691  130.6259  149.5635 LP  0  0  0  0  0  0  0  0  0  0  0  0  # atno 17371 bound_to 10713
  140.3236  134.2888  155.7241 LP  0  0  0  0  0  0  0  0  0  0  0  0  # atno 17394 bound_to 11000
  141.2102  133.7726  156.9946 LP  0  0  0  0  0  0  0  0  0  0  0  0  # atno 17395 bound_to 11000

$$$$
