AV-unprocessed.smi:905|AV-procd|sdf|4099|dock8
  -GOLD-   22720 1593D 1   1.00000     0.00000
 Structure written by MMmdl.
 37 38  0  0  0  0  0  0  0  0  1 V2000
  151.6487  138.1511  154.2635 N   0  0  0  0  0  0  0  0  0  0  0  0
  150.4820  138.9322  154.2333 C   0  0  0  0  0  0  0  0  0  0  0  0
  150.5010  140.2535  154.3444 N   0  0  0  0  0  0  0  0  0  0  0  0
  149.1458  140.6035  154.2574 O   0  0  0  0  0  0  0  0  0  0  0  0
  148.4710  139.4365  154.1216 C   0  0  0  0  0  0  0  0  0  0  0  0
  146.9890  139.4768  153.9564 C   0  0  0  0  0  0  0  0  0  0  0  0
  146.5455  139.0672  152.5422 C   0  0  0  0  0  0  0  0  0  0  0  0
  146.8143  137.6581  152.2787 N   0  0  0  0  0  0  0  0  0  0  0  0
  145.8789  136.6997  152.2233 C   0  0  0  0  0  0  0  0  0  0  0  0
  144.6764  136.9015  152.3933 O   0  0  0  0  0  0  0  0  0  0  0  0
  146.4100  135.4961  151.9657 N   0  0  0  0  0  0  0  0  0  0  0  0
  145.6532  134.2528  151.8507 C   0  0  0  0  0  0  0  0  0  0  0  0
  146.6007  133.0586  151.6110 C   0  0  0  0  0  0  0  0  0  0  0  0
  145.8175  131.7503  151.4159 C   0  0  0  0  0  0  0  0  0  0  0  0
  144.7903  131.8775  150.2800 C   0  0  0  0  0  0  0  0  0  0  0  0
  143.8430  133.0641  150.5184 C   0  0  0  0  0  0  0  0  0  0  0  0
  144.6266  134.3729  150.7084 C   0  0  0  0  0  0  0  0  0  0  0  0
  149.2563  138.3625  154.0818 N   0  0  0  0  0  0  0  0  0  0  0  0
  151.5926  137.1471  154.1723 H   0  0  0  0  0  0  0  0  0  0  0  0
  152.5534  138.5881  154.3635 H   0  0  0  0  0  0  0  0  0  0  0  0
  146.5374  138.8167  154.6981 H   0  0  0  0  0  0  0  0  0  0  0  0
  146.6466  140.4862  154.1874 H   0  0  0  0  0  0  0  0  0  0  0  0
  145.4835  139.2750  152.3995 H   0  0  0  0  0  0  0  0  0  0  0  0
  147.0806  139.6600  151.7994 H   0  0  0  0  0  0  0  0  0  0  0  0
  147.7772  137.3967  152.1244 H   0  0  0  0  0  0  0  0  0  0  0  0
  147.4098  135.4328  151.8414 H   0  0  0  0  0  0  0  0  0  0  0  0
  145.1047  134.0851  152.7798 H   0  0  0  0  0  0  0  0  0  0  0  0
  147.2161  133.2459  150.7300 H   0  0  0  0  0  0  0  0  0  0  0  0
  147.2889  132.9481  152.4499 H   0  0  0  0  0  0  0  0  0  0  0  0
  146.5072  130.9327  151.2037 H   0  0  0  0  0  0  0  0  0  0  0  0
  145.3060  131.4902  152.3436 H   0  0  0  0  0  0  0  0  0  0  0  0
  145.3101  132.0099  149.3303 H   0  0  0  0  0  0  0  0  0  0  0  0
  144.2163  130.9545  150.1922 H   0  0  0  0  0  0  0  0  0  0  0  0
  143.1521  133.1626  149.6807 H   0  0  0  0  0  0  0  0  0  0  0  0
  143.2325  132.8729  151.4021 H   0  0  0  0  0  0  0  0  0  0  0  0
  143.9320  135.1886  150.9134 H   0  0  0  0  0  0  0  0  0  0  0  0
  145.1351  134.6268  149.7769 H   0  0  0  0  0  0  0  0  0  0  0  0
  1  2  1  0  0  0  0
  1 19  1  0  0  0  0
  1 20  1  0  0  0  0
  2 18  1  0  0  0  0
  2  3  2  0  0  0  0
  3  4  1  0  0  0  0
  4  5  1  0  0  0  0
  5  6  1  0  0  0  0
  5 18  2  0  0  0  0
  6  7  1  0  0  0  0
  6 21  1  0  0  0  0
  6 22  1  0  0  0  0
  7  8  1  0  0  0  0
  7 23  1  0  0  0  0
  7 24  1  0  0  0  0
  8  9  1  0  0  0  0
  8 25  1  0  0  0  0
  9 10  2  0  0  0  0
  9 11  1  0  0  0  0
 11 12  1  0  0  0  0
 11 26  1  0  0  0  0
 12 17  1  0  0  0  0
 12 13  1  0  0  0  0
 12 27  1  0  0  0  0
 13 14  1  0  0  0  0
 13 28  1  0  0  0  0
 13 29  1  0  0  0  0
 14 15  1  0  0  0  0
 14 30  1  0  0  0  0
 14 31  1  0  0  0  0
 15 16  1  0  0  0  0
 15 32  1  0  0  0  0
 15 33  1  0  0  0  0
 16 17  1  0  0  0  0
 16 34  1  0  0  0  0
 16 35  1  0  0  0  0
 17 36  1  0  0  0  0
 17 37  1  0  0  0  0
M  END
> <s_m_source_file>
AV-unprocessed.smi

> <i_m_source_file_index>
905

> <i_lp_mmshare_version>
43012

> <i_f3d_flags>
0

> <s_epik_input>
W05IMl1jMW5vYyhuMSlbQ0gyXVtDSDJdW05IXUMoPU8pW05IXVtDSF0yW0NIMl1bQ0gyXVtDSDJdW0NIMl1bQ0gyXTI=

> <s_epik_cmdline>
J2VwaWtfcHl0aG9uJywgJy1waCcsICc3LjAnLCAnLXRuJywgJzgnLCAnLW1hJywgJzIwMCcsICctbWV0YWxfYmluZGluZycsICctaW1hZScsICc8aW5maWxlLm1hZT4nLCAnLW9tYWUnLCAnPG91dGZpbGUubWFlPic=

> <r_lp_tautomer_probability>
1

> <r_epik_Ionization_Penalty>
0.000203748

> <r_epik_Ionization_Penalty_Charging>
0

> <r_epik_Ionization_Penalty_Neutral>
0.000203748

> <r_epik_State_Penalty>
-0

> <r_epik_Charging_Adjusted_Penalty>
0

> <i_epik_Tot_Q>
0

> <i_epik_Tot_abs_Q>
0

> <r_epik_Metal_State_Penalty>
-0

> <b_epik_Metal_Only>
0

> <s_lp_Force_Field>
OPLS_2005

> <r_lp_Energy>
0.830847

> <b_lp_Chiralities_Consistent>
1

> <s_lp_Variant>
AV-unprocessed.smi:905-1

> <Gold.Version>
5.8.1

> <Gold.Id.Protein>
6NUR|6NUR_protein|mol2

> <Gold.PLP.Fitness>
38.7430

> <Gold.PLP.PLP>
-30.0584

> <Gold.PLP.part.hbond>
-3.0000

> <Gold.PLP.part.metal>
0.0000

> <Gold.PLP.part.buried>
-5.7493

> <Gold.PLP.part.nonpolar>
-23.0955

> <Gold.PLP.part.repulsive>
1.1248

> <Gold.PLP.ligand.clash>
0.0000

> <Gold.PLP.ligand.torsion>
0.1538

> <Gold.PLP.Chemscore.Hbond>
2.9920

> <Gold.PLP.Chemscore.CHOScore>
0.0000

> <Gold.PLP.Chemscore.Metal>
0.0000

> <Gold.Chemscore.Hbonds>
donor molecule, donor type, donor heavy atom, donor atom, acceptor molecule, acceptor atom, score
      L1  H     8    25       P1  7948  1.00
      L1  H    11    26       P1  7948  0.99
      P1  H  7989  7998       L1     3  1.00

> <Gold.PLP.Chemscore.Internal.Correction>
0.0163

> <Gold.Rescore>
     Score         DG    S(hbond)    S(metal)    S(lipo)     H(rot)  DE(clash)    DE(int)     intcor
     14.43     -15.83       2.83        0.00      59.87       2.39       0.34       1.06       ----

> <Gold.Chemscore.Fitness>
14.4325

> <Gold.Chemscore.DG>
-15.8311

> <Gold.Chemscore.ZeroCoef>
-5.4800

> <Gold.Chemscore.Hbond>
2.8310

> <Gold.Chemscore.Metal>
0.0000

> <Gold.Chemscore.Lipo>
59.8704

> <Gold.Chemscore.Internal_Hbond>
0.0000

> <Gold.Chemscore.DEClash>
0.3393

> <Gold.Chemscore.DEInternal>
1.0593

> <Gold.Chemscore.Rot>
2.3865

> <Gold.Chemscore.Internal.Correction>
   9.000000E+99

> <Gold.Chemscore.Hbonds>
donor molecule, donor type, donor heavy atom, donor atom, acceptor molecule, acceptor atom, score
      L1  H     8    25       P1  7948  0.95
      L1  H    11    26       P1  7948  0.94
      P1  H  7989  7998       L1     3  0.75

> <Gold.Chemscore.Hbond.Weighted>
-9.4557

> <Gold.Chemscore.Metal.Weighted>
-0.0000

> <Gold.Chemscore.Lipo.Weighted>
-7.0048

> <Gold.Chemscore.Internal_Hbond.Weighted>
0.0000

> <Gold.Chemscore.DEClash.Weighted>
0.3393

> <Gold.Chemscore.DEInternal.Weighted>
1.0593

> <Gold.Chemscore.Rot.Weighted>
6.1093

> <Gold.Chemscore.Internal.Correction.Weighted>
   9.000000E+99

> <Gold.Protein.RotatedTorsions>
[ 6907 6896 6895 6894 ] final  127.86 input  -60.11 | X-H torsion
[ 7974 7965 7964 7962 ] final -128.85 input  175.53 | X-H torsion
[ 8008 7997 7996 7995 ] final  -35.56 input   59.86 | X-H torsion
[ 10167 10162 10161 10158 ] final  -57.28 input  -65.29 | X-H torsion
[ 10718 10713 10712 10709 ] final  151.21 input   66.30 | X-H torsion
[ 10763 10752 10751 10750 ] final   83.42 input  -60.55 | X-H torsion
[ 11005 11000 10999 10996 ] final -178.79 input  -57.11 | X-H torsion

> <Gold.Protein.ActiveResidues>
 VAL166  LYS551  ARG553  GLY616  TRP617  ASP618  TYR619  PRO620  LYS621  CYS622 
 ASP623  PHE694  ASN695  SER759  ASP760  ASP761  ALA762  ILE779  LEU786  VAL792 
 PHE793  MET794  SER795  GLU796  ALA797  LYS798  CYS799  TRP800  GLU811  SER814 

> <Gold.Protein.RotatedAtoms>
  152.3773  133.6498  159.6133 H   0  0  0  0  0  0  0  0  0  0  0  0  # atno 6907 bound_to 6896
  150.7714  133.9172  159.3396 H   0  0  0  0  0  0  0  0  0  0  0  0  # atno 6908 bound_to 6896
  151.6984  135.0935  160.0297 H   0  0  0  0  0  0  0  0  0  0  0  0  # atno 6909 bound_to 6896
  144.9629  140.7466  143.4718 H   0  0  0  0  0  0  0  0  0  0  0  0  # atno 7974 bound_to 7965
  154.4093  140.1654  156.2231 H   0  0  0  0  0  0  0  0  0  0  0  0  # atno 8008 bound_to 7997
  155.9346  140.3412  155.6254 H   0  0  0  0  0  0  0  0  0  0  0  0  # atno 8009 bound_to 7997
  155.7064  140.0751  157.2380 H   0  0  0  0  0  0  0  0  0  0  0  0  # atno 8010 bound_to 7997
  140.6267  143.2441  151.5345 H   0  0  0  0  0  0  0  0  0  0  0  0  # atno 10167 bound_to 10162
  157.2737  131.0822  151.1582 H   0  0  0  0  0  0  0  0  0  0  0  0  # atno 10718 bound_to 10713
  153.1290  135.4692  154.9318 H   0  0  0  0  0  0  0  0  0  0  0  0  # atno 10763 bound_to 10752
  154.7646  135.3141  154.8313 H   0  0  0  0  0  0  0  0  0  0  0  0  # atno 10764 bound_to 10752
  153.8859  135.6889  153.4817 H   0  0  0  0  0  0  0  0  0  0  0  0  # atno 10765 bound_to 10752
  140.4258  134.6564  157.4687 H   0  0  0  0  0  0  0  0  0  0  0  0  # atno 11005 bound_to 11000
  145.2672  139.1968  143.4860 LP  0  0  0  0  0  0  0  0  0  0  0  0  # atno 17320 bound_to 7965
  146.3359  140.2613  142.8602 LP  0  0  0  0  0  0  0  0  0  0  0  0  # atno 17321 bound_to 7965
  139.5486  144.2454  152.1489 LP  0  0  0  0  0  0  0  0  0  0  0  0  # atno 17342 bound_to 10162
  140.1687  144.4956  150.6591 LP  0  0  0  0  0  0  0  0  0  0  0  0  # atno 17343 bound_to 10162
  157.3043  130.6858  149.6181 LP  0  0  0  0  0  0  0  0  0  0  0  0  # atno 17370 bound_to 10713
  155.9663  130.4382  150.5209 LP  0  0  0  0  0  0  0  0  0  0  0  0  # atno 17371 bound_to 10713
  140.0168  134.6607  155.9298 LP  0  0  0  0  0  0  0  0  0  0  0  0  # atno 17394 bound_to 11000
  141.1765  133.6541  156.4851 LP  0  0  0  0  0  0  0  0  0  0  0  0  # atno 17395 bound_to 11000

$$$$
