AV-unprocessed.smi:752|AV-procd|sdf|3598|dock3
  -GOLD-   22720 0593D 1   1.00000     0.00000
 Structure written by MMmdl.
 41 42  0  0  0  0  0  0  0  0  1 V2000
  147.4490  137.1263  163.2457 C   0  0  0  0  0  0  0  0  0  0  0  0
  147.3870  135.7886  162.5010 C   0  0  0  0  0  0  0  0  0  0  0  0
  147.7630  135.9151  161.0628 C   0  0  0  0  0  0  0  0  0  0  0  0
  147.9379  137.0874  160.4477 N   0  0  0  0  0  0  0  0  0  0  0  0
  148.2800  136.9432  159.0985 C   0  0  0  0  0  0  0  0  0  0  0  0
  148.5824  138.1566  158.2662 C   0  0  0  0  0  0  0  0  0  0  0  0
  150.0604  138.5124  158.4246 C   0  0  0  0  0  0  0  0  0  0  0  0
  150.8150  137.7606  159.0412 O   0  0  0  0  0  0  0  0  0  0  0  0
  150.4448  139.6892  157.9067 N   0  0  0  0  0  0  0  0  0  0  0  0
  151.7171  140.3463  158.1800 C   0  0  0  0  0  0  0  0  0  0  0  0
  151.5066  141.7834  158.7047 C   0  0  1  0  0  0  0  0  0  0  0  0
  152.6517  142.2118  159.6414 C   0  0  0  0  0  0  0  0  0  0  0  0
  152.4222  143.6259  160.1977 C   0  0  0  0  0  0  0  0  0  0  0  0
  152.2503  144.6542  159.0670 C   0  0  0  0  0  0  0  0  0  0  0  0
  151.1436  144.2495  158.0754 C   0  0  2  0  0  0  0  0  0  0  0  0
  149.8722  144.3748  158.6823 O   0  0  0  0  0  0  0  0  0  0  0  0
  151.3404  142.8118  157.5598 C   0  0  0  0  0  0  0  0  0  0  0  0
  148.3261  135.6324  158.6914 C   0  0  0  0  0  0  0  0  0  0  0  0
  147.9654  134.5331  159.9930 S   0  0  0  0  0  0  0  0  0  0  0  0
  147.1702  137.0023  164.2921 H   0  0  0  0  0  0  0  0  0  0  0  0
  146.7679  137.8539  162.8036 H   0  0  0  0  0  0  0  0  0  0  0  0
  148.4544  137.5470  163.2161 H   0  0  0  0  0  0  0  0  0  0  0  0
  148.0512  135.0661  162.9764 H   0  0  0  0  0  0  0  0  0  0  0  0
  146.3803  135.3746  162.5625 H   0  0  0  0  0  0  0  0  0  0  0  0
  148.3629  137.9679  157.2147 H   0  0  0  0  0  0  0  0  0  0  0  0
  147.9680  139.0064  158.5669 H   0  0  0  0  0  0  0  0  0  0  0  0
  149.7548  140.2288  157.4038 H   0  0  0  0  0  0  0  0  0  0  0  0
  152.2951  139.7572  158.8940 H   0  0  0  0  0  0  0  0  0  0  0  0
  152.2955  140.3662  157.2561 H   0  0  0  0  0  0  0  0  0  0  0  0
  150.5884  141.7863  159.2946 H   0  0  0  0  0  0  0  0  0  0  0  0
  152.7396  141.5067  160.4689 H   0  0  0  0  0  0  0  0  0  0  0  0
  153.6014  142.1791  159.1055 H   0  0  0  0  0  0  0  0  0  0  0  0
  151.5367  143.6283  160.8348 H   0  0  0  0  0  0  0  0  0  0  0  0
  153.2589  143.9135  160.8348 H   0  0  0  0  0  0  0  0  0  0  0  0
  152.0439  145.6406  159.4839 H   0  0  0  0  0  0  0  0  0  0  0  0
  153.1937  144.7445  158.5270 H   0  0  0  0  0  0  0  0  0  0  0  0
  151.1571  144.9354  157.2276 H   0  0  0  0  0  0  0  0  0  0  0  0
  149.4177  145.0998  158.2811 H   0  0  0  0  0  0  0  0  0  0  0  0
  152.2265  142.7818  156.9245 H   0  0  0  0  0  0  0  0  0  0  0  0
  150.5011  142.5458  156.9172 H   0  0  0  0  0  0  0  0  0  0  0  0
  148.5656  135.2485  157.7106 H   0  0  0  0  0  0  0  0  0  0  0  0
  1  2  1  0  0  0  0
  1 20  1  0  0  0  0
  1 21  1  0  0  0  0
  1 22  1  0  0  0  0
  2  3  1  0  0  0  0
  2 23  1  0  0  0  0
  2 24  1  0  0  0  0
  3 19  1  0  0  0  0
  3  4  2  0  0  0  0
  4  5  1  0  0  0  0
  5  6  1  0  0  0  0
  5 18  2  0  0  0  0
  6  7  1  0  0  0  0
  6 25  1  0  0  0  0
  6 26  1  0  0  0  0
  7  8  2  0  0  0  0
  7  9  1  0  0  0  0
  9 10  1  0  0  0  0
  9 27  1  0  0  0  0
 10 11  1  0  0  0  0
 10 28  1  0  0  0  0
 10 29  1  0  0  0  0
 11 17  1  0  0  0  0
 11 12  1  0  0  0  0
 11 30  1  0  0  0  0
 12 13  1  0  0  0  0
 12 31  1  0  0  0  0
 12 32  1  0  0  0  0
 13 14  1  0  0  0  0
 13 33  1  0  0  0  0
 13 34  1  0  0  0  0
 14 15  1  0  0  0  0
 14 35  1  0  0  0  0
 14 36  1  0  0  0  0
 15 16  1  0  0  0  0
 15 17  1  0  0  0  0
 15 37  1  0  0  0  0
 16 38  1  0  0  0  0
 17 39  1  0  0  0  0
 17 40  1  0  0  0  0
 18 19  1  0  0  0  0
 18 41  1  0  0  0  0
M  END
> <s_m_source_file>
AV-unprocessed.smi

> <i_m_source_file_index>
752

> <i_lp_mmshare_version>
43012

> <i_f3d_flags>
0

> <s_epik_input>
W0NIM11bQ0gyXWMxbmMoW2NIXXMxKVtDSDJdQyg9TylbTkhdW0NIMl1bQ0BASF0yW0NIMl1bQ0gyXVtDSDJdW0NAQEhdKFtPSF0pW0NIMl0y

> <s_epik_cmdline>
J2VwaWtfcHl0aG9uJywgJy1waCcsICc3LjAnLCAnLXRuJywgJzgnLCAnLW1hJywgJzIwMCcsICctbWV0YWxfYmluZGluZycsICctaW1hZScsICc8aW5maWxlLm1hZT4nLCAnLW9tYWUnLCAnPG91dGZpbGUubWFlPic=

> <r_lp_tautomer_probability>
1

> <r_epik_Ionization_Penalty>
5.44903e-05

> <r_epik_Ionization_Penalty_Charging>
0

> <r_epik_Ionization_Penalty_Neutral>
5.44903e-05

> <r_epik_State_Penalty>
-0

> <r_epik_Charging_Adjusted_Penalty>
0

> <i_epik_Tot_Q>
0

> <i_epik_Tot_abs_Q>
0

> <r_epik_Metal_State_Penalty>
-0

> <b_epik_Metal_Only>
0

> <s_lp_Force_Field>
OPLS_2005

> <r_lp_Energy>
4.32924

> <b_lp_Chiralities_Consistent>
1

> <s_lp_Variant>
AV-unprocessed.smi:752-4

> <Gold.Version>
5.8.1

> <Gold.Id.Protein>
6NUR|6NUR_protein|mol2

> <Gold.PLP.Fitness>
48.3504

> <Gold.PLP.PLP>
-42.2346

> <Gold.PLP.part.hbond>
-3.7858

> <Gold.PLP.part.metal>
0.0000

> <Gold.PLP.part.buried>
-3.7086

> <Gold.PLP.part.nonpolar>
-35.6819

> <Gold.PLP.part.repulsive>
0.1115

> <Gold.PLP.ligand.clash>
0.0000

> <Gold.PLP.ligand.torsion>
0.8407

> <Gold.PLP.Chemscore.Hbond>
2.5840

> <Gold.PLP.Chemscore.CHOScore>
0.0000

> <Gold.PLP.Chemscore.Metal>
0.0000

> <Gold.Chemscore.Hbonds>
donor molecule, donor type, donor heavy atom, donor atom, acceptor molecule, acceptor atom, score
      L1  H    16    38       P1  8029  1.00
      P1  H  6931  6943       L1     4  0.54
      P1  H  6934  6947       L1     4  0.62

> <Gold.PLP.Chemscore.Internal.Correction>
0.0452

> <Gold.Rescore>
     Score         DG    S(hbond)    S(metal)    S(lipo)     H(rot)  DE(clash)    DE(int)     intcor
     17.84     -18.98       1.81        0.00     109.40       2.08       0.34       0.80       ----

> <Gold.Chemscore.Fitness>
17.8441

> <Gold.Chemscore.DG>
-18.9835

> <Gold.Chemscore.ZeroCoef>
-5.4800

> <Gold.Chemscore.Hbond>
1.8081

> <Gold.Chemscore.Metal>
0.0000

> <Gold.Chemscore.Lipo>
109.3977

> <Gold.Chemscore.Internal_Hbond>
0.0000

> <Gold.Chemscore.DEClash>
0.3419

> <Gold.Chemscore.DEInternal>
0.7974

> <Gold.Chemscore.Rot>
2.0840

> <Gold.Chemscore.Internal.Correction>
   9.000000E+99

> <Gold.Chemscore.Hbonds>
donor molecule, donor type, donor heavy atom, donor atom, acceptor molecule, acceptor atom, score
      L1  H    16    38       P1  8029  0.47
      P1  H  6931  6943       L1     4  0.24
      P1  H  6934  6947       L1     4  0.52

> <Gold.Chemscore.Hbond.Weighted>
-6.0389

> <Gold.Chemscore.Metal.Weighted>
-0.0000

> <Gold.Chemscore.Lipo.Weighted>
-12.7995

> <Gold.Chemscore.Internal_Hbond.Weighted>
0.0000

> <Gold.Chemscore.DEClash.Weighted>
0.3419

> <Gold.Chemscore.DEInternal.Weighted>
0.7974

> <Gold.Chemscore.Rot.Weighted>
5.3350

> <Gold.Chemscore.Internal.Correction.Weighted>
   9.000000E+99

> <Gold.Protein.RotatedTorsions>
[ 6907 6896 6895 6894 ] final  -32.14 input  -60.11 | X-H torsion
[ 7974 7965 7964 7962 ] final -129.17 input  175.53 | X-H torsion
[ 8008 7997 7996 7995 ] final  171.91 input   59.86 | X-H torsion
[ 10167 10162 10161 10158 ] final -104.46 input  -65.29 | X-H torsion
[ 10718 10713 10712 10709 ] final  178.08 input   66.30 | X-H torsion
[ 10763 10752 10751 10750 ] final  151.70 input  -60.55 | X-H torsion
[ 11005 11000 10999 10996 ] final  157.08 input  -57.11 | X-H torsion

> <Gold.Protein.ActiveResidues>
 VAL166  LYS551  ARG553  GLY616  TRP617  ASP618  TYR619  PRO620  LYS621  CYS622 
 ASP623  PHE694  ASN695  SER759  ASP760  ASP761  ALA762  ILE779  LEU786  VAL792 
 PHE793  MET794  SER795  GLU796  ALA797  LYS798  CYS799  TRP800  GLU811  SER814 

> <Gold.Protein.RotatedAtoms>
  151.0827  134.9868  159.8363 H   0  0  0  0  0  0  0  0  0  0  0  0  # atno 6907 bound_to 6896
  152.5421  134.2161  159.8779 H   0  0  0  0  0  0  0  0  0  0  0  0  # atno 6908 bound_to 6896
  151.2193  133.4468  159.2633 H   0  0  0  0  0  0  0  0  0  0  0  0  # atno 6909 bound_to 6896
  144.9598  140.7435  143.4736 H   0  0  0  0  0  0  0  0  0  0  0  0  # atno 7974 bound_to 7965
  156.1226  140.1499  156.9183 H   0  0  0  0  0  0  0  0  0  0  0  0  # atno 8008 bound_to 7997
  154.4847  140.0869  156.7500 H   0  0  0  0  0  0  0  0  0  0  0  0  # atno 8009 bound_to 7997
  155.4402  140.3430  155.4291 H   0  0  0  0  0  0  0  0  0  0  0  0  # atno 8010 bound_to 7997
  140.2091  143.3760  152.1066 H   0  0  0  0  0  0  0  0  0  0  0  0  # atno 10167 bound_to 10162
  156.8959  130.9863  151.3043 H   0  0  0  0  0  0  0  0  0  0  0  0  # atno 10718 bound_to 10713
  154.1081  135.2841  155.3237 H   0  0  0  0  0  0  0  0  0  0  0  0  # atno 10763 bound_to 10752
  154.6509  135.5369  153.7904 H   0  0  0  0  0  0  0  0  0  0  0  0  # atno 10764 bound_to 10752
  153.0355  135.6510  154.1241 H   0  0  0  0  0  0  0  0  0  0  0  0  # atno 10765 bound_to 10752
  140.1735  134.8526  157.2719 H   0  0  0  0  0  0  0  0  0  0  0  0  # atno 11005 bound_to 11000
  145.2716  139.1952  143.4838 LP  0  0  0  0  0  0  0  0  0  0  0  0  # atno 17320 bound_to 7965
  146.3349  140.2664  142.8604 LP  0  0  0  0  0  0  0  0  0  0  0  0  # atno 17321 bound_to 7965
  139.5187  144.7009  151.5495 LP  0  0  0  0  0  0  0  0  0  0  0  0  # atno 17342 bound_to 10162
  140.6336  143.9027  150.6627 LP  0  0  0  0  0  0  0  0  0  0  0  0  # atno 17343 bound_to 10162
  157.6056  130.8544  149.8869 LP  0  0  0  0  0  0  0  0  0  0  0  0  # atno 17370 bound_to 10713
  156.0606  130.3700  150.0991 LP  0  0  0  0  0  0  0  0  0  0  0  0  # atno 17371 bound_to 10713
  140.2350  134.3864  155.7505 LP  0  0  0  0  0  0  0  0  0  0  0  0  # atno 17394 bound_to 11000
  141.2219  133.7234  156.8699 LP  0  0  0  0  0  0  0  0  0  0  0  0  # atno 17395 bound_to 11000

$$$$
