AV-unprocessed.smi:798|AV-procd|sdf|3781|dock3
  -GOLD-   22720 1213D 1   1.00000     0.00000
 Structure written by MMmdl.
 33 35  0  0  0  0  0  0  0  0  2 V2000
  150.4532  136.9303  159.3794 O   0  0  0  0  0  0  0  0  0  0  0  0
  149.4178  137.2750  158.8054 C   0  0  0  0  0  0  0  0  0  0  0  0
  148.1834  136.7582  159.0004 N   0  5  0  0  0  0  0  0  0  0  0  0
  147.8223  136.3218  160.2183 C   0  0  0  0  0  0  0  0  0  0  0  0
  147.5956  137.1594  161.2429 N   0  0  0  0  0  0  0  0  0  0  0  0
  147.2266  136.5059  162.4110 N   0  0  0  0  0  0  0  0  0  0  0  0
  147.1766  135.1858  162.2342 C   0  0  0  0  0  0  0  0  0  0  0  0
  147.5726  134.6212  160.6246 S   0  0  0  0  0  0  0  0  0  0  0  0
  149.4551  138.2433  157.8790 N   0  0  0  0  0  0  0  0  0  0  0  0
  150.6417  138.9871  157.4488 C   0  0  2  0  0  0  0  0  0  0  0  0
  150.5146  140.5067  157.7212 C   0  0  2  0  0  0  0  0  0  0  0  0
  149.1862  141.0686  157.1712 C   0  0  0  0  0  0  0  0  0  0  0  0
  149.3990  141.0019  155.6484 C   0  0  0  0  0  0  0  0  0  0  0  0
  150.8316  140.4417  155.5236 C   0  0  1  0  0  0  0  0  0  0  0  0
  151.5091  141.0925  156.7239 C   0  0  0  0  0  0  0  0  0  0  0  0
  150.9084  138.9453  155.9153 C   0  0  2  0  0  0  0  0  0  0  0  0
  150.0492  137.9801  155.0674 C   0  0  0  0  0  0  0  0  0  0  0  0
  150.6368  137.7818  153.7986 O   0  0  0  0  0  0  0  0  0  0  0  0
  146.9015  134.5409  163.0553 H   0  0  0  0  0  0  0  0  0  0  0  0
  148.5825  138.4883  157.4344 H   0  0  0  0  0  0  0  0  0  0  0  0
  151.5216  138.6145  157.9768 H   0  0  0  0  0  0  0  0  0  0  0  0
  150.6998  140.7774  158.7612 H   0  0  0  0  0  0  0  0  0  0  0  0
  148.3049  140.5167  157.4974 H   0  0  0  0  0  0  0  0  0  0  0  0
  149.0521  142.1037  157.4877 H   0  0  0  0  0  0  0  0  0  0  0  0
  148.6508  140.3910  155.1457 H   0  0  0  0  0  0  0  0  0  0  0  0
  149.3413  142.0020  155.2170 H   0  0  0  0  0  0  0  0  0  0  0  0
  151.3026  140.6636  154.5657 H   0  0  0  0  0  0  0  0  0  0  0  0
  151.4985  142.1835  156.6897 H   0  0  0  0  0  0  0  0  0  0  0  0
  152.5339  140.7520  156.8835 H   0  0  0  0  0  0  0  0  0  0  0  0
  151.9452  138.6307  155.7823 H   0  0  0  0  0  0  0  0  0  0  0  0
  149.9811  137.0097  155.5597 H   0  0  0  0  0  0  0  0  0  0  0  0
  149.0289  138.3395  154.9396 H   0  0  0  0  0  0  0  0  0  0  0  0
  149.9857  137.4096  153.2237 H   0  0  0  0  0  0  0  0  0  0  0  0
  1  2  2  0  0  0  0
  2  3  1  0  0  0  0
  2  9  1  0  0  0  0
  3  4  1  0  0  0  0
  4  8  1  0  0  0  0
  4  5  2  0  0  0  0
  5  6  1  0  0  0  0
  6  7  2  0  0  0  0
  7  8  1  0  0  0  0
  7 19  1  0  0  0  0
  9 10  1  0  0  0  0
  9 20  1  0  0  0  0
 10 16  1  0  0  0  0
 10 11  1  0  0  0  0
 10 21  1  0  0  0  0
 11 15  1  0  0  0  0
 11 12  1  0  0  0  0
 11 22  1  0  0  0  0
 12 13  1  0  0  0  0
 12 23  1  0  0  0  0
 12 24  1  0  0  0  0
 13 14  1  0  0  0  0
 13 25  1  0  0  0  0
 13 26  1  0  0  0  0
 14 15  1  0  0  0  0
 14 16  1  0  0  0  0
 14 27  1  0  0  0  0
 15 28  1  0  0  0  0
 15 29  1  0  0  0  0
 16 17  1  0  0  0  0
 16 30  1  0  0  0  0
 17 18  1  0  0  0  0
 17 31  1  0  0  0  0
 17 32  1  0  0  0  0
 18 33  1  0  0  0  0
M  CHG  1   3  -1
M  END
> <s_m_source_file>
AV-unprocessed.smi

> <i_m_source_file_index>
798

> <i_lp_mmshare_version>
43012

> <i_f3d_flags>
0

> <s_epik_input>
W0NIMl0xW0NIMl1bQ0BASF0oW0NIMl0yKVtDQEBIXShbQ0gyXVtPSF0pW0NAQEhdKFtDQEhdMTIpW05IXUMoPU8pW05IXWMzbm5bY0hdczM=

> <s_epik_cmdline>
J2VwaWtfcHl0aG9uJywgJy1waCcsICc3LjAnLCAnLXRuJywgJzgnLCAnLW1hJywgJzIwMCcsICctbWV0YWxfYmluZGluZycsICctaW1hZScsICc8aW5maWxlLm1hZT4nLCAnLW9tYWUnLCAnPG91dGZpbGUubWFlPic=

> <r_lp_tautomer_probability>
1

> <r_epik_Ionization_Penalty>
4.53732

> <r_epik_Ionization_Penalty_Charging>
4.48632

> <r_epik_Ionization_Penalty_Neutral>
0.0510007

> <r_epik_State_Penalty>
4.48602

> <r_epik_Charging_Adjusted_Penalty>
8.97234

> <i_epik_Tot_Q>
-1

> <i_epik_Tot_abs_Q>
1

> <r_epik_Metal_State_Penalty>
0.812492

> <b_epik_Metal_Only>
1

> <s_lp_Force_Field>
OPLS_2005

> <r_lp_Energy>
48.4267

> <b_lp_Chiralities_Consistent>
1

> <s_lp_Variant>
AV-unprocessed.smi:798-13

> <Gold.Version>
5.8.1

> <Gold.Id.Protein>
6NUR|6NUR_protein|mol2

> <Gold.PLP.Fitness>
37.9238

> <Gold.PLP.PLP>
-28.4302

> <Gold.PLP.part.hbond>
-5.0000

> <Gold.PLP.part.metal>
0.0000

> <Gold.PLP.part.buried>
-4.8830

> <Gold.PLP.part.nonpolar>
-18.1876

> <Gold.PLP.part.repulsive>
0.0889

> <Gold.PLP.ligand.clash>
0.0000

> <Gold.PLP.ligand.torsion>
1.0121

> <Gold.PLP.Chemscore.Hbond>
3.8153

> <Gold.PLP.Chemscore.CHOScore>
0.0000

> <Gold.PLP.Chemscore.Metal>
0.0000

> <Gold.Chemscore.Hbonds>
donor molecule, donor type, donor heavy atom, donor atom, acceptor molecule, acceptor atom, score
      L1  H    18    33       P1  7948  1.00
      P1  H  6896  6907       L1     1  1.00
      P1  H  6931  6943       L1     5  0.94
      P1  H  6934  6947       L1     5  0.90

> <Gold.PLP.Chemscore.Internal.Correction>
0.0721

> <Gold.Rescore>
     Score         DG    S(hbond)    S(metal)    S(lipo)     H(rot)  DE(clash)    DE(int)     intcor
     15.65     -16.68       2.94        0.00      53.81       1.92       0.01       1.02       ----

> <Gold.Chemscore.Fitness>
15.6539

> <Gold.Chemscore.DG>
-16.6775

> <Gold.Chemscore.ZeroCoef>
-5.4800

> <Gold.Chemscore.Hbond>
2.9399

> <Gold.Chemscore.Metal>
0.0000

> <Gold.Chemscore.Lipo>
53.8060

> <Gold.Chemscore.Internal_Hbond>
0.0000

> <Gold.Chemscore.DEClash>
0.0057

> <Gold.Chemscore.DEInternal>
1.0180

> <Gold.Chemscore.Rot>
1.9207

> <Gold.Chemscore.Internal.Correction>
   9.000000E+99

> <Gold.Chemscore.Hbonds>
donor molecule, donor type, donor heavy atom, donor atom, acceptor molecule, acceptor atom, score
      L1  H    18    33       P1  7948  0.28
      P1  H  6896  6907       L1     1  0.93
      P1  H  6931  6943       L1     5  0.23
      P1  H  6934  6947       L1     5  0.85

> <Gold.Chemscore.Hbond.Weighted>
-9.8191

> <Gold.Chemscore.Metal.Weighted>
-0.0000

> <Gold.Chemscore.Lipo.Weighted>
-6.2953

> <Gold.Chemscore.Internal_Hbond.Weighted>
0.0000

> <Gold.Chemscore.DEClash.Weighted>
0.0057

> <Gold.Chemscore.DEInternal.Weighted>
1.0180

> <Gold.Chemscore.Rot.Weighted>
4.9169

> <Gold.Chemscore.Internal.Correction.Weighted>
   9.000000E+99

> <Gold.Protein.RotatedTorsions>
[ 6907 6896 6895 6894 ] final  -31.82 input  -60.11 | X-H torsion
[ 7974 7965 7964 7962 ] final -157.12 input  175.53 | X-H torsion
[ 8008 7997 7996 7995 ] final   32.79 input   59.86 | X-H torsion
[ 10167 10162 10161 10158 ] final -173.53 input  -65.29 | X-H torsion
[ 10718 10713 10712 10709 ] final   37.58 input   66.30 | X-H torsion
[ 10763 10752 10751 10750 ] final  126.35 input  -60.55 | X-H torsion
[ 11005 11000 10999 10996 ] final  -64.51 input  -57.11 | X-H torsion

> <Gold.Protein.ActiveResidues>
 VAL166  LYS551  ARG553  GLY616  TRP617  ASP618  TYR619  PRO620  LYS621  CYS622 
 ASP623  PHE694  ASN695  SER759  ASP760  ASP761  ALA762  ILE779  LEU786  VAL792 
 PHE793  MET794  SER795  GLU796  ALA797  LYS798  CYS799  TRP800  GLU811  SER814 

> <Gold.Protein.RotatedAtoms>
  151.0869  134.9893  159.8383 H   0  0  0  0  0  0  0  0  0  0  0  0  # atno 6907 bound_to 6896
  152.5425  134.2112  159.8761 H   0  0  0  0  0  0  0  0  0  0  0  0  # atno 6908 bound_to 6896
  151.2146  133.4492  159.2632 H   0  0  0  0  0  0  0  0  0  0  0  0  # atno 6909 bound_to 6896
  144.7562  140.4013  143.6010 H   0  0  0  0  0  0  0  0  0  0  0  0  # atno 7974 bound_to 7965
  155.1282  140.3255  155.4480 H   0  0  0  0  0  0  0  0  0  0  0  0  # atno 8008 bound_to 7997
  156.2642  140.2015  156.6351 H   0  0  0  0  0  0  0  0  0  0  0  0  # atno 8009 bound_to 7997
  154.6632  140.0545  157.0072 H   0  0  0  0  0  0  0  0  0  0  0  0  # atno 8010 bound_to 7997
  139.5683  144.1702  152.1346 H   0  0  0  0  0  0  0  0  0  0  0  0  # atno 10167 bound_to 10162
  157.3487  130.7586  149.6963 H   0  0  0  0  0  0  0  0  0  0  0  0  # atno 10718 bound_to 10713
  153.6920  135.3297  155.3204 H   0  0  0  0  0  0  0  0  0  0  0  0  # atno 10763 bound_to 10752
  154.8437  135.4434  154.1499 H   0  0  0  0  0  0  0  0  0  0  0  0  # atno 10764 bound_to 10752
  153.2543  135.6984  153.7723 H   0  0  0  0  0  0  0  0  0  0  0  0  # atno 10765 bound_to 10752
  141.1427  133.6667  156.5844 H   0  0  0  0  0  0  0  0  0  0  0  0  # atno 11005 bound_to 11000
  145.6771  139.1611  143.2721 LP  0  0  0  0  0  0  0  0  0  0  0  0  # atno 17320 bound_to 7965
  146.1575  140.6837  142.9293 LP  0  0  0  0  0  0  0  0  0  0  0  0  # atno 17321 bound_to 7965
  140.1230  144.5356  150.6851 LP  0  0  0  0  0  0  0  0  0  0  0  0  # atno 17342 bound_to 10162
  140.6967  143.2408  151.4980 LP  0  0  0  0  0  0  0  0  0  0  0  0  # atno 17343 bound_to 10162
  155.9718  130.4147  150.4144 LP  0  0  0  0  0  0  0  0  0  0  0  0  # atno 17370 bound_to 10713
  157.2204  131.0481  151.2550 LP  0  0  0  0  0  0  0  0  0  0  0  0  # atno 17371 bound_to 10713
  140.3812  134.7521  157.4662 LP  0  0  0  0  0  0  0  0  0  0  0  0  # atno 17394 bound_to 11000
  140.0636  134.5961  155.8720 LP  0  0  0  0  0  0  0  0  0  0  0  0  # atno 17395 bound_to 11000

$$$$
