AV-unprocessed.smi:199|AV-procd|sdf|1573|dock1
  -GOLD-   2262019453D 1   1.00000     0.00000
 Structure written by MMmdl.
 51 55  0  0  0  0  0  0  0  0  1 V2000
  147.6948  136.4361  162.6447 C   0  0  0  0  0  0  0  0  0  0  0  0
  147.3118  135.0813  162.0272 C   0  0  1  0  0  0  0  0  0  0  0  0
  146.6521  134.2555  162.9862 O   0  0  0  0  0  0  0  0  0  0  0  0
  145.3845  133.8465  162.4918 C   0  0  0  0  0  0  0  0  0  0  0  0
  145.5337  133.8946  160.9767 C   0  0  0  0  0  0  0  0  0  0  0  0
  146.4105  135.1219  160.7710 C   0  0  1  0  0  0  0  0  0  0  0  0
  145.5786  136.2714  160.7825 O   0  0  0  0  0  0  0  0  0  0  0  0
  147.2139  135.1089  159.4488 C   0  0  0  0  0  0  0  0  0  0  0  0
  148.0388  136.2925  159.2609 N   0  0  0  0  0  0  0  0  0  0  0  0
  149.2071  136.5952  159.9214 C   0  0  0  0  0  0  0  0  0  0  0  0
  149.7676  137.7197  159.5705 N   0  0  0  0  0  0  0  0  0  0  0  0
  148.9164  138.2427  158.6037 C   0  0  0  0  0  0  0  0  0  0  0  0
  148.9138  139.4275  157.8112 C   0  0  0  0  0  0  0  0  0  0  0  0
  149.8775  140.3849  157.8812 N   0  0  0  0  0  0  0  0  0  0  0  0
  151.2794  140.0694  157.6561 C   0  0  2  0  0  0  0  0  0  0  0  0
  151.9757  141.3754  158.0763 C   0  0  0  0  0  0  0  0  0  0  0  0
  150.9474  142.4251  157.6216 C   0  0  0  0  0  0  0  0  0  0  0  0
  149.8645  141.5335  156.9867 C   0  0  1  0  0  0  0  0  0  0  0  0
  150.4019  140.9992  155.6351 C   0  0  2  0  0  0  0  0  0  0  0  0
  149.3075  140.4809  154.6825 C   0  0  0  0  0  0  0  0  0  0  0  0
  149.8942  139.8021  153.5929 O   0  0  0  0  0  0  0  0  0  0  0  0
  151.3806  139.9122  156.1248 C   0  0  0  0  0  0  0  0  0  0  0  0
  147.8928  139.5805  156.9261 N   0  0  0  0  0  0  0  0  0  0  0  0
  146.9271  138.6624  156.8380 C   0  0  0  0  0  0  0  0  0  0  0  0
  146.7933  137.5256  157.5220 N   0  0  0  0  0  0  0  0  0  0  0  0
  147.8237  137.3524  158.3975 C   0  0  0  0  0  0  0  0  0  0  0  0
  148.1918  137.0737  161.9132 H   0  0  0  0  0  0  0  0  0  0  0  0
  148.3778  136.2981  163.4829 H   0  0  0  0  0  0  0  0  0  0  0  0
  146.8214  136.9693  163.0206 H   0  0  0  0  0  0  0  0  0  0  0  0
  148.2329  134.5524  161.7794 H   0  0  0  0  0  0  0  0  0  0  0  0
  145.1122  132.8566  162.8580 H   0  0  0  0  0  0  0  0  0  0  0  0
  144.6258  134.5550  162.8270 H   0  0  0  0  0  0  0  0  0  0  0  0
  146.0560  132.9977  160.6406 H   0  0  0  0  0  0  0  0  0  0  0  0
  144.5777  133.9420  160.4532 H   0  0  0  0  0  0  0  0  0  0  0  0
  144.6799  135.9931  160.6922 H   0  0  0  0  0  0  0  0  0  0  0  0
  147.8545  134.2271  159.4021 H   0  0  0  0  0  0  0  0  0  0  0  0
  146.5357  135.0373  158.5976 H   0  0  0  0  0  0  0  0  0  0  0  0
  149.6374  135.9485  160.6725 H   0  0  0  0  0  0  0  0  0  0  0  0
  151.6493  139.2038  158.2068 H   0  0  0  0  0  0  0  0  0  0  0  0
  152.1120  141.4158  159.1579 H   0  0  0  0  0  0  0  0  0  0  0  0
  152.9510  141.5026  157.6047 H   0  0  0  0  0  0  0  0  0  0  0  0
  150.5478  142.9650  158.4810 H   0  0  0  0  0  0  0  0  0  0  0  0
  151.3625  143.1569  156.9275 H   0  0  0  0  0  0  0  0  0  0  0  0
  148.9139  142.0566  156.8987 H   0  0  0  0  0  0  0  0  0  0  0  0
  150.9442  141.7940  155.1202 H   0  0  0  0  0  0  0  0  0  0  0  0
  148.6167  139.8058  155.1861 H   0  0  0  0  0  0  0  0  0  0  0  0
  148.7195  141.3133  154.2947 H   0  0  0  0  0  0  0  0  0  0  0  0
  149.4537  140.0685  152.8003 H   0  0  0  0  0  0  0  0  0  0  0  0
  152.3950  140.0612  155.7530 H   0  0  0  0  0  0  0  0  0  0  0  0
  151.0582  138.9170  155.8163 H   0  0  0  0  0  0  0  0  0  0  0  0
  146.1507  138.8678  156.1156 H   0  0  0  0  0  0  0  0  0  0  0  0
  1  2  1  0  0  0  0
  1 27  1  0  0  0  0
  1 28  1  0  0  0  0
  1 29  1  0  0  0  0
  2  6  1  0  0  0  0
  2  3  1  0  0  0  0
  2 30  1  0  0  0  0
  3  4  1  0  0  0  0
  4  5  1  0  0  0  0
  4 31  1  0  0  0  0
  4 32  1  0  0  0  0
  5  6  1  0  0  0  0
  5 33  1  0  0  0  0
  5 34  1  0  0  0  0
  6  7  1  0  0  0  0
  6  8  1  0  0  0  0
  7 35  1  0  0  0  0
  8  9  1  0  0  0  0
  8 36  1  0  0  0  0
  8 37  1  0  0  0  0
  9 26  1  0  0  0  0
  9 10  1  0  0  0  0
 10 11  2  0  0  0  0
 10 38  1  0  0  0  0
 11 12  1  0  0  0  0
 12 26  2  0  0  0  0
 12 13  1  0  0  0  0
 13 14  1  0  0  0  0
 13 23  2  0  0  0  0
 14 18  1  0  0  0  0
 14 15  1  0  0  0  0
 15 22  1  0  0  0  0
 15 16  1  0  0  0  0
 15 39  1  0  0  0  0
 16 17  1  0  0  0  0
 16 40  1  0  0  0  0
 16 41  1  0  0  0  0
 17 18  1  0  0  0  0
 17 42  1  0  0  0  0
 17 43  1  0  0  0  0
 18 19  1  0  0  0  0
 18 44  1  0  0  0  0
 19 20  1  0  0  0  0
 19 22  1  0  0  0  0
 19 45  1  0  0  0  0
 20 21  1  0  0  0  0
 20 46  1  0  0  0  0
 20 47  1  0  0  0  0
 21 48  1  0  0  0  0
 22 49  1  0  0  0  0
 22 50  1  0  0  0  0
 23 24  1  0  0  0  0
 24 25  2  0  0  0  0
 24 51  1  0  0  0  0
 25 26  1  0  0  0  0
M  END
> <s_m_source_file>
AV-unprocessed.smi

> <i_m_source_file_index>
199

> <i_lp_mmshare_version>
43012

> <i_f3d_flags>
0

> <s_epik_input>
W0NIMl0xW0NIMl1PW0NAQEhdKFtDSDNdKVtDQEBdMShbT0hdKVtDSDJdbihbY0hdbjIpYyhjMjMpbltjSF1uYzNOKFtDQEBIXTQ1KVtDQEhdKFtDSDJdW0NIMl00KVtDQEhdKFtDSDJdNSlbQ0gyXVtPSF0=

> <s_epik_cmdline>
J2VwaWtfcHl0aG9uJywgJy1waCcsICc3LjAnLCAnLXRuJywgJzgnLCAnLW1hJywgJzIwMCcsICctbWV0YWxfYmluZGluZycsICctaW1hZScsICc8aW5maWxlLm1hZT4nLCAnLW9tYWUnLCAnPG91dGZpbGUubWFlPic=

> <r_lp_tautomer_probability>
1

> <r_epik_Ionization_Penalty>
0.00583903

> <r_epik_Ionization_Penalty_Charging>
0

> <r_epik_Ionization_Penalty_Neutral>
0.00583903

> <r_epik_State_Penalty>
-0

> <r_epik_Charging_Adjusted_Penalty>
0

> <i_epik_Tot_Q>
0

> <i_epik_Tot_abs_Q>
0

> <r_epik_Metal_State_Penalty>
-0

> <b_epik_Metal_Only>
0

> <s_lp_Force_Field>
OPLS_2005

> <r_lp_Energy>
83.8114

> <b_lp_Chiralities_Consistent>
1

> <s_lp_Variant>
AV-unprocessed.smi:199-14

> <Gold.Version>
5.8.1

> <Gold.Id.Protein>
6NUR|6NUR_protein|mol2

> <Gold.PLP.Fitness>
42.9967

> <Gold.PLP.PLP>
-38.7011

> <Gold.PLP.part.hbond>
-3.6647

> <Gold.PLP.part.metal>
0.0000

> <Gold.PLP.part.buried>
-6.1031

> <Gold.PLP.part.nonpolar>
-30.1073

> <Gold.PLP.part.repulsive>
0.0000

> <Gold.PLP.ligand.clash>
0.0000

> <Gold.PLP.ligand.torsion>
0.2220

> <Gold.PLP.Chemscore.Hbond>
1.5624

> <Gold.PLP.Chemscore.CHOScore>
0.0000

> <Gold.PLP.Chemscore.Metal>
0.0000

> <Gold.Chemscore.Hbonds>
donor molecule, donor type, donor heavy atom, donor atom, acceptor molecule, acceptor atom, score
      L1  H    21    48       P1  7957  0.83
      P1  H  7989  7998       L1    21  0.71

> <Gold.PLP.Chemscore.Internal.Correction>
0.0525

> <Gold.Rescore>
     Score         DG    S(hbond)    S(metal)    S(lipo)     H(rot)  DE(clash)    DE(int)     intcor
      9.31     -11.20       1.00        0.00      87.66       3.07       0.16       1.73       ----

> <Gold.Chemscore.Fitness>
9.3094

> <Gold.Chemscore.DG>
-11.1977

> <Gold.Chemscore.ZeroCoef>
-5.4800

> <Gold.Chemscore.Hbond>
0.9966

> <Gold.Chemscore.Metal>
0.0000

> <Gold.Chemscore.Lipo>
87.6573

> <Gold.Chemscore.Internal_Hbond>
0.0000

> <Gold.Chemscore.DEClash>
0.1615

> <Gold.Chemscore.DEInternal>
1.7268

> <Gold.Chemscore.Rot>
3.0729

> <Gold.Chemscore.Internal.Correction>
   9.000000E+99

> <Gold.Chemscore.Hbonds>
donor molecule, donor type, donor heavy atom, donor atom, acceptor molecule, acceptor atom, score
      L1  H    21    48       P1  7957  0.83
      P1  H  7989  7998       L1    21  0.05

> <Gold.Chemscore.Hbond.Weighted>
-3.3285

> <Gold.Chemscore.Metal.Weighted>
-0.0000

> <Gold.Chemscore.Lipo.Weighted>
-10.2559

> <Gold.Chemscore.Internal_Hbond.Weighted>
0.0000

> <Gold.Chemscore.DEClash.Weighted>
0.1615

> <Gold.Chemscore.DEInternal.Weighted>
1.7268

> <Gold.Chemscore.Rot.Weighted>
7.8667

> <Gold.Chemscore.Internal.Correction.Weighted>
   9.000000E+99

> <Gold.Protein.RotatedTorsions>
[ 6907 6896 6895 6894 ] final  -57.35 input  -60.11 | X-H torsion
[ 7974 7965 7964 7962 ] final  121.42 input  175.53 | X-H torsion
[ 8008 7997 7996 7995 ] final  110.93 input   59.86 | X-H torsion
[ 10167 10162 10161 10158 ] final  -36.89 input  -65.29 | X-H torsion
[ 10718 10713 10712 10709 ] final -166.34 input   66.30 | X-H torsion
[ 10763 10752 10751 10750 ] final  163.42 input  -60.55 | X-H torsion
[ 11005 11000 10999 10996 ] final   45.04 input  -57.11 | X-H torsion

> <Gold.Protein.ActiveResidues>
 VAL166  LYS551  ARG553  GLY616  TRP617  ASP618  TYR619  PRO620  LYS621  CYS622 
 ASP623  PHE694  ASN695  SER759  ASP760  ASP761  ALA762  ILE779  LEU786  VAL792 
 PHE793  MET794  SER795  GLU796  ALA797  LYS798  CYS799  TRP800  GLU811  SER814 

> <Gold.Protein.RotatedAtoms>
  150.8093  134.7238  159.6672 H   0  0  0  0  0  0  0  0  0  0  0  0  # atno 6907 bound_to 6896
  152.4213  134.5947  159.9993 H   0  0  0  0  0  0  0  0  0  0  0  0  # atno 6908 bound_to 6896
  151.6161  133.3306  159.3114 H   0  0  0  0  0  0  0  0  0  0  0  0  # atno 6909 bound_to 6896
  145.1195  139.3398  143.4721 H   0  0  0  0  0  0  0  0  0  0  0  0  # atno 7974 bound_to 7965
  156.2088  140.3029  155.9686 H   0  0  0  0  0  0  0  0  0  0  0  0  # atno 8008 bound_to 7997
  155.2775  140.0436  157.3029 H   0  0  0  0  0  0  0  0  0  0  0  0  # atno 8009 bound_to 7997
  154.5670  140.2337  155.8257 H   0  0  0  0  0  0  0  0  0  0  0  0  # atno 8010 bound_to 7997
  140.7132  143.3379  151.2423 H   0  0  0  0  0  0  0  0  0  0  0  0  # atno 10167 bound_to 10162
  156.6664  130.9066  151.3037 H   0  0  0  0  0  0  0  0  0  0  0  0  # atno 10718 bound_to 10713
  154.2934  135.2760  155.2644 H   0  0  0  0  0  0  0  0  0  0  0  0  # atno 10763 bound_to 10752
  154.5113  135.5781  153.6611 H   0  0  0  0  0  0  0  0  0  0  0  0  # atno 10764 bound_to 10752
  152.9911  135.6182  154.3100 H   0  0  0  0  0  0  0  0  0  0  0  0  # atno 10765 bound_to 10752
  140.1496  134.4479  155.8391 H   0  0  0  0  0  0  0  0  0  0  0  0  # atno 11005 bound_to 11000
  146.3522  140.1148  142.8602 LP  0  0  0  0  0  0  0  0  0  0  0  0  # atno 17320 bound_to 7965
  145.0756  140.9186  143.4856 LP  0  0  0  0  0  0  0  0  0  0  0  0  # atno 17321 bound_to 7965
  139.6878  143.9743  152.2843 LP  0  0  0  0  0  0  0  0  0  0  0  0  # atno 17342 bound_to 10162
  139.9395  144.6691  150.8281 LP  0  0  0  0  0  0  0  0  0  0  0  0  # atno 17343 bound_to 10162
  157.7092  130.9420  150.1032 LP  0  0  0  0  0  0  0  0  0  0  0  0  # atno 17370 bound_to 10713
  156.1972  130.3658  149.8834 LP  0  0  0  0  0  0  0  0  0  0  0  0  # atno 17371 bound_to 10713
  141.2197  133.6867  156.7397 LP  0  0  0  0  0  0  0  0  0  0  0  0  # atno 17394 bound_to 11000
  140.2621  134.8458  157.3768 LP  0  0  0  0  0  0  0  0  0  0  0  0  # atno 17395 bound_to 11000

$$$$
