AV-unprocessed.smi:3055|AV-procd|sdf|11644|dock5
  -GOLD-   2272017 43D 1   1.00000     0.00000
 Structure written by MMmdl.
 47 49  0  0  0  0  0  0  0  0  2 V2000
  150.4504  139.9974  154.4272 O   0  0  0  0  0  0  0  0  0  0  0  0
  150.9987  139.5303  155.4264 C   0  0  0  0  0  0  0  0  0  0  0  0
  151.2502  140.2741  156.5154 N   0  0  0  0  0  0  0  0  0  0  0  0
  150.8925  141.6781  156.6596 C   0  0  0  0  0  0  0  0  0  0  0  0
  150.2069  141.9222  158.0102 C   0  0  0  0  0  0  0  0  0  0  0  0
  150.7424  143.0944  158.6720 N   0  0  0  0  0  0  0  0  0  0  0  0
  150.0588  144.2595  158.9934 C   0  0  0  0  0  0  0  0  0  0  0  0
  150.9685  145.0928  159.6039 C   0  0  0  0  0  0  0  0  0  0  0  0
  152.2100  144.4642  159.6691 N   0  0  0  0  0  0  0  0  0  0  0  0
  151.9985  143.2855  159.0977 C   0  0  0  0  0  0  0  0  0  0  0  0
  151.4244  138.2438  155.5053 N   0  0  0  0  0  0  0  0  0  0  0  0
  152.1679  137.6451  156.6249 C   0  0  0  0  0  0  0  0  0  0  0  0
  151.1858  136.8138  157.4668 C   0  0  0  0  0  0  0  0  0  0  0  0
  150.4698  135.7583  156.6016 C   0  0  0  0  0  0  0  0  0  0  0  0
  149.8487  136.3676  155.3165 C   0  0  2  0  0  0  0  0  0  0  0  0
  149.2867  135.3186  154.4204 N   0  3  0  0  0  0  0  0  0  0  0  0
  150.0437  134.0486  154.3730 C   0  0  0  0  0  0  0  0  0  0  0  0
  149.0518  133.0156  153.8522 C   0  0  0  0  0  0  0  0  0  0  0  0
  147.7444  133.4397  154.5102 C   0  0  0  0  0  0  0  0  0  0  0  0
  147.8693  134.9600  154.6826 C   0  0  0  0  0  0  0  0  0  0  0  0
  150.9260  137.2106  154.5891 C   0  0  0  0  0  0  0  0  0  0  0  0
  151.7175  139.8359  157.2957 H   0  0  0  0  0  0  0  0  0  0  0  0
  151.7935  142.2879  156.5773 H   0  0  0  0  0  0  0  0  0  0  0  0
  150.2277  141.9716  155.8452 H   0  0  0  0  0  0  0  0  0  0  0  0
  149.1336  142.0631  157.8750 H   0  0  0  0  0  0  0  0  0  0  0  0
  150.3351  141.0605  158.6673 H   0  0  0  0  0  0  0  0  0  0  0  0
  149.0117  144.3960  158.7658 H   0  0  0  0  0  0  0  0  0  0  0  0
  150.8268  146.0885  159.9975 H   0  0  0  0  0  0  0  0  0  0  0  0
  152.7765  142.5446  158.9850 H   0  0  0  0  0  0  0  0  0  0  0  0
  152.9577  137.0034  156.2313 H   0  0  0  0  0  0  0  0  0  0  0  0
  152.6772  138.3719  157.2577 H   0  0  0  0  0  0  0  0  0  0  0  0
  151.7136  136.3267  158.2872 H   0  0  0  0  0  0  0  0  0  0  0  0
  150.4473  137.4747  157.9230 H   0  0  0  0  0  0  0  0  0  0  0  0
  151.1886  134.9861  156.3237 H   0  0  0  0  0  0  0  0  0  0  0  0
  149.7088  135.2672  157.2081 H   0  0  0  0  0  0  0  0  0  0  0  0
  149.0301  137.0267  155.6118 H   0  0  0  0  0  0  0  0  0  0  0  0
  150.9282  134.1234  153.7394 H   0  0  0  0  0  0  0  0  0  0  0  0
  150.3654  133.7735  155.3792 H   0  0  0  0  0  0  0  0  0  0  0  0
  148.9659  133.0958  152.7675 H   0  0  0  0  0  0  0  0  0  0  0  0
  149.3379  131.9916  154.0945 H   0  0  0  0  0  0  0  0  0  0  0  0
  146.8704  133.1526  153.9248 H   0  0  0  0  0  0  0  0  0  0  0  0
  147.6579  132.9659  155.4891 H   0  0  0  0  0  0  0  0  0  0  0  0
  147.5577  135.2426  155.6895 H   0  0  0  0  0  0  0  0  0  0  0  0
  147.2313  135.4919  153.9762 H   0  0  0  0  0  0  0  0  0  0  0  0
  150.5385  137.6484  153.6686 H   0  0  0  0  0  0  0  0  0  0  0  0
  151.7552  136.5738  154.2765 H   0  0  0  0  0  0  0  0  0  0  0  0
  149.3112  135.6869  153.4802 H   0  0  0  0  0  0  0  0  0  0  0  0
  1  2  2  0  0  0  0
  2  3  1  0  0  0  0
  2 11  1  0  0  0  0
  3  4  1  0  0  0  0
  3 22  1  0  0  0  0
  4  5  1  0  0  0  0
  4 23  1  0  0  0  0
  4 24  1  0  0  0  0
  5  6  1  0  0  0  0
  5 25  1  0  0  0  0
  5 26  1  0  0  0  0
  6 10  1  0  0  0  0
  6  7  1  0  0  0  0
  7  8  2  0  0  0  0
  7 27  1  0  0  0  0
  8  9  1  0  0  0  0
  8 28  1  0  0  0  0
  9 10  2  0  0  0  0
 10 29  1  0  0  0  0
 11 21  1  0  0  0  0
 11 12  1  0  0  0  0
 12 13  1  0  0  0  0
 12 30  1  0  0  0  0
 12 31  1  0  0  0  0
 13 14  1  0  0  0  0
 13 32  1  0  0  0  0
 13 33  1  0  0  0  0
 14 15  1  0  0  0  0
 14 34  1  0  0  0  0
 14 35  1  0  0  0  0
 15 16  1  0  0  0  0
 15 21  1  0  0  0  0
 15 36  1  0  0  0  0
 16 20  1  0  0  0  0
 16 17  1  0  0  0  0
 16 47  1  0  0  0  0
 17 18  1  0  0  0  0
 17 37  1  0  0  0  0
 17 38  1  0  0  0  0
 18 19  1  0  0  0  0
 18 39  1  0  0  0  0
 18 40  1  0  0  0  0
 19 20  1  0  0  0  0
 19 41  1  0  0  0  0
 19 42  1  0  0  0  0
 20 43  1  0  0  0  0
 20 44  1  0  0  0  0
 21 45  1  0  0  0  0
 21 46  1  0  0  0  0
M  CHG  1  16   1
M  END
> <s_m_source_file>
AV-unprocessed.smi

> <i_m_source_file_index>
3055

> <i_lp_mmshare_version>
43012

> <i_f3d_flags>
0

> <s_epik_input>
W2NIXTFuW2NIXVtjSF1uMVtDSDJdW0NIMl1bTkhdQyg9TylOMltDSDJdW0NIMl1bQ0gyXVtDQEhdKFtDSDJdMilOM1tDSDJdW0NIMl1bQ0gyXVtDSDJdMw==

> <s_epik_cmdline>
J2VwaWtfcHl0aG9uJywgJy1waCcsICc3LjAnLCAnLXRuJywgJzgnLCAnLW1hJywgJzIwMCcsICctbWV0YWxfYmluZGluZycsICctaW1hZScsICc8aW5maWxlLm1hZT4nLCAnLW9tYWUnLCAnPG91dGZpbGUubWFlPic=

> <r_lp_tautomer_probability>
1

> <r_epik_Ionization_Penalty>
0.618392

> <r_epik_Ionization_Penalty_Charging>
0.618355

> <r_epik_Ionization_Penalty_Neutral>
3.68592e-05

> <r_epik_State_Penalty>
0.635579

> <r_epik_Charging_Adjusted_Penalty>
1.25393

> <i_epik_Tot_Q>
1

> <i_epik_Tot_abs_Q>
1

> <r_epik_Metal_State_Penalty>
0.306847

> <b_epik_Metal_Only>
0

> <s_lp_Force_Field>
OPLS_2005

> <r_lp_Energy>
57.1272

> <b_lp_Chiralities_Consistent>
1

> <s_lp_Variant>
AV-unprocessed.smi:3055-4

> <Gold.Version>
5.8.1

> <Gold.Id.Protein>
6NUR|6NUR_protein|mol2

> <Gold.PLP.Fitness>
46.0537

> <Gold.PLP.PLP>
-36.2042

> <Gold.PLP.part.hbond>
-2.0000

> <Gold.PLP.part.metal>
0.0000

> <Gold.PLP.part.buried>
-6.8887

> <Gold.PLP.part.nonpolar>
-28.1574

> <Gold.PLP.part.repulsive>
0.2731

> <Gold.PLP.ligand.clash>
0.0000

> <Gold.PLP.ligand.torsion>
1.1209

> <Gold.PLP.Chemscore.Hbond>
3.0000

> <Gold.PLP.Chemscore.CHOScore>
1.0000

> <Gold.PLP.Chemscore.Metal>
0.0000

> <Gold.Chemscore.Hbonds>
donor molecule, donor type, donor heavy atom, donor atom, acceptor molecule, acceptor atom, score
      L1  H    16    47       P1  7948  2.00
      P1  H  7989  7998       L1     1  1.00
      L1  C     7    27       P1  8029  1.00

> <Gold.PLP.Chemscore.Internal.Correction>
0.0913

> <Gold.Rescore>
     Score         DG    S(hbond)    S(metal)    S(lipo)     H(rot)  DE(clash)    DE(int)     intcor
     14.32     -15.43       1.89        0.00      70.72       1.81       0.01       1.09       ----

> <Gold.Chemscore.Fitness>
14.3215

> <Gold.Chemscore.DG>
-15.4271

> <Gold.Chemscore.ZeroCoef>
-5.4800

> <Gold.Chemscore.Hbond>
1.8855

> <Gold.Chemscore.Metal>
0.0000

> <Gold.Chemscore.Lipo>
70.7215

> <Gold.Chemscore.Internal_Hbond>
0.0000

> <Gold.Chemscore.DEClash>
0.0139

> <Gold.Chemscore.DEInternal>
1.0916

> <Gold.Chemscore.Rot>
1.8066

> <Gold.Chemscore.Internal.Correction>
   9.000000E+99

> <Gold.Chemscore.Hbonds>
donor molecule, donor type, donor heavy atom, donor atom, acceptor molecule, acceptor atom, score
      L1  H    16    47       P1  7948  0.45
      P1  H  7989  7998       L1     1  0.70

> <Gold.Chemscore.Hbond.Weighted>
-6.2976

> <Gold.Chemscore.Metal.Weighted>
-0.0000

> <Gold.Chemscore.Lipo.Weighted>
-8.2744

> <Gold.Chemscore.Internal_Hbond.Weighted>
0.0000

> <Gold.Chemscore.DEClash.Weighted>
0.0139

> <Gold.Chemscore.DEInternal.Weighted>
1.0916

> <Gold.Chemscore.Rot.Weighted>
4.6249

> <Gold.Chemscore.Internal.Correction.Weighted>
   9.000000E+99

> <Gold.Protein.RotatedTorsions>
[ 6907 6896 6895 6894 ] final   98.61 input  -60.11 | X-H torsion
[ 7974 7965 7964 7962 ] final  -69.11 input  175.53 | X-H torsion
[ 8008 7997 7996 7995 ] final   12.48 input   59.86 | X-H torsion
[ 10167 10162 10161 10158 ] final   37.07 input  -65.29 | X-H torsion
[ 10718 10713 10712 10709 ] final  -90.25 input   66.30 | X-H torsion
[ 10763 10752 10751 10750 ] final  -93.67 input  -60.55 | X-H torsion
[ 11005 11000 10999 10996 ] final    4.08 input  -57.11 | X-H torsion

> <Gold.Protein.ActiveResidues>
 VAL166  LYS551  ARG553  GLY616  TRP617  ASP618  TYR619  PRO620  LYS621  CYS622 
 ASP623  PHE694  ASN695  SER759  ASP760  ASP761  ALA762  ILE779  LEU786  VAL792 
 PHE793  MET794  SER795  GLU796  ALA797  LYS798  CYS799  TRP800  GLU811  SER814 

> <Gold.Protein.RotatedAtoms>
  152.5406  134.0555  159.8128 H   0  0  0  0  0  0  0  0  0  0  0  0  # atno 6907 bound_to 6896
  151.0690  133.5474  159.2636 H   0  0  0  0  0  0  0  0  0  0  0  0  # atno 6908 bound_to 6896
  151.2344  135.0574  159.9054 H   0  0  0  0  0  0  0  0  0  0  0  0  # atno 6909 bound_to 6896
  145.7080  140.9090  143.0696 H   0  0  0  0  0  0  0  0  0  0  0  0  # atno 7974 bound_to 7965
  154.8212  140.2884  155.5785 H   0  0  0  0  0  0  0  0  0  0  0  0  # atno 8008 bound_to 7997
  156.2998  140.2550  156.3050 H   0  0  0  0  0  0  0  0  0  0  0  0  # atno 8009 bound_to 7997
  154.9336  140.0383  157.2050 H   0  0  0  0  0  0  0  0  0  0  0  0  # atno 8010 bound_to 7997
  140.4067  144.1649  150.6136 H   0  0  0  0  0  0  0  0  0  0  0  0  # atno 10167 bound_to 10162
  155.9987  130.4902  150.5294 H   0  0  0  0  0  0  0  0  0  0  0  0  # atno 10718 bound_to 10713
  154.6981  135.5186  153.8487 H   0  0  0  0  0  0  0  0  0  0  0  0  # atno 10763 bound_to 10752
  153.0683  135.6592  154.0314 H   0  0  0  0  0  0  0  0  0  0  0  0  # atno 10764 bound_to 10752
  154.0178  135.2996  155.3364 H   0  0  0  0  0  0  0  0  0  0  0  0  # atno 10765 bound_to 10752
  140.5859  133.9969  155.8068 H   0  0  0  0  0  0  0  0  0  0  0  0  # atno 11005 bound_to 11000
  144.6950  139.9036  143.7460 LP  0  0  0  0  0  0  0  0  0  0  0  0  # atno 17320 bound_to 7965
  146.0738  139.3727  143.0506 LP  0  0  0  0  0  0  0  0  0  0  0  0  # atno 17321 bound_to 7965
  140.4682  143.2423  151.9126 LP  0  0  0  0  0  0  0  0  0  0  0  0  # atno 17342 bound_to 10162
  139.4783  144.5398  151.8545 LP  0  0  0  0  0  0  0  0  0  0  0  0  # atno 17343 bound_to 10162
  157.3245  131.0688  151.1907 LP  0  0  0  0  0  0  0  0  0  0  0  0  # atno 17370 bound_to 10713
  157.2809  130.6749  149.6065 LP  0  0  0  0  0  0  0  0  0  0  0  0  # atno 17371 bound_to 10713
  141.0966  133.9834  157.3150 LP  0  0  0  0  0  0  0  0  0  0  0  0  # atno 17394 bound_to 11000
  139.9296  135.0200  156.8353 LP  0  0  0  0  0  0  0  0  0  0  0  0  # atno 17395 bound_to 11000

$$$$
