AV-unprocessed.smi:3329|AV-procd|sdf|12799|dock5
  -GOLD-   2272019153D 1   1.00000     0.00000
 Structure written by MMmdl.
 41 42  0  0  0  0  0  0  0  0  3 V2000
  154.1094  141.4515  161.7278 C   0  0  0  0  0  0  0  0  0  0  0  0
  153.0596  142.2963  161.0647 C   0  0  0  0  0  0  0  0  0  0  0  0
  152.3668  143.4139  161.6109 C   0  0  0  0  0  0  0  0  0  0  0  0
  151.5023  143.9472  160.7628 N   0  0  0  0  0  0  0  0  0  0  0  0
  151.6121  143.1922  159.6496 N   0  0  0  0  0  0  0  0  0  0  0  0
  150.7974  143.4982  158.4876 C   0  0  0  0  0  0  0  0  0  0  0  0
  151.1664  142.6313  157.2728 C   0  0  0  0  0  0  0  0  0  0  0  0
  150.0263  142.4888  156.3466 N   0  3  0  0  0  0  0  0  0  0  0  0
  149.4181  141.1449  156.3372 C   0  0  0  0  0  0  0  0  0  0  0  0
  150.3832  140.1422  155.6972 C   0  0  0  0  0  0  0  0  0  0  0  0
  150.8446  140.3644  154.5770 O   0  0  0  0  0  0  0  0  0  0  0  0
  150.6029  139.0811  156.5100 N   0  5  0  0  0  0  0  0  0  0  0  0
  151.6360  138.0690  156.2549 C   0  0  1  0  0  0  0  0  0  0  0  0
  153.0230  138.7420  156.2038 C   0  0  0  0  0  0  0  0  0  0  0  0
  151.6087  137.0242  157.2985 C   0  0  0  0  0  0  0  0  0  0  0  0
  151.5882  136.2050  158.1163 N   0  0  0  0  0  0  0  0  0  0  0  0
  151.3749  137.3650  154.9196 C   0  0  0  0  0  0  0  0  0  0  0  0
  150.2971  136.3254  154.7067 C   0  0  0  0  0  0  0  0  0  0  0  0
  151.7608  135.9289  154.6464 C   0  0  0  0  0  0  0  0  0  0  0  0
  152.5412  142.1853  159.8055 C   0  0  0  0  0  0  0  0  0  0  0  0
  153.7755  141.0828  162.6978 H   0  0  0  0  0  0  0  0  0  0  0  0
  155.0281  142.0136  161.8963 H   0  0  0  0  0  0  0  0  0  0  0  0
  154.3712  140.5807  161.1260 H   0  0  0  0  0  0  0  0  0  0  0  0
  152.4677  143.8519  162.5932 H   0  0  0  0  0  0  0  0  0  0  0  0
  149.7466  143.3634  158.7478 H   0  0  0  0  0  0  0  0  0  0  0  0
  150.9272  144.5543  158.2467 H   0  0  0  0  0  0  0  0  0  0  0  0
  152.0010  143.0854  156.7375 H   0  0  0  0  0  0  0  0  0  0  0  0
  151.4979  141.6444  157.5991 H   0  0  0  0  0  0  0  0  0  0  0  0
  149.3099  143.1507  156.6097 H   0  0  0  0  0  0  0  0  0  0  0  0
  149.1710  140.8584  157.3615 H   0  0  0  0  0  0  0  0  0  0  0  0
  148.4902  141.1616  155.7641 H   0  0  0  0  0  0  0  0  0  0  0  0
  153.8006  138.0156  155.9666 H   0  0  0  0  0  0  0  0  0  0  0  0
  153.2946  139.1975  157.1563 H   0  0  0  0  0  0  0  0  0  0  0  0
  153.0591  139.5208  155.4410 H   0  0  0  0  0  0  0  0  0  0  0  0
  151.5301  138.0335  154.0742 H   0  0  0  0  0  0  0  0  0  0  0  0
  149.7201  135.9889  155.5657 H   0  0  0  0  0  0  0  0  0  0  0  0
  149.7477  136.3623  153.7684 H   0  0  0  0  0  0  0  0  0  0  0  0
  152.1796  135.7015  153.6683 H   0  0  0  0  0  0  0  0  0  0  0  0
  152.1537  135.3324  155.4673 H   0  0  0  0  0  0  0  0  0  0  0  0
  152.7592  141.4828  159.0142 H   0  0  0  0  0  0  0  0  0  0  0  0
  150.3336  142.7040  155.4089 H   0  0  0  0  0  0  0  0  0  0  0  0
  1  2  1  0  0  0  0
  1 21  1  0  0  0  0
  1 22  1  0  0  0  0
  1 23  1  0  0  0  0
  2 20  2  0  0  0  0
  2  3  1  0  0  0  0
  3  4  2  0  0  0  0
  3 24  1  0  0  0  0
  4  5  1  0  0  0  0
  5  6  1  0  0  0  0
  5 20  1  0  0  0  0
  6  7  1  0  0  0  0
  6 25  1  0  0  0  0
  6 26  1  0  0  0  0
  7  8  1  0  0  0  0
  7 27  1  0  0  0  0
  7 28  1  0  0  0  0
  8  9  1  0  0  0  0
  8 29  1  0  0  0  0
  8 41  1  0  0  0  0
  9 10  1  0  0  0  0
  9 30  1  0  0  0  0
  9 31  1  0  0  0  0
 10 11  2  0  0  0  0
 10 12  1  0  0  0  0
 12 13  1  0  0  0  0
 13 14  1  0  0  0  0
 13 15  1  0  0  0  0
 13 17  1  0  0  0  0
 14 32  1  0  0  0  0
 14 33  1  0  0  0  0
 14 34  1  0  0  0  0
 15 16  3  0  0  0  0
 17 19  1  0  0  0  0
 17 18  1  0  0  0  0
 17 35  1  0  0  0  0
 18 19  1  0  0  0  0
 18 36  1  0  0  0  0
 18 37  1  0  0  0  0
 19 38  1  0  0  0  0
 19 39  1  0  0  0  0
 20 40  1  0  0  0  0
M  CHG  1   8   1
M  CHG  1  12  -1
M  END
> <s_m_source_file>
AV-unprocessed.smi

> <i_m_source_file_index>
3329

> <i_lp_mmshare_version>
43012

> <i_f3d_flags>
0

> <s_epik_input>
W0NIM11jMVtjSF1ubihbY0hdMSlbQ0gyXVtDSDJdW05IXVtDSDJdQyg9TylbTkhdW0NAQF0oW0NIM10pKEMjTilbQ0hdMltDSDJdW0NIMl0y

> <s_epik_cmdline>
J2VwaWtfcHl0aG9uJywgJy1waCcsICc3LjAnLCAnLXRuJywgJzgnLCAnLW1hJywgJzIwMCcsICctbWV0YWxfYmluZGluZycsICctaW1hZScsICc8aW5maWxlLm1hZT4nLCAnLW9tYWUnLCAnPG91dGZpbGUubWFlPic=

> <r_lp_tautomer_probability>
1

> <r_epik_Ionization_Penalty>
5.61187

> <r_epik_Ionization_Penalty_Charging>
5.61186

> <r_epik_Ionization_Penalty_Neutral>
4.91277e-06

> <r_epik_State_Penalty>
5.94522

> <r_epik_Charging_Adjusted_Penalty>
11.5571

> <i_epik_Tot_Q>
0

> <i_epik_Tot_abs_Q>
2

> <r_epik_Metal_State_Penalty>
1.9215

> <b_epik_Metal_Only>
1

> <s_lp_Force_Field>
OPLS_2005

> <r_lp_Energy>
13.6964

> <b_lp_Chiralities_Consistent>
1

> <s_lp_Variant>
AV-unprocessed.smi:3329-5

> <Gold.Version>
5.8.1

> <Gold.Id.Protein>
6NUR|6NUR_protein|mol2

> <Gold.PLP.Fitness>
47.8356

> <Gold.PLP.PLP>
-36.9207

> <Gold.PLP.part.hbond>
-2.9630

> <Gold.PLP.part.metal>
0.0000

> <Gold.PLP.part.buried>
-6.6832

> <Gold.PLP.part.nonpolar>
-27.8356

> <Gold.PLP.part.repulsive>
0.3020

> <Gold.PLP.ligand.clash>
0.0000

> <Gold.PLP.ligand.torsion>
1.3549

> <Gold.PLP.Chemscore.Hbond>
4.0000

> <Gold.PLP.Chemscore.CHOScore>
0.0000

> <Gold.PLP.Chemscore.Metal>
0.0000

> <Gold.Chemscore.Hbonds>
donor molecule, donor type, donor heavy atom, donor atom, acceptor molecule, acceptor atom, score
      L1  H     8    29       P1  8028  1.02
      P1  H  6896  6908       L1    16  0.26
      P1  H  7989  7998       L1    11  0.75

> <Gold.PLP.Chemscore.Internal.Correction>
1.6246

> <Gold.Rescore>
     Score         DG    S(hbond)    S(metal)    S(lipo)     H(rot)  DE(clash)    DE(int)     intcor
     18.76     -20.00       2.98        0.00      89.59       2.31       0.01       1.23       ----

> <Gold.Chemscore.Fitness>
18.7587

> <Gold.Chemscore.DG>
-19.9983

> <Gold.Chemscore.ZeroCoef>
-5.4800

> <Gold.Chemscore.Hbond>
2.9819

> <Gold.Chemscore.Metal>
0.0000

> <Gold.Chemscore.Lipo>
89.5942

> <Gold.Chemscore.Internal_Hbond>
0.0000

> <Gold.Chemscore.DEClash>
0.0133

> <Gold.Chemscore.DEInternal>
1.2263

> <Gold.Chemscore.Rot>
2.3140

> <Gold.Chemscore.Internal.Correction>
   9.000000E+99

> <Gold.Chemscore.Hbonds>
donor molecule, donor type, donor heavy atom, donor atom, acceptor molecule, acceptor atom, score
      L1  H     8    29       P1  8028  0.52
      P1  H  6896  6908       L1    16  0.25
      P1  H  7989  7998       L1    11  0.72

> <Gold.Chemscore.Hbond.Weighted>
-9.9595

> <Gold.Chemscore.Metal.Weighted>
-0.0000

> <Gold.Chemscore.Lipo.Weighted>
-10.4825

> <Gold.Chemscore.Internal_Hbond.Weighted>
0.0000

> <Gold.Chemscore.DEClash.Weighted>
0.0133

> <Gold.Chemscore.DEInternal.Weighted>
1.2263

> <Gold.Chemscore.Rot.Weighted>
5.9238

> <Gold.Chemscore.Internal.Correction.Weighted>
   9.000000E+99

> <Gold.Protein.RotatedTorsions>
[ 6907 6896 6895 6894 ] final -160.81 input  -60.11 | X-H torsion
[ 7974 7965 7964 7962 ] final -172.84 input  175.53 | X-H torsion
[ 8008 7997 7996 7995 ] final -169.14 input   59.86 | X-H torsion
[ 10167 10162 10161 10158 ] final  102.74 input  -65.29 | X-H torsion
[ 10718 10713 10712 10709 ] final   36.11 input   66.30 | X-H torsion
[ 10763 10752 10751 10750 ] final   35.96 input  -60.55 | X-H torsion
[ 11005 11000 10999 10996 ] final  138.90 input  -57.11 | X-H torsion

> <Gold.Protein.ActiveResidues>
 VAL166  LYS551  ARG553  GLY616  TRP617  ASP618  TYR619  PRO620  LYS621  CYS622 
 ASP623  PHE694  ASN695  SER759  ASP760  ASP761  ALA762  ILE779  LEU786  VAL792 
 PHE793  MET794  SER795  GLU796  ALA797  LYS798  CYS799  TRP800  GLU811  SER814 

> <Gold.Protein.RotatedAtoms>
  151.3548  133.3911  159.2683 H   0  0  0  0  0  0  0  0  0  0  0  0  # atno 6907 bound_to 6896
  150.9772  134.9135  159.7833 H   0  0  0  0  0  0  0  0  0  0  0  0  # atno 6908 bound_to 6896
  152.5205  134.3512  159.9304 H   0  0  0  0  0  0  0  0  0  0  0  0  # atno 6909 bound_to 6896
  144.7143  140.1711  143.6367 H   0  0  0  0  0  0  0  0  0  0  0  0  # atno 7974 bound_to 7965
  155.9009  140.1041  157.1350 H   0  0  0  0  0  0  0  0  0  0  0  0  # atno 8008 bound_to 7997
  154.4026  140.1293  156.4499 H   0  0  0  0  0  0  0  0  0  0  0  0  # atno 8009 bound_to 7997
  155.7424  140.3466  155.5113 H   0  0  0  0  0  0  0  0  0  0  0  0  # atno 8010 bound_to 7997
  139.7324  144.7033  151.0702 H   0  0  0  0  0  0  0  0  0  0  0  0  # atno 10167 bound_to 10162
  157.3308  130.7497  149.6846 H   0  0  0  0  0  0  0  0  0  0  0  0  # atno 10718 bound_to 10713
  153.0097  135.6319  154.1910 H   0  0  0  0  0  0  0  0  0  0  0  0  # atno 10763 bound_to 10752
  154.1652  135.2821  155.3099 H   0  0  0  0  0  0  0  0  0  0  0  0  # atno 10764 bound_to 10752
  154.5950  135.5605  153.7377 H   0  0  0  0  0  0  0  0  0  0  0  0  # atno 10765 bound_to 10752
  140.0216  134.9394  157.0486 H   0  0  0  0  0  0  0  0  0  0  0  0  # atno 11005 bound_to 11000
  145.8943  139.2393  143.1531 LP  0  0  0  0  0  0  0  0  0  0  0  0  # atno 17320 bound_to 7965
  145.9873  140.8632  143.0084 LP  0  0  0  0  0  0  0  0  0  0  0  0  # atno 17321 bound_to 7965
  140.7773  143.5027  150.9751 LP  0  0  0  0  0  0  0  0  0  0  0  0  # atno 17342 bound_to 10162
  139.8715  143.7186  152.3166 LP  0  0  0  0  0  0  0  0  0  0  0  0  # atno 17343 bound_to 10162
  155.9695  130.4196  150.4381 LP  0  0  0  0  0  0  0  0  0  0  0  0  # atno 17370 bound_to 10713
  157.2413  131.0526  151.2435 LP  0  0  0  0  0  0  0  0  0  0  0  0  # atno 17371 bound_to 10713
  140.4377  134.1714  155.7172 LP  0  0  0  0  0  0  0  0  0  0  0  0  # atno 17394 bound_to 11000
  141.1777  133.8479  157.1365 LP  0  0  0  0  0  0  0  0  0  0  0  0  # atno 17395 bound_to 11000

$$$$
