AV-unprocessed.smi:2028|AV-procd|sdf|8221|dock1
  -GOLD-   2272010493D 1   1.00000     0.00000
 Structure written by MMmdl.
 38 39  0  0  0  0  0  0  0  0  1 V2000
  150.5243  137.1023  156.2776 C   0  0  0  0  0  0  0  0  0  0  0  0
  151.4185  138.0272  157.1218 C   0  0  0  0  0  0  0  0  0  0  0  0
  151.3740  137.5639  158.5929 C   0  0  0  0  0  0  0  0  0  0  0  0
  152.8605  137.9666  156.5747 C   0  0  0  0  0  0  0  0  0  0  0  0
  150.8668  139.3808  156.9956 N   0  0  0  0  0  0  0  0  0  0  0  0
  150.7591  140.1432  155.8922 C   0  0  0  0  0  0  0  0  0  0  0  0
  151.0964  139.7805  154.7657 O   0  0  0  0  0  0  0  0  0  0  0  0
  150.1925  141.5483  156.0995 C   0  0  0  0  0  0  0  0  0  0  0  0
  151.0651  142.3152  157.0497 C   0  0  0  0  0  0  0  0  0  0  0  0
  151.3777  143.6511  156.9828 C   0  0  0  0  0  0  0  0  0  0  0  0
  152.4359  144.1405  158.2774 S   0  0  0  0  0  0  0  0  0  0  0  0
  152.4129  142.4800  158.8788 C   0  0  0  0  0  0  0  0  0  0  0  0
  153.1139  141.9825  160.0171 N   0  0  0  0  0  0  0  0  0  0  0  0
  153.1136  142.6954  161.2910 C   0  0  0  0  0  0  0  0  0  0  0  0
  153.7651  141.7476  162.3040 C   0  0  0  0  0  0  0  0  0  0  0  0
  154.4480  140.6677  161.4668 C   0  0  0  0  0  0  0  0  0  0  0  0
  153.8551  140.8622  160.0811 C   0  0  0  0  0  0  0  0  0  0  0  0
  154.0712  140.0625  159.1719 O   0  0  0  0  0  0  0  0  0  0  0  0
  151.6552  141.6637  158.1389 N   0  0  0  0  0  0  0  0  0  0  0  0
  150.8683  136.0682  156.3212 H   0  0  0  0  0  0  0  0  0  0  0  0
  150.5203  137.4016  155.2286 H   0  0  0  0  0  0  0  0  0  0  0  0
  149.4914  137.1187  156.6278 H   0  0  0  0  0  0  0  0  0  0  0  0
  150.3638  137.6300  158.9992 H   0  0  0  0  0  0  0  0  0  0  0  0
  152.0245  138.1625  159.2306 H   0  0  0  0  0  0  0  0  0  0  0  0
  151.6979  136.5270  158.6882 H   0  0  0  0  0  0  0  0  0  0  0  0
  153.2362  136.9429  156.5750 H   0  0  0  0  0  0  0  0  0  0  0  0
  153.5532  138.5585  157.1729 H   0  0  0  0  0  0  0  0  0  0  0  0
  152.9125  138.3338  155.5492 H   0  0  0  0  0  0  0  0  0  0  0  0
  150.5539  139.8002  157.8592 H   0  0  0  0  0  0  0  0  0  0  0  0
  150.1339  142.0544  155.1351 H   0  0  0  0  0  0  0  0  0  0  0  0
  149.1702  141.4855  156.4758 H   0  0  0  0  0  0  0  0  0  0  0  0
  151.0553  144.3732  156.2474 H   0  0  0  0  0  0  0  0  0  0  0  0
  153.6959  143.6125  161.1895 H   0  0  0  0  0  0  0  0  0  0  0  0
  152.1025  142.9669  161.5985 H   0  0  0  0  0  0  0  0  0  0  0  0
  154.4685  142.2703  162.9530 H   0  0  0  0  0  0  0  0  0  0  0  0
  153.0028  141.2962  162.9405 H   0  0  0  0  0  0  0  0  0  0  0  0
  155.5267  140.8214  161.4225 H   0  0  0  0  0  0  0  0  0  0  0  0
  154.2520  139.6650  161.8481 H   0  0  0  0  0  0  0  0  0  0  0  0
  1  2  1  0  0  0  0
  1 20  1  0  0  0  0
  1 21  1  0  0  0  0
  1 22  1  0  0  0  0
  2  3  1  0  0  0  0
  2  4  1  0  0  0  0
  2  5  1  0  0  0  0
  3 23  1  0  0  0  0
  3 24  1  0  0  0  0
  3 25  1  0  0  0  0
  4 26  1  0  0  0  0
  4 27  1  0  0  0  0
  4 28  1  0  0  0  0
  5  6  1  0  0  0  0
  5 29  1  0  0  0  0
  6  7  2  0  0  0  0
  6  8  1  0  0  0  0
  8  9  1  0  0  0  0
  8 30  1  0  0  0  0
  8 31  1  0  0  0  0
  9 19  1  0  0  0  0
  9 10  2  0  0  0  0
 10 11  1  0  0  0  0
 10 32  1  0  0  0  0
 11 12  1  0  0  0  0
 12 13  1  0  0  0  0
 12 19  2  0  0  0  0
 13 17  1  0  0  0  0
 13 14  1  0  0  0  0
 14 15  1  0  0  0  0
 14 33  1  0  0  0  0
 14 34  1  0  0  0  0
 15 16  1  0  0  0  0
 15 35  1  0  0  0  0
 15 36  1  0  0  0  0
 16 17  1  0  0  0  0
 16 37  1  0  0  0  0
 16 38  1  0  0  0  0
 17 18  2  0  0  0  0
M  END
> <s_m_source_file>
AV-unprocessed.smi

> <i_m_source_file_index>
2028

> <i_lp_mmshare_version>
43012

> <i_f3d_flags>
0

> <s_epik_input>
W0NIM11DKFtDSDNdKShbQ0gzXSlbTkhdQyg9TylbQ0gyXWMxW2NIXXNjKG4xKU4yW0NIMl1bQ0gyXVtDSDJdQzI9Tw==

> <s_epik_cmdline>
J2VwaWtfcHl0aG9uJywgJy1waCcsICc3LjAnLCAnLXRuJywgJzgnLCAnLW1hJywgJzIwMCcsICctbWV0YWxfYmluZGluZycsICctaW1hZScsICc8aW5maWxlLm1hZT4nLCAnLW9tYWUnLCAnPG91dGZpbGUubWFlPic=

> <r_lp_tautomer_probability>
1

> <r_epik_Ionization_Penalty>
2.98188e-05

> <r_epik_Ionization_Penalty_Charging>
0

> <r_epik_Ionization_Penalty_Neutral>
2.98188e-05

> <r_epik_State_Penalty>
-0

> <r_epik_Charging_Adjusted_Penalty>
0

> <i_epik_Tot_Q>
0

> <i_epik_Tot_abs_Q>
0

> <r_epik_Metal_State_Penalty>
-0

> <b_epik_Metal_Only>
0

> <s_lp_Force_Field>
OPLS_2005

> <r_lp_Energy>
17.4642

> <b_lp_Chiralities_Consistent>
1

> <s_lp_Variant>
AV-unprocessed.smi:2028-1

> <Gold.Version>
5.8.1

> <Gold.Id.Protein>
6NUR|6NUR_protein|mol2

> <Gold.PLP.Fitness>
46.3266

> <Gold.PLP.PLP>
-39.8264

> <Gold.PLP.part.hbond>
-2.0000

> <Gold.PLP.part.metal>
0.0000

> <Gold.PLP.part.buried>
-2.8894

> <Gold.PLP.part.nonpolar>
-35.5663

> <Gold.PLP.part.repulsive>
0.1157

> <Gold.PLP.ligand.clash>
0.0000

> <Gold.PLP.ligand.torsion>
1.1257

> <Gold.PLP.Chemscore.Hbond>
1.9440

> <Gold.PLP.Chemscore.CHOScore>
0.9631

> <Gold.PLP.Chemscore.Metal>
0.0000

> <Gold.Chemscore.Hbonds>
donor molecule, donor type, donor heavy atom, donor atom, acceptor molecule, acceptor atom, score
      P1  H  7989  7998       L1     7  1.00
      P1  H  7997  8008       L1    18  0.81
      L1  C    10    32       P1  8028  0.91

> <Gold.PLP.Chemscore.Internal.Correction>
0.0303

> <Gold.Rescore>
     Score         DG    S(hbond)    S(metal)    S(lipo)     H(rot)  DE(clash)    DE(int)     intcor
     15.84     -18.66       1.98        0.00      87.57       1.44       0.00       2.81       ----

> <Gold.Chemscore.Fitness>
15.8420

> <Gold.Chemscore.DG>
-18.6568

> <Gold.Chemscore.ZeroCoef>
-5.4800

> <Gold.Chemscore.Hbond>
1.9790

> <Gold.Chemscore.Metal>
0.0000

> <Gold.Chemscore.Lipo>
87.5724

> <Gold.Chemscore.Internal_Hbond>
0.0000

> <Gold.Chemscore.DEClash>
0.0000

> <Gold.Chemscore.DEInternal>
2.8148

> <Gold.Chemscore.Rot>
1.4371

> <Gold.Chemscore.Internal.Correction>
   9.000000E+99

> <Gold.Chemscore.Hbonds>
donor molecule, donor type, donor heavy atom, donor atom, acceptor molecule, acceptor atom, score
      P1  H  7989  7998       L1     7  1.00
      P1  H  7997  8008       L1    18  0.76

> <Gold.Chemscore.Hbond.Weighted>
-6.6097

> <Gold.Chemscore.Metal.Weighted>
-0.0000

> <Gold.Chemscore.Lipo.Weighted>
-10.2460

> <Gold.Chemscore.Internal_Hbond.Weighted>
0.0000

> <Gold.Chemscore.DEClash.Weighted>
0.0000

> <Gold.Chemscore.DEInternal.Weighted>
2.8148

> <Gold.Chemscore.Rot.Weighted>
3.6789

> <Gold.Chemscore.Internal.Correction.Weighted>
   9.000000E+99

> <Gold.Protein.RotatedTorsions>
[ 6907 6896 6895 6894 ] final -152.06 input  -60.11 | X-H torsion
[ 7974 7965 7964 7962 ] final  -51.92 input  175.53 | X-H torsion
[ 8008 7997 7996 7995 ] final -118.45 input   59.86 | X-H torsion
[ 10167 10162 10161 10158 ] final  133.64 input  -65.29 | X-H torsion
[ 10718 10713 10712 10709 ] final   81.99 input   66.30 | X-H torsion
[ 10763 10752 10751 10750 ] final -158.43 input  -60.55 | X-H torsion
[ 11005 11000 10999 10996 ] final  -91.75 input  -57.11 | X-H torsion

> <Gold.Protein.ActiveResidues>
 VAL166  LYS551  ARG553  GLY616  TRP617  ASP618  TYR619  PRO620  LYS621  CYS622 
 ASP623  PHE694  ASN695  SER759  ASP760  ASP761  ALA762  ILE779  LEU786  VAL792 
 PHE793  MET794  SER795  GLU796  ALA797  LYS798  CYS799  TRP800  GLU811  SER814 

> <Gold.Protein.RotatedAtoms>
  151.2222  133.4496  159.2600 H   0  0  0  0  0  0  0  0  0  0  0  0  # atno 6907 bound_to 6896
  151.0874  134.9895  159.8396 H   0  0  0  0  0  0  0  0  0  0  0  0  # atno 6908 bound_to 6896
  152.5431  134.2158  159.8821 H   0  0  0  0  0  0  0  0  0  0  0  0  # atno 6909 bound_to 6896
  145.9137  140.7894  142.9682 H   0  0  0  0  0  0  0  0  0  0  0  0  # atno 7974 bound_to 7965
  155.0999  140.0396  157.2694 H   0  0  0  0  0  0  0  0  0  0  0  0  # atno 8008 bound_to 7997
  154.6766  140.2624  155.6926 H   0  0  0  0  0  0  0  0  0  0  0  0  # atno 8009 bound_to 7997
  156.2679  140.2787  156.1295 H   0  0  0  0  0  0  0  0  0  0  0  0  # atno 8010 bound_to 7997
  139.5288  144.6606  151.5025 H   0  0  0  0  0  0  0  0  0  0  0  0  # atno 10167 bound_to 10162
  157.6846  131.0028  150.2308 H   0  0  0  0  0  0  0  0  0  0  0  0  # atno 10718 bound_to 10713
  154.7557  135.3104  154.8474 H   0  0  0  0  0  0  0  0  0  0  0  0  # atno 10763 bound_to 10752
  153.9249  135.6791  153.4751 H   0  0  0  0  0  0  0  0  0  0  0  0  # atno 10764 bound_to 10752
  153.1154  135.4847  154.9036 H   0  0  0  0  0  0  0  0  0  0  0  0  # atno 10765 bound_to 10752
  141.1538  133.7776  156.9923 H   0  0  0  0  0  0  0  0  0  0  0  0  # atno 11005 bound_to 11000
  144.6745  140.1865  143.7401 LP  0  0  0  0  0  0  0  0  0  0  0  0  # atno 17320 bound_to 7965
  145.8639  139.2237  143.1700 LP  0  0  0  0  0  0  0  0  0  0  0  0  # atno 17321 bound_to 7965
  140.6452  143.8809  150.6730 LP  0  0  0  0  0  0  0  0  0  0  0  0  # atno 17342 bound_to 10162
  140.2156  143.3849  152.1684 LP  0  0  0  0  0  0  0  0  0  0  0  0  # atno 17343 bound_to 10162
  156.2941  130.3749  149.7813 LP  0  0  0  0  0  0  0  0  0  0  0  0  # atno 17370 bound_to 10713
  156.5463  130.8322  151.3285 LP  0  0  0  0  0  0  0  0  0  0  0  0  # atno 17371 bound_to 10713
  140.0994  134.9544  157.1900 LP  0  0  0  0  0  0  0  0  0  0  0  0  # atno 17394 bound_to 11000
  140.3338  134.2780  155.7223 LP  0  0  0  0  0  0  0  0  0  0  0  0  # atno 17395 bound_to 11000

$$$$
