#       Name:                AV-unprocessed.smi:531
#       Creating user name   scv26
#       Creation time:       Thu Mar 26 23:33:48 2020


#       File generated by GOLD software.
#

@<TRIPOS>MOLECULE
AV-unprocessed.smi:531
    53    55     1
SMALL
NO_CHARGES


@<TRIPOS>ATOM
      1 ****        -2.6568   3.6974  -0.1950 C.3            1 S1                 0.0000
      2 ****        -2.4669   2.5599   0.8109 C.3            1 S1                 0.0000
      3 ****        -1.0988   2.1959   0.8272 O.3            1 S1                 0.0000
      4 ****        -0.8138   1.1432   1.7329 C.3            1 S1                 0.0000
      5 ****         0.6756   0.7816   1.6488 C.3            1 S1                 0.0000
      6 ****         1.0680   0.4162   0.2877 N.pl3          1 S1                 0.0000
      7 ****         0.9074  -0.7834  -0.3362 C.2            1 S1                 0.0000
      8 ****         0.3462  -1.8921   0.3016 N.pl3          1 S1                 0.0000
      9 ****         0.8556  -2.5435   1.5090 C.3            1 S1                 0.0000
     10 ****        -0.2557  -2.7535   2.5534 C.3            1 S1                 0.0000
     11 ****        -1.3987  -3.5876   1.9588 C.3            1 S1                 0.0000
     12 ****        -1.8629  -2.9710   0.6318 C.3            1 S1                 0.0000
     13 ****        -0.6690  -2.7459  -0.3135 C.3            1 S1                 0.0000
     14 ****         1.2822  -0.7991  -1.6163 N.2            1 S1                 0.0000
     15 ****         1.7427   0.4913  -1.8232 C.2            1 S1                 0.0000
     16 ****         1.6181   1.2461  -0.6982 C.2            1 S1                 0.0000
     17 ****         1.9863   2.6801  -0.6301 C.2            1 S1                 0.0000
     18 ****         1.8385   3.3307   0.4020 O.2            1 S1                 0.0000
     19 ****         2.4811   3.1452  -1.8206 N.pl3          1 S1                -1.0000
     20 ****         2.6274   2.4140  -2.9791 C.2            1 S1                 0.0000
     21 ****         3.0749   2.9147  -4.0118 O.2            1 S1                 0.0000
     22 ****         2.2675   1.0926  -2.9994 N.am           1 S1                 0.0000
     23 ****         2.4068   0.2913  -4.2190 C.3            1 S1                 0.0000
     24 ****        -3.7008   4.0073  -0.2419 H              1 S1                 0.0000
     25 ****        -2.3533   3.3880  -1.1955 H              1 S1                 0.0000
     26 ****        -2.0604   4.5672   0.0813 H              1 S1                 0.0000
     27 ****        -2.7836   2.8807   1.8044 H              1 S1                 0.0000
     28 ****        -3.0808   1.7043   0.5257 H              1 S1                 0.0000
     29 ****        -1.0667   1.4440   2.7505 H              1 S1                 0.0000
     30 ****        -1.4212   0.2701   1.4902 H              1 S1                 0.0000
     31 ****         1.2874   1.6069   2.0039 H              1 S1                 0.0000
     32 ****         0.8992  -0.0302   2.3336 H              1 S1                 0.0000
     33 ****         1.2820  -3.5079   1.2297 H              1 S1                 0.0000
     34 ****         1.6817  -1.9724   1.9305 H              1 S1                 0.0000
     35 ****         0.1483  -3.2499   3.4359 H              1 S1                 0.0000
     36 ****        -0.6403  -1.7897   2.8878 H              1 S1                 0.0000
     37 ****        -1.0537  -4.6075   1.7852 H              1 S1                 0.0000
     38 ****        -2.2298  -3.6521   2.6615 H              1 S1                 0.0000
     39 ****        -2.6001  -3.6187   0.1566 H              1 S1                 0.0000
     40 ****        -2.3615  -2.0199   0.8223 H              1 S1                 0.0000
     41 ****        -1.0207  -2.2863  -1.2378 H              1 S1                 0.0000
     42 ****        -0.2189  -3.6996  -0.5923 H              1 S1                 0.0000
     43 ****         3.4348   0.3190  -4.5833 H              1 S1                 0.0000
     44 ****         1.7556   0.6791  -5.0035 H              1 S1                 0.0000
     45 ****         2.1477  -0.7561  -4.0665 H              1 S1                 0.0000
     46 ****        -0.5597   2.9962   1.0897 LP             1 S1                 0.0000
     47 ****        -0.8362   1.9042  -0.0925 LP             1 S1                 0.0000
     48 ****         1.2409  -1.5569  -2.2675 LP             1 S1                 0.0000
     49 ****         1.4627   2.8935   1.2191 LP             1 S1                 0.0000
     50 ****         2.0940   4.2972   0.4247 LP             1 S1                 0.0000
     51 ****         2.7620   4.1044  -1.8512 LP             1 S1                 0.0000
     52 ****         3.3437   3.8778  -4.0248 LP             1 S1                 0.0000
     53 ****         3.1693   2.3581  -4.8372 LP             1 S1                 0.0000
@<TRIPOS>BOND
    1    1    2 1     
    2    1   24 1     
    3    1   25 1     
    4    1   26 1     
    5    2    3 1     
    6    2   27 1     
    7    2   28 1     
    8    3    4 1     
    9    4    5 1     
   10    4   29 1     
   11    4   30 1     
   12    5    6 1     
   13    5   31 1     
   14    5   32 1     
   15    6   16 1     
   16    6    7 1     
   17    7    8 1     
   18    7   14 2     
   19    8   13 1     
   20    8    9 1     
   21    9   10 1     
   22    9   33 1     
   23    9   34 1     
   24   10   11 1     
   25   10   35 1     
   26   10   36 1     
   27   11   12 1     
   28   11   37 1     
   29   11   38 1     
   30   12   13 1     
   31   12   39 1     
   32   12   40 1     
   33   13   41 1     
   34   13   42 1     
   35   14   15 1     
   36   15   22 1     
   37   15   16 2     
   38   16   17 1     
   39   17   18 2     
   40   17   19 1     
   41   19   20 1     
   42   20   21 2     
   43   20   22 am    
   44   22   23 1     
   45   23   43 1     
   46   23   44 1     
   47   23   45 1     
   48    3   46 1     
   49    3   47 1     
   50   14   48 1     
   51   18   49 1     
   52   18   50 1     
   53   19   51 1     
   54   21   52 1     
   55   21   53 1     
@<TRIPOS>SUBSTRUCTURE
      1 S1             1
@<TRIPOS>SET
LONE_PAIRS      STATIC     ATOMS    <user>   **** ""
8 46 47 48 49 50 51 52 53
ATOM$BLUE        STATIC     ATOMS    COLORGROUP SYSTEM
8 46 47 48 49 50 51 52 53
