AV-unprocessed.smi:3216|AV-procd|sdf|12288|dock9
  -GOLD-   2272018133D 1   1.00000     0.00000
 Structure written by MMmdl.
 36 36  0  0  0  0  0  0  0  0  1 V2000
  150.8326  139.2901  154.7942 C   0  0  0  0  0  0  0  0  0  0  0  0
  150.5222  137.7840  154.8539 C   0  0  0  0  0  0  0  0  0  0  0  0
  149.0744  137.5479  155.3083 C   0  0  0  0  0  0  0  0  0  0  0  0
  151.5091  137.0179  155.7555 C   0  0  0  0  0  0  0  0  0  0  0  0
  151.6429  137.6485  157.0625 N   0  0  0  0  0  0  0  0  0  0  0  0
  152.4061  138.7214  157.3132 C   0  0  0  0  0  0  0  0  0  0  0  0
  153.0782  139.2895  156.4524 O   0  0  0  0  0  0  0  0  0  0  0  0
  152.4053  139.2407  158.7558 C   0  0  0  0  0  0  0  0  0  0  0  0
  153.2925  140.3914  158.9894 N   0  0  0  0  0  0  0  0  0  0  0  0
  153.0145  141.1022  160.2337 C   0  0  0  0  0  0  0  0  0  0  0  0
  153.6111  142.5188  160.1851 C   0  0  0  0  0  0  0  0  0  0  0  0
  152.6763  143.4942  159.6514 N   0  0  0  0  0  0  0  0  0  0  0  0
  152.1803  144.6272  160.2615 C   0  0  0  0  0  0  0  0  0  0  0  0
  151.3338  145.2289  159.3751 C   0  0  0  0  0  0  0  0  0  0  0  0
  151.3799  144.3792  158.2345 C   0  0  0  0  0  0  0  0  0  0  0  0
  152.1869  143.3438  158.4015 N   0  0  0  0  0  0  0  0  0  0  0  0
  150.7822  139.7432  155.7847 H   0  0  0  0  0  0  0  0  0  0  0  0
  150.1198  139.8117  154.1545 H   0  0  0  0  0  0  0  0  0  0  0  0
  151.8274  139.4814  154.3911 H   0  0  0  0  0  0  0  0  0  0  0  0
  150.6138  137.3860  153.8422 H   0  0  0  0  0  0  0  0  0  0  0  0
  148.9098  137.9245  156.3184 H   0  0  0  0  0  0  0  0  0  0  0  0
  148.8291  136.4855  155.3051 H   0  0  0  0  0  0  0  0  0  0  0  0
  148.3674  138.0491  154.6468 H   0  0  0  0  0  0  0  0  0  0  0  0
  151.1774  135.9855  155.8798 H   0  0  0  0  0  0  0  0  0  0  0  0
  152.4932  136.9814  155.2854 H   0  0  0  0  0  0  0  0  0  0  0  0
  151.1199  137.2434  157.8252 H   0  0  0  0  0  0  0  0  0  0  0  0
  151.3912  139.5017  159.0634 H   0  0  0  0  0  0  0  0  0  0  0  0
  152.7211  138.4243  159.4059 H   0  0  0  0  0  0  0  0  0  0  0  0
  154.2645  140.1183  158.9699 H   0  0  0  0  0  0  0  0  0  0  0  0
  151.9425  141.1629  160.4249 H   0  0  0  0  0  0  0  0  0  0  0  0
  153.4591  140.5525  161.0643 H   0  0  0  0  0  0  0  0  0  0  0  0
  153.8861  142.8361  161.1915 H   0  0  0  0  0  0  0  0  0  0  0  0
  154.5290  142.5314  159.5944 H   0  0  0  0  0  0  0  0  0  0  0  0
  152.4656  144.9052  161.2654 H   0  0  0  0  0  0  0  0  0  0  0  0
  150.7669  146.1365  159.5198 H   0  0  0  0  0  0  0  0  0  0  0  0
  150.8555  144.4838  157.2962 H   0  0  0  0  0  0  0  0  0  0  0  0
  1  2  1  0  0  0  0
  1 17  1  0  0  0  0
  1 18  1  0  0  0  0
  1 19  1  0  0  0  0
  2  3  1  0  0  0  0
  2  4  1  0  0  0  0
  2 20  1  0  0  0  0
  3 21  1  0  0  0  0
  3 22  1  0  0  0  0
  3 23  1  0  0  0  0
  4  5  1  0  0  0  0
  4 24  1  0  0  0  0
  4 25  1  0  0  0  0
  5  6  1  0  0  0  0
  5 26  1  0  0  0  0
  6  7  2  0  0  0  0
  6  8  1  0  0  0  0
  8  9  1  0  0  0  0
  8 27  1  0  0  0  0
  8 28  1  0  0  0  0
  9 10  1  0  0  0  0
  9 29  1  0  0  0  0
 10 11  1  0  0  0  0
 10 30  1  0  0  0  0
 10 31  1  0  0  0  0
 11 12  1  0  0  0  0
 11 32  1  0  0  0  0
 11 33  1  0  0  0  0
 12 16  1  0  0  0  0
 12 13  1  0  0  0  0
 13 14  2  0  0  0  0
 13 34  1  0  0  0  0
 14 15  1  0  0  0  0
 14 35  1  0  0  0  0
 15 16  2  0  0  0  0
 15 36  1  0  0  0  0
M  END
> <s_m_source_file>
AV-unprocessed.smi

> <i_m_source_file_index>
3216

> <i_lp_mmshare_version>
43012

> <i_f3d_flags>
0

> <s_epik_input>
W0NIM11bQ0hdKFtDSDNdKVtDSDJdW05IXUMoPU8pW0NIMl1bTkhdW0NIMl1bQ0gyXW4xW2NIXVtjSF1bY0hdbjE=

> <s_epik_cmdline>
J2VwaWtfcHl0aG9uJywgJy1waCcsICc3LjAnLCAnLXRuJywgJzgnLCAnLW1hJywgJzIwMCcsICctbWV0YWxfYmluZGluZycsICctaW1hZScsICc8aW5maWxlLm1hZT4nLCAnLW9tYWUnLCAnPG91dGZpbGUubWFlPic=

> <r_lp_tautomer_probability>
1

> <r_epik_Ionization_Penalty>
0.724936

> <r_epik_Ionization_Penalty_Charging>
0

> <r_epik_Ionization_Penalty_Neutral>
0.724936

> <r_epik_State_Penalty>
0.747957

> <r_epik_Charging_Adjusted_Penalty>
0.747957

> <i_epik_Tot_Q>
0

> <i_epik_Tot_abs_Q>
0

> <r_epik_Metal_State_Penalty>
0.746186

> <b_epik_Metal_Only>
0

> <s_lp_Force_Field>
OPLS_2005

> <r_lp_Energy>
6.66152

> <b_lp_Chiralities_Consistent>
1

> <s_lp_Variant>
AV-unprocessed.smi:3216-2

> <Gold.Version>
5.8.1

> <Gold.Id.Protein>
6NUR|6NUR_protein|mol2

> <Gold.PLP.Fitness>
39.5618

> <Gold.PLP.PLP>
-34.5127

> <Gold.PLP.part.hbond>
-1.5005

> <Gold.PLP.part.metal>
0.0000

> <Gold.PLP.part.buried>
-3.5547

> <Gold.PLP.part.nonpolar>
-29.2787

> <Gold.PLP.part.repulsive>
0.1039

> <Gold.PLP.ligand.clash>
0.0000

> <Gold.PLP.ligand.torsion>
0.5555

> <Gold.PLP.Chemscore.Hbond>
1.0000

> <Gold.PLP.Chemscore.CHOScore>
1.0000

> <Gold.PLP.Chemscore.Metal>
0.0000

> <Gold.Chemscore.Hbonds>
donor molecule, donor type, donor heavy atom, donor atom, acceptor molecule, acceptor atom, score
      P1  H  7997  8009       L1     7  1.00
      L1  C    15    36       P1  8028  0.98

> <Gold.PLP.Chemscore.Internal.Correction>
0.1602

> <Gold.Rescore>
     Score         DG    S(hbond)    S(metal)    S(lipo)     H(rot)  DE(clash)    DE(int)     intcor
     12.15     -12.84       0.98        0.00      83.61       2.22       0.02       0.67       ----

> <Gold.Chemscore.Fitness>
12.1503

> <Gold.Chemscore.DG>
-12.8403

> <Gold.Chemscore.ZeroCoef>
-5.4800

> <Gold.Chemscore.Hbond>
0.9786

> <Gold.Chemscore.Metal>
0.0000

> <Gold.Chemscore.Lipo>
83.6060

> <Gold.Chemscore.Internal_Hbond>
0.0000

> <Gold.Chemscore.DEClash>
0.0186

> <Gold.Chemscore.DEInternal>
0.6714

> <Gold.Chemscore.Rot>
2.2227

> <Gold.Chemscore.Internal.Correction>
   9.000000E+99

> <Gold.Chemscore.Hbonds>
donor molecule, donor type, donor heavy atom, donor atom, acceptor molecule, acceptor atom, score
      P1  H  7997  8009       L1     7  0.93

> <Gold.Chemscore.Hbond.Weighted>
-3.2686

> <Gold.Chemscore.Metal.Weighted>
-0.0000

> <Gold.Chemscore.Lipo.Weighted>
-9.7819

> <Gold.Chemscore.Internal_Hbond.Weighted>
0.0000

> <Gold.Chemscore.DEClash.Weighted>
0.0186

> <Gold.Chemscore.DEInternal.Weighted>
0.6714

> <Gold.Chemscore.Rot.Weighted>
5.6902

> <Gold.Chemscore.Internal.Correction.Weighted>
   9.000000E+99

> <Gold.Protein.RotatedTorsions>
[ 6907 6896 6895 6894 ] final -105.59 input  -60.11 | X-H torsion
[ 7974 7965 7964 7962 ] final -142.88 input  175.53 | X-H torsion
[ 8008 7997 7996 7995 ] final  177.90 input   59.86 | X-H torsion
[ 10167 10162 10161 10158 ] final  -17.77 input  -65.29 | X-H torsion
[ 10718 10713 10712 10709 ] final  135.48 input   66.30 | X-H torsion
[ 10763 10752 10751 10750 ] final  129.81 input  -60.55 | X-H torsion
[ 11005 11000 10999 10996 ] final -149.86 input  -57.11 | X-H torsion

> <Gold.Protein.ActiveResidues>
 VAL166  LYS551  ARG553  GLY616  TRP617  ASP618  TYR619  PRO620  LYS621  CYS622 
 ASP623  PHE694  ASN695  SER759  ASP760  ASP761  ALA762  ILE779  LEU786  VAL792 
 PHE793  MET794  SER795  GLU796  ALA797  LYS798  CYS799  TRP800  GLU811  SER814 

> <Gold.Protein.RotatedAtoms>
  150.7345  134.0103  159.3667 H   0  0  0  0  0  0  0  0  0  0  0  0  # atno 6907 bound_to 6896
  151.8063  135.0692  160.0416 H   0  0  0  0  0  0  0  0  0  0  0  0  # atno 6908 bound_to 6896
  152.3105  133.5711  159.5714 H   0  0  0  0  0  0  0  0  0  0  0  0  # atno 6909 bound_to 6896
  144.8411  140.5904  143.5452 H   0  0  0  0  0  0  0  0  0  0  0  0  # atno 7974 bound_to 7965
  156.0606  140.1347  156.9945 H   0  0  0  0  0  0  0  0  0  0  0  0  # atno 8008 bound_to 7997
  154.4480  140.0992  156.6582 H   0  0  0  0  0  0  0  0  0  0  0  0  # atno 8009 bound_to 7997
  155.5383  140.3460  155.4443 H   0  0  0  0  0  0  0  0  0  0  0  0  # atno 8010 bound_to 7997
  140.7251  143.4983  150.9902 H   0  0  0  0  0  0  0  0  0  0  0  0  # atno 10167 bound_to 10162
  157.4566  131.1070  150.9970 H   0  0  0  0  0  0  0  0  0  0  0  0  # atno 10718 bound_to 10713
  153.7478  135.3214  155.3316 H   0  0  0  0  0  0  0  0  0  0  0  0  # atno 10763 bound_to 10752
  154.8273  135.4560  154.0962 H   0  0  0  0  0  0  0  0  0  0  0  0  # atno 10764 bound_to 10752
  153.2156  135.6941  153.8144 H   0  0  0  0  0  0  0  0  0  0  0  0  # atno 10765 bound_to 10752
  140.7463  134.3457  157.5136 H   0  0  0  0  0  0  0  0  0  0  0  0  # atno 11005 bound_to 11000
  145.4693  139.1505  143.3823 LP  0  0  0  0  0  0  0  0  0  0  0  0  # atno 17320 bound_to 7965
  146.2703  140.4825  142.8817 LP  0  0  0  0  0  0  0  0  0  0  0  0  # atno 17321 bound_to 7965
  139.8691  143.7216  152.3168 LP  0  0  0  0  0  0  0  0  0  0  0  0  # atno 17342 bound_to 10162
  139.7458  144.7547  151.0582 LP  0  0  0  0  0  0  0  0  0  0  0  0  # atno 17343 bound_to 10162
  157.0781  130.5892  149.5415 LP  0  0  0  0  0  0  0  0  0  0  0  0  # atno 17370 bound_to 10713
  156.0010  130.5089  150.7662 LP  0  0  0  0  0  0  0  0  0  0  0  0  # atno 17371 bound_to 10713
  139.8796  134.9113  156.3034 LP  0  0  0  0  0  0  0  0  0  0  0  0  # atno 17394 bound_to 11000
  140.9791  133.7278  156.0646 LP  0  0  0  0  0  0  0  0  0  0  0  0  # atno 17395 bound_to 11000

$$$$
