AV-unprocessed.smi:3106|AV-procd|sdf|11823|dock7
  -GOLD-   2272017193D 1   1.00000     0.00000
 Structure written by MMmdl.
 29 30  0  0  0  0  0  0  0  0  1 V2000
  151.3652  145.4247  159.8117 C   0  0  0  0  0  0  0  0  0  0  0  0
  152.1182  144.1688  160.1968 C   0  0  0  0  0  0  0  0  0  0  0  0
  152.3660  143.8584  161.5472 C   0  0  0  0  0  0  0  0  0  0  0  0
  153.0686  142.6773  161.8540 C   0  0  0  0  0  0  0  0  0  0  0  0
  153.5058  141.8355  160.8066 C   0  0  0  0  0  0  0  0  0  0  0  0
  154.2051  140.6721  161.2233 N   0  0  0  0  0  0  0  0  0  0  0  0
  154.7568  139.7080  160.4617 C   0  0  0  0  0  0  0  0  0  0  0  0
  154.7499  139.7044  159.2302 O   0  0  0  0  0  0  0  0  0  0  0  0
  155.4529  138.5666  161.2165 C   0  0  2  0  0  0  0  0  0  0  0  0
  154.7589  137.2080  161.0822 C   0  0  0  0  0  0  0  0  0  0  0  0
  155.2002  136.5129  162.3503 C   0  0  0  0  0  0  0  0  0  0  0  0
  155.1835  137.6563  163.3593 C   0  0  0  0  0  0  0  0  0  0  0  0
  155.4754  138.8387  162.6188 O   0  0  0  0  0  0  0  0  0  0  0  0
  153.2604  142.1425  159.5084 N   0  0  0  0  0  0  0  0  0  0  0  0
  152.5867  143.2744  159.2149 C   0  0  0  0  0  0  0  0  0  0  0  0
  151.5562  146.2254  160.5269 H   0  0  0  0  0  0  0  0  0  0  0  0
  150.2930  145.2288  159.7919 H   0  0  0  0  0  0  0  0  0  0  0  0
  151.6703  145.7727  158.8244 H   0  0  0  0  0  0  0  0  0  0  0  0
  152.0248  144.5119  162.3367 H   0  0  0  0  0  0  0  0  0  0  0  0
  153.2677  142.4242  162.8852 H   0  0  0  0  0  0  0  0  0  0  0  0
  154.2905  140.5488  162.2216 H   0  0  0  0  0  0  0  0  0  0  0  0
  156.4853  138.4879  160.8729 H   0  0  0  0  0  0  0  0  0  0  0  0
  153.6726  137.3154  161.0729 H   0  0  0  0  0  0  0  0  0  0  0  0
  155.0579  136.6673  160.1838 H   0  0  0  0  0  0  0  0  0  0  0  0
  154.5527  135.6829  162.6344 H   0  0  0  0  0  0  0  0  0  0  0  0
  156.2152  136.1311  162.2319 H   0  0  0  0  0  0  0  0  0  0  0  0
  154.1903  137.7610  163.7979 H   0  0  0  0  0  0  0  0  0  0  0  0
  155.8973  137.5064  164.1697 H   0  0  0  0  0  0  0  0  0  0  0  0
  152.4177  143.4694  158.1661 H   0  0  0  0  0  0  0  0  0  0  0  0
  1  2  1  0  0  0  0
  1 16  1  0  0  0  0
  1 17  1  0  0  0  0
  1 18  1  0  0  0  0
  2 15  1  0  0  0  0
  2  3  2  0  0  0  0
  3  4  1  0  0  0  0
  3 19  1  0  0  0  0
  4  5  2  0  0  0  0
  4 20  1  0  0  0  0
  5  6  1  0  0  0  0
  5 14  1  0  0  0  0
  6  7  1  0  0  0  0
  6 21  1  0  0  0  0
  7  8  2  0  0  0  0
  7  9  1  0  0  0  0
  9 13  1  0  0  0  0
  9 10  1  0  0  0  0
  9 22  1  0  0  0  0
 10 11  1  0  0  0  0
 10 23  1  0  0  0  0
 10 24  1  0  0  0  0
 11 12  1  0  0  0  0
 11 25  1  0  0  0  0
 11 26  1  0  0  0  0
 12 13  1  0  0  0  0
 12 27  1  0  0  0  0
 12 28  1  0  0  0  0
 14 15  2  0  0  0  0
 15 29  1  0  0  0  0
M  END
> <s_m_source_file>
AV-unprocessed.smi

> <i_m_source_file_index>
3106

> <i_lp_mmshare_version>
43012

> <i_f3d_flags>
0

> <s_epik_input>
W0NIM11jMVtjSF1bY0hdYyhuW2NIXTEpW05IXUMoPU8pW0NAQEhdMltDSDJdW0NIMl1bQ0gyXU8y

> <s_epik_cmdline>
J2VwaWtfcHl0aG9uJywgJy1waCcsICc3LjAnLCAnLXRuJywgJzgnLCAnLW1hJywgJzIwMCcsICctbWV0YWxfYmluZGluZycsICctaW1hZScsICc8aW5maWxlLm1hZT4nLCAnLW9tYWUnLCAnPG91dGZpbGUubWFlPic=

> <r_epik_Ionization_Penalty>
0.00356606

> <r_epik_Ionization_Penalty_Charging>
0

> <r_epik_Ionization_Penalty_Neutral>
0.00356606

> <r_epik_State_Penalty>
0.00372088

> <r_epik_Charging_Adjusted_Penalty>
0.00372088

> <i_epik_Tot_Q>
0

> <i_epik_Tot_abs_Q>
0

> <r_epik_Metal_State_Penalty>
-0

> <b_epik_Metal_Only>
0

> <s_lp_Force_Field>
OPLS_2005

> <r_lp_Energy>
20.8335

> <b_lp_Chiralities_Consistent>
1

> <s_lp_Variant>
AV-unprocessed.smi:3106-1

> <Gold.Version>
5.8.1

> <Gold.Id.Protein>
6NUR|6NUR_protein|mol2

> <Gold.PLP.Fitness>
39.9420

> <Gold.PLP.PLP>
-37.1260

> <Gold.PLP.part.hbond>
-1.0000

> <Gold.PLP.part.metal>
0.0000

> <Gold.PLP.part.buried>
-5.1990

> <Gold.PLP.part.nonpolar>
-31.5620

> <Gold.PLP.part.repulsive>
0.0273

> <Gold.PLP.ligand.clash>
0.0000

> <Gold.PLP.ligand.torsion>
0.0941

> <Gold.PLP.Chemscore.Hbond>
1.0000

> <Gold.PLP.Chemscore.CHOScore>
0.0000

> <Gold.PLP.Chemscore.Metal>
0.0000

> <Gold.Chemscore.Hbonds>
donor molecule, donor type, donor heavy atom, donor atom, acceptor molecule, acceptor atom, score
      P1  H  7997  8010       L1     8  1.00

> <Gold.PLP.Chemscore.Internal.Correction>
0.0042

> <Gold.Rescore>
     Score         DG    S(hbond)    S(metal)    S(lipo)     H(rot)  DE(clash)    DE(int)     intcor
     15.38     -16.71       1.00        0.00      89.48       1.00       0.02       1.31       ----

> <Gold.Chemscore.Fitness>
15.3829

> <Gold.Chemscore.DG>
-16.7130

> <Gold.Chemscore.ZeroCoef>
-5.4800

> <Gold.Chemscore.Hbond>
0.9953

> <Gold.Chemscore.Metal>
0.0000

> <Gold.Chemscore.Lipo>
89.4755

> <Gold.Chemscore.Internal_Hbond>
0.0000

> <Gold.Chemscore.DEClash>
0.0173

> <Gold.Chemscore.DEInternal>
1.3128

> <Gold.Chemscore.Rot>
1.0000

> <Gold.Chemscore.Internal.Correction>
   9.000000E+99

> <Gold.Chemscore.Hbonds>
donor molecule, donor type, donor heavy atom, donor atom, acceptor molecule, acceptor atom, score
      P1  H  7997  8010       L1     8  0.98

> <Gold.Chemscore.Hbond.Weighted>
-3.3244

> <Gold.Chemscore.Metal.Weighted>
-0.0000

> <Gold.Chemscore.Lipo.Weighted>
-10.4686

> <Gold.Chemscore.Internal_Hbond.Weighted>
0.0000

> <Gold.Chemscore.DEClash.Weighted>
0.0173

> <Gold.Chemscore.DEInternal.Weighted>
1.3128

> <Gold.Chemscore.Rot.Weighted>
2.5600

> <Gold.Chemscore.Internal.Correction.Weighted>
   9.000000E+99

> <Gold.Protein.RotatedTorsions>
[ 6907 6896 6895 6894 ] final  -56.85 input  -60.11 | X-H torsion
[ 7974 7965 7964 7962 ] final  135.05 input  175.53 | X-H torsion
[ 8008 7997 7996 7995 ] final    4.48 input   59.86 | X-H torsion
[ 10167 10162 10161 10158 ] final  -31.32 input  -65.29 | X-H torsion
[ 10718 10713 10712 10709 ] final  148.48 input   66.30 | X-H torsion
[ 10763 10752 10751 10750 ] final  164.69 input  -60.55 | X-H torsion
[ 11005 11000 10999 10996 ] final  123.24 input  -57.11 | X-H torsion

> <Gold.Protein.ActiveResidues>
 VAL166  LYS551  ARG553  GLY616  TRP617  ASP618  TYR619  PRO620  LYS621  CYS622 
 ASP623  PHE694  ASN695  SER759  ASP760  ASP761  ALA762  ILE779  LEU786  VAL792 
 PHE793  MET794  SER795  GLU796  ALA797  LYS798  CYS799  TRP800  GLU811  SER814 

> <Gold.Protein.RotatedAtoms>
  150.8133  134.7301  159.6707 H   0  0  0  0  0  0  0  0  0  0  0  0  # atno 6907 bound_to 6896
  152.4253  134.5877  159.9975 H   0  0  0  0  0  0  0  0  0  0  0  0  # atno 6908 bound_to 6896
  151.6081  133.3312  159.3097 H   0  0  0  0  0  0  0  0  0  0  0  0  # atno 6909 bound_to 6896
  144.9702  139.4614  143.5437 H   0  0  0  0  0  0  0  0  0  0  0  0  # atno 7974 bound_to 7965
  154.7165  140.2703  155.6581 H   0  0  0  0  0  0  0  0  0  0  0  0  # atno 8008 bound_to 7997
  156.2811  140.2743  156.1747 H   0  0  0  0  0  0  0  0  0  0  0  0  # atno 8009 bound_to 7997
  155.0565  140.0371  157.2552 H   0  0  0  0  0  0  0  0  0  0  0  0  # atno 8010 bound_to 7997
  140.7238  143.3780  151.1654 H   0  0  0  0  0  0  0  0  0  0  0  0  # atno 10167 bound_to 10162
  157.3081  131.0883  151.1338 H   0  0  0  0  0  0  0  0  0  0  0  0  # atno 10718 bound_to 10713
  154.3127  135.2757  155.2558 H   0  0  0  0  0  0  0  0  0  0  0  0  # atno 10763 bound_to 10752
  154.4946  135.5824  153.6488 H   0  0  0  0  0  0  0  0  0  0  0  0  # atno 10764 bound_to 10752
  152.9886  135.6143  154.3306 H   0  0  0  0  0  0  0  0  0  0  0  0  # atno 10765 bound_to 10752
  139.9304  134.9641  156.8230 H   0  0  0  0  0  0  0  0  0  0  0  0  # atno 11005 bound_to 11000
  146.3379  139.8908  142.8809 LP  0  0  0  0  0  0  0  0  0  0  0  0  # atno 17320 bound_to 7965
  145.2571  141.0064  143.3848 LP  0  0  0  0  0  0  0  0  0  0  0  0  # atno 17321 bound_to 7965
  139.7363  143.8993  152.3036 LP  0  0  0  0  0  0  0  0  0  0  0  0  # atno 17342 bound_to 10162
  139.8800  144.7023  150.8889 LP  0  0  0  0  0  0  0  0  0  0  0  0  # atno 17343 bound_to 10162
  157.2670  130.6686  149.6001 LP  0  0  0  0  0  0  0  0  0  0  0  0  # atno 17370 bound_to 10713
  155.9676  130.4491  150.5644 LP  0  0  0  0  0  0  0  0  0  0  0  0  # atno 17371 bound_to 10713
  140.6219  133.9986  155.7622 LP  0  0  0  0  0  0  0  0  0  0  0  0  # atno 17394 bound_to 11000
  141.0888  133.9948  157.3270 LP  0  0  0  0  0  0  0  0  0  0  0  0  # atno 17395 bound_to 11000

$$$$
