AV-unprocessed.smi:1682|AV-procd|sdf|6745|dock8
  -GOLD-   22720 7503D 1   1.00000     0.00000
 Structure written by MMmdl.
 39 40  0  0  0  0  0  0  0  0  2 V2000
  148.1131  140.8104  156.2424 O   0  0  0  0  0  0  0  0  0  0  0  0
  148.9501  140.8471  155.3411 C   0  0  0  0  0  0  0  0  0  0  0  0
  148.7138  140.3773  154.1058 N   0  0  0  0  0  0  0  0  0  0  0  0
  147.4469  139.8022  153.6772 C   0  0  0  0  0  0  0  0  0  0  0  0
  147.6130  138.3180  153.3234 C   0  0  0  0  0  0  0  0  0  0  0  0
  146.2808  137.6398  153.0669 C   0  0  0  0  0  0  0  0  0  0  0  0
  145.0744  138.1190  153.6226 C   0  0  0  0  0  0  0  0  0  0  0  0
  143.8715  137.4330  153.3538 C   0  0  0  0  0  0  0  0  0  0  0  0
  143.8997  136.2844  152.5362 C   0  0  0  0  0  0  0  0  0  0  0  0
  145.1321  135.8501  152.0068 C   0  0  0  0  0  0  0  0  0  0  0  0
  146.2632  136.5342  152.2875 N   0  3  0  0  0  0  0  0  0  0  0  0
  150.3348  141.4597  155.6090 C   0  0  2  0  0  0  0  0  0  0  0  0
  151.4438  140.3918  155.6701 C   0  0  0  0  0  0  0  0  0  0  0  0
  151.9105  140.4408  157.1158 C   0  0  0  0  0  0  0  0  0  0  0  0
  152.7077  139.6302  157.5841 O   0  0  0  0  0  0  0  0  0  0  0  0
  151.3292  141.4482  157.7774 N   0  0  0  0  0  0  0  0  0  0  0  0
  151.5211  141.7838  159.1877 C   0  0  0  0  0  0  0  0  0  0  0  0
  151.9564  143.2463  159.3923 C   0  0  0  0  0  0  0  0  0  0  0  0
  152.4941  143.3723  160.6046 F   0  0  0  0  0  0  0  0  0  0  0  0
  152.8646  143.6130  158.4885 F   0  0  0  0  0  0  0  0  0  0  0  0
  150.9026  144.0585  159.3091 F   0  0  0  0  0  0  0  0  0  0  0  0
  150.4197  142.2232  156.9477 C   0  0  0  0  0  0  0  0  0  0  0  0
  149.4514  140.4421  153.4190 H   0  0  0  0  0  0  0  0  0  0  0  0
  146.7090  139.9214  154.4724 H   0  0  0  0  0  0  0  0  0  0  0  0
  147.0788  140.3524  152.8096 H   0  0  0  0  0  0  0  0  0  0  0  0
  148.2419  138.2141  152.4378 H   0  0  0  0  0  0  0  0  0  0  0  0
  148.1280  137.7943  154.1300 H   0  0  0  0  0  0  0  0  0  0  0  0
  145.0681  138.9988  154.2500 H   0  0  0  0  0  0  0  0  0  0  0  0
  142.9386  137.7828  153.7713 H   0  0  0  0  0  0  0  0  0  0  0  0
  142.9899  135.7440  152.3192 H   0  0  0  0  0  0  0  0  0  0  0  0
  145.2470  134.9824  151.3739 H   0  0  0  0  0  0  0  0  0  0  0  0
  150.5517  142.1521  154.7937 H   0  0  0  0  0  0  0  0  0  0  0  0
  151.1047  139.3881  155.4087 H   0  0  0  0  0  0  0  0  0  0  0  0
  152.2745  140.6485  155.0122 H   0  0  0  0  0  0  0  0  0  0  0  0
  150.5904  141.6022  159.7267 H   0  0  0  0  0  0  0  0  0  0  0  0
  152.2595  141.1099  159.6251 H   0  0  0  0  0  0  0  0  0  0  0  0
  150.8309  143.2222  156.7966 H   0  0  0  0  0  0  0  0  0  0  0  0
  149.4506  142.3377  157.4366 H   0  0  0  0  0  0  0  0  0  0  0  0
  147.1439  136.1996  151.8957 H   0  0  0  0  0  0  0  0  0  0  0  0
  1  2  2  0  0  0  0
  2  3  1  0  0  0  0
  2 12  1  0  0  0  0
  3  4  1  0  0  0  0
  3 23  1  0  0  0  0
  4  5  1  0  0  0  0
  4 24  1  0  0  0  0
  4 25  1  0  0  0  0
  5  6  1  0  0  0  0
  5 26  1  0  0  0  0
  5 27  1  0  0  0  0
  6 11  1  0  0  0  0
  6  7  2  0  0  0  0
  7  8  1  0  0  0  0
  7 28  1  0  0  0  0
  8  9  2  0  0  0  0
  8 29  1  0  0  0  0
  9 10  1  0  0  0  0
  9 30  1  0  0  0  0
 10 11  2  0  0  0  0
 10 31  1  0  0  0  0
 11 39  1  0  0  0  0
 12 22  1  0  0  0  0
 12 13  1  0  0  0  0
 12 32  1  0  0  0  0
 13 14  1  0  0  0  0
 13 33  1  0  0  0  0
 13 34  1  0  0  0  0
 14 15  2  0  0  0  0
 14 16  1  0  0  0  0
 16 17  1  0  0  0  0
 16 22  1  0  0  0  0
 17 18  1  0  0  0  0
 17 35  1  0  0  0  0
 17 36  1  0  0  0  0
 18 19  1  0  0  0  0
 18 20  1  0  0  0  0
 18 21  1  0  0  0  0
 22 37  1  0  0  0  0
 22 38  1  0  0  0  0
M  CHG  1  11   1
M  END
> <s_m_source_file>
AV-unprocessed.smi

> <i_m_source_file_index>
1682

> <i_lp_mmshare_version>
43012

> <i_f3d_flags>
0

> <s_epik_input>
RkMoRikoRilbQ0gyXU4oW0NIMl0xKUMoPU8pW0NIMl1bQ0BIXTFDKD1PKVtOSF1bQ0gyXVtDSDJdYzJbY0hdW2NIXVtjSF1bY0hdbjI=

> <s_epik_cmdline>
J2VwaWtfcHl0aG9uJywgJy1waCcsICc3LjAnLCAnLXRuJywgJzgnLCAnLW1hJywgJzIwMCcsICctbWV0YWxfYmluZGluZycsICctaW1hZScsICc8aW5maWxlLm1hZT4nLCAnLW9tYWUnLCAnPG91dGZpbGUubWFlPic=

> <r_epik_Ionization_Penalty>
1.88249

> <r_epik_Ionization_Penalty_Charging>
1.88249

> <r_epik_Ionization_Penalty_Neutral>
2.8664e-08

> <r_epik_State_Penalty>
2.00238

> <r_epik_Charging_Adjusted_Penalty>
3.88487

> <i_epik_Tot_Q>
1

> <i_epik_Tot_abs_Q>
1

> <r_epik_Metal_State_Penalty>
2.02677

> <b_epik_Metal_Only>
0

> <s_lp_Force_Field>
OPLS_2005

> <r_lp_Energy>
22.1056

> <b_lp_Chiralities_Consistent>
1

> <s_lp_Variant>
AV-unprocessed.smi:1682-3

> <Gold.Version>
5.8.1

> <Gold.Id.Protein>
6NUR|6NUR_protein|mol2

> <Gold.PLP.Fitness>
44.3409

> <Gold.PLP.PLP>
-36.6552

> <Gold.PLP.part.hbond>
-2.8440

> <Gold.PLP.part.metal>
0.0000

> <Gold.PLP.part.buried>
3.6665

> <Gold.PLP.part.nonpolar>
-36.3902

> <Gold.PLP.part.repulsive>
0.2301

> <Gold.PLP.ligand.clash>
0.0000

> <Gold.PLP.ligand.torsion>
0.8974

> <Gold.PLP.Chemscore.Hbond>
3.1340

> <Gold.PLP.Chemscore.CHOScore>
0.0000

> <Gold.PLP.Chemscore.Metal>
0.0000

> <Gold.Chemscore.Hbonds>
donor molecule, donor type, donor heavy atom, donor atom, acceptor molecule, acceptor atom, score
      L1  H     3    23       P1  7957  0.23
      L1  H    11    39       P1  7948  2.00
      P1  H  7997  8008       L1    15  1.00

> <Gold.PLP.Chemscore.Internal.Correction>
0.0787

> <Gold.Rescore>
     Score         DG    S(hbond)    S(metal)    S(lipo)     H(rot)  DE(clash)    DE(int)     intcor
     12.10     -15.44       2.21        0.00      70.00       2.19       1.63       1.71       ----

> <Gold.Chemscore.Fitness>
12.1033

> <Gold.Chemscore.DG>
-15.4411

> <Gold.Chemscore.ZeroCoef>
-5.4800

> <Gold.Chemscore.Hbond>
2.2112

> <Gold.Chemscore.Metal>
0.0000

> <Gold.Chemscore.Lipo>
70.0016

> <Gold.Chemscore.Internal_Hbond>
0.0000

> <Gold.Chemscore.DEClash>
1.6294

> <Gold.Chemscore.DEInternal>
1.7084

> <Gold.Chemscore.Rot>
2.1932

> <Gold.Chemscore.Internal.Correction>
   9.000000E+99

> <Gold.Chemscore.Hbonds>
donor molecule, donor type, donor heavy atom, donor atom, acceptor molecule, acceptor atom, score
      L1  H     3    23       P1  7957  0.23
      L1  H    11    39       P1  7948  0.95
      P1  H  7997  8008       L1    15  0.34

> <Gold.Chemscore.Hbond.Weighted>
-7.3854

> <Gold.Chemscore.Metal.Weighted>
-0.0000

> <Gold.Chemscore.Lipo.Weighted>
-8.1902

> <Gold.Chemscore.Internal_Hbond.Weighted>
0.0000

> <Gold.Chemscore.DEClash.Weighted>
1.6294

> <Gold.Chemscore.DEInternal.Weighted>
1.7084

> <Gold.Chemscore.Rot.Weighted>
5.6145

> <Gold.Chemscore.Internal.Correction.Weighted>
   9.000000E+99

> <Gold.Protein.RotatedTorsions>
[ 6907 6896 6895 6894 ] final  -68.18 input  -60.11 | X-H torsion
[ 7974 7965 7964 7962 ] final -161.61 input  175.53 | X-H torsion
[ 8008 7997 7996 7995 ] final  -57.49 input   59.86 | X-H torsion
[ 10167 10162 10161 10158 ] final   91.48 input  -65.29 | X-H torsion
[ 10718 10713 10712 10709 ] final   44.93 input   66.30 | X-H torsion
[ 10763 10752 10751 10750 ] final  137.40 input  -60.55 | X-H torsion
[ 11005 11000 10999 10996 ] final    1.92 input  -57.11 | X-H torsion

> <Gold.Protein.ActiveResidues>
 VAL166  LYS551  ARG553  GLY616  TRP617  ASP618  TYR619  PRO620  LYS621  CYS622 
 ASP623  PHE694  ASN695  SER759  ASP760  ASP761  ALA762  ILE779  LEU786  VAL792 
 PHE793  MET794  SER795  GLU796  ALA797  LYS798  CYS799  TRP800  GLU811  SER814 

> <Gold.Protein.RotatedAtoms>
  150.7369  134.5775  159.5921 H   0  0  0  0  0  0  0  0  0  0  0  0  # atno 6907 bound_to 6896
  152.3198  134.7392  160.0325 H   0  0  0  0  0  0  0  0  0  0  0  0  # atno 6908 bound_to 6896
  151.7911  133.3324  159.3536 H   0  0  0  0  0  0  0  0  0  0  0  0  # atno 6909 bound_to 6896
  144.7385  140.3372  143.6141 H   0  0  0  0  0  0  0  0  0  0  0  0  # atno 7974 bound_to 7965
  154.4270  140.1105  156.5806 H   0  0  0  0  0  0  0  0  0  0  0  0  # atno 8008 bound_to 7997
  155.6117  140.3494  155.4605 H   0  0  0  0  0  0  0  0  0  0  0  0  # atno 8009 bound_to 7997
  156.0094  140.1216  157.0458 H   0  0  0  0  0  0  0  0  0  0  0  0  # atno 8010 bound_to 7997
  139.8370  144.6660  150.9330 H   0  0  0  0  0  0  0  0  0  0  0  0  # atno 10167 bound_to 10162
  157.4321  130.8031  149.7613 H   0  0  0  0  0  0  0  0  0  0  0  0  # atno 10718 bound_to 10713
  153.8724  135.3054  155.3442 H   0  0  0  0  0  0  0  0  0  0  0  0  # atno 10763 bound_to 10752
  154.7799  135.4841  153.9826 H   0  0  0  0  0  0  0  0  0  0  0  0  # atno 10764 bound_to 10752
  153.1398  135.6821  153.9141 H   0  0  0  0  0  0  0  0  0  0  0  0  # atno 10765 bound_to 10752
  140.6100  133.9757  155.8173 H   0  0  0  0  0  0  0  0  0  0  0  0  # atno 11005 bound_to 11000
  145.7411  139.1764  143.2375 LP  0  0  0  0  0  0  0  0  0  0  0  0  # atno 17320 bound_to 7965
  146.1133  140.7401  142.9493 LP  0  0  0  0  0  0  0  0  0  0  0  0  # atno 17321 bound_to 7965
  140.7801  143.3948  151.1249 LP  0  0  0  0  0  0  0  0  0  0  0  0  # atno 17342 bound_to 10162
  139.7597  143.8654  152.3097 LP  0  0  0  0  0  0  0  0  0  0  0  0  # atno 17343 bound_to 10162
  155.9917  130.3936  150.2973 LP  0  0  0  0  0  0  0  0  0  0  0  0  # atno 17370 bound_to 10713
  157.1131  131.0226  151.3040 LP  0  0  0  0  0  0  0  0  0  0  0  0  # atno 17371 bound_to 10713
  141.0814  134.0056  157.3380 LP  0  0  0  0  0  0  0  0  0  0  0  0  # atno 17394 bound_to 11000
  139.9196  135.0199  156.8014 LP  0  0  0  0  0  0  0  0  0  0  0  0  # atno 17395 bound_to 11000

$$$$
