AV-unprocessed.smi:653|AV-procd|sdf|3206|dock1
  -GOLD-   22720 0143D 1   1.00000     0.00000
 Structure written by MMmdl.
 44 45  0  0  0  0  0  0  0  0  1 V2000
  153.0825  143.0597  163.4991 C   0  0  0  0  0  0  0  0  0  0  0  0
  152.7008  143.2470  162.0453 C   0  0  0  0  0  0  0  0  0  0  0  0
  151.8665  144.3151  161.6545 C   0  0  0  0  0  0  0  0  0  0  0  0
  151.5384  144.4459  160.2915 C   0  0  0  0  0  0  0  0  0  0  0  0
  152.0526  143.5060  159.3744 C   0  0  0  0  0  0  0  0  0  0  0  0
  151.7285  143.6025  157.8939 C   0  0  0  0  0  0  0  0  0  0  0  0
  151.0666  142.3155  157.3947 C   0  0  0  0  0  0  0  0  0  0  0  0
  151.6125  141.2265  157.5745 O   0  0  0  0  0  0  0  0  0  0  0  0
  149.8899  142.4550  156.7654 N   0  0  0  0  0  0  0  0  0  0  0  0
  149.0965  141.3600  156.2173 C   0  0  0  0  0  0  0  0  0  0  0  0
  149.3687  141.1280  154.7094 C   0  0  2  0  0  0  0  0  0  0  0  0
  148.1340  141.3660  153.8502 C   0  0  0  0  0  0  0  0  0  0  0  0
  147.4307  140.0060  153.8478 C   0  0  0  0  0  0  0  0  0  0  0  0
  148.3859  139.0668  154.3334 O   0  0  0  0  0  0  0  0  0  0  0  0
  149.6741  139.6677  154.3346 C   0  0  2  0  0  0  0  0  0  0  0  0
  150.6647  138.8930  155.2338 C   0  0  0  0  0  0  0  0  0  0  0  0
  152.0098  139.6283  155.3661 C   0  0  0  0  0  0  0  0  0  0  0  0
  150.8970  137.4703  154.6997 C   0  0  0  0  0  0  0  0  0  0  0  0
  152.8769  142.4730  159.8696 C   0  0  0  0  0  0  0  0  0  0  0  0
  153.1972  142.3401  161.1747 N   0  0  0  0  0  0  0  0  0  0  0  0
  153.1169  144.0186  164.0170 H   0  0  0  0  0  0  0  0  0  0  0  0
  154.0638  142.5926  163.5903 H   0  0  0  0  0  0  0  0  0  0  0  0
  152.3517  142.4252  164.0008 H   0  0  0  0  0  0  0  0  0  0  0  0
  151.4866  145.0187  162.3805 H   0  0  0  0  0  0  0  0  0  0  0  0
  150.9044  145.2542  159.9580 H   0  0  0  0  0  0  0  0  0  0  0  0
  151.0774  144.4612  157.7228 H   0  0  0  0  0  0  0  0  0  0  0  0
  152.6402  143.7784  157.3217 H   0  0  0  0  0  0  0  0  0  0  0  0
  149.5146  143.3865  156.6610 H   0  0  0  0  0  0  0  0  0  0  0  0
  149.3045  140.4600  156.7963 H   0  0  0  0  0  0  0  0  0  0  0  0
  148.0436  141.5908  156.3813 H   0  0  0  0  0  0  0  0  0  0  0  0
  150.1855  141.7755  154.3883 H   0  0  0  0  0  0  0  0  0  0  0  0
  147.4921  142.1734  154.2032 H   0  0  0  0  0  0  0  0  0  0  0  0
  148.4417  141.6177  152.8344 H   0  0  0  0  0  0  0  0  0  0  0  0
  146.5628  140.0043  154.5077 H   0  0  0  0  0  0  0  0  0  0  0  0
  147.0965  139.7339  152.8463 H   0  0  0  0  0  0  0  0  0  0  0  0
  150.0439  139.6439  153.3073 H   0  0  0  0  0  0  0  0  0  0  0  0
  150.2330  138.7921  156.2296 H   0  0  0  0  0  0  0  0  0  0  0  0
  152.4924  139.7455  154.3953 H   0  0  0  0  0  0  0  0  0  0  0  0
  152.6948  139.0790  156.0125 H   0  0  0  0  0  0  0  0  0  0  0  0
  151.8884  140.6221  155.7968 H   0  0  0  0  0  0  0  0  0  0  0  0
  151.3212  137.4875  153.6952 H   0  0  0  0  0  0  0  0  0  0  0  0
  149.9657  136.9050  154.6576 H   0  0  0  0  0  0  0  0  0  0  0  0
  151.5841  136.9171  155.3406 H   0  0  0  0  0  0  0  0  0  0  0  0
  153.2918  141.7336  159.2002 H   0  0  0  0  0  0  0  0  0  0  0  0
  1  2  1  0  0  0  0
  1 21  1  0  0  0  0
  1 22  1  0  0  0  0
  1 23  1  0  0  0  0
  2 20  1  0  0  0  0
  2  3  2  0  0  0  0
  3  4  1  0  0  0  0
  3 24  1  0  0  0  0
  4  5  2  0  0  0  0
  4 25  1  0  0  0  0
  5  6  1  0  0  0  0
  5 19  1  0  0  0  0
  6  7  1  0  0  0  0
  6 26  1  0  0  0  0
  6 27  1  0  0  0  0
  7  8  2  0  0  0  0
  7  9  1  0  0  0  0
  9 10  1  0  0  0  0
  9 28  1  0  0  0  0
 10 11  1  0  0  0  0
 10 29  1  0  0  0  0
 10 30  1  0  0  0  0
 11 15  1  0  0  0  0
 11 12  1  0  0  0  0
 11 31  1  0  0  0  0
 12 13  1  0  0  0  0
 12 32  1  0  0  0  0
 12 33  1  0  0  0  0
 13 14  1  0  0  0  0
 13 34  1  0  0  0  0
 13 35  1  0  0  0  0
 14 15  1  0  0  0  0
 15 16  1  0  0  0  0
 15 36  1  0  0  0  0
 16 17  1  0  0  0  0
 16 18  1  0  0  0  0
 16 37  1  0  0  0  0
 17 38  1  0  0  0  0
 17 39  1  0  0  0  0
 17 40  1  0  0  0  0
 18 41  1  0  0  0  0
 18 42  1  0  0  0  0
 18 43  1  0  0  0  0
 19 20  2  0  0  0  0
 19 44  1  0  0  0  0
M  END
> <s_m_source_file>
AV-unprocessed.smi

> <i_m_source_file_index>
653

> <i_lp_mmshare_version>
43012

> <i_f3d_flags>
0

> <s_epik_input>
W0NIM11jMVtjSF1bY0hdYyhbY0hdbjEpW0NIMl1DKD1PKVtOSF1bQ0gyXVtDQEBIXTJbQ0gyXVtDSDJdT1tDQEhdMltDSF0oW0NIM10pW0NIM10=

> <s_epik_cmdline>
J2VwaWtfcHl0aG9uJywgJy1waCcsICc3LjAnLCAnLXRuJywgJzgnLCAnLW1hJywgJzIwMCcsICctbWV0YWxfYmluZGluZycsICctaW1hZScsICc8aW5maWxlLm1hZT4nLCAnLW9tYWUnLCAnPG91dGZpbGUubWFlPic=

> <r_epik_Ionization_Penalty>
0.0166429

> <r_epik_Ionization_Penalty_Charging>
0

> <r_epik_Ionization_Penalty_Neutral>
0.0166429

> <r_epik_State_Penalty>
0.0131478

> <r_epik_Charging_Adjusted_Penalty>
0.0131478

> <i_epik_Tot_Q>
0

> <i_epik_Tot_abs_Q>
0

> <r_epik_Metal_State_Penalty>
0.012786

> <b_epik_Metal_Only>
0

> <s_lp_Force_Field>
OPLS_2005

> <r_lp_Energy>
20.8525

> <b_lp_Chiralities_Consistent>
1

> <s_lp_Variant>
AV-unprocessed.smi:653-3

> <Gold.Version>
5.8.1

> <Gold.Id.Protein>
6NUR|6NUR_protein|mol2

> <Gold.PLP.Fitness>
51.3838

> <Gold.PLP.PLP>
-50.1972

> <Gold.PLP.part.hbond>
-1.0000

> <Gold.PLP.part.metal>
0.0000

> <Gold.PLP.part.buried>
-4.4751

> <Gold.PLP.part.nonpolar>
-44.5111

> <Gold.PLP.part.repulsive>
0.1758

> <Gold.PLP.ligand.clash>
0.0000

> <Gold.PLP.ligand.torsion>
0.9629

> <Gold.PLP.Chemscore.Hbond>
0.9920

> <Gold.PLP.Chemscore.CHOScore>
0.0000

> <Gold.PLP.Chemscore.Metal>
0.0000

> <Gold.Chemscore.Hbonds>
donor molecule, donor type, donor heavy atom, donor atom, acceptor molecule, acceptor atom, score
      L1  H     9    28       P1  8028  1.00

> <Gold.PLP.Chemscore.Internal.Correction>
0.1362

> <Gold.Rescore>
     Score         DG    S(hbond)    S(metal)    S(lipo)     H(rot)  DE(clash)    DE(int)     intcor
     18.31     -21.03       1.00        0.00     136.90       1.48       0.58       2.15       ----

> <Gold.Chemscore.Fitness>
18.3052

> <Gold.Chemscore.DG>
-21.0320

> <Gold.Chemscore.ZeroCoef>
-5.4800

> <Gold.Chemscore.Hbond>
0.9989

> <Gold.Chemscore.Metal>
0.0000

> <Gold.Chemscore.Lipo>
136.8986

> <Gold.Chemscore.Internal_Hbond>
0.0000

> <Gold.Chemscore.DEClash>
0.5800

> <Gold.Chemscore.DEInternal>
2.1468

> <Gold.Chemscore.Rot>
1.4850

> <Gold.Chemscore.Internal.Correction>
   9.000000E+99

> <Gold.Chemscore.Hbonds>
donor molecule, donor type, donor heavy atom, donor atom, acceptor molecule, acceptor atom, score
      L1  H     9    28       P1  8028  0.96

> <Gold.Chemscore.Hbond.Weighted>
-3.3364

> <Gold.Chemscore.Metal.Weighted>
-0.0000

> <Gold.Chemscore.Lipo.Weighted>
-16.0171

> <Gold.Chemscore.Internal_Hbond.Weighted>
0.0000

> <Gold.Chemscore.DEClash.Weighted>
0.5800

> <Gold.Chemscore.DEInternal.Weighted>
2.1468

> <Gold.Chemscore.Rot.Weighted>
3.8015

> <Gold.Chemscore.Internal.Correction.Weighted>
   9.000000E+99

> <Gold.Protein.RotatedTorsions>
[ 6907 6896 6895 6894 ] final   35.38 input  -60.11 | X-H torsion
[ 7974 7965 7964 7962 ] final  -90.38 input  175.53 | X-H torsion
[ 8008 7997 7996 7995 ] final   32.88 input   59.86 | X-H torsion
[ 10167 10162 10161 10158 ] final  166.56 input  -65.29 | X-H torsion
[ 10718 10713 10712 10709 ] final   24.28 input   66.30 | X-H torsion
[ 10763 10752 10751 10750 ] final  -56.71 input  -60.55 | X-H torsion
[ 11005 11000 10999 10996 ] final  -65.42 input  -57.11 | X-H torsion

> <Gold.Protein.ActiveResidues>
 VAL166  LYS551  ARG553  GLY616  TRP617  ASP618  TYR619  PRO620  LYS621  CYS622 
 ASP623  PHE694  ASN695  SER759  ASP760  ASP761  ALA762  ILE779  LEU786  VAL792 
 PHE793  MET794  SER795  GLU796  ALA797  LYS798  CYS799  TRP800  GLU811  SER814 

> <Gold.Protein.RotatedAtoms>
  152.1154  134.9244  160.0564 H   0  0  0  0  0  0  0  0  0  0  0  0  # atno 6907 bound_to 6896
  152.0406  133.3971  159.4343 H   0  0  0  0  0  0  0  0  0  0  0  0  # atno 6908 bound_to 6896
  150.6846  134.3340  159.4883 H   0  0  0  0  0  0  0  0  0  0  0  0  # atno 6909 bound_to 6896
  145.4273  140.9554  143.2148 H   0  0  0  0  0  0  0  0  0  0  0  0  # atno 7974 bound_to 7965
  155.1296  140.3256  155.4477 H   0  0  0  0  0  0  0  0  0  0  0  0  # atno 8008 bound_to 7997
  156.2638  140.2013  156.6365 H   0  0  0  0  0  0  0  0  0  0  0  0  # atno 8009 bound_to 7997
  154.6622  140.0546  157.0061 H   0  0  0  0  0  0  0  0  0  0  0  0  # atno 8010 bound_to 7997
  139.4927  144.4014  151.9405 H   0  0  0  0  0  0  0  0  0  0  0  0  # atno 10167 bound_to 10162
  157.1777  130.6788  149.6101 H   0  0  0  0  0  0  0  0  0  0  0  0  # atno 10718 bound_to 10713
  154.2109  135.6394  153.5115 H   0  0  0  0  0  0  0  0  0  0  0  0  # atno 10763 bound_to 10752
  152.9990  135.5474  154.6215 H   0  0  0  0  0  0  0  0  0  0  0  0  # atno 10764 bound_to 10752
  154.5652  135.2912  155.0854 H   0  0  0  0  0  0  0  0  0  0  0  0  # atno 10765 bound_to 10752
  141.1454  133.6681  156.5983 H   0  0  0  0  0  0  0  0  0  0  0  0  # atno 11005 bound_to 11000
  144.8206  139.5798  143.6988 LP  0  0  0  0  0  0  0  0  0  0  0  0  # atno 17320 bound_to 7965
  146.2626  139.6444  142.9352 LP  0  0  0  0  0  0  0  0  0  0  0  0  # atno 17321 bound_to 7965
  140.3454  144.3154  150.5959 LP  0  0  0  0  0  0  0  0  0  0  0  0  # atno 17342 bound_to 10162
  140.5531  143.2203  151.7894 LP  0  0  0  0  0  0  0  0  0  0  0  0  # atno 17343 bound_to 10162
  155.9729  130.4657  150.6264 LP  0  0  0  0  0  0  0  0  0  0  0  0  # atno 17370 bound_to 10713
  157.3983  131.0806  151.1332 LP  0  0  0  0  0  0  0  0  0  0  0  0  # atno 17371 bound_to 10713
  140.3709  134.7607  157.4597 LP  0  0  0  0  0  0  0  0  0  0  0  0  # atno 17394 bound_to 11000
  140.0712  134.5860  155.8640 LP  0  0  0  0  0  0  0  0  0  0  0  0  # atno 17395 bound_to 11000

$$$$
