AV-unprocessed.smi:794|AV-procd|sdf|3756|dock1
  -GOLD-   22720 1193D 1   1.00000     0.00000
 Structure written by MMmdl.
 41 43  0  0  0  0  0  0  0  0  1 V2000
  153.9773  141.6842  160.2401 C   0  0  0  0  0  0  0  0  0  0  0  0
  152.7523  142.4353  159.8175 C   0  0  0  0  0  0  0  0  0  0  0  0
  152.1417  142.1302  158.5974 N   0  0  0  0  0  0  0  0  0  0  0  0
  151.0640  142.8868  158.3672 C   0  0  0  0  0  0  0  0  0  0  0  0
  150.2521  142.7934  157.2067 N   0  0  0  0  0  0  0  0  0  0  0  0
  150.1159  141.7501  156.3696 C   0  0  0  0  0  0  0  0  0  0  0  0
  150.6945  140.6689  156.4816 O   0  0  0  0  0  0  0  0  0  0  0  0
  149.2572  142.0340  155.3802 N   0  0  0  0  0  0  0  0  0  0  0  0
  148.8573  141.1146  154.3171 C   0  0  2  0  0  0  0  0  0  0  0  0
  147.4106  141.4082  153.8622 C   0  0  1  0  0  0  0  0  0  0  0  0
  147.1675  140.7120  152.5111 C   0  0  0  0  0  0  0  0  0  0  0  0
  147.0955  139.2263  152.9112 C   0  0  0  0  0  0  0  0  0  0  0  0
  147.3111  139.2677  154.4399 C   0  0  2  0  0  0  0  0  0  0  0  0
  146.5727  140.5492  154.8051 C   0  0  0  0  0  0  0  0  0  0  0  0
  148.7655  139.6465  154.8088 C   0  0  1  0  0  0  0  0  0  0  0  0
  149.8463  138.7038  154.2452 C   0  0  0  0  0  0  0  0  0  0  0  0
  151.1254  139.2753  154.4150 O   0  0  0  0  0  0  0  0  0  0  0  0
  150.7256  144.0380  159.6480 S   0  0  0  0  0  0  0  0  0  0  0  0
  152.1194  143.4394  160.5134 C   0  0  0  0  0  0  0  0  0  0  0  0
  152.5017  144.0089  161.8389 C   0  0  0  0  0  0  0  0  0  0  0  0
  154.8063  142.3645  160.4356 H   0  0  0  0  0  0  0  0  0  0  0  0
  154.3043  140.9803  159.4741 H   0  0  0  0  0  0  0  0  0  0  0  0
  153.7932  141.1159  161.1519 H   0  0  0  0  0  0  0  0  0  0  0  0
  149.7086  143.6161  156.9909 H   0  0  0  0  0  0  0  0  0  0  0  0
  148.8331  142.9500  155.3681 H   0  0  0  0  0  0  0  0  0  0  0  0
  149.5362  141.2132  153.4676 H   0  0  0  0  0  0  0  0  0  0  0  0
  147.1540  142.4682  153.8509 H   0  0  0  0  0  0  0  0  0  0  0  0
  146.2234  141.0358  152.0709 H   0  0  0  0  0  0  0  0  0  0  0  0
  147.9588  140.9124  151.7876 H   0  0  0  0  0  0  0  0  0  0  0  0
  146.1097  138.8219  152.6773 H   0  0  0  0  0  0  0  0  0  0  0  0
  147.8276  138.6126  152.3878 H   0  0  0  0  0  0  0  0  0  0  0  0
  146.9518  138.3758  154.9541 H   0  0  0  0  0  0  0  0  0  0  0  0
  146.6765  140.8274  155.8553 H   0  0  0  0  0  0  0  0  0  0  0  0
  145.5125  140.5292  154.5458 H   0  0  0  0  0  0  0  0  0  0  0  0
  148.8320  139.6175  155.8986 H   0  0  0  0  0  0  0  0  0  0  0  0
  149.8263  137.7478  154.7689 H   0  0  0  0  0  0  0  0  0  0  0  0
  149.6899  138.4999  153.1860 H   0  0  0  0  0  0  0  0  0  0  0  0
  151.7765  138.6434  154.1510 H   0  0  0  0  0  0  0  0  0  0  0  0
  152.5249  143.2307  162.6019 H   0  0  0  0  0  0  0  0  0  0  0  0
  151.7940  144.7733  162.1603 H   0  0  0  0  0  0  0  0  0  0  0  0
  153.4905  144.4650  161.7917 H   0  0  0  0  0  0  0  0  0  0  0  0
  1  2  1  0  0  0  0
  1 21  1  0  0  0  0
  1 22  1  0  0  0  0
  1 23  1  0  0  0  0
  2 19  2  0  0  0  0
  2  3  1  0  0  0  0
  3  4  2  0  0  0  0
  4  5  1  0  0  0  0
  4 18  1  0  0  0  0
  5  6  1  0  0  0  0
  5 24  1  0  0  0  0
  6  7  2  0  0  0  0
  6  8  1  0  0  0  0
  8  9  1  0  0  0  0
  8 25  1  0  0  0  0
  9 15  1  0  0  0  0
  9 10  1  0  0  0  0
  9 26  1  0  0  0  0
 10 14  1  0  0  0  0
 10 11  1  0  0  0  0
 10 27  1  0  0  0  0
 11 12  1  0  0  0  0
 11 28  1  0  0  0  0
 11 29  1  0  0  0  0
 12 13  1  0  0  0  0
 12 30  1  0  0  0  0
 12 31  1  0  0  0  0
 13 14  1  0  0  0  0
 13 15  1  0  0  0  0
 13 32  1  0  0  0  0
 14 33  1  0  0  0  0
 14 34  1  0  0  0  0
 15 16  1  0  0  0  0
 15 35  1  0  0  0  0
 16 17  1  0  0  0  0
 16 36  1  0  0  0  0
 16 37  1  0  0  0  0
 17 38  1  0  0  0  0
 18 19  1  0  0  0  0
 19 20  1  0  0  0  0
 20 39  1  0  0  0  0
 20 40  1  0  0  0  0
 20 41  1  0  0  0  0
M  END
> <s_m_source_file>
AV-unprocessed.smi

> <i_m_source_file_index>
794

> <i_lp_mmshare_version>
43012

> <i_f3d_flags>
0

> <s_epik_input>
W0NIM11jMW5jKHNjMVtDSDNdKVtOSF1DKD1PKVtOSF1bQ0BIXShbQ0BASF0yMylbQ0BIXShbQ0gyXVtPSF0pW0NAQEhdKFtDSDJdMylbQ0gyXVtDSDJdMg==

> <s_epik_cmdline>
J2VwaWtfcHl0aG9uJywgJy1waCcsICc3LjAnLCAnLXRuJywgJzgnLCAnLW1hJywgJzIwMCcsICctbWV0YWxfYmluZGluZycsICctaW1hZScsICc8aW5maWxlLm1hZT4nLCAnLW9tYWUnLCAnPG91dGZpbGUubWFlPic=

> <r_lp_tautomer_probability>
0.999

> <r_epik_Ionization_Penalty>
0.000713029

> <r_epik_Ionization_Penalty_Charging>
0

> <r_epik_Ionization_Penalty_Neutral>
0.000713029

> <r_epik_State_Penalty>
0.000177984

> <r_epik_Charging_Adjusted_Penalty>
0.000177984

> <i_epik_Tot_Q>
0

> <i_epik_Tot_abs_Q>
0

> <r_epik_Metal_State_Penalty>
-0

> <b_epik_Metal_Only>
0

> <s_lp_Force_Field>
OPLS_2005

> <r_lp_Energy>
47.5891

> <b_lp_Chiralities_Consistent>
1

> <s_lp_Variant>
AV-unprocessed.smi:794-1

> <Gold.Version>
5.8.1

> <Gold.Id.Protein>
6NUR|6NUR_protein|mol2

> <Gold.PLP.Fitness>
47.9112

> <Gold.PLP.PLP>
-39.9711

> <Gold.PLP.part.hbond>
-3.0000

> <Gold.PLP.part.metal>
0.0000

> <Gold.PLP.part.buried>
-3.9468

> <Gold.PLP.part.nonpolar>
-32.0689

> <Gold.PLP.part.repulsive>
0.2048

> <Gold.PLP.ligand.clash>
0.0000

> <Gold.PLP.ligand.torsion>
0.5283

> <Gold.PLP.Chemscore.Hbond>
2.9920

> <Gold.PLP.Chemscore.CHOScore>
0.0000

> <Gold.PLP.Chemscore.Metal>
0.0000

> <Gold.Chemscore.Hbonds>
donor molecule, donor type, donor heavy atom, donor atom, acceptor molecule, acceptor atom, score
      L1  H     5    24       P1  8028  0.99
      L1  H     8    25       P1  8028  1.00
      P1  H  7989  7998       L1    17  1.00

> <Gold.PLP.Chemscore.Internal.Correction>
0.0206

> <Gold.Rescore>
     Score         DG    S(hbond)    S(metal)    S(lipo)     H(rot)  DE(clash)    DE(int)     intcor
     17.52     -22.15       2.65        0.00     105.63       1.78       1.37       3.25       ----

> <Gold.Chemscore.Fitness>
17.5200

> <Gold.Chemscore.DG>
-22.1488

> <Gold.Chemscore.ZeroCoef>
-5.4800

> <Gold.Chemscore.Hbond>
2.6547

> <Gold.Chemscore.Metal>
0.0000

> <Gold.Chemscore.Lipo>
105.6281

> <Gold.Chemscore.Internal_Hbond>
0.0000

> <Gold.Chemscore.DEClash>
1.3747

> <Gold.Chemscore.DEInternal>
3.2541

> <Gold.Chemscore.Rot>
1.7798

> <Gold.Chemscore.Internal.Correction>
   9.000000E+99

> <Gold.Chemscore.Hbonds>
donor molecule, donor type, donor heavy atom, donor atom, acceptor molecule, acceptor atom, score
      L1  H     5    24       P1  8028  0.90
      L1  H     8    25       P1  8028  0.97
      P1  H  7989  7998       L1    17  0.39

> <Gold.Chemscore.Hbond.Weighted>
-8.8666

> <Gold.Chemscore.Metal.Weighted>
-0.0000

> <Gold.Chemscore.Lipo.Weighted>
-12.3585

> <Gold.Chemscore.Internal_Hbond.Weighted>
0.0000

> <Gold.Chemscore.DEClash.Weighted>
1.3747

> <Gold.Chemscore.DEInternal.Weighted>
3.2541

> <Gold.Chemscore.Rot.Weighted>
4.5562

> <Gold.Chemscore.Internal.Correction.Weighted>
   9.000000E+99

> <Gold.Protein.RotatedTorsions>
[ 6907 6896 6895 6894 ] final  141.54 input  -60.11 | X-H torsion
[ 7974 7965 7964 7962 ] final   26.95 input  175.53 | X-H torsion
[ 8008 7997 7996 7995 ] final -146.37 input   59.86 | X-H torsion
[ 10167 10162 10161 10158 ] final -178.76 input  -65.29 | X-H torsion
[ 10718 10713 10712 10709 ] final -140.53 input   66.30 | X-H torsion
[ 10763 10752 10751 10750 ] final -100.43 input  -60.55 | X-H torsion
[ 11005 11000 10999 10996 ] final  -31.11 input  -57.11 | X-H torsion

> <Gold.Protein.ActiveResidues>
 VAL166  LYS551  ARG553  GLY616  TRP617  ASP618  TYR619  PRO620  LYS621  CYS622 
 ASP623  PHE694  ASN695  SER759  ASP760  ASP761  ALA762  ILE779  LEU786  VAL792 
 PHE793  MET794  SER795  GLU796  ALA797  LYS798  CYS799  TRP800  GLU811  SER814 

> <Gold.Protein.RotatedAtoms>
  152.2297  133.5048  159.5208 H   0  0  0  0  0  0  0  0  0  0  0  0  # atno 6907 bound_to 6896
  150.7034  134.1233  159.4052 H   0  0  0  0  0  0  0  0  0  0  0  0  # atno 6908 bound_to 6896
  151.9154  135.0321  160.0568 H   0  0  0  0  0  0  0  0  0  0  0  0  # atno 6909 bound_to 6896
  146.1810  139.7258  142.8900 H   0  0  0  0  0  0  0  0  0  0  0  0  # atno 7974 bound_to 7965
  155.5583  140.0623  157.2834 H   0  0  0  0  0  0  0  0  0  0  0  0  # atno 8008 bound_to 7997
  154.4398  140.1890  156.0802 H   0  0  0  0  0  0  0  0  0  0  0  0  # atno 8009 bound_to 7997
  156.0465  140.3289  155.7306 H   0  0  0  0  0  0  0  0  0  0  0  0  # atno 8010 bound_to 7997
  139.5417  144.2344  152.0909 H   0  0  0  0  0  0  0  0  0  0  0  0  # atno 10167 bound_to 10162
  156.3234  130.7547  151.1649 H   0  0  0  0  0  0  0  0  0  0  0  0  # atno 10718 bound_to 10713
  154.7578  135.4935  153.9407 H   0  0  0  0  0  0  0  0  0  0  0  0  # atno 10763 bound_to 10752
  153.1216  135.6733  153.9334 H   0  0  0  0  0  0  0  0  0  0  0  0  # atno 10764 bound_to 10752
  153.9064  135.3104  155.3427 H   0  0  0  0  0  0  0  0  0  0  0  0  # atno 10765 bound_to 10752
  140.9440  133.7261  156.1119 H   0  0  0  0  0  0  0  0  0  0  0  0  # atno 11005 bound_to 11000
  145.4075  141.0392  143.3036 LP  0  0  0  0  0  0  0  0  0  0  0  0  # atno 17320 bound_to 7965
  144.8316  139.5619  143.6941 LP  0  0  0  0  0  0  0  0  0  0  0  0  # atno 17321 bound_to 7965
  140.1824  144.4831  150.6521 LP  0  0  0  0  0  0  0  0  0  0  0  0  # atno 17342 bound_to 10162
  140.6650  143.2265  151.5765 LP  0  0  0  0  0  0  0  0  0  0  0  0  # atno 17343 bound_to 10162
  157.7416  131.0501  150.5082 LP  0  0  0  0  0  0  0  0  0  0  0  0  # atno 17370 bound_to 10713
  156.5238  130.4168  149.6237 LP  0  0  0  0  0  0  0  0  0  0  0  0  # atno 17371 bound_to 10713
  140.7694  134.3849  157.5510 LP  0  0  0  0  0  0  0  0  0  0  0  0  # atno 17394 bound_to 11000
  139.8828  134.9013  156.2806 LP  0  0  0  0  0  0  0  0  0  0  0  0  # atno 17395 bound_to 11000

$$$$
