AV-unprocessed.smi:2093|AV-procd|sdf|8546|dock8
  -GOLD-   2272011273D 1   1.00000     0.00000
 Structure written by MMmdl.
 31 32  0  0  0  0  0  0  0  0  1 V2000
  147.9953  141.2943  154.2637 C   0  0  0  0  0  0  0  0  0  0  0  0
  149.0661  140.9553  155.3111 C   0  0  2  0  0  0  0  0  0  0  0  0
  149.4735  142.1832  155.9928 N   0  0  0  0  0  0  0  0  0  0  0  0
  150.0985  142.2578  157.1774 C   0  0  0  0  0  0  0  0  0  0  0  0
  150.4038  141.2745  157.8525 O   0  0  0  0  0  0  0  0  0  0  0  0
  150.3433  143.5364  157.5139 N   0  0  0  0  0  0  0  0  0  0  0  0
  150.9895  144.0312  158.6771 C   0  0  0  0  0  0  0  0  0  0  0  0
  151.0670  145.3262  159.0056 N   0  0  0  0  0  0  0  0  0  0  0  0
  151.7585  145.5227  160.2037 C   0  0  0  0  0  0  0  0  0  0  0  0
  152.2039  144.3581  160.7782 C   0  0  0  0  0  0  0  0  0  0  0  0
  151.7717  142.9600  159.8304 S   0  0  0  0  0  0  0  0  0  0  0  0
  150.2947  140.2712  154.6802 C   0  0  1  0  0  0  0  0  0  0  0  0
  151.4302  139.9670  155.6606 C   0  0  0  0  0  0  0  0  0  0  0  0
  152.1319  138.8207  154.9701 C   0  0  0  0  0  0  0  0  0  0  0  0
  150.9530  138.0390  154.4002 C   0  0  0  0  0  0  0  0  0  0  0  0
  149.9383  139.0033  154.1319 O   0  0  0  0  0  0  0  0  0  0  0  0
  147.6418  140.3960  153.7567 H   0  0  0  0  0  0  0  0  0  0  0  0
  148.3825  141.9737  153.5037 H   0  0  0  0  0  0  0  0  0  0  0  0
  147.1298  141.7691  154.7268 H   0  0  0  0  0  0  0  0  0  0  0  0
  148.6236  140.2579  156.0246 H   0  0  0  0  0  0  0  0  0  0  0  0
  149.2671  143.0482  155.5155 H   0  0  0  0  0  0  0  0  0  0  0  0
  150.0351  144.2391  156.8584 H   0  0  0  0  0  0  0  0  0  0  0  0
  151.8876  146.5282  160.5764 H   0  0  0  0  0  0  0  0  0  0  0  0
  152.7577  144.2388  161.6977 H   0  0  0  0  0  0  0  0  0  0  0  0
  150.6877  140.8826  153.8660 H   0  0  0  0  0  0  0  0  0  0  0  0
  152.0823  140.8227  155.8377 H   0  0  0  0  0  0  0  0  0  0  0  0
  151.0321  139.6360  156.6213 H   0  0  0  0  0  0  0  0  0  0  0  0
  152.7605  139.1981  154.1625 H   0  0  0  0  0  0  0  0  0  0  0  0
  152.7534  138.2275  155.6412 H   0  0  0  0  0  0  0  0  0  0  0  0
  151.2192  137.4791  153.5036 H   0  0  0  0  0  0  0  0  0  0  0  0
  150.5713  137.3341  155.1398 H   0  0  0  0  0  0  0  0  0  0  0  0
  1  2  1  0  0  0  0
  1 17  1  0  0  0  0
  1 18  1  0  0  0  0
  1 19  1  0  0  0  0
  2  3  1  0  0  0  0
  2 12  1  0  0  0  0
  2 20  1  0  0  0  0
  3  4  1  0  0  0  0
  3 21  1  0  0  0  0
  4  5  2  0  0  0  0
  4  6  1  0  0  0  0
  6  7  1  0  0  0  0
  6 22  1  0  0  0  0
  7 11  1  0  0  0  0
  7  8  2  0  0  0  0
  8  9  1  0  0  0  0
  9 10  2  0  0  0  0
  9 23  1  0  0  0  0
 10 11  1  0  0  0  0
 10 24  1  0  0  0  0
 12 16  1  0  0  0  0
 12 13  1  0  0  0  0
 12 25  1  0  0  0  0
 13 14  1  0  0  0  0
 13 26  1  0  0  0  0
 13 27  1  0  0  0  0
 14 15  1  0  0  0  0
 14 28  1  0  0  0  0
 14 29  1  0  0  0  0
 15 16  1  0  0  0  0
 15 30  1  0  0  0  0
 15 31  1  0  0  0  0
M  END
> <s_m_source_file>
AV-unprocessed.smi

> <i_m_source_file_index>
2093

> <i_lp_mmshare_version>
43012

> <i_f3d_flags>
0

> <s_epik_input>
TzFbQ0gyXVtDSDJdW0NIMl1bQ0BIXTFbQ0BIXShbQ0gzXSlbTkhdQyg9TylbTkhdYzJuW2NIXVtjSF1zMg==

> <s_epik_cmdline>
J2VwaWtfcHl0aG9uJywgJy1waCcsICc3LjAnLCAnLXRuJywgJzgnLCAnLW1hJywgJzIwMCcsICctbWV0YWxfYmluZGluZycsICctaW1hZScsICc8aW5maWxlLm1hZT4nLCAnLW9tYWUnLCAnPG91dGZpbGUubWFlPic=

> <r_lp_tautomer_probability>
0.999

> <r_epik_Ionization_Penalty>
0.000334433

> <r_epik_Ionization_Penalty_Charging>
0

> <r_epik_Ionization_Penalty_Neutral>
0.000334433

> <r_epik_State_Penalty>
0.000177984

> <r_epik_Charging_Adjusted_Penalty>
0.000177984

> <i_epik_Tot_Q>
0

> <i_epik_Tot_abs_Q>
0

> <r_epik_Metal_State_Penalty>
0.00767616

> <b_epik_Metal_Only>
0

> <s_lp_Force_Field>
OPLS_2005

> <r_lp_Energy>
15.9736

> <b_lp_Chiralities_Consistent>
1

> <s_lp_Variant>
AV-unprocessed.smi:2093-3

> <Gold.Version>
5.8.1

> <Gold.Id.Protein>
6NUR|6NUR_protein|mol2

> <Gold.PLP.Fitness>
39.3086

> <Gold.PLP.PLP>
-33.9111

> <Gold.PLP.part.hbond>
-2.3238

> <Gold.PLP.part.metal>
0.0000

> <Gold.PLP.part.buried>
-2.7167

> <Gold.PLP.part.nonpolar>
-30.4204

> <Gold.PLP.part.repulsive>
0.5639

> <Gold.PLP.ligand.clash>
0.0000

> <Gold.PLP.ligand.torsion>
0.2694

> <Gold.PLP.Chemscore.Hbond>
1.9760

> <Gold.PLP.Chemscore.CHOScore>
0.0000

> <Gold.PLP.Chemscore.Metal>
0.0000

> <Gold.Chemscore.Hbonds>
donor molecule, donor type, donor heavy atom, donor atom, acceptor molecule, acceptor atom, score
      L1  H     3    21       P1  8028  0.96
      L1  H     6    22       P1  8028  0.99

> <Gold.PLP.Chemscore.Internal.Correction>
0.0082

> <Gold.Rescore>
     Score         DG    S(hbond)    S(metal)    S(lipo)     H(rot)  DE(clash)    DE(int)     intcor
     14.11     -17.10       1.77        0.00      77.12       1.29       0.19       2.80       ----

> <Gold.Chemscore.Fitness>
14.1105

> <Gold.Chemscore.DG>
-17.0981

> <Gold.Chemscore.ZeroCoef>
-5.4800

> <Gold.Chemscore.Hbond>
1.7686

> <Gold.Chemscore.Metal>
0.0000

> <Gold.Chemscore.Lipo>
77.1216

> <Gold.Chemscore.Internal_Hbond>
0.0000

> <Gold.Chemscore.DEClash>
0.1857

> <Gold.Chemscore.DEInternal>
2.8019

> <Gold.Chemscore.Rot>
1.2938

> <Gold.Chemscore.Internal.Correction>
   9.000000E+99

> <Gold.Chemscore.Hbonds>
donor molecule, donor type, donor heavy atom, donor atom, acceptor molecule, acceptor atom, score
      L1  H     3    21       P1  8028  0.92
      L1  H     6    22       P1  8028  0.85

> <Gold.Chemscore.Hbond.Weighted>
-5.9071

> <Gold.Chemscore.Metal.Weighted>
-0.0000

> <Gold.Chemscore.Lipo.Weighted>
-9.0232

> <Gold.Chemscore.Internal_Hbond.Weighted>
0.0000

> <Gold.Chemscore.DEClash.Weighted>
0.1857

> <Gold.Chemscore.DEInternal.Weighted>
2.8019

> <Gold.Chemscore.Rot.Weighted>
3.3122

> <Gold.Chemscore.Internal.Correction.Weighted>
   9.000000E+99

> <Gold.Protein.RotatedTorsions>
[ 6907 6896 6895 6894 ] final  120.82 input  -60.11 | X-H torsion
[ 7974 7965 7964 7962 ] final  -65.97 input  175.53 | X-H torsion
[ 8008 7997 7996 7995 ] final -154.99 input   59.86 | X-H torsion
[ 10167 10162 10161 10158 ] final  -15.62 input  -65.29 | X-H torsion
[ 10718 10713 10712 10709 ] final   84.04 input   66.30 | X-H torsion
[ 10763 10752 10751 10750 ] final  100.13 input  -60.55 | X-H torsion
[ 11005 11000 10999 10996 ] final   16.70 input  -57.11 | X-H torsion

> <Gold.Protein.ActiveResidues>
 VAL166  LYS551  ARG553  GLY616  TRP617  ASP618  TYR619  PRO620  LYS621  CYS622 
 ASP623  PHE694  ASN695  SER759  ASP760  ASP761  ALA762  ILE779  LEU786  VAL792 
 PHE793  MET794  SER795  GLU796  ALA797  LYS798  CYS799  TRP800  GLU811  SER814 

> <Gold.Protein.RotatedAtoms>
  152.4369  133.7378  159.6623 H   0  0  0  0  0  0  0  0  0  0  0  0  # atno 6907 bound_to 6896
  150.8254  133.8170  159.3127 H   0  0  0  0  0  0  0  0  0  0  0  0  # atno 6908 bound_to 6896
  151.5839  135.1059  160.0075 H   0  0  0  0  0  0  0  0  0  0  0  0  # atno 6909 bound_to 6896
  145.7477  140.8923  143.0496 H   0  0  0  0  0  0  0  0  0  0  0  0  # atno 7974 bound_to 7965
  155.6950  140.0760  157.2433 H   0  0  0  0  0  0  0  0  0  0  0  0  # atno 8008 bound_to 7997
  154.4082  140.1658  156.2180 H   0  0  0  0  0  0  0  0  0  0  0  0  # atno 8009 bound_to 7997
  155.9418  140.3384  155.6337 H   0  0  0  0  0  0  0  0  0  0  0  0  # atno 8010 bound_to 7997
  140.7221  143.5200  150.9646 H   0  0  0  0  0  0  0  0  0  0  0  0  # atno 10167 bound_to 10162
  157.6891  131.0116  150.2614 H   0  0  0  0  0  0  0  0  0  0  0  0  # atno 10718 bound_to 10713
  153.3101  135.4089  155.1328 H   0  0  0  0  0  0  0  0  0  0  0  0  # atno 10763 bound_to 10752
  154.8573  135.3562  154.5735 H   0  0  0  0  0  0  0  0  0  0  0  0  # atno 10764 bound_to 10752
  153.6164  135.7066  153.5386 H   0  0  0  0  0  0  0  0  0  0  0  0  # atno 10765 bound_to 10752
  140.4441  134.1291  155.7694 H   0  0  0  0  0  0  0  0  0  0  0  0  # atno 11005 bound_to 11000
  144.6856  139.9548  143.7479 LP  0  0  0  0  0  0  0  0  0  0  0  0  # atno 17320 bound_to 7965
  146.0387  139.3401  143.0711 LP  0  0  0  0  0  0  0  0  0  0  0  0  # atno 17321 bound_to 7965
  139.8916  143.6946  152.3144 LP  0  0  0  0  0  0  0  0  0  0  0  0  # atno 17342 bound_to 10162
  139.7263  144.7592  151.0873 LP  0  0  0  0  0  0  0  0  0  0  0  0  # atno 17343 bound_to 10162
  156.3192  130.3783  149.7590 LP  0  0  0  0  0  0  0  0  0  0  0  0  # atno 17370 bound_to 10713
  156.5166  130.8196  151.3188 LP  0  0  0  0  0  0  0  0  0  0  0  0  # atno 17371 bound_to 10713
  141.1693  133.8641  157.1621 LP  0  0  0  0  0  0  0  0  0  0  0  0  # atno 17394 bound_to 11000
  140.0050  135.0012  157.0273 LP  0  0  0  0  0  0  0  0  0  0  0  0  # atno 17395 bound_to 11000

$$$$
