AV-unprocessed.smi:712|AV-procd|sdf|3468|dock4
  -GOLD-   22720 0453D 1   1.00000     0.00000
 Structure written by MMmdl.
 51 52  0  0  0  0  0  0  0  0  2 V2000
  152.0718  144.8721  160.9258 C   0  0  0  0  0  0  0  0  0  0  0  0
  151.9136  143.9110  159.7659 C   0  0  0  0  0  0  0  0  0  0  0  0
  151.5265  144.3898  158.4552 C   0  0  0  0  0  0  0  0  0  0  0  0
  151.3979  143.5105  157.4497 C   0  0  0  0  0  0  0  0  0  0  0  0
  151.6274  142.1346  157.6318 N   0  0  0  0  0  0  0  0  0  0  0  0
  151.4539  141.2599  156.4604 C   0  0  0  0  0  0  0  0  0  0  0  0
  150.0075  141.2350  155.9490 C   0  0  0  0  0  0  0  0  0  0  0  0
  149.0924  141.6866  156.6384 O   0  0  0  0  0  0  0  0  0  0  0  0
  149.8195  140.7056  154.7308 N   0  0  0  0  0  0  0  0  0  0  0  0
  148.5237  140.5214  154.0865 C   0  0  0  0  0  0  0  0  0  0  0  0
  148.2328  139.0319  153.8261 C   0  0  2  0  0  0  0  0  0  0  0  0
  146.9576  138.8315  152.9838 C   0  0  0  0  0  0  0  0  0  0  0  0
  146.6815  137.3854  152.7945 N   0  3  2  0  0  0  0  0  0  0  0  0
  145.4967  137.1070  151.9425 C   0  0  0  0  0  0  0  0  0  0  0  0
  145.6257  135.8027  151.1255 C   0  0  0  0  0  0  0  0  0  0  0  0
  144.3591  135.5627  150.2907 C   0  0  0  0  0  0  0  0  0  0  0  0
  145.9142  134.5875  152.0233 C   0  0  0  0  0  0  0  0  0  0  0  0
  146.6080  136.6979  154.1053 C   0  0  0  0  0  0  0  0  0  0  0  0
  147.8792  136.9680  154.9255 C   0  0  0  0  0  0  0  0  0  0  0  0
  148.0535  138.3700  155.0745 O   0  0  0  0  0  0  0  0  0  0  0  0
  151.9885  141.6170  158.8450 C   0  0  0  0  0  0  0  0  0  0  0  0
  152.1810  140.4118  159.0124 O   0  0  0  0  0  0  0  0  0  0  0  0
  152.1292  142.5879  159.9362 C   0  0  0  0  0  0  0  0  0  0  0  0
  151.9310  145.9044  160.6047 H   0  0  0  0  0  0  0  0  0  0  0  0
  153.0684  144.7846  161.3595 H   0  0  0  0  0  0  0  0  0  0  0  0
  151.3378  144.6531  161.7017 H   0  0  0  0  0  0  0  0  0  0  0  0
  151.3393  145.4400  158.2854 H   0  0  0  0  0  0  0  0  0  0  0  0
  151.1064  143.8019  156.4511 H   0  0  0  0  0  0  0  0  0  0  0  0
  152.0982  141.5755  155.6388 H   0  0  0  0  0  0  0  0  0  0  0  0
  151.7781  140.2470  156.7075 H   0  0  0  0  0  0  0  0  0  0  0  0
  150.6304  140.3734  154.2291 H   0  0  0  0  0  0  0  0  0  0  0  0
  147.7259  140.9765  154.6760 H   0  0  0  0  0  0  0  0  0  0  0  0
  148.5528  141.0611  153.1397 H   0  0  0  0  0  0  0  0  0  0  0  0
  149.0846  138.5939  153.3014 H   0  0  0  0  0  0  0  0  0  0  0  0
  146.1049  139.3067  153.4716 H   0  0  0  0  0  0  0  0  0  0  0  0
  147.0865  139.3209  152.0194 H   0  0  0  0  0  0  0  0  0  0  0  0
  144.6109  137.0263  152.5748 H   0  0  0  0  0  0  0  0  0  0  0  0
  145.3219  137.9585  151.2830 H   0  0  0  0  0  0  0  0  0  0  0  0
  146.4497  135.9010  150.4195 H   0  0  0  0  0  0  0  0  0  0  0  0
  143.4804  135.4489  150.9264 H   0  0  0  0  0  0  0  0  0  0  0  0
  144.4510  134.6597  149.6864 H   0  0  0  0  0  0  0  0  0  0  0  0
  144.1725  136.3939  149.6102 H   0  0  0  0  0  0  0  0  0  0  0  0
  145.1228  134.4406  152.7589 H   0  0  0  0  0  0  0  0  0  0  0  0
  146.8540  134.7036  152.5633 H   0  0  0  0  0  0  0  0  0  0  0  0
  145.9917  133.6737  151.4335 H   0  0  0  0  0  0  0  0  0  0  0  0
  145.7296  137.0453  154.6515 H   0  0  0  0  0  0  0  0  0  0  0  0
  146.4908  135.6238  153.9566 H   0  0  0  0  0  0  0  0  0  0  0  0
  147.7936  136.5159  155.9138 H   0  0  0  0  0  0  0  0  0  0  0  0
  148.7556  136.5268  154.4479 H   0  0  0  0  0  0  0  0  0  0  0  0
  152.4172  142.2244  160.9121 H   0  0  0  0  0  0  0  0  0  0  0  0
  147.4788  136.9921  152.3148 H   0  0  0  0  0  0  0  0  0  0  0  0
  1  2  1  0  0  0  0
  1 24  1  0  0  0  0
  1 25  1  0  0  0  0
  1 26  1  0  0  0  0
  2 23  2  0  0  0  0
  2  3  1  0  0  0  0
  3  4  2  0  0  0  0
  3 27  1  0  0  0  0
  4  5  1  0  0  0  0
  4 28  1  0  0  0  0
  5  6  1  0  0  0  0
  5 21  1  0  0  0  0
  6  7  1  0  0  0  0
  6 29  1  0  0  0  0
  6 30  1  0  0  0  0
  7  8  2  0  0  0  0
  7  9  1  0  0  0  0
  9 10  1  0  0  0  0
  9 31  1  0  0  0  0
 10 11  1  0  0  0  0
 10 32  1  0  0  0  0
 10 33  1  0  0  0  0
 11 20  1  0  0  0  0
 11 12  1  0  0  0  0
 11 34  1  0  0  0  0
 12 13  1  0  0  0  0
 12 35  1  0  0  0  0
 12 36  1  0  0  0  0
 13 14  1  0  0  0  0
 13 18  1  0  0  0  0
 13 51  1  0  0  0  0
 14 15  1  0  0  0  0
 14 37  1  0  0  0  0
 14 38  1  0  0  0  0
 15 16  1  0  0  0  0
 15 17  1  0  0  0  0
 15 39  1  0  0  0  0
 16 40  1  0  0  0  0
 16 41  1  0  0  0  0
 16 42  1  0  0  0  0
 17 43  1  0  0  0  0
 17 44  1  0  0  0  0
 17 45  1  0  0  0  0
 18 19  1  0  0  0  0
 18 46  1  0  0  0  0
 18 47  1  0  0  0  0
 19 20  1  0  0  0  0
 19 48  1  0  0  0  0
 19 49  1  0  0  0  0
 21 22  2  0  0  0  0
 21 23  1  0  0  0  0
 23 50  1  0  0  0  0
M  CHG  1  13   1
M  END
> <s_m_source_file>
AV-unprocessed.smi

> <i_m_source_file_index>
712

> <i_lp_mmshare_version>
43012

> <i_f3d_flags>
0

> <s_epik_input>
W0NIM11jMVtjSF1bY0hdbihjKD1PKVtjSF0xKVtDSDJdQyg9TylbTkhdW0NIMl1bQ0BASF0yW0NIMl1OKFtDSDJdW0NIMl1PMilbQ0gyXVtDSF0oW0NIM10pW0NIM10=

> <s_epik_cmdline>
J2VwaWtfcHl0aG9uJywgJy1waCcsICc3LjAnLCAnLXRuJywgJzgnLCAnLW1hJywgJzIwMCcsICctbWV0YWxfYmluZGluZycsICctaW1hZScsICc8aW5maWxlLm1hZT4nLCAnLW9tYWUnLCAnPG91dGZpbGUubWFlPic=

> <r_lp_tautomer_probability>
1

> <r_epik_Ionization_Penalty>
0.0975935

> <r_epik_Ionization_Penalty_Charging>
0.0975934

> <r_epik_Ionization_Penalty_Neutral>
6.27044e-08

> <r_epik_State_Penalty>
0.0877056

> <r_epik_Charging_Adjusted_Penalty>
0.185299

> <i_epik_Tot_Q>
1

> <i_epik_Tot_abs_Q>
1

> <r_epik_Metal_State_Penalty>
0.0877109

> <b_epik_Metal_Only>
0

> <s_lp_Force_Field>
OPLS_2005

> <r_lp_Energy>
27.343

> <b_lp_Chiralities_Consistent>
1

> <s_lp_Variant>
AV-unprocessed.smi:712-1

> <Gold.Version>
5.8.1

> <Gold.Id.Protein>
6NUR|6NUR_protein|mol2

> <Gold.PLP.Fitness>
49.2845

> <Gold.PLP.PLP>
-41.3144

> <Gold.PLP.part.hbond>
-1.0000

> <Gold.PLP.part.metal>
0.0000

> <Gold.PLP.part.buried>
-4.0392

> <Gold.PLP.part.nonpolar>
-36.9860

> <Gold.PLP.part.repulsive>
0.9151

> <Gold.PLP.ligand.clash>
0.0000

> <Gold.PLP.ligand.torsion>
0.5682

> <Gold.PLP.Chemscore.Hbond>
2.0000

> <Gold.PLP.Chemscore.CHOScore>
1.0000

> <Gold.PLP.Chemscore.Metal>
0.0000

> <Gold.Chemscore.Hbonds>
donor molecule, donor type, donor heavy atom, donor atom, acceptor molecule, acceptor atom, score
      L1  H    13    51       P1  7948  2.00
      L1  C     4    28       P1  8028  0.98

> <Gold.PLP.Chemscore.Internal.Correction>
0.1066

> <Gold.Rescore>
     Score         DG    S(hbond)    S(metal)    S(lipo)     H(rot)  DE(clash)    DE(int)     intcor
     14.80     -16.63       1.00        0.00     108.01       1.89       0.48       1.34       ----

> <Gold.Chemscore.Fitness>
14.7998

> <Gold.Chemscore.DG>
-16.6258

> <Gold.Chemscore.ZeroCoef>
-5.4800

> <Gold.Chemscore.Hbond>
1.0000

> <Gold.Chemscore.Metal>
0.0000

> <Gold.Chemscore.Lipo>
108.0062

> <Gold.Chemscore.Internal_Hbond>
0.0000

> <Gold.Chemscore.DEClash>
0.4831

> <Gold.Chemscore.DEInternal>
1.3430

> <Gold.Chemscore.Rot>
1.8871

> <Gold.Chemscore.Internal.Correction>
   9.000000E+99

> <Gold.Chemscore.Hbonds>
donor molecule, donor type, donor heavy atom, donor atom, acceptor molecule, acceptor atom, score
      L1  H    13    51       P1  7948  1.00

> <Gold.Chemscore.Hbond.Weighted>
-3.3400

> <Gold.Chemscore.Metal.Weighted>
-0.0000

> <Gold.Chemscore.Lipo.Weighted>
-12.6367

> <Gold.Chemscore.Internal_Hbond.Weighted>
0.0000

> <Gold.Chemscore.DEClash.Weighted>
0.4831

> <Gold.Chemscore.DEInternal.Weighted>
1.3430

> <Gold.Chemscore.Rot.Weighted>
4.8309

> <Gold.Chemscore.Internal.Correction.Weighted>
   9.000000E+99

> <Gold.Protein.RotatedTorsions>
[ 6907 6896 6895 6894 ] final  -50.81 input  -60.11 | X-H torsion
[ 7974 7965 7964 7962 ] final -157.17 input  175.53 | X-H torsion
[ 8008 7997 7996 7995 ] final -101.56 input   59.86 | X-H torsion
[ 10167 10162 10161 10158 ] final  -35.11 input  -65.29 | X-H torsion
[ 10718 10713 10712 10709 ] final -115.11 input   66.30 | X-H torsion
[ 10763 10752 10751 10750 ] final  139.12 input  -60.55 | X-H torsion
[ 11005 11000 10999 10996 ] final  148.21 input  -57.11 | X-H torsion

> <Gold.Protein.ActiveResidues>
 VAL166  LYS551  ARG553  GLY616  TRP617  ASP618  TYR619  PRO620  LYS621  CYS622 
 ASP623  PHE694  ASN695  SER759  ASP760  ASP761  ALA762  ILE779  LEU786  VAL792 
 PHE793  MET794  SER795  GLU796  ALA797  LYS798  CYS799  TRP800  GLU811  SER814 

> <Gold.Protein.RotatedAtoms>
  150.8671  134.8037  159.7126 H   0  0  0  0  0  0  0  0  0  0  0  0  # atno 6907 bound_to 6896
  152.4689  134.5005  159.9733 H   0  0  0  0  0  0  0  0  0  0  0  0  # atno 6908 bound_to 6896
  151.5100  133.3448  159.2919 H   0  0  0  0  0  0  0  0  0  0  0  0  # atno 6909 bound_to 6896
  144.7560  140.4006  143.6012 H   0  0  0  0  0  0  0  0  0  0  0  0  # atno 7974 bound_to 7965
  154.8444  140.0433  157.1562 H   0  0  0  0  0  0  0  0  0  0  0  0  # atno 8008 bound_to 7997
  154.9012  140.3000  155.5296 H   0  0  0  0  0  0  0  0  0  0  0  0  # atno 8009 bound_to 7997
  156.2993  140.2375  156.4040 H   0  0  0  0  0  0  0  0  0  0  0  0  # atno 8010 bound_to 7997
  140.7172  143.3501  151.2174 H   0  0  0  0  0  0  0  0  0  0  0  0  # atno 10167 bound_to 10162
  156.0874  130.6063  150.8863 H   0  0  0  0  0  0  0  0  0  0  0  0  # atno 10718 bound_to 10713
  153.9009  135.3022  155.3448 H   0  0  0  0  0  0  0  0  0  0  0  0  # atno 10763 bound_to 10752
  154.7671  135.4905  153.9578 H   0  0  0  0  0  0  0  0  0  0  0  0  # atno 10764 bound_to 10752
  153.1245  135.6790  153.9380 H   0  0  0  0  0  0  0  0  0  0  0  0  # atno 10765 bound_to 10752
  140.0940  134.9023  157.1695 H   0  0  0  0  0  0  0  0  0  0  0  0  # atno 11005 bound_to 11000
  145.6778  139.1612  143.2718 LP  0  0  0  0  0  0  0  0  0  0  0  0  # atno 17320 bound_to 7965
  146.1570  140.6843  142.9295 LP  0  0  0  0  0  0  0  0  0  0  0  0  # atno 17321 bound_to 7965
  139.7029  143.9503  152.2914 LP  0  0  0  0  0  0  0  0  0  0  0  0  # atno 17342 bound_to 10162
  139.9202  144.6804  150.8469 LP  0  0  0  0  0  0  0  0  0  0  0  0  # atno 17343 bound_to 10162
  157.6012  131.0941  150.8956 LP  0  0  0  0  0  0  0  0  0  0  0  0  # atno 17370 bound_to 10713
  156.9113  130.5282  149.5280 LP  0  0  0  0  0  0  0  0  0  0  0  0  # atno 17371 bound_to 10713
  140.3312  134.2808  155.7228 LP  0  0  0  0  0  0  0  0  0  0  0  0  # atno 17394 bound_to 11000
  141.2086  133.7771  157.0045 LP  0  0  0  0  0  0  0  0  0  0  0  0  # atno 17395 bound_to 11000

$$$$
