#       Name:                AV-unprocessed.smi:1220
#       Creating user name   scv26
#       Creation time:       Fri Mar 27 04:17:15 2020


#       File generated by GOLD software.
#

@<TRIPOS>MOLECULE
AV-unprocessed.smi:1220
    38    39     1
SMALL
NO_CHARGES


@<TRIPOS>ATOM
      1 ****         0.0596  -3.0756   2.2019 C.3            1 S1                 0.0000
      2 ****         0.4112  -2.2773   0.9393 C.3            1 S1                 0.0000
      3 ****         1.9400  -2.1582   0.7575 C.3            1 S1                 0.0000
      4 ****         2.3106  -1.5287  -0.4980 N.pl3          1 S1                 0.0000
      5 ****         2.7711  -0.2461  -0.7108 C.2            1 S1                 0.0000
      6 ****         2.9652  -0.1019  -2.0544 C.2            1 S1                 0.0000
      7 ****         2.5967  -1.3690  -2.5866 C.2            1 S1                 0.0000
      8 ****         2.2095  -2.2223  -1.6522 N.2            1 S1                 0.0000
      9 ****        -0.2039  -0.9533   1.0276 N.am           1 S1                 0.0000
     10 ****        -0.7959  -0.2949   0.0180 C.2            1 S1                 0.0000
     11 ****        -0.9295  -0.7646  -1.1122 O.2            1 S1                 0.0000
     12 ****        -1.2897   1.1225   0.3286 C.3            1 S1                 0.0000
     13 ****        -2.7807   1.3184  -0.0210 C.3            1 S1                 0.0000
     14 ****        -3.0929   2.8183   0.0094 C.3            1 S1                 0.0000
     15 ****        -1.5674   3.6541  -0.5645 S.o2           1 S1                 0.0000
     16 ****        -1.7124   4.0230  -1.9806 O.2            1 S1                 0.0000
     17 ****        -1.1616   4.6489   0.4395 O.2            1 S1                 0.0000
     18 ****        -0.4825   2.1826  -0.4415 C.3            1 S1                 0.0000
     19 ****         0.4783  -4.0814   2.1584 H              1 S1                 0.0000
     20 ****        -1.0204  -3.1746   2.3163 H              1 S1                 0.0000
     21 ****         0.4478  -2.5927   3.0993 H              1 S1                 0.0000
     22 ****        -0.0020  -2.8234   0.0893 H              1 S1                 0.0000
     23 ****         2.3795  -1.5878   1.5769 H              1 S1                 0.0000
     24 ****         2.3995  -3.1472   0.7872 H              1 S1                 0.0000
     25 ****         2.9122   0.4517   0.1014 H              1 S1                 0.0000
     26 ****         3.3152   0.7753  -2.5781 H              1 S1                 0.0000
     27 ****         2.5996  -1.6923  -3.6169 H              1 S1                 0.0000
     28 ****        -0.1442  -0.4869   1.9211 H              1 S1                 0.0000
     29 ****        -1.1720   1.3200   1.3957 H              1 S1                 0.0000
     30 ****        -2.9824   0.9421  -1.0251 H              1 S1                 0.0000
     31 ****        -3.4301   0.7685   0.6608 H              1 S1                 0.0000
     32 ****        -3.9366   3.0931  -0.6237 H              1 S1                 0.0000
     33 ****        -3.2966   3.1507   1.0273 H              1 S1                 0.0000
     34 ****         0.4450   2.4519   0.0640 H              1 S1                 0.0000
     35 ****        -0.2407   1.8585  -1.4550 H              1 S1                 0.0000
     36 ****         1.9094  -3.1685  -1.7736 LP             1 S1                 0.0000
     37 ****        -0.5883  -1.6823  -1.3158 LP             1 S1                 0.0000
     38 ****        -1.3792  -0.2285  -1.8265 LP             1 S1                 0.0000
@<TRIPOS>BOND
    1    1    2 1     
    2    1   19 1     
    3    1   20 1     
    4    1   21 1     
    5    2    3 1     
    6    2    9 1     
    7    2   22 1     
    8    3    4 1     
    9    3   23 1     
   10    3   24 1     
   11    4    8 1     
   12    4    5 1     
   13    5    6 2     
   14    5   25 1     
   15    6    7 1     
   16    6   26 1     
   17    7    8 2     
   18    7   27 1     
   19    9   10 am    
   20    9   28 1     
   21   10   11 2     
   22   10   12 1     
   23   12   18 1     
   24   12   13 1     
   25   12   29 1     
   26   13   14 1     
   27   13   30 1     
   28   13   31 1     
   29   14   15 1     
   30   14   32 1     
   31   14   33 1     
   32   15   16 2     
   33   15   17 2     
   34   15   18 1     
   35   18   34 1     
   36   18   35 1     
   37    8   36 1     
   38   11   37 1     
   39   11   38 1     
@<TRIPOS>SUBSTRUCTURE
      1 S1             1
@<TRIPOS>SET
LONE_PAIRS      STATIC     ATOMS    <user>   **** ""
5 36 37 38 16 17
DONOR_HYDROGENS      STATIC     ATOMS    <user>   **** ""
1 28
ATOM$BLUE        STATIC     ATOMS    COLORGROUP SYSTEM
5 36 37 38 16 17
ATOM$RED        STATIC     ATOMS    COLORGROUP SYSTEM
1 28
