AV-unprocessed.smi:1757|AV-procd|sdf|7078|dock6
  -GOLD-   22720 8293D 1   1.00000     0.00000
 Structure written by MMmdl.
 39 40  0  0  0  0  0  0  0  0  3 V2000
  146.7036  141.9199  154.2793 C   0  0  0  0  0  0  0  0  0  0  0  0
  146.0205  140.6106  154.2010 N   0  3  2  0  0  0  0  0  0  0  0  0
  145.3311  140.2566  155.4668 C   0  0  0  0  0  0  0  0  0  0  0  0
  144.5257  138.9525  155.3158 C   0  0  0  0  0  0  0  0  0  0  0  0
  145.4003  137.7877  154.8182 C   0  0  2  0  0  0  0  0  0  0  0  0
  146.3167  137.3518  155.8712 N   0  0  0  0  0  0  0  0  0  0  0  0
  145.9633  137.0240  157.1226 C   0  0  0  0  0  0  0  0  0  0  0  0
  144.7993  137.0513  157.5208 O   0  0  0  0  0  0  0  0  0  0  0  0
  147.0392  136.6524  157.8393 N   0  0  0  0  0  0  0  0  0  0  0  0
  147.1222  136.2388  159.1800 C   0  0  0  0  0  0  0  0  0  0  0  0
  146.3428  135.2782  159.7498 C   0  0  0  0  0  0  0  0  0  0  0  0
  146.4706  134.9006  161.1519 C   0  0  0  0  0  0  0  0  0  0  0  0
  145.6906  133.7673  161.7944 C   0  0  0  0  0  0  0  0  0  0  0  0
  144.9214  134.2172  162.7860 F   0  0  0  0  0  0  0  0  0  0  0  0
  144.9039  133.1875  160.8891 F   0  0  0  0  0  0  0  0  0  0  0  0
  146.5120  132.8399  162.2869 F   0  0  0  0  0  0  0  0  0  0  0  0
  147.4577  135.6170  161.8003 C   0  0  0  0  0  0  0  0  0  0  0  0
  148.2509  136.5993  161.3194 N   0  5  0  0  0  0  0  0  0  0  0  0
  148.1237  136.9438  160.0069 C   0  0  0  0  0  0  0  0  0  0  0  0
  148.8209  137.8242  159.5009 O   0  0  0  0  0  0  0  0  0  0  0  0
  146.1535  138.2121  153.5405 C   0  0  0  0  0  0  0  0  0  0  0  0
  146.9248  139.5289  153.7380 C   0  0  0  0  0  0  0  0  0  0  0  0
  147.5015  141.9012  155.0229 H   0  0  0  0  0  0  0  0  0  0  0  0
  145.9987  142.7060  154.5521 H   0  0  0  0  0  0  0  0  0  0  0  0
  147.1397  142.1849  153.3155 H   0  0  0  0  0  0  0  0  0  0  0  0
  146.0652  140.1591  156.2683 H   0  0  0  0  0  0  0  0  0  0  0  0
  144.6579  141.0655  155.7532 H   0  0  0  0  0  0  0  0  0  0  0  0
  144.0510  138.6925  156.2629 H   0  0  0  0  0  0  0  0  0  0  0  0
  143.7134  139.1172  154.6062 H   0  0  0  0  0  0  0  0  0  0  0  0
  144.7436  136.9492  154.5786 H   0  0  0  0  0  0  0  0  0  0  0  0
  147.2967  137.3034  155.6332 H   0  0  0  0  0  0  0  0  0  0  0  0
  147.9204  136.6279  157.3473 H   0  0  0  0  0  0  0  0  0  0  0  0
  145.5820  134.7709  159.1803 H   0  0  0  0  0  0  0  0  0  0  0  0
  147.6411  135.3577  162.8649 H   0  0  0  0  0  0  0  0  0  0  0  0
  146.8347  137.4256  153.2138 H   0  0  0  0  0  0  0  0  0  0  0  0
  145.4348  138.3400  152.7302 H   0  0  0  0  0  0  0  0  0  0  0  0
  147.3898  139.8204  152.7954 H   0  0  0  0  0  0  0  0  0  0  0  0
  147.7327  139.3914  154.4586 H   0  0  0  0  0  0  0  0  0  0  0  0
  145.3013  140.7051  153.4979 H   0  0  0  0  0  0  0  0  0  0  0  0
  1  2  1  0  0  0  0
  1 23  1  0  0  0  0
  1 24  1  0  0  0  0
  1 25  1  0  0  0  0
  2 22  1  0  0  0  0
  2  3  1  0  0  0  0
  2 39  1  0  0  0  0
  3  4  1  0  0  0  0
  3 26  1  0  0  0  0
  3 27  1  0  0  0  0
  4  5  1  0  0  0  0
  4 28  1  0  0  0  0
  4 29  1  0  0  0  0
  5  6  1  0  0  0  0
  5 21  1  0  0  0  0
  5 30  1  0  0  0  0
  6  7  1  0  0  0  0
  6 31  1  0  0  0  0
  7  8  2  0  0  0  0
  7  9  1  0  0  0  0
  9 10  1  0  0  0  0
  9 32  1  0  0  0  0
 10 19  1  0  0  0  0
 10 11  2  0  0  0  0
 11 12  1  0  0  0  0
 11 33  1  0  0  0  0
 12 13  1  0  0  0  0
 12 17  2  0  0  0  0
 13 14  1  0  0  0  0
 13 15  1  0  0  0  0
 13 16  1  0  0  0  0
 17 18  1  0  0  0  0
 17 34  1  0  0  0  0
 18 19  1  0  0  0  0
 19 20  2  0  0  0  0
 21 22  1  0  0  0  0
 21 35  1  0  0  0  0
 21 36  1  0  0  0  0
 22 37  1  0  0  0  0
 22 38  1  0  0  0  0
M  CHG  1   2   1
M  CHG  1  18  -1
M  END
> <s_m_source_file>
AV-unprocessed.smi

> <i_m_source_file_index>
1757

> <i_lp_mmshare_version>
43012

> <i_f3d_flags>
0

> <s_epik_input>
W0NIM11OMVtDSDJdW0NIMl1bQ0hdKFtDSDJdW0NIMl0xKVtOSF1DKD1PKVtOSF1jMltjSF1jKEMoRikoRilGKVtjSF1bbkhdYzI9Tw==

> <s_epik_cmdline>
J2VwaWtfcHl0aG9uJywgJy1waCcsICc3LjAnLCAnLXRuJywgJzgnLCAnLW1hJywgJzIwMCcsICctbWV0YWxfYmluZGluZycsICctaW1hZScsICc8aW5maWxlLm1hZT4nLCAnLW9tYWUnLCAnPG91dGZpbGUubWFlPic=

> <r_lp_tautomer_probability>
1

> <r_epik_Ionization_Penalty>
3.04759

> <r_epik_Ionization_Penalty_Charging>
0.155898

> <r_epik_Ionization_Penalty_Neutral>
2.89169

> <r_epik_State_Penalty>
2.88714

> <r_epik_Charging_Adjusted_Penalty>
3.04304

> <i_epik_Tot_Q>
0

> <i_epik_Tot_abs_Q>
2

> <r_epik_Metal_State_Penalty>
0.445786

> <b_epik_Metal_Only>
1

> <s_lp_Force_Field>
OPLS_2005

> <r_lp_Energy>
26.2534

> <b_lp_Chiralities_Consistent>
1

> <s_lp_Variant>
AV-unprocessed.smi:1757-4

> <Gold.Version>
5.8.1

> <Gold.Id.Protein>
6NUR|6NUR_protein|mol2

> <Gold.PLP.Fitness>
34.8856

> <Gold.PLP.PLP>
-23.9257

> <Gold.PLP.part.hbond>
-3.7213

> <Gold.PLP.part.metal>
0.0000

> <Gold.PLP.part.buried>
-4.3360

> <Gold.PLP.part.nonpolar>
-17.3957

> <Gold.PLP.part.repulsive>
0.0133

> <Gold.PLP.ligand.clash>
0.0000

> <Gold.PLP.ligand.torsion>
0.5462

> <Gold.PLP.Chemscore.Hbond>
4.0000

> <Gold.PLP.Chemscore.CHOScore>
0.0000

> <Gold.PLP.Chemscore.Metal>
0.0000

> <Gold.Chemscore.Hbonds>
donor molecule, donor type, donor heavy atom, donor atom, acceptor molecule, acceptor atom, score
      L1  H     2    39       P1 10175  2.00
      P1  H  6931  6943       L1    18  1.70

> <Gold.PLP.Chemscore.Internal.Correction>
0.0524

> <Gold.Rescore>
     Score         DG    S(hbond)    S(metal)    S(lipo)     H(rot)  DE(clash)    DE(int)     intcor
     12.58     -14.74       1.85        0.00      48.14       1.00       0.12       2.04       ----

> <Gold.Chemscore.Fitness>
12.5811

> <Gold.Chemscore.DG>
-14.7387

> <Gold.Chemscore.ZeroCoef>
-5.4800

> <Gold.Chemscore.Hbond>
1.8523

> <Gold.Chemscore.Metal>
0.0000

> <Gold.Chemscore.Lipo>
48.1371

> <Gold.Chemscore.Internal_Hbond>
0.0000

> <Gold.Chemscore.DEClash>
0.1158

> <Gold.Chemscore.DEInternal>
2.0417

> <Gold.Chemscore.Rot>
1.0000

> <Gold.Chemscore.Internal.Correction>
   9.000000E+99

> <Gold.Chemscore.Hbonds>
donor molecule, donor type, donor heavy atom, donor atom, acceptor molecule, acceptor atom, score
      L1  H     2    39       P1 10175  0.90
      P1  H  6931  6943       L1    18  0.15

> <Gold.Chemscore.Hbond.Weighted>
-6.1866

> <Gold.Chemscore.Metal.Weighted>
-0.0000

> <Gold.Chemscore.Lipo.Weighted>
-5.6320

> <Gold.Chemscore.Internal_Hbond.Weighted>
0.0000

> <Gold.Chemscore.DEClash.Weighted>
0.1158

> <Gold.Chemscore.DEInternal.Weighted>
2.0417

> <Gold.Chemscore.Rot.Weighted>
2.5600

> <Gold.Chemscore.Internal.Correction.Weighted>
   9.000000E+99

> <Gold.Protein.RotatedTorsions>
[ 6907 6896 6895 6894 ] final  -42.40 input  -60.11 | X-H torsion
[ 7974 7965 7964 7962 ] final  114.97 input  175.53 | X-H torsion
[ 8008 7997 7996 7995 ] final  -84.20 input   59.86 | X-H torsion
[ 10167 10162 10161 10158 ] final   87.98 input  -65.29 | X-H torsion
[ 10718 10713 10712 10709 ] final -142.93 input   66.30 | X-H torsion
[ 10763 10752 10751 10750 ] final   91.79 input  -60.55 | X-H torsion
[ 11005 11000 10999 10996 ] final  111.13 input  -57.11 | X-H torsion

> <Gold.Protein.ActiveResidues>
 VAL166  LYS551  ARG553  GLY616  TRP617  ASP618  TYR619  PRO620  LYS621  CYS622 
 ASP623  PHE694  ASN695  SER759  ASP760  ASP761  ALA762  ILE779  LEU786  VAL792 
 PHE793  MET794  SER795  GLU796  ALA797  LYS798  CYS799  TRP800  GLU811  SER814 

> <Gold.Protein.RotatedAtoms>
  150.9557  134.8951  159.7699 H   0  0  0  0  0  0  0  0  0  0  0  0  # atno 6907 bound_to 6896
  152.5137  134.3744  159.9339 H   0  0  0  0  0  0  0  0  0  0  0  0  # atno 6908 bound_to 6896
  151.3758  133.3798  159.2739 H   0  0  0  0  0  0  0  0  0  0  0  0  # atno 6909 bound_to 6896
  145.1978  139.2967  143.4334 H   0  0  0  0  0  0  0  0  0  0  0  0  # atno 7974 bound_to 7965
  154.6273  140.0608  156.9689 H   0  0  0  0  0  0  0  0  0  0  0  0  # atno 8008 bound_to 7997
  155.1722  140.3292  155.4372 H   0  0  0  0  0  0  0  0  0  0  0  0  # atno 8009 bound_to 7997
  156.2464  140.1912  156.6823 H   0  0  0  0  0  0  0  0  0  0  0  0  # atno 8010 bound_to 7997
  139.8718  144.6488  150.8940 H   0  0  0  0  0  0  0  0  0  0  0  0  # atno 10167 bound_to 10162
  156.3518  130.7692  151.1846 H   0  0  0  0  0  0  0  0  0  0  0  0  # atno 10718 bound_to 10713
  153.2121  135.4385  155.0392 H   0  0  0  0  0  0  0  0  0  0  0  0  # atno 10763 bound_to 10752
  154.8205  135.3335  154.7053 H   0  0  0  0  0  0  0  0  0  0  0  0  # atno 10764 bound_to 10752
  153.7490  135.6999  153.5005 H   0  0  0  0  0  0  0  0  0  0  0  0  # atno 10765 bound_to 10752
  139.8897  134.9500  156.6385 H   0  0  0  0  0  0  0  0  0  0  0  0  # atno 11005 bound_to 11000
  146.3423  140.2212  142.8591 LP  0  0  0  0  0  0  0  0  0  0  0  0  # atno 17320 bound_to 7965
  144.9977  140.8604  143.5300 LP  0  0  0  0  0  0  0  0  0  0  0  0  # atno 17321 bound_to 7965
  140.7759  143.3657  151.1743 LP  0  0  0  0  0  0  0  0  0  0  0  0  # atno 17342 bound_to 10162
  139.7276  143.9123  152.3008 LP  0  0  0  0  0  0  0  0  0  0  0  0  # atno 17343 bound_to 10162
  157.7462  131.0425  150.4699 LP  0  0  0  0  0  0  0  0  0  0  0  0  # atno 17370 bound_to 10713
  156.4895  130.4092  149.6414 LP  0  0  0  0  0  0  0  0  0  0  0  0  # atno 17371 bound_to 10713
  140.7612  133.8816  155.8420 LP  0  0  0  0  0  0  0  0  0  0  0  0  # atno 17394 bound_to 11000
  140.9920  134.1265  157.4399 LP  0  0  0  0  0  0  0  0  0  0  0  0  # atno 17395 bound_to 11000

$$$$
