AV-unprocessed.smi:2784|AV-procd|sdf|10737|dock7
  -GOLD-   2272015173D 1   1.00000     0.00000
 Structure written by MMmdl.
 31 32  0  0  0  0  0  0  0  0  1 V2000
  148.2760  145.0607  160.8811 C   0  0  0  0  0  0  0  0  0  0  0  0
  148.9868  143.9571  160.3441 O   0  0  0  0  0  0  0  0  0  0  0  0
  149.9519  144.3214  159.3664 C   0  0  1  0  0  0  0  0  0  0  0  0
  150.8550  145.4641  159.8500 C   0  0  0  0  0  0  0  0  0  0  0  0
  152.1952  145.2026  159.1723 C   0  0  0  0  0  0  0  0  0  0  0  0
  152.3292  143.6811  159.2043 C   0  0  0  0  0  0  0  0  0  0  0  0
  150.8967  143.1304  159.0841 C   0  0  2  0  0  0  0  0  0  0  0  0
  150.6803  142.5756  157.7500 N   0  0  0  0  0  0  0  0  0  0  0  0
  151.1758  141.4112  157.3055 C   0  0  0  0  0  0  0  0  0  0  0  0
  151.8935  140.6968  158.0127 O   0  0  0  0  0  0  0  0  0  0  0  0
  150.7977  141.1967  155.9894 N   0  0  0  0  0  0  0  0  0  0  0  0
  150.8786  139.9983  155.4984 C   0  0  0  0  0  0  0  0  0  0  0  0
  151.3196  138.7876  156.0267 N   0  0  0  0  0  0  0  0  0  0  0  0
  151.1977  137.8312  155.0580 C   0  0  0  0  0  0  0  0  0  0  0  0
  150.7032  138.4096  153.9676 C   0  0  0  0  0  0  0  0  0  0  0  0
  150.4977  139.7355  154.2069 O   0  0  0  0  0  0  0  0  0  0  0  0
  147.5487  144.7040  161.6104 H   0  0  0  0  0  0  0  0  0  0  0  0
  147.7330  145.5959  160.1012 H   0  0  0  0  0  0  0  0  0  0  0  0
  148.9411  145.7604  161.3881 H   0  0  0  0  0  0  0  0  0  0  0  0
  149.4570  144.6244  158.4410 H   0  0  0  0  0  0  0  0  0  0  0  0
  150.4505  146.4487  159.6148 H   0  0  0  0  0  0  0  0  0  0  0  0
  150.9820  145.4058  160.9320 H   0  0  0  0  0  0  0  0  0  0  0  0
  152.1596  145.5489  158.1385 H   0  0  0  0  0  0  0  0  0  0  0  0
  153.0238  145.7085  159.6680 H   0  0  0  0  0  0  0  0  0  0  0  0
  153.0046  143.3105  158.4322 H   0  0  0  0  0  0  0  0  0  0  0  0
  152.7481  143.3809  160.1657 H   0  0  0  0  0  0  0  0  0  0  0  0
  150.7631  142.3419  159.8275 H   0  0  0  0  0  0  0  0  0  0  0  0
  150.1099  143.1179  157.1174 H   0  0  0  0  0  0  0  0  0  0  0  0
  151.6768  138.6033  156.9535 H   0  0  0  0  0  0  0  0  0  0  0  0
  151.4869  136.8101  155.2583 H   0  0  0  0  0  0  0  0  0  0  0  0
  150.4534  138.0328  152.9868 H   0  0  0  0  0  0  0  0  0  0  0  0
  1  2  1  0  0  0  0
  1 17  1  0  0  0  0
  1 18  1  0  0  0  0
  1 19  1  0  0  0  0
  2  3  1  0  0  0  0
  3  7  1  0  0  0  0
  3  4  1  0  0  0  0
  3 20  1  0  0  0  0
  4  5  1  0  0  0  0
  4 21  1  0  0  0  0
  4 22  1  0  0  0  0
  5  6  1  0  0  0  0
  5 23  1  0  0  0  0
  5 24  1  0  0  0  0
  6  7  1  0  0  0  0
  6 25  1  0  0  0  0
  6 26  1  0  0  0  0
  7  8  1  0  0  0  0
  7 27  1  0  0  0  0
  8 28  1  0  0  0  0
  8  9  1  0  0  0  0
  9 11  1  0  0  0  0
  9 10  2  0  0  0  0
 11 12  2  0  0  0  0
 12 16  1  0  0  0  0
 12 13  1  0  0  0  0
 13 29  1  0  0  0  0
 13 14  1  0  0  0  0
 14 30  1  0  0  0  0
 14 15  2  0  0  0  0
 15 31  1  0  0  0  0
 15 16  1  0  0  0  0
M  END
> <s_m_source_file>
AV-unprocessed.smi

> <i_m_source_file_index>
2784

> <i_lp_mmshare_version>
43012

> <i_f3d_flags>
0

> <s_epik_input>
W0NIM11PW0NAQEhdMVtDSDJdW0NIMl1bQ0gyXVtDQEhdMVtOSF1DKD1PKVtOSF1jMm5bY0hdW2NIXW8y

> <s_epik_cmdline>
J2VwaWtfcHl0aG9uJywgJy1waCcsICc3LjAnLCAnLXRuJywgJzgnLCAnLW1hJywgJzIwMCcsICctbWV0YWxfYmluZGluZycsICctaW1hZScsICc8aW5maWxlLm1hZT4nLCAnLW9tYWUnLCAnPG91dGZpbGUubWFlPic=

> <r_lp_tautomer_probability>
0.107061

> <r_epik_Ionization_Penalty>
1.29244

> <r_epik_Ionization_Penalty_Charging>
1.29208

> <r_epik_Ionization_Penalty_Neutral>
0.000359742

> <r_epik_State_Penalty>
2.59896

> <r_epik_Charging_Adjusted_Penalty>
3.89105

> <i_epik_Tot_Q>
0

> <i_epik_Tot_abs_Q>
0

> <r_epik_Metal_State_Penalty>
3.62496

> <b_epik_Metal_Only>
0

> <s_lp_Force_Field>
OPLS_2005

> <r_lp_Energy>
42.837

> <b_lp_Chiralities_Consistent>
1

> <s_lp_Variant>
AV-unprocessed.smi:2784-12

> <Gold.Version>
5.8.1

> <Gold.Id.Protein>
6NUR|6NUR_protein|mol2

> <Gold.PLP.Fitness>
39.5658

> <Gold.PLP.PLP>
-32.3141

> <Gold.PLP.part.hbond>
-2.0000

> <Gold.PLP.part.metal>
0.0000

> <Gold.PLP.part.buried>
-6.8636

> <Gold.PLP.part.nonpolar>
-24.6842

> <Gold.PLP.part.repulsive>
0.4731

> <Gold.PLP.ligand.clash>
0.0000

> <Gold.PLP.ligand.torsion>
0.2993

> <Gold.PLP.Chemscore.Hbond>
1.4400

> <Gold.PLP.Chemscore.CHOScore>
1.1750

> <Gold.PLP.Chemscore.Metal>
0.0000

> <Gold.Chemscore.Hbonds>
donor molecule, donor type, donor heavy atom, donor atom, acceptor molecule, acceptor atom, score
      P1  H  6933  6944       L1     2  0.64
      P1  H  7989  7998       L1    16  0.75
      L1  C    15    31       P1  7948  0.64
      L1  C    15    31       P1  7949  0.36
      L1  C    15    31       P1  7957  0.16

> <Gold.PLP.Chemscore.Internal.Correction>
0.0052

> <Gold.Rescore>
     Score         DG    S(hbond)    S(metal)    S(lipo)     H(rot)  DE(clash)    DE(int)     intcor
     14.95     -15.26       1.45        0.00      71.02       1.32       0.00       0.31       ----

> <Gold.Chemscore.Fitness>
14.9505

> <Gold.Chemscore.DG>
-15.2594

> <Gold.Chemscore.ZeroCoef>
-5.4800

> <Gold.Chemscore.Hbond>
1.4546

> <Gold.Chemscore.Metal>
0.0000

> <Gold.Chemscore.Lipo>
71.0173

> <Gold.Chemscore.Internal_Hbond>
0.0000

> <Gold.Chemscore.DEClash>
0.0004

> <Gold.Chemscore.DEInternal>
0.3084

> <Gold.Chemscore.Rot>
1.3235

> <Gold.Chemscore.Internal.Correction>
   9.000000E+99

> <Gold.Chemscore.Hbonds>
donor molecule, donor type, donor heavy atom, donor atom, acceptor molecule, acceptor atom, score
      L1  H     8    28       P1  8028  0.03
      P1  H  6933  6944       L1     2  0.41
      P1  H  7989  7998       L1    16  0.09

> <Gold.Chemscore.Hbond.Weighted>
-4.8585

> <Gold.Chemscore.Metal.Weighted>
-0.0000

> <Gold.Chemscore.Lipo.Weighted>
-8.3090

> <Gold.Chemscore.Internal_Hbond.Weighted>
0.0000

> <Gold.Chemscore.DEClash.Weighted>
0.0004

> <Gold.Chemscore.DEInternal.Weighted>
0.3084

> <Gold.Chemscore.Rot.Weighted>
3.3882

> <Gold.Chemscore.Internal.Correction.Weighted>
   9.000000E+99

> <Gold.Protein.RotatedTorsions>
[ 6907 6896 6895 6894 ] final   -5.09 input  -60.11 | X-H torsion
[ 7974 7965 7964 7962 ] final -107.94 input  175.53 | X-H torsion
[ 8008 7997 7996 7995 ] final  171.21 input   59.86 | X-H torsion
[ 10167 10162 10161 10158 ] final  -28.05 input  -65.29 | X-H torsion
[ 10718 10713 10712 10709 ] final -153.00 input   66.30 | X-H torsion
[ 10763 10752 10751 10750 ] final   12.50 input  -60.55 | X-H torsion
[ 11005 11000 10999 10996 ] final -124.63 input  -57.11 | X-H torsion

> <Gold.Protein.ActiveResidues>
 VAL166  LYS551  ARG553  GLY616  TRP617  ASP618  TYR619  PRO620  LYS621  CYS622 
 ASP623  PHE694  ASN695  SER759  ASP760  ASP761  ALA762  ILE779  LEU786  VAL792 
 PHE793  MET794  SER795  GLU796  ALA797  LYS798  CYS799  TRP800  GLU811  SER814 

> <Gold.Protein.RotatedAtoms>
  151.4871  135.1055  159.9793 H   0  0  0  0  0  0  0  0  0  0  0  0  # atno 6907 bound_to 6896
  152.4756  133.8126  159.7022 H   0  0  0  0  0  0  0  0  0  0  0  0  # atno 6908 bound_to 6896
  150.8791  133.7335  159.2963 H   0  0  0  0  0  0  0  0  0  0  0  0  # atno 6909 bound_to 6896
  145.1991  140.9048  143.3380 H   0  0  0  0  0  0  0  0  0  0  0  0  # atno 7974 bound_to 7965
  156.1293  140.1518  156.9090 H   0  0  0  0  0  0  0  0  0  0  0  0  # atno 8008 bound_to 7997
  154.4896  140.0855  156.7605 H   0  0  0  0  0  0  0  0  0  0  0  0  # atno 8009 bound_to 7997
  155.4286  140.3426  155.4280 H   0  0  0  0  0  0  0  0  0  0  0  0  # atno 8010 bound_to 7997
  140.7273  143.4042  151.1213 H   0  0  0  0  0  0  0  0  0  0  0  0  # atno 10167 bound_to 10162
  156.4799  130.8298  151.2525 H   0  0  0  0  0  0  0  0  0  0  0  0  # atno 10718 bound_to 10713
  153.1816  135.6828  153.8471 H   0  0  0  0  0  0  0  0  0  0  0  0  # atno 10763 bound_to 10752
  153.7801  135.3183  155.3365 H   0  0  0  0  0  0  0  0  0  0  0  0  # atno 10764 bound_to 10752
  154.8063  135.4746  154.0495 H   0  0  0  0  0  0  0  0  0  0  0  0  # atno 10765 bound_to 10752
  140.9826  134.0651  157.3747 H   0  0  0  0  0  0  0  0  0  0  0  0  # atno 11005 bound_to 11000
  144.9966  139.3638  143.6188 LP  0  0  0  0  0  0  0  0  0  0  0  0  # atno 17320 bound_to 7965
  146.3421  139.9171  142.8772 LP  0  0  0  0  0  0  0  0  0  0  0  0  # atno 17321 bound_to 7965
  139.7667  143.8555  152.3112 LP  0  0  0  0  0  0  0  0  0  0  0  0  # atno 17342 bound_to 10162
  139.8459  144.7187  150.9273 LP  0  0  0  0  0  0  0  0  0  0  0  0  # atno 17343 bound_to 10162
  157.7484  131.0048  150.3090 LP  0  0  0  0  0  0  0  0  0  0  0  0  # atno 17370 bound_to 10713
  156.3532  130.3834  149.7312 LP  0  0  0  0  0  0  0  0  0  0  0  0  # atno 17371 bound_to 10713
  139.8957  135.0142  156.7013 LP  0  0  0  0  0  0  0  0  0  0  0  0  # atno 17394 bound_to 11000
  140.7163  133.9179  155.8117 LP  0  0  0  0  0  0  0  0  0  0  0  0  # atno 17395 bound_to 11000

$$$$
