AV-unprocessed.smi:2107|AV-procd|sdf|8601|dock5
  -GOLD-   2272011343D 1   1.00000     0.00000
 Structure written by MMmdl.
 47 48  0  0  0  0  0  0  0  0  2 V2000
  144.9685  135.4672  162.7526 C   0  0  0  0  0  0  0  0  0  0  0  0
  146.4923  135.2625  162.8059 C   0  0  0  0  0  0  0  0  0  0  0  0
  147.0917  135.0778  161.4703 N   0  0  0  0  0  0  0  0  0  0  0  0
  147.7849  133.7934  161.2400 C   0  0  0  0  0  0  0  0  0  0  0  0
  146.9358  132.5712  161.6176 C   0  0  0  0  0  0  0  0  0  0  0  0
  147.5469  136.4824  160.5557 S   0  0  0  0  0  0  0  0  0  0  0  0
  146.4819  137.4912  160.6624 O   0  0  0  0  0  0  0  0  0  0  0  0
  148.9428  136.8266  160.8658 O   0  0  0  0  0  0  0  0  0  0  0  0
  147.4918  135.8243  158.9638 N   0  0  0  0  0  0  0  0  0  0  0  0
  148.2029  136.4688  157.8597 C   0  0  0  0  0  0  0  0  0  0  0  0
  148.2749  135.6280  156.5884 C   0  0  0  0  0  0  0  0  0  0  0  0
  147.8493  134.2810  156.6457 C   0  0  0  0  0  0  0  0  0  0  0  0
  147.8754  133.4847  155.4844 C   0  0  0  0  0  0  0  0  0  0  0  0
  148.3284  134.0520  154.2797 C   0  0  0  0  0  0  0  0  0  0  0  0
  148.7305  135.3398  154.2564 N   0  3  0  0  0  0  0  0  0  0  0  0
  148.7271  136.1500  155.3443 C   0  0  0  0  0  0  0  0  0  0  0  0
  149.1801  137.4735  155.1941 N   0  0  0  0  0  0  0  0  0  0  0  0
  150.5984  137.5680  154.8752 C   0  0  0  0  0  0  0  0  0  0  0  0
  151.0573  139.0334  154.9603 C   0  0  0  0  0  0  0  0  0  0  0  0
  150.2515  139.8351  154.1016 O   0  0  0  0  0  0  0  0  0  0  0  0
  148.8760  139.8014  154.4707 C   0  0  0  0  0  0  0  0  0  0  0  0
  148.3528  138.3579  154.3796 C   0  0  0  0  0  0  0  0  0  0  0  0
  144.5759  135.6540  163.7522 H   0  0  0  0  0  0  0  0  0  0  0  0
  144.4573  134.5851  162.3668 H   0  0  0  0  0  0  0  0  0  0  0  0
  144.6851  136.3127  162.1277 H   0  0  0  0  0  0  0  0  0  0  0  0
  146.9644  136.1056  163.3116 H   0  0  0  0  0  0  0  0  0  0  0  0
  146.7155  134.3825  163.4096 H   0  0  0  0  0  0  0  0  0  0  0  0
  148.0746  133.7275  160.1907 H   0  0  0  0  0  0  0  0  0  0  0  0
  148.7155  133.7768  161.8045 H   0  0  0  0  0  0  0  0  0  0  0  0
  147.5210  131.6570  161.5174 H   0  0  0  0  0  0  0  0  0  0  0  0
  146.0695  132.4676  160.9651 H   0  0  0  0  0  0  0  0  0  0  0  0
  146.5857  132.6228  162.6481 H   0  0  0  0  0  0  0  0  0  0  0  0
  146.6277  135.3399  158.7210 H   0  0  0  0  0  0  0  0  0  0  0  0
  147.7093  137.4125  157.6307 H   0  0  0  0  0  0  0  0  0  0  0  0
  149.2062  136.7264  158.2004 H   0  0  0  0  0  0  0  0  0  0  0  0
  147.4951  133.8567  157.5738 H   0  0  0  0  0  0  0  0  0  0  0  0
  147.5490  132.4556  155.5175 H   0  0  0  0  0  0  0  0  0  0  0  0
  148.3814  133.5197  153.3410 H   0  0  0  0  0  0  0  0  0  0  0  0
  151.1893  136.9530  155.5532 H   0  0  0  0  0  0  0  0  0  0  0  0
  150.7656  137.1828  153.8684 H   0  0  0  0  0  0  0  0  0  0  0  0
  150.9942  139.4019  155.9857 H   0  0  0  0  0  0  0  0  0  0  0  0
  152.0998  139.1196  154.6533 H   0  0  0  0  0  0  0  0  0  0  0  0
  148.7513  140.2004  155.4774 H   0  0  0  0  0  0  0  0  0  0  0  0
  148.3110  140.4492  153.8005 H   0  0  0  0  0  0  0  0  0  0  0  0
  148.3707  138.0289  153.3396 H   0  0  0  0  0  0  0  0  0  0  0  0
  147.3173  138.3131  154.7198 H   0  0  0  0  0  0  0  0  0  0  0  0
  149.0562  135.7245  153.3696 H   0  0  0  0  0  0  0  0  0  0  0  0
  1  2  1  0  0  0  0
  1 23  1  0  0  0  0
  1 24  1  0  0  0  0
  1 25  1  0  0  0  0
  2  3  1  0  0  0  0
  2 26  1  0  0  0  0
  2 27  1  0  0  0  0
  3  4  1  0  0  0  0
  3  6  1  0  0  0  0
  4  5  1  0  0  0  0
  4 28  1  0  0  0  0
  4 29  1  0  0  0  0
  5 30  1  0  0  0  0
  5 31  1  0  0  0  0
  5 32  1  0  0  0  0
  6  7  2  0  0  0  0
  6  8  2  0  0  0  0
  6  9  1  0  0  0  0
  9 10  1  0  0  0  0
  9 33  1  0  0  0  0
 10 11  1  0  0  0  0
 10 34  1  0  0  0  0
 10 35  1  0  0  0  0
 11 16  1  0  0  0  0
 11 12  2  0  0  0  0
 12 13  1  0  0  0  0
 12 36  1  0  0  0  0
 13 14  2  0  0  0  0
 13 37  1  0  0  0  0
 14 15  1  0  0  0  0
 14 38  1  0  0  0  0
 15 16  2  0  0  0  0
 15 47  1  0  0  0  0
 16 17  1  0  0  0  0
 17 22  1  0  0  0  0
 17 18  1  0  0  0  0
 18 19  1  0  0  0  0
 18 39  1  0  0  0  0
 18 40  1  0  0  0  0
 19 20  1  0  0  0  0
 19 41  1  0  0  0  0
 19 42  1  0  0  0  0
 20 21  1  0  0  0  0
 21 22  1  0  0  0  0
 21 43  1  0  0  0  0
 21 44  1  0  0  0  0
 22 45  1  0  0  0  0
 22 46  1  0  0  0  0
M  CHG  1  15   1
M  END
> <s_m_source_file>
AV-unprocessed.smi

> <i_m_source_file_index>
2107

> <i_lp_mmshare_version>
43012

> <i_f3d_flags>
0

> <s_epik_input>
W0NIM11bQ0gyXU4oW0NIMl1bQ0gzXSlTKD1PKSg9TylbTkhdW0NIMl1jMVtjSF1bY0hdW2NIXW5jMU4yW0NIMl1bQ0gyXU9bQ0gyXVtDSDJdMg==

> <s_epik_cmdline>
J2VwaWtfcHl0aG9uJywgJy1waCcsICc3LjAnLCAnLXRuJywgJzgnLCAnLW1hJywgJzIwMCcsICctbWV0YWxfYmluZGluZycsICctaW1hZScsICc8aW5maWxlLm1hZT4nLCAnLW9tYWUnLCAnPG91dGZpbGUubWFlPic=

> <r_lp_tautomer_probability>
0.999994

> <r_epik_Ionization_Penalty>
2.66893

> <r_epik_Ionization_Penalty_Charging>
2.61323

> <r_epik_Ionization_Penalty_Neutral>
0.0557011

> <r_epik_State_Penalty>
2.68492

> <r_epik_Charging_Adjusted_Penalty>
5.29815

> <i_epik_Tot_Q>
1

> <i_epik_Tot_abs_Q>
1

> <r_epik_Metal_State_Penalty>
5.63236

> <b_epik_Metal_Only>
0

> <s_lp_Force_Field>
OPLS_2005

> <r_lp_Energy>
23.5693

> <b_lp_Chiralities_Consistent>
1

> <s_lp_Variant>
AV-unprocessed.smi:2107-2

> <Gold.Version>
5.8.1

> <Gold.Id.Protein>
6NUR|6NUR_protein|mol2

> <Gold.PLP.Fitness>
42.8754

> <Gold.PLP.PLP>
-30.3393

> <Gold.PLP.part.hbond>
-3.9993

> <Gold.PLP.part.metal>
0.0000

> <Gold.PLP.part.buried>
-4.8906

> <Gold.PLP.part.nonpolar>
-22.6582

> <Gold.PLP.part.repulsive>
0.2764

> <Gold.PLP.ligand.clash>
0.0000

> <Gold.PLP.ligand.torsion>
2.4137

> <Gold.PLP.Chemscore.Hbond>
4.4960

> <Gold.PLP.Chemscore.CHOScore>
0.0000

> <Gold.PLP.Chemscore.Metal>
0.0000

> <Gold.Chemscore.Hbonds>
donor molecule, donor type, donor heavy atom, donor atom, acceptor molecule, acceptor atom, score
      L1  H    15    47       P1  7948  2.00
      P1  H  6931  6943       L1     8  0.91
      P1  H  6934  6947       L1     7  1.00
      P1  H  7989  7998       L1    20  0.80

> <Gold.PLP.Chemscore.Internal.Correction>
3.8753

> <Gold.Rescore>
     Score         DG    S(hbond)    S(metal)    S(lipo)     H(rot)  DE(clash)    DE(int)     intcor
     15.40     -17.84       2.80        0.00      64.48       1.77       0.00       2.44       ----

> <Gold.Chemscore.Fitness>
15.4022

> <Gold.Chemscore.DG>
-17.8414

> <Gold.Chemscore.ZeroCoef>
-5.4800

> <Gold.Chemscore.Hbond>
2.7974

> <Gold.Chemscore.Metal>
0.0000

> <Gold.Chemscore.Lipo>
64.4797

> <Gold.Chemscore.Internal_Hbond>
0.0000

> <Gold.Chemscore.DEClash>
0.0015

> <Gold.Chemscore.DEInternal>
2.4377

> <Gold.Chemscore.Rot>
1.7680

> <Gold.Chemscore.Internal.Correction>
   9.000000E+99

> <Gold.Chemscore.Hbonds>
donor molecule, donor type, donor heavy atom, donor atom, acceptor molecule, acceptor atom, score
      L1  H    15    47       P1  7948  0.75
      P1  H  6931  6943       L1     8  0.74
      P1  H  6934  6947       L1     7  0.74
      P1  H  7989  7998       L1    20  0.12

> <Gold.Chemscore.Hbond.Weighted>
-9.3433

> <Gold.Chemscore.Metal.Weighted>
-0.0000

> <Gold.Chemscore.Lipo.Weighted>
-7.5441

> <Gold.Chemscore.Internal_Hbond.Weighted>
0.0000

> <Gold.Chemscore.DEClash.Weighted>
0.0015

> <Gold.Chemscore.DEInternal.Weighted>
2.4377

> <Gold.Chemscore.Rot.Weighted>
4.5261

> <Gold.Chemscore.Internal.Correction.Weighted>
   9.000000E+99

> <Gold.Protein.RotatedTorsions>
[ 6907 6896 6895 6894 ] final   -2.52 input  -60.11 | X-H torsion
[ 7974 7965 7964 7962 ] final  126.55 input  175.53 | X-H torsion
[ 8008 7997 7996 7995 ] final  -62.18 input   59.86 | X-H torsion
[ 10167 10162 10161 10158 ] final  -72.40 input  -65.29 | X-H torsion
[ 10718 10713 10712 10709 ] final -106.05 input   66.30 | X-H torsion
[ 10763 10752 10751 10750 ] final  101.73 input  -60.55 | X-H torsion
[ 11005 11000 10999 10996 ] final    0.24 input  -57.11 | X-H torsion

> <Gold.Protein.ActiveResidues>
 VAL166  LYS551  ARG553  GLY616  TRP617  ASP618  TYR619  PRO620  LYS621  CYS622 
 ASP623  PHE694  ASN695  SER759  ASP760  ASP761  ALA762  ILE779  LEU786  VAL792 
 PHE793  MET794  SER795  GLU796  ALA797  LYS798  CYS799  TRP800  GLU811  SER814 

> <Gold.Protein.RotatedAtoms>
  151.5286  135.1068  159.9896 H   0  0  0  0  0  0  0  0  0  0  0  0  # atno 6907 bound_to 6896
  152.4588  133.7775  159.6843 H   0  0  0  0  0  0  0  0  0  0  0  0  # atno 6908 bound_to 6896
  150.8542  133.7675  159.3039 H   0  0  0  0  0  0  0  0  0  0  0  0  # atno 6909 bound_to 6896
  145.0605  139.3809  143.5008 H   0  0  0  0  0  0  0  0  0  0  0  0  # atno 7974 bound_to 7965
  154.4486  140.1002  156.6546 H   0  0  0  0  0  0  0  0  0  0  0  0  # atno 8008 bound_to 7997
  155.5360  140.3482  155.4418 H   0  0  0  0  0  0  0  0  0  0  0  0  # atno 8009 bound_to 7997
  156.0631  140.1331  156.9907 H   0  0  0  0  0  0  0  0  0  0  0  0  # atno 8010 bound_to 7997
  140.5195  143.2333  151.7455 H   0  0  0  0  0  0  0  0  0  0  0  0  # atno 10167 bound_to 10162
  156.0373  130.5593  150.7625 H   0  0  0  0  0  0  0  0  0  0  0  0  # atno 10718 bound_to 10713
  153.3304  135.4034  155.1490 H   0  0  0  0  0  0  0  0  0  0  0  0  # atno 10763 bound_to 10752
  154.8621  135.3609  154.5478 H   0  0  0  0  0  0  0  0  0  0  0  0  # atno 10764 bound_to 10752
  153.5916  135.7073  153.5480 H   0  0  0  0  0  0  0  0  0  0  0  0  # atno 10765 bound_to 10752
  140.6288  133.9594  155.8263 H   0  0  0  0  0  0  0  0  0  0  0  0  # atno 11005 bound_to 11000
  146.3524  140.0301  142.8651 LP  0  0  0  0  0  0  0  0  0  0  0  0  # atno 17320 bound_to 7965
  145.1415  140.9574  143.4486 LP  0  0  0  0  0  0  0  0  0  0  0  0  # atno 17321 bound_to 7965
  139.4919  144.4275  151.9909 LP  0  0  0  0  0  0  0  0  0  0  0  0  # atno 17342 bound_to 10162
  140.3371  144.3247  150.5975 LP  0  0  0  0  0  0  0  0  0  0  0  0  # atno 17343 bound_to 10162
  157.5141  131.0927  151.0161 LP  0  0  0  0  0  0  0  0  0  0  0  0  # atno 17370 bound_to 10713
  157.0509  130.5787  149.5370 LP  0  0  0  0  0  0  0  0  0  0  0  0  # atno 17371 bound_to 10713
  141.0690  134.0234  157.3553 LP  0  0  0  0  0  0  0  0  0  0  0  0  # atno 17394 bound_to 11000
  139.9124  135.0192  156.7746 LP  0  0  0  0  0  0  0  0  0  0  0  0  # atno 17395 bound_to 11000

$$$$
