AV-unprocessed.smi:3196|AV-procd|sdf|12224|dock4
  -GOLD-   2272018 53D 1   1.00000     0.00000
 Structure written by MMmdl.
 33 34  0  0  0  0  0  0  0  0  1 V2000
  153.3757  142.7710  162.8259 C   0  0  0  0  0  0  0  0  0  0  0  0
  152.4727  143.4718  161.8049 C   0  0  0  0  0  0  0  0  0  0  0  0
  152.7098  142.9763  160.3720 C   0  0  0  0  0  0  0  0  0  0  0  0
  151.6385  143.4519  159.4115 C   0  0  1  0  0  0  0  0  0  0  0  0
  151.6847  144.8463  158.8471 C   0  0  0  0  0  0  0  0  0  0  0  0
  151.9462  143.6580  157.9442 C   0  0  2  0  0  0  0  0  0  0  0  0
  150.9291  143.3446  156.9862 N   0  0  0  0  0  0  0  0  0  0  0  0
  150.5522  142.1283  156.5527 C   0  0  0  0  0  0  0  0  0  0  0  0
  151.1204  141.1131  156.9488 O   0  0  0  0  0  0  0  0  0  0  0  0
  149.5593  142.1518  155.6411 N   0  0  0  0  0  0  0  0  0  0  0  0
  148.9287  141.0766  154.9559 C   0  0  0  0  0  0  0  0  0  0  0  0
  149.4621  139.7690  154.8446 C   0  0  0  0  0  0  0  0  0  0  0  0
  148.7226  138.7959  154.1423 C   0  0  0  0  0  0  0  0  0  0  0  0
  147.5240  139.0392  153.5714 N   0  0  0  0  0  0  0  0  0  0  0  0
  147.0138  140.2833  153.6883 C   0  0  0  0  0  0  0  0  0  0  0  0
  147.6707  141.3285  154.3681 C   0  0  0  0  0  0  0  0  0  0  0  0
  147.0992  142.5545  154.4509 F   0  0  0  0  0  0  0  0  0  0  0  0
  153.1898  143.1476  163.8320 H   0  0  0  0  0  0  0  0  0  0  0  0
  154.4290  142.9355  162.5982 H   0  0  0  0  0  0  0  0  0  0  0  0
  153.1981  141.6954  162.8352 H   0  0  0  0  0  0  0  0  0  0  0  0
  151.4292  143.3125  162.0793 H   0  0  0  0  0  0  0  0  0  0  0  0
  152.6440  144.5478  161.8525 H   0  0  0  0  0  0  0  0  0  0  0  0
  153.6853  143.3128  160.0186 H   0  0  0  0  0  0  0  0  0  0  0  0
  152.7286  141.8862  160.3528 H   0  0  0  0  0  0  0  0  0  0  0  0
  150.6472  143.0638  159.6404 H   0  0  0  0  0  0  0  0  0  0  0  0
  150.7383  145.3731  158.7398 H   0  0  0  0  0  0  0  0  0  0  0  0
  152.5356  145.4717  159.1100 H   0  0  0  0  0  0  0  0  0  0  0  0
  152.9838  143.5434  157.6336 H   0  0  0  0  0  0  0  0  0  0  0  0
  150.4854  144.1364  156.5437 H   0  0  0  0  0  0  0  0  0  0  0  0
  149.2395  143.0709  155.3719 H   0  0  0  0  0  0  0  0  0  0  0  0
  150.4055  139.4862  155.2832 H   0  0  0  0  0  0  0  0  0  0  0  0
  149.1045  137.7908  154.0407 H   0  0  0  0  0  0  0  0  0  0  0  0
  146.0518  140.4510  153.2269 H   0  0  0  0  0  0  0  0  0  0  0  0
  1  2  1  0  0  0  0
  1 18  1  0  0  0  0
  1 19  1  0  0  0  0
  1 20  1  0  0  0  0
  2  3  1  0  0  0  0
  2 21  1  0  0  0  0
  2 22  1  0  0  0  0
  3  4  1  0  0  0  0
  3 23  1  0  0  0  0
  3 24  1  0  0  0  0
  4  6  1  0  0  0  0
  4  5  1  0  0  0  0
  4 25  1  0  0  0  0
  5  6  1  0  0  0  0
  5 26  1  0  0  0  0
  5 27  1  0  0  0  0
  6  7  1  0  0  0  0
  6 28  1  0  0  0  0
  7  8  1  0  0  0  0
  7 29  1  0  0  0  0
  8  9  2  0  0  0  0
  8 10  1  0  0  0  0
 10 11  1  0  0  0  0
 10 30  1  0  0  0  0
 11 16  1  0  0  0  0
 11 12  2  0  0  0  0
 12 13  1  0  0  0  0
 12 31  1  0  0  0  0
 13 14  2  0  0  0  0
 13 32  1  0  0  0  0
 14 15  1  0  0  0  0
 15 16  2  0  0  0  0
 15 33  1  0  0  0  0
 16 17  1  0  0  0  0
M  END
> <s_m_source_file>
AV-unprocessed.smi

> <i_m_source_file_index>
3196

> <i_lp_mmshare_version>
43012

> <i_f3d_flags>
0

> <s_epik_input>
W0NIM11bQ0gyXVtDSDJdW0NAQEhdMVtDSDJdW0NASF0xW05IXUMoPU8pW05IXWMyW2NIXVtjSF1uW2NIXWMyRg==

> <s_epik_cmdline>
J2VwaWtfcHl0aG9uJywgJy1waCcsICc3LjAnLCAnLXRuJywgJzgnLCAnLW1hJywgJzIwMCcsICctbWV0YWxfYmluZGluZycsICctaW1hZScsICc8aW5maWxlLm1hZT4nLCAnLW9tYWUnLCAnPG91dGZpbGUubWFlPic=

> <r_epik_Ionization_Penalty>
0.00341997

> <r_epik_Ionization_Penalty_Charging>
0

> <r_epik_Ionization_Penalty_Neutral>
0.00341997

> <r_epik_State_Penalty>
0.00239198

> <r_epik_Charging_Adjusted_Penalty>
0.00239198

> <i_epik_Tot_Q>
0

> <i_epik_Tot_abs_Q>
0

> <r_epik_Metal_State_Penalty>
-0

> <b_epik_Metal_Only>
0

> <s_lp_Force_Field>
OPLS_2005

> <r_lp_Energy>
34.2637

> <b_lp_Chiralities_Consistent>
1

> <s_lp_Variant>
AV-unprocessed.smi:3196-4

> <Gold.Version>
5.8.1

> <Gold.Id.Protein>
6NUR|6NUR_protein|mol2

> <Gold.PLP.Fitness>
54.2829

> <Gold.PLP.PLP>
-43.3017

> <Gold.PLP.part.hbond>
-2.0000

> <Gold.PLP.part.metal>
0.0000

> <Gold.PLP.part.buried>
-4.1818

> <Gold.PLP.part.nonpolar>
-38.6883

> <Gold.PLP.part.repulsive>
0.6040

> <Gold.PLP.ligand.clash>
0.0000

> <Gold.PLP.ligand.torsion>
0.6586

> <Gold.PLP.Chemscore.Hbond>
1.9120

> <Gold.PLP.Chemscore.CHOScore>
1.9984

> <Gold.PLP.Chemscore.Metal>
0.0000

> <Gold.Chemscore.Hbonds>
donor molecule, donor type, donor heavy atom, donor atom, acceptor molecule, acceptor atom, score
      L1  H     7    29       P1  8028  0.91
      L1  H    10    30       P1  8028  1.00
      L1  C    13    32       P1  7948  0.62
      L1  C    15    33       P1 10175  1.00

> <Gold.PLP.Chemscore.Internal.Correction>
0.5670

> <Gold.Rescore>
     Score         DG    S(hbond)    S(metal)    S(lipo)     H(rot)  DE(clash)    DE(int)     intcor
     18.92     -20.59       1.93        0.00     104.42       1.39       0.05       1.62       ----

> <Gold.Chemscore.Fitness>
18.9177

> <Gold.Chemscore.DG>
-20.5860

> <Gold.Chemscore.ZeroCoef>
-5.4800

> <Gold.Chemscore.Hbond>
1.9267

> <Gold.Chemscore.Metal>
0.0000

> <Gold.Chemscore.Lipo>
104.4166

> <Gold.Chemscore.Internal_Hbond>
0.0000

> <Gold.Chemscore.DEClash>
0.0477

> <Gold.Chemscore.DEInternal>
1.6206

> <Gold.Chemscore.Rot>
1.3852

> <Gold.Chemscore.Internal.Correction>
   9.000000E+99

> <Gold.Chemscore.Hbonds>
donor molecule, donor type, donor heavy atom, donor atom, acceptor molecule, acceptor atom, score
      L1  H     7    29       P1  8028  0.88
      L1  H    10    30       P1  8028  0.98

> <Gold.Chemscore.Hbond.Weighted>
-6.4353

> <Gold.Chemscore.Metal.Weighted>
-0.0000

> <Gold.Chemscore.Lipo.Weighted>
-12.2167

> <Gold.Chemscore.Internal_Hbond.Weighted>
0.0000

> <Gold.Chemscore.DEClash.Weighted>
0.0477

> <Gold.Chemscore.DEInternal.Weighted>
1.6206

> <Gold.Chemscore.Rot.Weighted>
3.5460

> <Gold.Chemscore.Internal.Correction.Weighted>
   9.000000E+99

> <Gold.Protein.RotatedTorsions>
[ 6907 6896 6895 6894 ] final  -31.09 input  -60.11 | X-H torsion
[ 7974 7965 7964 7962 ] final -141.89 input  175.53 | X-H torsion
[ 8008 7997 7996 7995 ] final   87.61 input   59.86 | X-H torsion
[ 10167 10162 10161 10158 ] final   69.92 input  -65.29 | X-H torsion
[ 10718 10713 10712 10709 ] final   53.40 input   66.30 | X-H torsion
[ 10763 10752 10751 10750 ] final   80.51 input  -60.55 | X-H torsion
[ 11005 11000 10999 10996 ] final -129.49 input  -57.11 | X-H torsion

> <Gold.Protein.ActiveResidues>
 VAL166  LYS551  ARG553  GLY616  TRP617  ASP618  TYR619  PRO620  LYS621  CYS622 
 ASP623  PHE694  ASN695  SER759  ASP760  ASP761  ALA762  ILE779  LEU786  VAL792 
 PHE793  MET794  SER795  GLU796  ALA797  LYS798  CYS799  TRP800  GLU811  SER814 

> <Gold.Protein.RotatedAtoms>
  151.0967  134.9948  159.8428 H   0  0  0  0  0  0  0  0  0  0  0  0  # atno 6907 bound_to 6896
  152.5434  134.1999  159.8718 H   0  0  0  0  0  0  0  0  0  0  0  0  # atno 6908 bound_to 6896
  151.2039  133.4551  159.2630 H   0  0  0  0  0  0  0  0  0  0  0  0  # atno 6909 bound_to 6896
  144.8485  140.6025  143.5405 H   0  0  0  0  0  0  0  0  0  0  0  0  # atno 7974 bound_to 7965
  155.9775  140.3380  155.6632 H   0  0  0  0  0  0  0  0  0  0  0  0  # atno 8008 bound_to 7997
  155.6592  140.0714  157.2578 H   0  0  0  0  0  0  0  0  0  0  0  0  # atno 8009 bound_to 7997
  154.4183  140.1711  156.1746 H   0  0  0  0  0  0  0  0  0  0  0  0  # atno 8010 bound_to 7997
  140.0625  144.5221  150.7284 H   0  0  0  0  0  0  0  0  0  0  0  0  # atno 10167 bound_to 10162
  157.5163  130.8535  149.8500 H   0  0  0  0  0  0  0  0  0  0  0  0  # atno 10718 bound_to 10713
  153.1039  135.4800  154.8916 H   0  0  0  0  0  0  0  0  0  0  0  0  # atno 10763 bound_to 10752
  154.7409  135.3082  154.8732 H   0  0  0  0  0  0  0  0  0  0  0  0  # atno 10764 bound_to 10752
  153.9341  135.6841  153.4798 H   0  0  0  0  0  0  0  0  0  0  0  0  # atno 10765 bound_to 10752
  140.9427  134.1171  157.4136 H   0  0  0  0  0  0  0  0  0  0  0  0  # atno 11005 bound_to 11000
  145.4548  139.1519  143.3899 LP  0  0  0  0  0  0  0  0  0  0  0  0  # atno 17320 bound_to 7965
  146.2765  140.4675  142.8793 LP  0  0  0  0  0  0  0  0  0  0  0  0  # atno 17321 bound_to 7965
  140.7165  143.2549  151.4418 LP  0  0  0  0  0  0  0  0  0  0  0  0  # atno 17342 bound_to 10162
  139.5885  144.1551  152.2059 LP  0  0  0  0  0  0  0  0  0  0  0  0  # atno 17343 bound_to 10162
  156.0323  130.3761  150.1655 LP  0  0  0  0  0  0  0  0  0  0  0  0  # atno 17370 bound_to 10713
  156.9844  130.9874  151.3430 LP  0  0  0  0  0  0  0  0  0  0  0  0  # atno 17371 bound_to 10713
  139.8825  135.0042  156.6232 LP  0  0  0  0  0  0  0  0  0  0  0  0  # atno 17394 bound_to 11000
  140.7712  133.8737  155.8493 LP  0  0  0  0  0  0  0  0  0  0  0  0  # atno 17395 bound_to 11000

$$$$
