AV-unprocessed.smi:923|AV-procd|sdf|4178|dock1
  -GOLD-   22720 2 83D 1   1.00000     0.00000
 Structure written by MMmdl.
 34 35  0  0  0  0  0  0  0  0  2 V2000
  146.9423  140.7824  152.9327 C   0  0  0  0  0  0  0  0  0  0  0  0
  148.1313  140.5738  153.8068 C   0  0  0  0  0  0  0  0  0  0  0  0
  149.1352  141.4509  153.8815 N   0  0  0  0  0  0  0  0  0  0  0  0
  150.1239  141.0396  154.7637 N   0  0  0  0  0  0  0  0  0  0  0  0
  149.8496  139.8660  155.3512 C   0  0  0  0  0  0  0  0  0  0  0  0
  150.6779  139.2928  156.2400 N   0  5  0  0  0  0  0  0  0  0  0  0
  151.6076  140.0416  156.8765 C   0  0  0  0  0  0  0  0  0  0  0  0
  152.8018  139.7639  157.0084 O   0  0  0  0  0  0  0  0  0  0  0  0
  151.1226  141.1823  157.3898 N   0  0  0  0  0  0  0  0  0  0  0  0
  151.8804  142.1971  158.1207 C   0  0  0  0  0  0  0  0  0  0  0  0
  152.3671  141.5999  159.4571 C   0  0  0  0  0  0  0  0  0  0  0  0
  153.1477  142.5669  160.3643 C   0  0  0  0  0  0  0  0  0  0  0  0
  152.2424  143.6048  161.0469 C   0  0  0  0  0  0  0  0  0  0  0  0
  151.9681  144.8792  160.2298 C   0  0  0  0  0  0  0  0  0  0  0  0
  151.7945  144.6992  158.7113 C   0  0  0  0  0  0  0  0  0  0  0  0
  151.0016  143.4558  158.2740 C   0  0  0  0  0  0  0  0  0  0  0  0
  148.3233  139.1568  154.8251 S   0  0  0  0  0  0  0  0  0  0  0  0
  146.2783  141.5230  153.3786 H   0  0  0  0  0  0  0  0  0  0  0  0
  146.3937  139.8482  152.8103 H   0  0  0  0  0  0  0  0  0  0  0  0
  147.2536  141.1352  151.9492 H   0  0  0  0  0  0  0  0  0  0  0  0
  150.1380  141.3616  157.2583 H   0  0  0  0  0  0  0  0  0  0  0  0
  152.7525  142.4725  157.5248 H   0  0  0  0  0  0  0  0  0  0  0  0
  151.5209  141.1875  160.0087 H   0  0  0  0  0  0  0  0  0  0  0  0
  153.0135  140.7491  159.2375 H   0  0  0  0  0  0  0  0  0  0  0  0
  153.6222  141.9718  161.1454 H   0  0  0  0  0  0  0  0  0  0  0  0
  153.9620  143.0482  159.8216 H   0  0  0  0  0  0  0  0  0  0  0  0
  151.2963  143.1356  161.3197 H   0  0  0  0  0  0  0  0  0  0  0  0
  152.6952  143.9042  161.9927 H   0  0  0  0  0  0  0  0  0  0  0  0
  151.0772  145.3579  160.6375 H   0  0  0  0  0  0  0  0  0  0  0  0
  152.7803  145.5884  160.3934 H   0  0  0  0  0  0  0  0  0  0  0  0
  151.2942  145.5884  158.3266 H   0  0  0  0  0  0  0  0  0  0  0  0
  152.7726  144.6934  158.2289 H   0  0  0  0  0  0  0  0  0  0  0  0
  150.5589  143.6785  157.3020 H   0  0  0  0  0  0  0  0  0  0  0  0
  150.1625  143.2722  158.9468 H   0  0  0  0  0  0  0  0  0  0  0  0
  1  2  1  0  0  0  0
  1 18  1  0  0  0  0
  1 19  1  0  0  0  0
  1 20  1  0  0  0  0
  2 17  1  0  0  0  0
  2  3  2  0  0  0  0
  3  4  1  0  0  0  0
  4  5  2  0  0  0  0
  5  6  1  0  0  0  0
  5 17  1  0  0  0  0
  6  7  1  0  0  0  0
  7  8  2  0  0  0  0
  7  9  1  0  0  0  0
  9 10  1  0  0  0  0
  9 21  1  0  0  0  0
 10 16  1  0  0  0  0
 10 11  1  0  0  0  0
 10 22  1  0  0  0  0
 11 12  1  0  0  0  0
 11 23  1  0  0  0  0
 11 24  1  0  0  0  0
 12 13  1  0  0  0  0
 12 25  1  0  0  0  0
 12 26  1  0  0  0  0
 13 14  1  0  0  0  0
 13 27  1  0  0  0  0
 13 28  1  0  0  0  0
 14 15  1  0  0  0  0
 14 29  1  0  0  0  0
 14 30  1  0  0  0  0
 15 16  1  0  0  0  0
 15 31  1  0  0  0  0
 15 32  1  0  0  0  0
 16 33  1  0  0  0  0
 16 34  1  0  0  0  0
M  CHG  1   6  -1
M  END
> <s_m_source_file>
AV-unprocessed.smi

> <i_m_source_file_index>
923

> <i_lp_mmshare_version>
43012

> <i_f3d_flags>
0

> <s_epik_input>
W0NIM11jMW5uYyhzMSlbTkhdQyg9TylbTkhdW0NIXTJbQ0gyXVtDSDJdW0NIMl1bQ0gyXVtDSDJdW0NIMl0y

> <s_epik_cmdline>
J2VwaWtfcHl0aG9uJywgJy1waCcsICc3LjAnLCAnLXRuJywgJzgnLCAnLW1hJywgJzIwMCcsICctbWV0YWxfYmluZGluZycsICctaW1hZScsICc8aW5maWxlLm1hZT4nLCAnLW9tYWUnLCAnPG91dGZpbGUubWFlPic=

> <r_lp_tautomer_probability>
1

> <r_epik_Ionization_Penalty>
4.57867

> <r_epik_Ionization_Penalty_Charging>
4.42407

> <r_epik_Ionization_Penalty_Neutral>
0.154599

> <r_epik_State_Penalty>
4.42373

> <r_epik_Charging_Adjusted_Penalty>
8.84779

> <i_epik_Tot_Q>
-1

> <i_epik_Tot_abs_Q>
1

> <r_epik_Metal_State_Penalty>
0.782603

> <b_epik_Metal_Only>
1

> <s_lp_Force_Field>
OPLS_2005

> <r_lp_Energy>
12.5708

> <b_lp_Chiralities_Consistent>
1

> <s_lp_Variant>
AV-unprocessed.smi:923-2

> <Gold.Version>
5.8.1

> <Gold.Id.Protein>
6NUR|6NUR_protein|mol2

> <Gold.PLP.Fitness>
40.7779

> <Gold.PLP.PLP>
-35.1317

> <Gold.PLP.part.hbond>
-3.8906

> <Gold.PLP.part.metal>
0.0000

> <Gold.PLP.part.buried>
-3.0588

> <Gold.PLP.part.nonpolar>
-28.3639

> <Gold.PLP.part.repulsive>
0.5956

> <Gold.PLP.ligand.clash>
0.3541

> <Gold.PLP.ligand.torsion>
0.5741

> <Gold.PLP.Chemscore.Hbond>
2.3752

> <Gold.PLP.Chemscore.CHOScore>
0.0000

> <Gold.PLP.Chemscore.Metal>
0.0000

> <Gold.Chemscore.Hbonds>
donor molecule, donor type, donor heavy atom, donor atom, acceptor molecule, acceptor atom, score
      P1  H  7989  7998       L1     4  0.62
      P1  H  7997  8009       L1     8  1.00
      P1  H  8011  8017       L1     3  0.75

> <Gold.PLP.Chemscore.Internal.Correction>
0.0230

> <Gold.Rescore>
     Score         DG    S(hbond)    S(metal)    S(lipo)     H(rot)  DE(clash)    DE(int)     intcor
     19.51     -20.29       1.76        0.00      98.17       1.00       0.23       0.54       ----

> <Gold.Chemscore.Fitness>
19.5072

> <Gold.Chemscore.DG>
-20.2860

> <Gold.Chemscore.ZeroCoef>
-5.4800

> <Gold.Chemscore.Hbond>
1.7606

> <Gold.Chemscore.Metal>
0.0000

> <Gold.Chemscore.Lipo>
98.1664

> <Gold.Chemscore.Internal_Hbond>
0.0000

> <Gold.Chemscore.DEClash>
0.2348

> <Gold.Chemscore.DEInternal>
0.5441

> <Gold.Chemscore.Rot>
1.0000

> <Gold.Chemscore.Internal.Correction>
   9.000000E+99

> <Gold.Chemscore.Hbonds>
donor molecule, donor type, donor heavy atom, donor atom, acceptor molecule, acceptor atom, score
      P1  H  7989  7998       L1     4  0.11
      P1  H  7997  8009       L1     8  1.00
      P1  H  8011  8017       L1     3  0.64

> <Gold.Chemscore.Hbond.Weighted>
-5.8806

> <Gold.Chemscore.Metal.Weighted>
-0.0000

> <Gold.Chemscore.Lipo.Weighted>
-11.4855

> <Gold.Chemscore.Internal_Hbond.Weighted>
0.0000

> <Gold.Chemscore.DEClash.Weighted>
0.2348

> <Gold.Chemscore.DEInternal.Weighted>
0.5441

> <Gold.Chemscore.Rot.Weighted>
2.5600

> <Gold.Chemscore.Internal.Correction.Weighted>
   9.000000E+99

> <Gold.Protein.RotatedTorsions>
[ 6907 6896 6895 6894 ] final  -78.64 input  -60.11 | X-H torsion
[ 7974 7965 7964 7962 ] final  -59.76 input  175.53 | X-H torsion
[ 8008 7997 7996 7995 ] final -170.27 input   59.86 | X-H torsion
[ 10167 10162 10161 10158 ] final  137.39 input  -65.29 | X-H torsion
[ 10718 10713 10712 10709 ] final -128.64 input   66.30 | X-H torsion
[ 10763 10752 10751 10750 ] final  124.02 input  -60.55 | X-H torsion
[ 11005 11000 10999 10996 ] final  108.91 input  -57.11 | X-H torsion

> <Gold.Protein.ActiveResidues>
 VAL166  LYS551  ARG553  GLY616  TRP617  ASP618  TYR619  PRO620  LYS621  CYS622 
 ASP623  PHE694  ASN695  SER759  ASP760  ASP761  ALA762  ILE779  LEU786  VAL792 
 PHE793  MET794  SER795  GLU796  ALA797  LYS798  CYS799  TRP800  GLU811  SER814 

> <Gold.Protein.RotatedAtoms>
  150.6968  134.4242  159.5218 H   0  0  0  0  0  0  0  0  0  0  0  0  # atno 6907 bound_to 6896
  152.1980  134.8611  160.0520 H   0  0  0  0  0  0  0  0  0  0  0  0  # atno 6908 bound_to 6896
  151.9541  133.3640  159.4048 H   0  0  0  0  0  0  0  0  0  0  0  0  # atno 6909 bound_to 6896
  145.8236  140.8524  143.0120 H   0  0  0  0  0  0  0  0  0  0  0  0  # atno 7974 bound_to 7965
  155.9161  140.1066  157.1242 H   0  0  0  0  0  0  0  0  0  0  0  0  # atno 8008 bound_to 7997
  154.4047  140.1265  156.4684 H   0  0  0  0  0  0  0  0  0  0  0  0  # atno 8009 bound_to 7997
  155.7252  140.3469  155.5036 H   0  0  0  0  0  0  0  0  0  0  0  0  # atno 8010 bound_to 7997
  139.5146  144.6412  151.5563 H   0  0  0  0  0  0  0  0  0  0  0  0  # atno 10167 bound_to 10162
  156.1970  130.6833  151.0494 H   0  0  0  0  0  0  0  0  0  0  0  0  # atno 10718 bound_to 10713
  153.6547  135.3356  155.3110 H   0  0  0  0  0  0  0  0  0  0  0  0  # atno 10763 bound_to 10752
  154.8529  135.4349  154.1867 H   0  0  0  0  0  0  0  0  0  0  0  0  # atno 10764 bound_to 10752
  153.2819  135.7009  153.7452 H   0  0  0  0  0  0  0  0  0  0  0  0  # atno 10765 bound_to 10752
  139.8852  134.9443  156.6044 H   0  0  0  0  0  0  0  0  0  0  0  0  # atno 11005 bound_to 11000
  144.6745  140.0569  143.7477 LP  0  0  0  0  0  0  0  0  0  0  0  0  # atno 17320 bound_to 7965
  145.9648  139.2826  143.1134 LP  0  0  0  0  0  0  0  0  0  0  0  0  # atno 17321 bound_to 7965
  140.6180  143.9312  150.6503 LP  0  0  0  0  0  0  0  0  0  0  0  0  # atno 17342 bound_to 10162
  140.2577  143.3547  152.1350 LP  0  0  0  0  0  0  0  0  0  0  0  0  # atno 17343 bound_to 10162
  157.6963  131.0792  150.6957 LP  0  0  0  0  0  0  0  0  0  0  0  0  # atno 17370 bound_to 10713
  156.7014  130.4624  149.5572 LP  0  0  0  0  0  0  0  0  0  0  0  0  # atno 17371 bound_to 10713
  140.7859  133.8622  155.8606 LP  0  0  0  0  0  0  0  0  0  0  0  0  # atno 17394 bound_to 11000
  140.9720  134.1519  157.4568 LP  0  0  0  0  0  0  0  0  0  0  0  0  # atno 17395 bound_to 11000

$$$$
