AV-unprocessed.smi:910|AV-procd|sdf|4132|dock2
  -GOLD-   22720 2 33D 1   1.00000     0.00000
 Structure written by MMmdl.
 45 46  0  0  0  0  0  0  0  0  2 V2000
  147.5650  136.6710  163.5481 C   0  0  0  0  0  0  0  0  0  0  0  0
  147.7207  136.1616  162.1501 C   0  0  0  0  0  0  0  0  0  0  0  0
  148.3322  136.9062  161.1530 N   0  0  0  0  0  0  0  0  0  0  0  0
  148.2897  136.1491  160.0551 C   0  0  0  0  0  0  0  0  0  0  0  0
  148.7778  136.4739  158.8472 N   0  5  0  0  0  0  0  0  0  0  0  0
  149.9803  137.0837  158.7474 C   0  0  0  0  0  0  0  0  0  0  0  0
  150.9556  136.9020  159.4801 O   0  0  0  0  0  0  0  0  0  0  0  0
  150.0581  137.9594  157.7351 N   0  0  0  0  0  0  0  0  0  0  0  0
  151.2238  138.7653  157.3873 C   0  0  0  0  0  0  0  0  0  0  0  0
  150.8742  140.2571  157.2975 C   0  0  0  0  0  0  0  0  0  0  0  0
  152.0092  141.0222  157.6774 O   0  0  0  0  0  0  0  0  0  0  0  0
  151.7385  142.0440  158.6284 C   0  0  2  0  0  0  0  0  0  0  0  0
  151.3399  143.3412  157.8922 C   0  0  0  0  0  0  0  0  0  0  0  0
  151.1631  144.5128  158.8696 C   0  0  0  0  0  0  0  0  0  0  0  0
  152.4306  144.7290  159.7078 C   0  0  0  0  0  0  0  0  0  0  0  0
  152.8314  143.4420  160.4445 C   0  0  0  0  0  0  0  0  0  0  0  0
  153.0149  142.2584  159.4731 C   0  0  1  0  0  0  0  0  0  0  0  0
  153.4130  140.9866  160.2397 C   0  0  0  0  0  0  0  0  0  0  0  0
  147.6912  134.9457  160.2853 O   0  0  0  0  0  0  0  0  0  0  0  0
  147.3351  134.9661  161.6062 C   0  0  0  0  0  0  0  0  0  0  0  0
  146.6462  133.7674  162.1636 C   0  0  0  0  0  0  0  0  0  0  0  0
  148.2080  136.1243  164.2378 H   0  0  0  0  0  0  0  0  0  0  0  0
  146.5371  136.5599  163.8937 H   0  0  0  0  0  0  0  0  0  0  0  0
  147.8246  137.7277  163.6204 H   0  0  0  0  0  0  0  0  0  0  0  0
  149.2347  138.0807  157.1641 H   0  0  0  0  0  0  0  0  0  0  0  0
  152.0161  138.6078  158.1206 H   0  0  0  0  0  0  0  0  0  0  0  0
  151.6145  138.4160  156.4315 H   0  0  0  0  0  0  0  0  0  0  0  0
  150.5429  140.5090  156.2898 H   0  0  0  0  0  0  0  0  0  0  0  0
  150.0471  140.4772  157.9736 H   0  0  0  0  0  0  0  0  0  0  0  0
  150.9301  141.7355  159.2945 H   0  0  0  0  0  0  0  0  0  0  0  0
  152.1059  143.5932  157.1575 H   0  0  0  0  0  0  0  0  0  0  0  0
  150.4151  143.1998  157.3335 H   0  0  0  0  0  0  0  0  0  0  0  0
  150.9213  145.4226  158.3195 H   0  0  0  0  0  0  0  0  0  0  0  0
  150.3169  144.3145  159.5287 H   0  0  0  0  0  0  0  0  0  0  0  0
  153.2477  145.0515  159.0612 H   0  0  0  0  0  0  0  0  0  0  0  0
  152.2686  145.5331  160.4263 H   0  0  0  0  0  0  0  0  0  0  0  0
  153.7532  143.6143  161.0010 H   0  0  0  0  0  0  0  0  0  0  0  0
  152.0676  143.1953  161.1835 H   0  0  0  0  0  0  0  0  0  0  0  0
  153.8326  142.5061  158.7944 H   0  0  0  0  0  0  0  0  0  0  0  0
  152.6264  140.6760  160.9279 H   0  0  0  0  0  0  0  0  0  0  0  0
  154.3208  141.1481  160.8213 H   0  0  0  0  0  0  0  0  0  0  0  0
  153.6059  140.1566  159.5597 H   0  0  0  0  0  0  0  0  0  0  0  0
  145.6577  134.0313  162.5394 H   0  0  0  0  0  0  0  0  0  0  0  0
  147.2198  133.3424  162.9871 H   0  0  0  0  0  0  0  0  0  0  0  0
  146.5243  132.9961  161.4027 H   0  0  0  0  0  0  0  0  0  0  0  0
  1 22  1  0  0  0  0
  1 23  1  0  0  0  0
  1 24  1  0  0  0  0
  1  2  1  0  0  0  0
  2  3  1  0  0  0  0
  2 20  2  0  0  0  0
  3  4  2  0  0  0  0
  4 19  1  0  0  0  0
  4  5  1  0  0  0  0
  5  6  1  0  0  0  0
  6  8  1  0  0  0  0
  6  7  2  0  0  0  0
  8  9  1  0  0  0  0
  8 25  1  0  0  0  0
  9 10  1  0  0  0  0
  9 26  1  0  0  0  0
  9 27  1  0  0  0  0
 10 11  1  0  0  0  0
 10 28  1  0  0  0  0
 10 29  1  0  0  0  0
 11 12  1  0  0  0  0
 12 17  1  0  0  0  0
 12 13  1  0  0  0  0
 12 30  1  0  0  0  0
 13 14  1  0  0  0  0
 13 31  1  0  0  0  0
 13 32  1  0  0  0  0
 14 15  1  0  0  0  0
 14 33  1  0  0  0  0
 14 34  1  0  0  0  0
 15 16  1  0  0  0  0
 15 35  1  0  0  0  0
 15 36  1  0  0  0  0
 16 17  1  0  0  0  0
 16 37  1  0  0  0  0
 16 38  1  0  0  0  0
 17 18  1  0  0  0  0
 17 39  1  0  0  0  0
 18 40  1  0  0  0  0
 18 41  1  0  0  0  0
 18 42  1  0  0  0  0
 19 20  1  0  0  0  0
 20 21  1  0  0  0  0
 21 43  1  0  0  0  0
 21 44  1  0  0  0  0
 21 45  1  0  0  0  0
M  CHG  1   5  -1
M  END
> <s_m_source_file>
AV-unprocessed.smi

> <i_m_source_file_index>
910

> <i_lp_mmshare_version>
43012

> <i_f3d_flags>
0

> <s_epik_input>
W0NIM11jMW5jKG9jMVtDSDNdKVtOSF1DKD1PKVtOSF1bQ0gyXVtDSDJdT1tDQEBIXTJbQ0gyXVtDSDJdW0NIMl1bQ0gyXVtDQEhdMltDSDNd

> <s_epik_cmdline>
J2VwaWtfcHl0aG9uJywgJy1waCcsICc3LjAnLCAnLXRuJywgJzgnLCAnLW1hJywgJzIwMCcsICctbWV0YWxfYmluZGluZycsICctaW1hZScsICc8aW5maWxlLm1hZT4nLCAnLW9tYWUnLCAnPG91dGZpbGUubWFlPic=

> <r_lp_tautomer_probability>
0.107061

> <r_epik_Ionization_Penalty>
10.1763

> <r_epik_Ionization_Penalty_Charging>
7.13067

> <r_epik_Ionization_Penalty_Neutral>
3.04564

> <r_epik_State_Penalty>
5.57927

> <r_epik_Charging_Adjusted_Penalty>
12.7099

> <i_epik_Tot_Q>
-1

> <i_epik_Tot_abs_Q>
1

> <r_epik_Metal_State_Penalty>
1.52303

> <b_epik_Metal_Only>
1

> <s_lp_Force_Field>
OPLS_2005

> <r_lp_Energy>
4.71476

> <b_lp_Chiralities_Consistent>
1

> <s_lp_Variant>
AV-unprocessed.smi:910-17

> <Gold.Version>
5.8.1

> <Gold.Id.Protein>
6NUR|6NUR_protein|mol2

> <Gold.PLP.Fitness>
51.0442

> <Gold.PLP.PLP>
-46.1603

> <Gold.PLP.part.hbond>
-2.9072

> <Gold.PLP.part.metal>
0.0000

> <Gold.PLP.part.buried>
-4.4839

> <Gold.PLP.part.nonpolar>
-38.4966

> <Gold.PLP.part.repulsive>
0.0678

> <Gold.PLP.ligand.clash>
0.0000

> <Gold.PLP.ligand.torsion>
1.5030

> <Gold.PLP.Chemscore.Hbond>
2.6032

> <Gold.PLP.Chemscore.CHOScore>
0.0000

> <Gold.PLP.Chemscore.Metal>
0.0000

> <Gold.Chemscore.Hbonds>
donor molecule, donor type, donor heavy atom, donor atom, acceptor molecule, acceptor atom, score
      P1  H  6896  6907       L1     7  1.00
      P1  H  6931  6943       L1     3  1.00
      P1  H  6934  6947       L1     3  0.03

> <Gold.PLP.Chemscore.Internal.Correction>
0.0803

> <Gold.Rescore>
     Score         DG    S(hbond)    S(metal)    S(lipo)     H(rot)  DE(clash)    DE(int)     intcor
     19.99     -22.77       2.16        0.00     121.44       1.62       0.24       2.54       ----

> <Gold.Chemscore.Fitness>
19.9944

> <Gold.Chemscore.DG>
-22.7737

> <Gold.Chemscore.ZeroCoef>
-5.4800

> <Gold.Chemscore.Hbond>
2.1629

> <Gold.Chemscore.Metal>
0.0000

> <Gold.Chemscore.Lipo>
121.4416

> <Gold.Chemscore.Internal_Hbond>
0.0000

> <Gold.Chemscore.DEClash>
0.2377

> <Gold.Chemscore.DEInternal>
2.5416

> <Gold.Chemscore.Rot>
1.6169

> <Gold.Chemscore.Internal.Correction>
   9.000000E+99

> <Gold.Chemscore.Hbonds>
donor molecule, donor type, donor heavy atom, donor atom, acceptor molecule, acceptor atom, score
      P1  H  6896  6907       L1     7  0.88
      P1  H  6931  6943       L1     3  0.60
      P1  H  6934  6947       L1     3  0.04

> <Gold.Chemscore.Hbond.Weighted>
-7.2242

> <Gold.Chemscore.Metal.Weighted>
-0.0000

> <Gold.Chemscore.Lipo.Weighted>
-14.2087

> <Gold.Chemscore.Internal_Hbond.Weighted>
0.0000

> <Gold.Chemscore.DEClash.Weighted>
0.2377

> <Gold.Chemscore.DEInternal.Weighted>
2.5416

> <Gold.Chemscore.Rot.Weighted>
4.1393

> <Gold.Chemscore.Internal.Correction.Weighted>
   9.000000E+99

> <Gold.Protein.RotatedTorsions>
[ 6907 6896 6895 6894 ] final  -17.88 input  -60.11 | X-H torsion
[ 7974 7965 7964 7962 ] final   21.52 input  175.53 | X-H torsion
[ 8008 7997 7996 7995 ] final   47.25 input   59.86 | X-H torsion
[ 10167 10162 10161 10158 ] final  135.55 input  -65.29 | X-H torsion
[ 10718 10713 10712 10709 ] final  128.41 input   66.30 | X-H torsion
[ 10763 10752 10751 10750 ] final  -13.76 input  -60.55 | X-H torsion
[ 11005 11000 10999 10996 ] final  -71.78 input  -57.11 | X-H torsion

> <Gold.Protein.ActiveResidues>
 VAL166  LYS551  ARG553  GLY616  TRP617  ASP618  TYR619  PRO620  LYS621  CYS622 
 ASP623  PHE694  ASN695  SER759  ASP760  ASP761  ALA762  ILE779  LEU786  VAL792 
 PHE793  MET794  SER795  GLU796  ALA797  LYS798  CYS799  TRP800  GLU811  SER814 

> <Gold.Protein.RotatedAtoms>
  151.2866  135.0729  159.9188 H   0  0  0  0  0  0  0  0  0  0  0  0  # atno 6907 bound_to 6896
  152.5324  133.9975  159.7890 H   0  0  0  0  0  0  0  0  0  0  0  0  # atno 6908 bound_to 6896
  151.0238  133.5801  159.2699 H   0  0  0  0  0  0  0  0  0  0  0  0  # atno 6909 bound_to 6896
  146.2068  139.8016  142.8720 H   0  0  0  0  0  0  0  0  0  0  0  0  # atno 7974 bound_to 7965
  155.3659  140.3421  155.4242 H   0  0  0  0  0  0  0  0  0  0  0  0  # atno 8008 bound_to 7997
  156.1688  140.1625  156.8518 H   0  0  0  0  0  0  0  0  0  0  0  0  # atno 8009 bound_to 7997
  154.5212  140.0766  156.8158 H   0  0  0  0  0  0  0  0  0  0  0  0  # atno 8010 bound_to 7997
  139.5213  144.6511  151.5299 H   0  0  0  0  0  0  0  0  0  0  0  0  # atno 10167 bound_to 10162
  157.5247  131.1098  150.9101 H   0  0  0  0  0  0  0  0  0  0  0  0  # atno 10718 bound_to 10713
  153.5181  135.7016  153.5745 H   0  0  0  0  0  0  0  0  0  0  0  0  # atno 10763 bound_to 10752
  153.3806  135.3921  155.1854 H   0  0  0  0  0  0  0  0  0  0  0  0  # atno 10764 bound_to 10752
  154.8697  135.3834  154.4667 H   0  0  0  0  0  0  0  0  0  0  0  0  # atno 10765 bound_to 10752
  141.1598  133.6827  156.6959 H   0  0  0  0  0  0  0  0  0  0  0  0  # atno 11005 bound_to 11000
  145.3291  141.0262  143.3457 LP  0  0  0  0  0  0  0  0  0  0  0  0  # atno 17320 bound_to 7965
  144.8812  139.4902  143.6722 LP  0  0  0  0  0  0  0  0  0  0  0  0  # atno 17321 bound_to 7965
  140.6317  143.9064  150.6611 LP  0  0  0  0  0  0  0  0  0  0  0  0  # atno 17342 bound_to 10162
  140.2370  143.3692  152.1518 LP  0  0  0  0  0  0  0  0  0  0  0  0  # atno 17343 bound_to 10162
  156.9701  130.5487  149.5290 LP  0  0  0  0  0  0  0  0  0  0  0  0  # atno 17370 bound_to 10713
  156.0378  130.5464  150.8697 LP  0  0  0  0  0  0  0  0  0  0  0  0  # atno 17371 bound_to 10713
  140.2995  134.8175  157.4086 LP  0  0  0  0  0  0  0  0  0  0  0  0  # atno 17394 bound_to 11000
  140.1274  134.5140  155.8133 LP  0  0  0  0  0  0  0  0  0  0  0  0  # atno 17395 bound_to 11000

$$$$
