AV-unprocessed.smi:183|AV-procd|sdf|1460|dock1
  -GOLD-   2262019263D 1   1.00000     0.00000
 Structure written by MMmdl.
 55 57  0  0  0  0  0  0  0  0  1 V2000
  143.5433  132.6311  158.0236 C   0  0  0  0  0  0  0  0  0  0  0  0
  144.4652  133.6143  157.3112 C   0  0  0  0  0  0  0  0  0  0  0  0
  145.0154  134.5152  157.9446 O   0  0  0  0  0  0  0  0  0  0  0  0
  144.6268  133.4292  155.9916 N   0  0  0  0  0  0  0  0  0  0  0  0
  145.4626  134.2635  155.1379 C   0  0  0  0  0  0  0  0  0  0  0  0
  144.6302  134.9435  154.0312 C   0  0  0  0  0  0  0  0  0  0  0  0
  145.4458  135.5755  152.9896 N   0  0  0  0  0  0  0  0  0  0  0  0
  146.1026  136.6594  153.4740 C   0  0  0  0  0  0  0  0  0  0  0  0
  145.7020  137.8746  153.0219 N   0  0  0  0  0  0  0  0  0  0  0  0
  146.3288  138.9821  153.4275 C   0  0  0  0  0  0  0  0  0  0  0  0
  147.3680  139.0968  154.2563 N   0  0  0  0  0  0  0  0  0  0  0  0
  147.7818  137.8774  154.7051 C   0  0  0  0  0  0  0  0  0  0  0  0
  147.2043  136.6179  154.3773 C   0  0  0  0  0  0  0  0  0  0  0  0
  147.8899  135.6010  155.0320 N   0  0  0  0  0  0  0  0  0  0  0  0
  148.8199  136.2225  155.7031 C   0  0  0  0  0  0  0  0  0  0  0  0
  148.8406  137.5899  155.5484 N   0  0  0  0  0  0  0  0  0  0  0  0
  149.7775  138.5197  156.1585 C   0  0  0  0  0  0  0  0  0  0  0  0
  150.8160  139.1121  155.1650 C   0  0  2  0  0  0  0  0  0  0  0  0
  150.1438  139.7996  154.1268 O   0  0  0  0  0  0  0  0  0  0  0  0
  151.7457  138.0746  154.5463 C   0  0  0  0  0  0  0  0  0  0  0  0
  152.8174  137.9077  155.6193 C   0  0  0  0  0  0  0  0  0  0  0  0
  152.8961  139.1654  156.2842 O   0  0  0  0  0  0  0  0  0  0  0  0
  151.8612  140.0316  155.8249 C   0  0  2  0  0  0  0  0  0  0  0  0
  151.3650  140.9392  156.9603 C   0  0  0  0  0  0  0  0  0  0  0  0
  144.9602  135.6172  151.5999 C   0  0  0  0  0  0  0  0  0  0  0  0
  144.7338  134.2021  151.0338 C   0  0  0  0  0  0  0  0  0  0  0  0
  145.9217  136.3756  150.6588 C   0  0  0  0  0  0  0  0  0  0  0  0
  143.9543  131.6223  157.9761 H   0  0  0  0  0  0  0  0  0  0  0  0
  142.5569  132.6263  157.5589 H   0  0  0  0  0  0  0  0  0  0  0  0
  143.4244  132.9026  159.0733 H   0  0  0  0  0  0  0  0  0  0  0  0
  144.1386  132.6628  155.5511 H   0  0  0  0  0  0  0  0  0  0  0  0
  145.9605  135.0135  155.7524 H   0  0  0  0  0  0  0  0  0  0  0  0
  146.2534  133.6436  154.7163 H   0  0  0  0  0  0  0  0  0  0  0  0
  143.9738  134.2059  153.5663 H   0  0  0  0  0  0  0  0  0  0  0  0
  143.9561  135.6794  154.4687 H   0  0  0  0  0  0  0  0  0  0  0  0
  145.9476  139.9089  153.0252 H   0  0  0  0  0  0  0  0  0  0  0  0
  149.5324  135.6956  156.3211 H   0  0  0  0  0  0  0  0  0  0  0  0
  149.1998  139.3180  156.6257 H   0  0  0  0  0  0  0  0  0  0  0  0
  150.2848  137.9980  156.9708 H   0  0  0  0  0  0  0  0  0  0  0  0
  150.0449  139.2136  153.3924 H   0  0  0  0  0  0  0  0  0  0  0  0
  151.2679  137.1370  154.2655 H   0  0  0  0  0  0  0  0  0  0  0  0
  152.2126  138.4765  153.6453 H   0  0  0  0  0  0  0  0  0  0  0  0
  152.5221  137.1474  156.3431 H   0  0  0  0  0  0  0  0  0  0  0  0
  153.7810  137.6187  155.1995 H   0  0  0  0  0  0  0  0  0  0  0  0
  152.3133  140.6594  155.0544 H   0  0  0  0  0  0  0  0  0  0  0  0
  150.5514  141.5809  156.6210 H   0  0  0  0  0  0  0  0  0  0  0  0
  152.1688  141.5835  157.3165 H   0  0  0  0  0  0  0  0  0  0  0  0
  151.0084  140.3624  157.8136 H   0  0  0  0  0  0  0  0  0  0  0  0
  143.9990  136.1311  151.5911 H   0  0  0  0  0  0  0  0  0  0  0  0
  144.4123  134.2438  149.9929 H   0  0  0  0  0  0  0  0  0  0  0  0
  143.9590  133.6629  151.5780 H   0  0  0  0  0  0  0  0  0  0  0  0
  145.6478  133.6086  151.0735 H   0  0  0  0  0  0  0  0  0  0  0  0
  145.5571  136.3558  149.6315 H   0  0  0  0  0  0  0  0  0  0  0  0
  146.9150  135.9257  150.6643 H   0  0  0  0  0  0  0  0  0  0  0  0
  146.0312  137.4253  150.9284 H   0  0  0  0  0  0  0  0  0  0  0  0
  1  2  1  0  0  0  0
  1 28  1  0  0  0  0
  1 29  1  0  0  0  0
  1 30  1  0  0  0  0
  2  3  2  0  0  0  0
  2  4  1  0  0  0  0
  4  5  1  0  0  0  0
  4 31  1  0  0  0  0
  5  6  1  0  0  0  0
  5 32  1  0  0  0  0
  5 33  1  0  0  0  0
  6  7  1  0  0  0  0
  6 34  1  0  0  0  0
  6 35  1  0  0  0  0
  7  8  1  0  0  0  0
  7 25  1  0  0  0  0
  8 13  1  0  0  0  0
  8  9  2  0  0  0  0
  9 10  1  0  0  0  0
 10 11  2  0  0  0  0
 10 36  1  0  0  0  0
 11 12  1  0  0  0  0
 12 16  1  0  0  0  0
 12 13  2  0  0  0  0
 13 14  1  0  0  0  0
 14 15  2  0  0  0  0
 15 16  1  0  0  0  0
 15 37  1  0  0  0  0
 16 17  1  0  0  0  0
 17 18  1  0  0  0  0
 17 38  1  0  0  0  0
 17 39  1  0  0  0  0
 18 23  1  0  0  0  0
 18 19  1  0  0  0  0
 18 20  1  0  0  0  0
 19 40  1  0  0  0  0
 20 21  1  0  0  0  0
 20 41  1  0  0  0  0
 20 42  1  0  0  0  0
 21 22  1  0  0  0  0
 21 43  1  0  0  0  0
 21 44  1  0  0  0  0
 22 23  1  0  0  0  0
 23 24  1  0  0  0  0
 23 45  1  0  0  0  0
 24 46  1  0  0  0  0
 24 47  1  0  0  0  0
 24 48  1  0  0  0  0
 25 26  1  0  0  0  0
 25 27  1  0  0  0  0
 25 49  1  0  0  0  0
 26 50  1  0  0  0  0
 26 51  1  0  0  0  0
 26 52  1  0  0  0  0
 27 53  1  0  0  0  0
 27 54  1  0  0  0  0
 27 55  1  0  0  0  0
M  END
> <s_m_source_file>
AV-unprocessed.smi

> <i_m_source_file_index>
183

> <i_lp_mmshare_version>
43012

> <i_f3d_flags>
0

> <s_epik_input>
W0NIM11DKD1PKVtOSF1bQ0gyXVtDSDJdTihbQ0hdKFtDSDNdKVtDSDNdKWMobltjSF1uMSljKGMxMiluW2NIXW4yW0NIMl1bQ0BAXTMoW09IXSlbQ0gyXVtDSDJdT1tDQEhdM1tDSDNd

> <s_epik_cmdline>
J2VwaWtfcHl0aG9uJywgJy1waCcsICc3LjAnLCAnLXRuJywgJzgnLCAnLW1hJywgJzIwMCcsICctbWV0YWxfYmluZGluZycsICctaW1hZScsICc8aW5maWxlLm1hZT4nLCAnLW9tYWUnLCAnPG91dGZpbGUubWFlPic=

> <r_lp_tautomer_probability>
1

> <r_epik_Ionization_Penalty>
0.00156158

> <r_epik_Ionization_Penalty_Charging>
0

> <r_epik_Ionization_Penalty_Neutral>
0.00156158

> <r_epik_State_Penalty>
0.000865808

> <r_epik_Charging_Adjusted_Penalty>
0.000865808

> <i_epik_Tot_Q>
0

> <i_epik_Tot_abs_Q>
0

> <r_epik_Metal_State_Penalty>
-0

> <b_epik_Metal_Only>
0

> <s_lp_Force_Field>
OPLS_2005

> <r_lp_Energy>
30.6117

> <b_lp_Chiralities_Consistent>
1

> <s_lp_Variant>
AV-unprocessed.smi:183-4

> <Gold.Version>
5.8.1

> <Gold.Id.Protein>
6NUR|6NUR_protein|mol2

> <Gold.PLP.Fitness>
39.2330

> <Gold.PLP.PLP>
-28.5953

> <Gold.PLP.part.hbond>
-4.0000

> <Gold.PLP.part.metal>
0.0000

> <Gold.PLP.part.buried>
-1.9534

> <Gold.PLP.part.nonpolar>
-23.3735

> <Gold.PLP.part.repulsive>
0.5443

> <Gold.PLP.ligand.clash>
0.0000

> <Gold.PLP.ligand.torsion>
1.1127

> <Gold.PLP.Chemscore.Hbond>
2.9019

> <Gold.PLP.Chemscore.CHOScore>
0.9840

> <Gold.PLP.Chemscore.Metal>
0.0000

> <Gold.Chemscore.Hbonds>
donor molecule, donor type, donor heavy atom, donor atom, acceptor molecule, acceptor atom, score
      L1  H     4    31       P1 10957  1.00
      L1  H    19    40       P1  7957  0.02
      P1  H  7989  7998       L1    19  0.90
      P1  H  7997  8009       L1    22  1.00
      L1  C    10    36       P1 10175  0.98

> <Gold.PLP.Chemscore.Internal.Correction>
1.2055

> <Gold.Rescore>
     Score         DG    S(hbond)    S(metal)    S(lipo)     H(rot)  DE(clash)    DE(int)     intcor
      7.51     -12.10       2.26        0.00      67.50       3.45       0.89       3.71       ----

> <Gold.Chemscore.Fitness>
7.5102

> <Gold.Chemscore.DG>
-12.1047

> <Gold.Chemscore.ZeroCoef>
-5.4800

> <Gold.Chemscore.Hbond>
2.2594

> <Gold.Chemscore.Metal>
0.0000

> <Gold.Chemscore.Lipo>
67.5028

> <Gold.Chemscore.Internal_Hbond>
0.0000

> <Gold.Chemscore.DEClash>
0.8867

> <Gold.Chemscore.DEInternal>
3.7078

> <Gold.Chemscore.Rot>
3.4451

> <Gold.Chemscore.Internal.Correction>
   9.000000E+99

> <Gold.Chemscore.Hbonds>
donor molecule, donor type, donor heavy atom, donor atom, acceptor molecule, acceptor atom, score
      L1  H     4    31       P1 10957  0.99
      L1  H    19    40       P1  7957  0.04
      P1  H  7989  7998       L1    19  0.04
      P1  H  7997  8009       L1    22  0.55

> <Gold.Chemscore.Hbond.Weighted>
-7.5463

> <Gold.Chemscore.Metal.Weighted>
-0.0000

> <Gold.Chemscore.Lipo.Weighted>
-7.8978

> <Gold.Chemscore.Internal_Hbond.Weighted>
0.0000

> <Gold.Chemscore.DEClash.Weighted>
0.8867

> <Gold.Chemscore.DEInternal.Weighted>
3.7078

> <Gold.Chemscore.Rot.Weighted>
8.8194

> <Gold.Chemscore.Internal.Correction.Weighted>
   9.000000E+99

> <Gold.Protein.RotatedTorsions>
[ 6907 6896 6895 6894 ] final    3.96 input  -60.11 | X-H torsion
[ 7974 7965 7964 7962 ] final  -21.54 input  175.53 | X-H torsion
[ 8008 7997 7996 7995 ] final -158.18 input   59.86 | X-H torsion
[ 10167 10162 10161 10158 ] final -100.53 input  -65.29 | X-H torsion
[ 10718 10713 10712 10709 ] final -153.01 input   66.30 | X-H torsion
[ 10763 10752 10751 10750 ] final  153.64 input  -60.55 | X-H torsion
[ 11005 11000 10999 10996 ] final  122.55 input  -57.11 | X-H torsion

> <Gold.Protein.ActiveResidues>
 VAL166  LYS551  ARG553  GLY616  TRP617  ASP618  TYR619  PRO620  LYS621  CYS622 
 ASP623  PHE694  ASN695  SER759  ASP760  ASP761  ALA762  ILE779  LEU786  VAL792 
 PHE793  MET794  SER795  GLU796  ALA797  LYS798  CYS799  TRP800  GLU811  SER814 

> <Gold.Protein.RotatedAtoms>
  151.6335  135.1020  160.0126 H   0  0  0  0  0  0  0  0  0  0  0  0  # atno 6907 bound_to 6896
  152.4093  133.6934  159.6392 H   0  0  0  0  0  0  0  0  0  0  0  0  # atno 6908 bound_to 6896
  150.7985  133.8569  159.3262 H   0  0  0  0  0  0  0  0  0  0  0  0  # atno 6909 bound_to 6896
  146.1727  140.4355  142.8526 H   0  0  0  0  0  0  0  0  0  0  0  0  # atno 7974 bound_to 7965
  155.7436  140.0817  157.2234 H   0  0  0  0  0  0  0  0  0  0  0  0  # atno 8008 bound_to 7997
  154.4019  140.1573  156.2699 H   0  0  0  0  0  0  0  0  0  0  0  0  # atno 8009 bound_to 7997
  155.8997  140.3410  155.6020 H   0  0  0  0  0  0  0  0  0  0  0  0  # atno 8010 bound_to 7997
  140.2510  143.3473  152.0715 H   0  0  0  0  0  0  0  0  0  0  0  0  # atno 10167 bound_to 10162
  156.4800  130.8299  151.2526 H   0  0  0  0  0  0  0  0  0  0  0  0  # atno 10718 bound_to 10713
  154.1394  135.2822  155.3165 H   0  0  0  0  0  0  0  0  0  0  0  0  # atno 10763 bound_to 10752
  154.6298  135.5439  153.7671 H   0  0  0  0  0  0  0  0  0  0  0  0  # atno 10764 bound_to 10752
  153.0255  135.6460  154.1541 H   0  0  0  0  0  0  0  0  0  0  0  0  # atno 10765 bound_to 10752
  139.9273  134.9641  156.8126 H   0  0  0  0  0  0  0  0  0  0  0  0  # atno 11005 bound_to 11000
  144.8188  140.6514  143.6367 LP  0  0  0  0  0  0  0  0  0  0  0  0  # atno 17320 bound_to 7965
  145.4296  139.1551  143.4029 LP  0  0  0  0  0  0  0  0  0  0  0  0  # atno 17321 bound_to 7965
  139.5046  144.6779  151.6082 LP  0  0  0  0  0  0  0  0  0  0  0  0  # atno 17342 bound_to 10162
  140.6041  143.9557  150.6406 LP  0  0  0  0  0  0  0  0  0  0  0  0  # atno 17343 bound_to 10162
  157.7484  131.0048  150.3089 LP  0  0  0  0  0  0  0  0  0  0  0  0  # atno 17370 bound_to 10713
  156.3531  130.3834  149.7313 LP  0  0  0  0  0  0  0  0  0  0  0  0  # atno 17371 bound_to 10713
  140.6299  133.9915  155.7657 LP  0  0  0  0  0  0  0  0  0  0  0  0  # atno 17394 bound_to 11000
  141.0840  134.0019  157.3343 LP  0  0  0  0  0  0  0  0  0  0  0  0  # atno 17395 bound_to 11000

$$$$
