AV-unprocessed.smi:1120|AV-procd|sdf|4818|dock7
  -GOLD-   22720 3373D 1   1.00000     0.00000
 Structure written by MMmdl.
 48 49  0  0  0  0  0  0  0  0  1 V2000
  152.0471  145.0804  159.8914 C   0  0  0  0  0  0  0  0  0  0  0  0
  151.5924  143.7090  159.3719 C   0  0  2  0  0  0  0  0  0  0  0  0
  152.5281  142.5845  159.8554 C   0  0  0  0  0  0  0  0  0  0  0  0
  152.0745  141.2107  159.3364 C   0  0  0  0  0  0  0  0  0  0  0  0
  151.9638  141.1962  157.8014 C   0  0  1  0  0  0  0  0  0  0  0  0
  151.4630  139.8899  157.3656 N   0  0  0  0  0  0  0  0  0  0  0  0
  151.5936  139.4394  155.7029 S   0  0  0  0  0  0  0  0  0  0  0  0
  150.7584  140.3657  154.9222 O   0  0  0  0  0  0  0  0  0  0  0  0
  153.0264  139.3032  155.3989 O   0  0  0  0  0  0  0  0  0  0  0  0
  150.8370  137.7542  155.6911 C   0  0  0  0  0  0  0  0  0  0  0  0
  150.8036  137.1797  157.1068 C   0  0  0  0  0  0  0  0  0  0  0  0
  151.6888  136.4083  157.4750 O   0  0  0  0  0  0  0  0  0  0  0  0
  149.7841  137.5639  157.8906 N   0  0  0  0  0  0  0  0  0  0  0  0
  149.5898  137.1462  159.2745 C   0  0  0  0  0  0  0  0  0  0  0  0
  148.2578  136.4009  159.4632 C   0  0  0  0  0  0  0  0  0  0  0  0
  148.0230  136.0007  160.9079 C   0  0  0  0  0  0  0  0  0  0  0  0
  147.9199  134.6409  161.2717 C   0  0  0  0  0  0  0  0  0  0  0  0
  147.6953  134.3242  162.6256 C   0  0  0  0  0  0  0  0  0  0  0  0
  147.5820  135.3728  163.5583 C   0  0  0  0  0  0  0  0  0  0  0  0
  147.6981  136.6979  163.0937 C   0  0  0  0  0  0  0  0  0  0  0  0
  147.9129  137.0127  161.7979 N   0  0  0  0  0  0  0  0  0  0  0  0
  151.0349  142.3226  157.3089 C   0  0  0  0  0  0  0  0  0  0  0  0
  151.4881  143.6941  157.8349 C   0  0  0  0  0  0  0  0  0  0  0  0
  153.0431  145.3326  159.5261 H   0  0  0  0  0  0  0  0  0  0  0  0
  152.0778  145.0971  160.9811 H   0  0  0  0  0  0  0  0  0  0  0  0
  151.3652  145.8678  159.5695 H   0  0  0  0  0  0  0  0  0  0  0  0
  150.5981  143.5175  159.7780 H   0  0  0  0  0  0  0  0  0  0  0  0
  153.5470  142.7812  159.5190 H   0  0  0  0  0  0  0  0  0  0  0  0
  152.5609  142.5689  160.9453 H   0  0  0  0  0  0  0  0  0  0  0  0
  152.7762  140.4440  159.6675 H   0  0  0  0  0  0  0  0  0  0  0  0
  151.1100  140.9590  159.7802 H   0  0  0  0  0  0  0  0  0  0  0  0
  152.9600  141.3453  157.3829 H   0  0  0  0  0  0  0  0  0  0  0  0
  150.5225  139.7164  157.7203 H   0  0  0  0  0  0  0  0  0  0  0  0
  149.8263  137.8362  155.2908 H   0  0  0  0  0  0  0  0  0  0  0  0
  151.4108  137.1130  155.0218 H   0  0  0  0  0  0  0  0  0  0  0  0
  149.1034  138.2041  157.5082 H   0  0  0  0  0  0  0  0  0  0  0  0
  150.4273  136.5254  159.5974 H   0  0  0  0  0  0  0  0  0  0  0  0
  149.6060  138.0385  159.9007 H   0  0  0  0  0  0  0  0  0  0  0  0
  147.4299  137.0255  159.1253 H   0  0  0  0  0  0  0  0  0  0  0  0
  148.2354  135.5029  158.8439 H   0  0  0  0  0  0  0  0  0  0  0  0
  148.0089  133.8577  160.5332 H   0  0  0  0  0  0  0  0  0  0  0  0
  147.6111  133.2953  162.9426 H   0  0  0  0  0  0  0  0  0  0  0  0
  147.4095  135.1675  164.6043 H   0  0  0  0  0  0  0  0  0  0  0  0
  147.6160  137.5271  163.7806 H   0  0  0  0  0  0  0  0  0  0  0  0
  151.0121  142.3476  156.2194 H   0  0  0  0  0  0  0  0  0  0  0  0
  150.0121  142.1295  157.6358 H   0  0  0  0  0  0  0  0  0  0  0  0
  150.7887  144.4609  157.5006 H   0  0  0  0  0  0  0  0  0  0  0  0
  152.4548  143.9473  157.3973 H   0  0  0  0  0  0  0  0  0  0  0  0
  1  2  1  0  0  0  0
  1 24  1  0  0  0  0
  1 25  1  0  0  0  0
  1 26  1  0  0  0  0
  2 23  1  0  0  0  0
  2  3  1  0  0  0  0
  2 27  1  0  0  0  0
  3  4  1  0  0  0  0
  3 28  1  0  0  0  0
  3 29  1  0  0  0  0
  4  5  1  0  0  0  0
  4 30  1  0  0  0  0
  4 31  1  0  0  0  0
  5  6  1  0  0  0  0
  5 22  1  0  0  0  0
  5 32  1  0  0  0  0
  6  7  1  0  0  0  0
  6 33  1  0  0  0  0
  7  8  2  0  0  0  0
  7  9  2  0  0  0  0
  7 10  1  0  0  0  0
 10 11  1  0  0  0  0
 10 34  1  0  0  0  0
 10 35  1  0  0  0  0
 11 12  2  0  0  0  0
 11 13  1  0  0  0  0
 13 14  1  0  0  0  0
 13 36  1  0  0  0  0
 14 15  1  0  0  0  0
 14 37  1  0  0  0  0
 14 38  1  0  0  0  0
 15 16  1  0  0  0  0
 15 39  1  0  0  0  0
 15 40  1  0  0  0  0
 16 21  1  0  0  0  0
 16 17  2  0  0  0  0
 17 18  1  0  0  0  0
 17 41  1  0  0  0  0
 18 19  2  0  0  0  0
 18 42  1  0  0  0  0
 19 20  1  0  0  0  0
 19 43  1  0  0  0  0
 20 21  2  0  0  0  0
 20 44  1  0  0  0  0
 22 23  1  0  0  0  0
 22 45  1  0  0  0  0
 22 46  1  0  0  0  0
 23 47  1  0  0  0  0
 23 48  1  0  0  0  0
M  END
> <s_m_source_file>
AV-unprocessed.smi

> <i_m_source_file_index>
1120

> <i_lp_mmshare_version>
43012

> <i_f3d_flags>
0

> <s_epik_input>
W0NIM11bQ0BASF0xW0NIMl1bQ0gyXVtDQEhdKFtDSDJdW0NIMl0xKVtOSF1TKD1PKSg9TylbQ0gyXUMoPU8pW05IXVtDSDJdW0NIMl1jMltjSF1bY0hdW2NIXVtjSF1uMg==

> <s_epik_cmdline>
J2VwaWtfcHl0aG9uJywgJy1waCcsICc3LjAnLCAnLXRuJywgJzgnLCAnLW1hJywgJzIwMCcsICctbWV0YWxfYmluZGluZycsICctaW1hZScsICc8aW5maWxlLm1hZT4nLCAnLW9tYWUnLCAnPG91dGZpbGUubWFlPic=

> <r_epik_Ionization_Penalty>
0.0216068

> <r_epik_Ionization_Penalty_Charging>
0

> <r_epik_Ionization_Penalty_Neutral>
0.0216068

> <r_epik_State_Penalty>
0.01735

> <r_epik_Charging_Adjusted_Penalty>
0.01735

> <i_epik_Tot_Q>
0

> <i_epik_Tot_abs_Q>
0

> <r_epik_Metal_State_Penalty>
0.0535325

> <b_epik_Metal_Only>
0

> <s_lp_Force_Field>
OPLS_2005

> <r_lp_Energy>
6.02559

> <b_lp_Chiralities_Consistent>
1

> <s_lp_Variant>
AV-unprocessed.smi:1120-1

> <Gold.Version>
5.8.1

> <Gold.Id.Protein>
6NUR|6NUR_protein|mol2

> <Gold.PLP.Fitness>
59.5099

> <Gold.PLP.PLP>
-50.0109

> <Gold.PLP.part.hbond>
-4.0000

> <Gold.PLP.part.metal>
0.0000

> <Gold.PLP.part.buried>
-6.2711

> <Gold.PLP.part.nonpolar>
-40.1240

> <Gold.PLP.part.repulsive>
0.1468

> <Gold.PLP.ligand.clash>
0.0000

> <Gold.PLP.ligand.torsion>
0.8270

> <Gold.PLP.Chemscore.Hbond>
3.6180

> <Gold.PLP.Chemscore.CHOScore>
0.0000

> <Gold.PLP.Chemscore.Metal>
0.0000

> <Gold.Chemscore.Hbonds>
donor molecule, donor type, donor heavy atom, donor atom, acceptor molecule, acceptor atom, score
      P1  H  6931  6943       L1    21  1.00
      P1  H  6934  6947       L1    21  0.21
      P1  H  7989  7998       L1     8  1.00
      P1  H  7997  8008       L1     9  1.00

> <Gold.PLP.Chemscore.Internal.Correction>
0.2991

> <Gold.Rescore>
     Score         DG    S(hbond)    S(metal)    S(lipo)     H(rot)  DE(clash)    DE(int)     intcor
     23.36     -24.42       2.91        0.00     125.34       2.12       0.12       0.94       ----

> <Gold.Chemscore.Fitness>
23.3624

> <Gold.Chemscore.DG>
-24.4198

> <Gold.Chemscore.ZeroCoef>
-5.4800

> <Gold.Chemscore.Hbond>
2.9060

> <Gold.Chemscore.Metal>
0.0000

> <Gold.Chemscore.Lipo>
125.3362

> <Gold.Chemscore.Internal_Hbond>
0.0000

> <Gold.Chemscore.DEClash>
0.1185

> <Gold.Chemscore.DEInternal>
0.9389

> <Gold.Chemscore.Rot>
2.1213

> <Gold.Chemscore.Internal.Correction>
   9.000000E+99

> <Gold.Chemscore.Hbonds>
donor molecule, donor type, donor heavy atom, donor atom, acceptor molecule, acceptor atom, score
      P1  H  6931  6943       L1    21  0.34
      P1  H  6934  6947       L1    21  0.19
      P1  H  7989  7998       L1     8  0.73
      P1  H  7997  8008       L1     9  1.00

> <Gold.Chemscore.Hbond.Weighted>
-9.7060

> <Gold.Chemscore.Metal.Weighted>
-0.0000

> <Gold.Chemscore.Lipo.Weighted>
-14.6643

> <Gold.Chemscore.Internal_Hbond.Weighted>
0.0000

> <Gold.Chemscore.DEClash.Weighted>
0.1185

> <Gold.Chemscore.DEInternal.Weighted>
0.9389

> <Gold.Chemscore.Rot.Weighted>
5.4305

> <Gold.Chemscore.Internal.Correction.Weighted>
   9.000000E+99

> <Gold.Protein.RotatedTorsions>
[ 6907 6896 6895 6894 ] final   31.03 input  -60.11 | X-H torsion
[ 7974 7965 7964 7962 ] final  158.85 input  175.53 | X-H torsion
[ 8008 7997 7996 7995 ] final  -33.37 input   59.86 | X-H torsion
[ 10167 10162 10161 10158 ] final  123.17 input  -65.29 | X-H torsion
[ 10718 10713 10712 10709 ] final   71.56 input   66.30 | X-H torsion
[ 10763 10752 10751 10750 ] final -150.95 input  -60.55 | X-H torsion
[ 11005 11000 10999 10996 ] final   27.94 input  -57.11 | X-H torsion

> <Gold.Protein.ActiveResidues>
 VAL166  LYS551  ARG553  GLY616  TRP617  ASP618  TYR619  PRO620  LYS621  CYS622 
 ASP623  PHE694  ASN695  SER759  ASP760  ASP761  ALA762  ILE779  LEU786  VAL792 
 PHE793  MET794  SER795  GLU796  ALA797  LYS798  CYS799  TRP800  GLU811  SER814 

> <Gold.Protein.RotatedAtoms>
  152.0544  134.9633  160.0574 H   0  0  0  0  0  0  0  0  0  0  0  0  # atno 6907 bound_to 6896
  152.1021  133.4250  159.4600 H   0  0  0  0  0  0  0  0  0  0  0  0  # atno 6908 bound_to 6896
  150.6840  134.2667  159.4615 H   0  0  0  0  0  0  0  0  0  0  0  0  # atno 6909 bound_to 6896
  144.7823  139.7535  143.6255 H   0  0  0  0  0  0  0  0  0  0  0  0  # atno 7974 bound_to 7965
  154.4151  140.1712  156.1877 H   0  0  0  0  0  0  0  0  0  0  0  0  # atno 8008 bound_to 7997
  155.9629  140.3392  155.6483 H   0  0  0  0  0  0  0  0  0  0  0  0  # atno 8009 bound_to 7997
  155.6725  140.0713  157.2505 H   0  0  0  0  0  0  0  0  0  0  0  0  # atno 8010 bound_to 7997
  139.5815  144.6988  151.3516 H   0  0  0  0  0  0  0  0  0  0  0  0  # atno 10167 bound_to 10162
  157.6458  130.9534  150.0806 H   0  0  0  0  0  0  0  0  0  0  0  0  # atno 10718 bound_to 10713
  154.8088  135.3272  154.7361 H   0  0  0  0  0  0  0  0  0  0  0  0  # atno 10763 bound_to 10752
  153.8014  135.6903  153.4859 H   0  0  0  0  0  0  0  0  0  0  0  0  # atno 10764 bound_to 10752
  153.1851  135.4572  155.0024 H   0  0  0  0  0  0  0  0  0  0  0  0  # atno 10765 bound_to 10752
  140.3209  134.2544  155.7717 H   0  0  0  0  0  0  0  0  0  0  0  0  # atno 11005 bound_to 11000
  146.2037  139.5348  142.9726 LP  0  0  0  0  0  0  0  0  0  0  0  0  # atno 17320 bound_to 7965
  145.6017  141.0354  143.2014 LP  0  0  0  0  0  0  0  0  0  0  0  0  # atno 17321 bound_to 7965
  140.7093  143.7433  150.7537 LP  0  0  0  0  0  0  0  0  0  0  0  0  # atno 17342 bound_to 10162
  140.0967  143.4826  152.2448 LP  0  0  0  0  0  0  0  0  0  0  0  0  # atno 17343 bound_to 10162
  156.1783  130.3649  149.9069 LP  0  0  0  0  0  0  0  0  0  0  0  0  # atno 17370 bound_to 10713
  156.7028  130.8940  151.3601 LP  0  0  0  0  0  0  0  0  0  0  0  0  # atno 17371 bound_to 10713
  141.2087  133.7771  157.0045 LP  0  0  0  0  0  0  0  0  0  0  0  0  # atno 17394 bound_to 11000
  140.0942  134.9574  157.1824 LP  0  0  0  0  0  0  0  0  0  0  0  0  # atno 17395 bound_to 11000

$$$$
