AV-unprocessed.smi:2892|AV-procd|sdf|11118|dock5
  -GOLD-   2272015583D 1   1.00000     0.00000
 Structure written by MMmdl.
 42 42  0  0  0  0  0  0  0  0  2 V2000
  148.4670  141.8127  156.6830 C   0  0  0  0  0  0  0  0  0  0  0  0
  149.4445  140.6662  156.9828 C   0  0  0  0  0  0  0  0  0  0  0  0
  150.4263  140.3426  155.8267 C   0  0  2  0  0  0  0  0  0  0  0  0
  149.6400  140.1223  154.5128 C   0  0  0  0  0  0  0  0  0  0  0  0
  151.3435  139.1295  156.1793 C   0  0  2  0  0  0  0  0  0  0  0  0
  152.1820  139.4729  157.3299 N   0  0  0  0  0  0  0  0  0  0  0  0
  152.3073  138.7511  158.4549 C   0  0  0  0  0  0  0  0  0  0  0  0
  151.6912  137.7032  158.6562 O   0  0  0  0  0  0  0  0  0  0  0  0
  153.2825  139.3135  159.4966 C   0  0  0  0  0  0  0  0  0  0  0  0
  153.1940  140.8143  159.6046 C   0  0  0  0  0  0  0  0  0  0  0  0
  153.9002  141.6766  160.4917 C   0  0  0  0  0  0  0  0  0  0  0  0
  153.4541  142.9244  160.1637 C   0  0  0  0  0  0  0  0  0  0  0  0
  152.5343  142.7796  159.1467 N   0  0  0  0  0  0  0  0  0  0  0  0
  151.7869  143.8186  158.4537 C   0  0  0  0  0  0  0  0  0  0  0  0
  152.2087  145.2185  158.9287 C   0  0  0  0  0  0  0  0  0  0  0  0
  150.2721  143.5980  158.5935 C   0  0  0  0  0  0  0  0  0  0  0  0
  152.3708  141.4814  158.8088 N   0  0  0  0  0  0  0  0  0  0  0  0
  152.2761  138.7874  155.0014 C   0  0  0  0  0  0  0  0  0  0  0  0
  152.1982  137.6304  154.5337 O   0  0  0  0  0  0  0  0  0  0  0  0
  153.0437  139.6852  154.5864 O   0  5  0  0  0  0  0  0  0  0  0  0
  147.8744  142.0499  157.5667 H   0  0  0  0  0  0  0  0  0  0  0  0
  147.7688  141.5589  155.8862 H   0  0  0  0  0  0  0  0  0  0  0  0
  148.9999  142.7180  156.3910 H   0  0  0  0  0  0  0  0  0  0  0  0
  149.9951  140.9516  157.8786 H   0  0  0  0  0  0  0  0  0  0  0  0
  148.8858  139.7696  157.2548 H   0  0  0  0  0  0  0  0  0  0  0  0
  151.0652  141.2163  155.6847 H   0  0  0  0  0  0  0  0  0  0  0  0
  148.9872  139.2523  154.5875 H   0  0  0  0  0  0  0  0  0  0  0  0
  150.2969  139.9697  153.6567 H   0  0  0  0  0  0  0  0  0  0  0  0
  149.0190  140.9815  154.2632 H   0  0  0  0  0  0  0  0  0  0  0  0
  150.7208  138.2632  156.4125 H   0  0  0  0  0  0  0  0  0  0  0  0
  152.7386  140.3102  157.2424 H   0  0  0  0  0  0  0  0  0  0  0  0
  153.0714  138.8427  160.4580 H   0  0  0  0  0  0  0  0  0  0  0  0
  154.2984  139.0231  159.2261 H   0  0  0  0  0  0  0  0  0  0  0  0
  154.6284  141.4173  161.2456 H   0  0  0  0  0  0  0  0  0  0  0  0
  153.7139  143.8928  160.5651 H   0  0  0  0  0  0  0  0  0  0  0  0
  152.0362  143.7393  157.3946 H   0  0  0  0  0  0  0  0  0  0  0  0
  151.7043  145.9948  158.3530 H   0  0  0  0  0  0  0  0  0  0  0  0
  153.2826  145.3657  158.8099 H   0  0  0  0  0  0  0  0  0  0  0  0
  151.9650  145.3759  159.9801 H   0  0  0  0  0  0  0  0  0  0  0  0
  149.7145  144.3322  158.0119 H   0  0  0  0  0  0  0  0  0  0  0  0
  149.9486  143.6838  159.6315 H   0  0  0  0  0  0  0  0  0  0  0  0
  149.9854  142.6083  158.2370 H   0  0  0  0  0  0  0  0  0  0  0  0
  1  2  1  0  0  0  0
  1 21  1  0  0  0  0
  1 22  1  0  0  0  0
  1 23  1  0  0  0  0
  2  3  1  0  0  0  0
  2 24  1  0  0  0  0
  2 25  1  0  0  0  0
  3  4  1  0  0  0  0
  3  5  1  0  0  0  0
  3 26  1  0  0  0  0
  4 27  1  0  0  0  0
  4 28  1  0  0  0  0
  4 29  1  0  0  0  0
  5  6  1  0  0  0  0
  5 18  1  0  0  0  0
  5 30  1  0  0  0  0
  6  7  1  0  0  0  0
  6 31  1  0  0  0  0
  7  8  2  0  0  0  0
  7  9  1  0  0  0  0
  9 10  1  0  0  0  0
  9 32  1  0  0  0  0
  9 33  1  0  0  0  0
 10 17  2  0  0  0  0
 10 11  1  0  0  0  0
 11 12  2  0  0  0  0
 11 34  1  0  0  0  0
 12 13  1  0  0  0  0
 12 35  1  0  0  0  0
 13 14  1  0  0  0  0
 13 17  1  0  0  0  0
 14 15  1  0  0  0  0
 14 16  1  0  0  0  0
 14 36  1  0  0  0  0
 15 37  1  0  0  0  0
 15 38  1  0  0  0  0
 15 39  1  0  0  0  0
 16 40  1  0  0  0  0
 16 41  1  0  0  0  0
 16 42  1  0  0  0  0
 18 19  2  0  0  0  0
 18 20  1  0  0  0  0
M  CHG  1  20  -1
M  END
> <s_m_source_file>
AV-unprocessed.smi

> <i_m_source_file_index>
2892

> <i_lp_mmshare_version>
43012

> <i_f3d_flags>
0

> <s_epik_input>
W0NIM11bQ0gyXVtDQEhdKFtDSDNdKVtDQEBIXShDKD1PKVtPSF0pW05IXUMoPU8pW0NIMl1jMVtjSF1bY0hdbihuMSlbQ0hdKFtDSDNdKVtDSDNd

> <s_epik_cmdline>
J2VwaWtfcHl0aG9uJywgJy1waCcsICc3LjAnLCAnLXRuJywgJzgnLCAnLW1hJywgJzIwMCcsICctbWV0YWxfYmluZGluZycsICctaW1hZScsICc8aW5maWxlLm1hZT4nLCAnLW9tYWUnLCAnPG91dGZpbGUubWFlPic=

> <r_lp_tautomer_probability>
1

> <r_epik_Ionization_Penalty>
0.000286846

> <r_epik_Ionization_Penalty_Charging>
0.000224481

> <r_epik_Ionization_Penalty_Neutral>
6.23655e-05

> <r_epik_State_Penalty>
-0

> <r_epik_Charging_Adjusted_Penalty>
0.000224481

> <i_epik_Tot_Q>
-1

> <i_epik_Tot_abs_Q>
1

> <r_epik_Metal_State_Penalty>
-0

> <b_epik_Metal_Only>
0

> <s_lp_Force_Field>
OPLS_2005

> <r_lp_Energy>
15.4928

> <b_lp_Chiralities_Consistent>
1

> <s_lp_Variant>
AV-unprocessed.smi:2892-1

> <Gold.Version>
5.8.1

> <Gold.Id.Protein>
6NUR|6NUR_protein|mol2

> <Gold.PLP.Fitness>
52.0416

> <Gold.PLP.PLP>
-41.9366

> <Gold.PLP.part.hbond>
-3.0000

> <Gold.PLP.part.metal>
0.0000

> <Gold.PLP.part.buried>
-5.6154

> <Gold.PLP.part.nonpolar>
-34.0047

> <Gold.PLP.part.repulsive>
0.2054

> <Gold.PLP.ligand.clash>
0.0000

> <Gold.PLP.ligand.torsion>
0.4263

> <Gold.PLP.Chemscore.Hbond>
3.6116

> <Gold.PLP.Chemscore.CHOScore>
0.0000

> <Gold.PLP.Chemscore.Metal>
0.0000

> <Gold.Chemscore.Hbonds>
donor molecule, donor type, donor heavy atom, donor atom, acceptor molecule, acceptor atom, score
      P1  H  7989  7998       L1    20  0.27
      P1  H  7997  8010       L1    20  2.00
      P1  H 10752 10765       L1    19  1.12

> <Gold.PLP.Chemscore.Internal.Correction>
0.1229

> <Gold.Rescore>
     Score         DG    S(hbond)    S(metal)    S(lipo)     H(rot)  DE(clash)    DE(int)     intcor
     14.34     -16.77       1.80        0.00      97.41       2.39       0.02       2.42       ----

> <Gold.Chemscore.Fitness>
14.3384

> <Gold.Chemscore.DG>
-16.7735

> <Gold.Chemscore.ZeroCoef>
-5.4800

> <Gold.Chemscore.Hbond>
1.7982

> <Gold.Chemscore.Metal>
0.0000

> <Gold.Chemscore.Lipo>
97.4091

> <Gold.Chemscore.Internal_Hbond>
0.0000

> <Gold.Chemscore.DEClash>
0.0200

> <Gold.Chemscore.DEInternal>
2.4151

> <Gold.Chemscore.Rot>
2.3865

> <Gold.Chemscore.Internal.Correction>
   9.000000E+99

> <Gold.Chemscore.Hbonds>
donor molecule, donor type, donor heavy atom, donor atom, acceptor molecule, acceptor atom, score
      P1  H  7989  7998       L1    20  0.08
      P1  H  7997  8010       L1    20  0.78
      P1  H 10752 10765       L1    19  0.55

> <Gold.Chemscore.Hbond.Weighted>
-6.0060

> <Gold.Chemscore.Metal.Weighted>
-0.0000

> <Gold.Chemscore.Lipo.Weighted>
-11.3969

> <Gold.Chemscore.Internal_Hbond.Weighted>
0.0000

> <Gold.Chemscore.DEClash.Weighted>
0.0200

> <Gold.Chemscore.DEInternal.Weighted>
2.4151

> <Gold.Chemscore.Rot.Weighted>
6.1093

> <Gold.Chemscore.Internal.Correction.Weighted>
   9.000000E+99

> <Gold.Protein.RotatedTorsions>
[ 6907 6896 6895 6894 ] final   30.64 input  -60.11 | X-H torsion
[ 7974 7965 7964 7962 ] final  -35.16 input  175.53 | X-H torsion
[ 8008 7997 7996 7995 ] final   98.18 input   59.86 | X-H torsion
[ 10167 10162 10161 10158 ] final  101.72 input  -65.29 | X-H torsion
[ 10718 10713 10712 10709 ] final  151.04 input   66.30 | X-H torsion
[ 10763 10752 10751 10750 ] final  172.63 input  -60.55 | X-H torsion
[ 11005 11000 10999 10996 ] final   69.83 input  -57.11 | X-H torsion

> <Gold.Protein.ActiveResidues>
 VAL166  LYS551  ARG553  GLY616  TRP617  ASP618  TYR619  PRO620  LYS621  CYS622 
 ASP623  PHE694  ASN695  SER759  ASP760  ASP761  ALA762  ILE779  LEU786  VAL792 
 PHE793  MET794  SER795  GLU796  ALA797  LYS798  CYS799  TRP800  GLU811  SER814 

> <Gold.Protein.RotatedAtoms>
  152.0489  134.9665  160.0574 H   0  0  0  0  0  0  0  0  0  0  0  0  # atno 6907 bound_to 6896
  152.1074  133.4277  159.4623 H   0  0  0  0  0  0  0  0  0  0  0  0  # atno 6908 bound_to 6896
  150.6842  134.2607  159.4591 H   0  0  0  0  0  0  0  0  0  0  0  0  # atno 6909 bound_to 6896
  146.0770  140.6125  142.8926 H   0  0  0  0  0  0  0  0  0  0  0  0  # atno 7974 bound_to 7965
  156.0978  140.3247  155.7901 H   0  0  0  0  0  0  0  0  0  0  0  0  # atno 8008 bound_to 7997
  155.4889  140.0560  157.2974 H   0  0  0  0  0  0  0  0  0  0  0  0  # atno 8009 bound_to 7997
  154.4677  140.1997  156.0090 H   0  0  0  0  0  0  0  0  0  0  0  0  # atno 8010 bound_to 7997
  139.7413  144.7010  151.0571 H   0  0  0  0  0  0  0  0  0  0  0  0  # atno 10167 bound_to 10162
  157.2757  131.0826  151.1567 H   0  0  0  0  0  0  0  0  0  0  0  0  # atno 10718 bound_to 10713
  154.4287  135.2759  155.1927 H   0  0  0  0  0  0  0  0  0  0  0  0  # atno 10763 bound_to 10752
  154.3842  135.6081  153.5811 H   0  0  0  0  0  0  0  0  0  0  0  0  # atno 10764 bound_to 10752
  152.9835  135.5887  154.4595 H   0  0  0  0  0  0  0  0  0  0  0  0  # atno 10765 bound_to 10752
  139.9631  134.7026  156.0602 H   0  0  0  0  0  0  0  0  0  0  0  0  # atno 11005 bound_to 11000
  144.7268  140.4549  143.6967 LP  0  0  0  0  0  0  0  0  0  0  0  0  # atno 17320 bound_to 7965
  145.6288  139.1533  143.2981 LP  0  0  0  0  0  0  0  0  0  0  0  0  # atno 17321 bound_to 7965
  140.7786  143.4921  150.9880 LP  0  0  0  0  0  0  0  0  0  0  0  0  # atno 17342 bound_to 10162
  139.8609  143.7316  152.3173 LP  0  0  0  0  0  0  0  0  0  0  0  0  # atno 17343 bound_to 10162
  157.3021  130.6848  149.6170 LP  0  0  0  0  0  0  0  0  0  0  0  0  # atno 17370 bound_to 10713
  155.9663  130.4389  150.5235 LP  0  0  0  0  0  0  0  0  0  0  0  0  # atno 17371 bound_to 10713
  141.1310  133.6586  156.3464 LP  0  0  0  0  0  0  0  0  0  0  0  0  # atno 17394 bound_to 11000
  140.5455  134.6078  157.5392 LP  0  0  0  0  0  0  0  0  0  0  0  0  # atno 17395 bound_to 11000

$$$$
