#       Name:                AV-unprocessed.smi:2546
#       Creating user name   scv26
#       Creation time:       Fri Mar 27 14:04:47 2020


#       File generated by GOLD software.
#

@<TRIPOS>MOLECULE
AV-unprocessed.smi:2546
    19    19     1
SMALL
NO_CHARGES


@<TRIPOS>ATOM
      1 ****        -1.6876   2.2119  -0.0062 N.4            1 S1                 1.0000
      2 ****        -1.1834   0.8284  -0.0037 C.3            1 S1                 0.0000
      3 ****         0.3511   0.7900  -0.0036 C.3            1 S1                 0.0000
      4 ****         0.8742  -0.6081   0.0112 C.2            1 S1                 0.0000
      5 ****         1.0876  -1.2770  -1.1230 N.2            1 S1                 0.0000
      6 ****         1.5027  -2.4791  -0.6676 N.pl3          1 S1                 0.0000
      7 ****         1.4962  -2.4587   0.6643 C.2            1 S1                 0.0000
      8 ****         1.0969  -1.2993   1.1706 N.2            1 S1                 0.0000
      9 ****        -2.6977   2.2014  -0.0063 H              1 S1                 0.0000
     10 ****        -1.3572   2.6914  -0.8315 H              1 S1                 0.0000
     11 ****        -1.5754   0.3152   0.8753 H              1 S1                 0.0000
     12 ****        -1.5751   0.3118  -0.8805 H              1 S1                 0.0000
     13 ****         0.7412   1.3074  -0.8815 H              1 S1                 0.0000
     14 ****         0.7400   1.3208   0.8666 H              1 S1                 0.0000
     15 ****         1.7833  -3.3044   1.2719 H              1 S1                 0.0000
     16 ****        -1.3575   2.6933   0.8182 H              1 S1                 0.0000
     17 ****         1.7613  -3.2446  -1.2741 H              1 S1                 0.0000
     18 ****         0.9705  -0.9682  -2.0669 LP             1 S1                 0.0000
     19 ****         0.9898  -1.0137   2.1229 LP             1 S1                 0.0000
@<TRIPOS>BOND
    1    1    2 1     
    2    1    9 1     
    3    1   10 1     
    4    1   16 1     
    5    2    3 1     
    6    2   11 1     
    7    2   12 1     
    8    3   13 1     
    9    3   14 1     
   10    3    4 1     
   11    4    8 1     
   12    4    5 2     
   13    5    6 1     
   14    6    7 1     
   15    6   17 1     
   16    7    8 2     
   17    7   15 1     
   18    5   18 1     
   19    8   19 1     
@<TRIPOS>SUBSTRUCTURE
      1 S1             1
@<TRIPOS>SET
LONE_PAIRS      STATIC     ATOMS    <user>   **** ""
2 18 19
DONOR_HYDROGENS      STATIC     ATOMS    <user>   **** ""
4 9 10 16 17
ATOM$BLUE        STATIC     ATOMS    COLORGROUP SYSTEM
2 18 19
ATOM$RED        STATIC     ATOMS    COLORGROUP SYSTEM
4 9 10 16 17
