AV-unprocessed.smi:2062|AV-procd|sdf|8402|dock3
  -GOLD-   2272011 83D 1   1.00000     0.00000
 Structure written by MMmdl.
 42 43  0  0  0  0  0  0  0  0  3 V2000
  151.7387  144.1547  161.1692 C   0  0  0  0  0  0  0  0  0  0  0  0
  151.7522  143.4747  159.7922 C   0  0  0  0  0  0  0  0  0  0  0  0
  153.1911  143.3697  159.2590 C   0  0  0  0  0  0  0  0  0  0  0  0
  150.8259  144.2240  158.8099 C   0  0  0  0  0  0  0  0  0  0  0  0
  150.3076  143.3616  157.7169 N   0  3  1  0  0  0  0  0  0  0  0  0
  151.3670  142.6086  157.0007 C   0  0  0  0  0  0  0  0  0  0  0  0
  150.7550  141.7584  155.8763 C   0  0  0  0  0  0  0  0  0  0  0  0
  149.7702  140.8944  156.4241 O   0  0  0  0  0  0  0  0  0  0  0  0
  148.6878  141.6079  157.0130 C   0  0  1  0  0  0  0  0  0  0  0  0
  147.6190  140.6046  157.4809 C   0  0  0  0  0  0  0  0  0  0  0  0
  146.4842  141.2807  158.1000 N   0  0  0  0  0  0  0  0  0  0  0  0
  145.3114  140.7168  158.4212 C   0  0  0  0  0  0  0  0  0  0  0  0
  145.1310  139.5132  158.2227 O   0  0  0  0  0  0  0  0  0  0  0  0
  144.4190  141.5851  158.9473 N   0  5  0  0  0  0  0  0  0  0  0  0
  144.7120  142.2443  160.0802 C   0  0  0  0  0  0  0  0  0  0  0  0
  145.9653  142.4417  160.5051 N   0  0  0  0  0  0  0  0  0  0  0  0
  146.0391  143.1471  161.7076 C   0  0  0  0  0  0  0  0  0  0  0  0
  144.8130  143.4880  162.2142 C   0  0  0  0  0  0  0  0  0  0  0  0
  143.5213  142.9286  161.1904 S   0  0  0  0  0  0  0  0  0  0  0  0
  149.2437  142.4408  158.1843 C   0  0  0  0  0  0  0  0  0  0  0  0
  152.1137  145.1772  161.1119 H   0  0  0  0  0  0  0  0  0  0  0  0
  152.3601  143.6121  161.8823 H   0  0  0  0  0  0  0  0  0  0  0  0
  150.7290  144.1936  161.5791 H   0  0  0  0  0  0  0  0  0  0  0  0
  151.3754  142.4635  159.9412 H   0  0  0  0  0  0  0  0  0  0  0  0
  153.6250  144.3558  159.0905 H   0  0  0  0  0  0  0  0  0  0  0  0
  153.2297  142.8226  158.3168 H   0  0  0  0  0  0  0  0  0  0  0  0
  153.8325  142.8423  159.9657 H   0  0  0  0  0  0  0  0  0  0  0  0
  149.9836  144.6701  159.3408 H   0  0  0  0  0  0  0  0  0  0  0  0
  151.3864  145.0554  158.3793 H   0  0  0  0  0  0  0  0  0  0  0  0
  152.1013  143.2897  156.5727 H   0  0  0  0  0  0  0  0  0  0  0  0
  151.8982  141.9647  157.7035 H   0  0  0  0  0  0  0  0  0  0  0  0
  150.3166  142.3886  155.1009 H   0  0  0  0  0  0  0  0  0  0  0  0
  151.5272  141.1553  155.3986 H   0  0  0  0  0  0  0  0  0  0  0  0
  148.2438  142.2751  156.2712 H   0  0  0  0  0  0  0  0  0  0  0  0
  147.2934  139.9687  156.6560 H   0  0  0  0  0  0  0  0  0  0  0  0
  148.0450  139.9384  158.2316 H   0  0  0  0  0  0  0  0  0  0  0  0
  146.5869  142.2672  158.2881 H   0  0  0  0  0  0  0  0  0  0  0  0
  147.0080  143.3622  162.1328 H   0  0  0  0  0  0  0  0  0  0  0  0
  144.5909  144.0290  163.1216 H   0  0  0  0  0  0  0  0  0  0  0  0
  149.6444  141.7837  158.9583 H   0  0  0  0  0  0  0  0  0  0  0  0
  148.4359  143.0163  158.6385 H   0  0  0  0  0  0  0  0  0  0  0  0
  149.8728  143.9760  157.0433 H   0  0  0  0  0  0  0  0  0  0  0  0
  1  2  1  0  0  0  0
  1 21  1  0  0  0  0
  1 22  1  0  0  0  0
  1 23  1  0  0  0  0
  2  3  1  0  0  0  0
  2  4  1  0  0  0  0
  2 24  1  0  0  0  0
  3 25  1  0  0  0  0
  3 26  1  0  0  0  0
  3 27  1  0  0  0  0
  4  5  1  0  0  0  0
  4 28  1  0  0  0  0
  4 29  1  0  0  0  0
  5 20  1  0  0  0  0
  5  6  1  0  0  0  0
  5 42  1  0  0  0  0
  6  7  1  0  0  0  0
  6 30  1  0  0  0  0
  6 31  1  0  0  0  0
  7  8  1  0  0  0  0
  7 32  1  0  0  0  0
  7 33  1  0  0  0  0
  8  9  1  0  0  0  0
  9 10  1  0  0  0  0
  9 20  1  0  0  0  0
  9 34  1  0  0  0  0
 10 11  1  0  0  0  0
 10 35  1  0  0  0  0
 10 36  1  0  0  0  0
 11 12  1  0  0  0  0
 11 37  1  0  0  0  0
 12 13  2  0  0  0  0
 12 14  1  0  0  0  0
 14 15  1  0  0  0  0
 15 19  1  0  0  0  0
 15 16  2  0  0  0  0
 16 17  1  0  0  0  0
 17 18  2  0  0  0  0
 17 38  1  0  0  0  0
 18 19  1  0  0  0  0
 18 39  1  0  0  0  0
 20 40  1  0  0  0  0
 20 41  1  0  0  0  0
M  CHG  1   5   1
M  CHG  1  14  -1
M  END
> <s_m_source_file>
AV-unprocessed.smi

> <i_m_source_file_index>
2062

> <i_lp_mmshare_version>
43012

> <i_f3d_flags>
0

> <s_epik_input>
W0NIM11bQ0hdKFtDSDNdKVtDSDJdTjFbQ0gyXVtDSDJdT1tDQEhdKFtDSDJdMSlbQ0gyXVtOSF1DKD1PKVtOSF1jMm5bY0hdW2NIXXMy

> <s_epik_cmdline>
J2VwaWtfcHl0aG9uJywgJy1waCcsICc3LjAnLCAnLXRuJywgJzgnLCAnLW1hJywgJzIwMCcsICctbWV0YWxfYmluZGluZycsICctaW1hZScsICc8aW5maWxlLm1hZT4nLCAnLW9tYWUnLCAnPG91dGZpbGUubWFlPic=

> <r_lp_tautomer_probability>
0.999

> <r_epik_Ionization_Penalty>
6.35835

> <r_epik_Ionization_Penalty_Charging>
5.49938

> <r_epik_Ionization_Penalty_Neutral>
0.858963

> <r_epik_State_Penalty>
5.49328

> <r_epik_Charging_Adjusted_Penalty>
10.9927

> <i_epik_Tot_Q>
0

> <i_epik_Tot_abs_Q>
2

> <r_epik_Metal_State_Penalty>
1.51523

> <b_epik_Metal_Only>
1

> <s_lp_Force_Field>
OPLS_2005

> <r_lp_Energy>
7.56536

> <b_lp_Chiralities_Consistent>
1

> <s_lp_Variant>
AV-unprocessed.smi:2062-7

> <Gold.Version>
5.8.1

> <Gold.Id.Protein>
6NUR|6NUR_protein|mol2

> <Gold.PLP.Fitness>
41.0516

> <Gold.PLP.PLP>
-34.0250

> <Gold.PLP.part.hbond>
-2.0000

> <Gold.PLP.part.metal>
0.0000

> <Gold.PLP.part.buried>
-6.7384

> <Gold.PLP.part.nonpolar>
-26.1244

> <Gold.PLP.part.repulsive>
0.1940

> <Gold.PLP.ligand.clash>
0.0000

> <Gold.PLP.ligand.torsion>
1.0634

> <Gold.PLP.Chemscore.Hbond>
3.0000

> <Gold.PLP.Chemscore.CHOScore>
0.0000

> <Gold.PLP.Chemscore.Metal>
0.0000

> <Gold.Chemscore.Hbonds>
donor molecule, donor type, donor heavy atom, donor atom, acceptor molecule, acceptor atom, score
      L1  H     5    42       P1  8028  2.00
      P1  H  6934  6946       L1    16  1.00

> <Gold.PLP.Chemscore.Internal.Correction>
0.1534

> <Gold.Rescore>
     Score         DG    S(hbond)    S(metal)    S(lipo)     H(rot)  DE(clash)    DE(int)     intcor
     15.44     -18.03       1.93        0.00      89.87       1.72       0.24       2.34       ----

> <Gold.Chemscore.Fitness>
15.4442

> <Gold.Chemscore.DG>
-18.0282

> <Gold.Chemscore.ZeroCoef>
-5.4800

> <Gold.Chemscore.Hbond>
1.9267

> <Gold.Chemscore.Metal>
0.0000

> <Gold.Chemscore.Lipo>
89.8699

> <Gold.Chemscore.Internal_Hbond>
0.0000

> <Gold.Chemscore.DEClash>
0.2401

> <Gold.Chemscore.DEInternal>
2.3439

> <Gold.Chemscore.Rot>
1.7194

> <Gold.Chemscore.Internal.Correction>
   9.000000E+99

> <Gold.Chemscore.Hbonds>
donor molecule, donor type, donor heavy atom, donor atom, acceptor molecule, acceptor atom, score
      L1  H     5    42       P1  8028  0.88
      P1  H  6934  6946       L1    16  0.51

> <Gold.Chemscore.Hbond.Weighted>
-6.4352

> <Gold.Chemscore.Metal.Weighted>
-0.0000

> <Gold.Chemscore.Lipo.Weighted>
-10.5148

> <Gold.Chemscore.Internal_Hbond.Weighted>
0.0000

> <Gold.Chemscore.DEClash.Weighted>
0.2401

> <Gold.Chemscore.DEInternal.Weighted>
2.3439

> <Gold.Chemscore.Rot.Weighted>
4.4017

> <Gold.Chemscore.Internal.Correction.Weighted>
   9.000000E+99

> <Gold.Protein.RotatedTorsions>
[ 6907 6896 6895 6894 ] final  140.73 input  -60.11 | X-H torsion
[ 7974 7965 7964 7962 ] final   89.05 input  175.53 | X-H torsion
[ 8008 7997 7996 7995 ] final -113.26 input   59.86 | X-H torsion
[ 10167 10162 10161 10158 ] final  169.62 input  -65.29 | X-H torsion
[ 10718 10713 10712 10709 ] final -116.56 input   66.30 | X-H torsion
[ 10763 10752 10751 10750 ] final  159.90 input  -60.55 | X-H torsion
[ 11005 11000 10999 10996 ] final   49.45 input  -57.11 | X-H torsion

> <Gold.Protein.ActiveResidues>
 VAL166  LYS551  ARG553  GLY616  TRP617  ASP618  TYR619  PRO620  LYS621  CYS622 
 ASP623  PHE694  ASN695  SER759  ASP760  ASP761  ALA762  ILE779  LEU786  VAL792 
 PHE793  MET794  SER795  GLU796  ALA797  LYS798  CYS799  TRP800  GLU811  SER814 

> <Gold.Protein.RotatedAtoms>
  152.2395  133.5124  159.5261 H   0  0  0  0  0  0  0  0  0  0  0  0  # atno 6907 bound_to 6896
  150.7060  134.1108  159.4008 H   0  0  0  0  0  0  0  0  0  0  0  0  # atno 6908 bound_to 6896
  151.9029  135.0371  160.0558 H   0  0  0  0  0  0  0  0  0  0  0  0  # atno 6909 bound_to 6896
  145.5376  139.2286  143.2584 H   0  0  0  0  0  0  0  0  0  0  0  0  # atno 7974 bound_to 7965
  155.0180  140.0393  157.2426 H   0  0  0  0  0  0  0  0  0  0  0  0  # atno 8008 bound_to 7997
  154.7402  140.2747  155.6356 H   0  0  0  0  0  0  0  0  0  0  0  0  # atno 8009 bound_to 7997
  156.2862  140.2667  156.2128 H   0  0  0  0  0  0  0  0  0  0  0  0  # atno 8010 bound_to 7997
  139.4997  144.3686  151.9749 H   0  0  0  0  0  0  0  0  0  0  0  0  # atno 10167 bound_to 10162
  156.0972  130.6142  150.9051 H   0  0  0  0  0  0  0  0  0  0  0  0  # atno 10718 bound_to 10713
  154.2390  135.2775  155.2861 H   0  0  0  0  0  0  0  0  0  0  0  0  # atno 10763 bound_to 10752
  154.5560  135.5661  153.6968 H   0  0  0  0  0  0  0  0  0  0  0  0  # atno 10764 bound_to 10752
  153.0004  135.6286  154.2534 H   0  0  0  0  0  0  0  0  0  0  0  0  # atno 10765 bound_to 10752
  140.1102  134.4964  155.8684 H   0  0  0  0  0  0  0  0  0  0  0  0  # atno 11005 bound_to 11000
  146.2003  140.6194  142.9105 LP  0  0  0  0  0  0  0  0  0  0  0  0  # atno 17320 bound_to 7965
  144.7594  140.5385  143.6746 LP  0  0  0  0  0  0  0  0  0  0  0  0  # atno 17321 bound_to 7965
  140.3122  144.3524  150.6031 LP  0  0  0  0  0  0  0  0  0  0  0  0  # atno 17342 bound_to 10162
  140.5789  143.2174  151.7464 LP  0  0  0  0  0  0  0  0  0  0  0  0  # atno 17343 bound_to 10162
  157.6135  131.0935  150.8752 LP  0  0  0  0  0  0  0  0  0  0  0  0  # atno 17370 bound_to 10713
  156.8888  130.5205  149.5287 LP  0  0  0  0  0  0  0  0  0  0  0  0  # atno 17371 bound_to 10713
  141.2128  133.6725  156.6691 LP  0  0  0  0  0  0  0  0  0  0  0  0  # atno 17394 bound_to 11000
  140.3101  134.8093  157.4169 LP  0  0  0  0  0  0  0  0  0  0  0  0  # atno 17395 bound_to 11000

$$$$
