#       Name:                AV-unprocessed.smi:35
#       Creating user name   scv26
#       Creation time:       Thu Mar 26 16:01:29 2020


#       File generated by GOLD software.
#

@<TRIPOS>MOLECULE
AV-unprocessed.smi:35
    41    42     1
SMALL
NO_CHARGES


@<TRIPOS>ATOM
      1 ****        -2.5125   4.5535   0.9460 O.2            1 S1                 0.0000
      2 ****        -2.0658   3.4537   0.6272 C.2            1 S1                 0.0000
      3 ****        -2.8817   2.5214  -0.0210 N.am           1 S1                 0.0000
      4 ****        -2.4900   1.2447  -0.4301 C.2            1 S1                 0.0000
      5 ****        -3.3015   0.4996  -0.9773 O.2            1 S1                 0.0000
      6 ****        -1.1524   0.8697  -0.1731 N.am           1 S1                 0.0000
      7 ****        -0.6528  -0.4954  -0.5941 C.3            1 S1                 0.0000
      8 ****         0.6292  -0.3396  -1.1160 O.3            1 S1                 0.0000
      9 ****         1.4104  -1.4741  -0.7726 C.3            1 S1                 0.0000
     10 ****         2.9035  -1.1183  -0.8377 C.3            1 S1                 0.0000
     11 ****         3.3675  -1.2234  -2.1666 O.3            1 S1                 0.0000
     12 ****         0.9213  -1.8086   0.6403 C.3            1 S1                 0.0000
     13 ****         1.1459  -3.1745   0.9284 O.3            1 S1                 0.0000
     14 ****        -0.5716  -1.5048   0.5747 C.3            1 S1                 0.0000
     15 ****        -1.0384  -1.0090   1.8171 O.3            1 S1                 0.0000
     16 ****        -0.3068   1.7591   0.4758 C.2            1 S1                 0.0000
     17 ****        -0.7034   2.9915   0.8700 C.2            1 S1                 0.0000
     18 ****         0.6524   4.1067   1.7873 Br             1 S1                 0.0000
     19 ****        -3.8363   2.7938  -0.2055 H              1 S1                 0.0000
     20 ****        -1.2941  -0.8470  -1.4039 H              1 S1                 0.0000
     21 ****         1.1668  -2.2927  -1.4535 H              1 S1                 0.0000
     22 ****         3.0913  -0.1183  -0.4453 H              1 S1                 0.0000
     23 ****         3.4828  -1.8174  -0.2340 H              1 S1                 0.0000
     24 ****         4.2910  -1.0228  -2.1792 H              1 S1                 0.0000
     25 ****         1.4178  -1.1707   1.3740 H              1 S1                 0.0000
     26 ****         0.7067  -3.6973   0.2754 H              1 S1                 0.0000
     27 ****        -1.1472  -2.3876   0.2920 H              1 S1                 0.0000
     28 ****        -1.9410  -0.7485   1.7145 H              1 S1                 0.0000
     29 ****         0.7093   1.4570   0.6858 H              1 S1                 0.0000
     30 ****        -1.9257   5.2154   1.4124 LP             1 S1                 0.0000
     31 ****        -3.4628   4.7863   0.7391 LP             1 S1                 0.0000
     32 ****        -4.2406   0.8081  -1.1288 LP             1 S1                 0.0000
     33 ****        -3.0222  -0.4147  -1.2706 LP             1 S1                 0.0000
     34 ****         1.0486   0.4840  -0.7341 LP             1 S1                 0.0000
     35 ****         0.5780  -0.2569  -2.1112 LP             1 S1                 0.0000
     36 ****         2.8740  -0.5767  -2.7481 LP             1 S1                 0.0000
     37 ****         3.2199  -2.1536  -2.5026 LP             1 S1                 0.0000
     38 ****         0.7821  -3.3918   1.8342 LP             1 S1                 0.0000
     39 ****         2.1272  -3.3658   0.9087 LP             1 S1                 0.0000
     40 ****        -0.4889  -0.2208   2.0941 LP             1 S1                 0.0000
     41 ****        -0.9703  -1.7239   2.5131 LP             1 S1                 0.0000
@<TRIPOS>BOND
    1    1    2 2     
    2    2   17 1     
    3    2    3 1     
    4    3   19 1     
    5    3    4 1     
    6    4    5 2     
    7    4    6 1     
    8    6    7 1     
    9    6   16 1     
   10    7   14 1     
   11    7    8 1     
   12    7   20 1     
   13    8    9 1     
   14    9   10 1     
   15    9   12 1     
   16    9   21 1     
   17   10   11 1     
   18   10   22 1     
   19   10   23 1     
   20   11   24 1     
   21   12   13 1     
   22   12   14 1     
   23   12   25 1     
   24   13   26 1     
   25   14   15 1     
   26   14   27 1     
   27   15   28 1     
   28   16   17 2     
   29   16   29 1     
   30   17   18 1     
   31    1   30 1     
   32    1   31 1     
   33    5   32 1     
   34    5   33 1     
   35    8   34 1     
   36    8   35 1     
   37   11   36 1     
   38   11   37 1     
   39   13   38 1     
   40   13   39 1     
   41   15   40 1     
   42   15   41 1     
@<TRIPOS>SUBSTRUCTURE
      1 S1             1
@<TRIPOS>SET
LONE_PAIRS      STATIC     ATOMS    <user>   **** ""
12 30 31 32 33 34 35 36 37 38 39 40 41
DONOR_HYDROGENS      STATIC     ATOMS    <user>   **** ""
4 19 24 26 28
ATOM$BLUE        STATIC     ATOMS    COLORGROUP SYSTEM
12 30 31 32 33 34 35 36 37 38 39 40 41
ATOM$RED        STATIC     ATOMS    COLORGROUP SYSTEM
4 19 24 26 28
