AV-unprocessed.smi:287|AV-procd|sdf|2204|dock7
  -GOLD-   2262022 23D 1   1.00000     0.00000
 Structure written by MMmdl.
 55 58  0  0  0  0  0  0  0  0  1 V2000
  152.9360  142.6739  161.9030 C   0  0  0  0  0  0  0  0  0  0  0  0
  152.5373  142.1502  160.5660 C   0  0  0  0  0  0  0  0  0  0  0  0
  152.5202  140.9065  160.0050 C   0  0  0  0  0  0  0  0  0  0  0  0
  152.0183  141.0449  158.6760 C   0  0  0  0  0  0  0  0  0  0  0  0
  151.8265  139.9209  157.6666 C   0  0  2  0  0  0  0  0  0  0  0  0
  150.9160  138.8363  158.2655 C   0  0  0  0  0  0  0  0  0  0  0  0
  153.0361  139.2617  157.3444 O   0  0  0  0  0  0  0  0  0  0  0  0
  151.2436  140.4220  156.3253 C   0  0  0  0  0  0  0  0  0  0  0  0
  151.1159  139.3633  155.3323 N   0  0  0  0  0  0  0  0  0  0  0  0
  150.1106  138.4649  155.3931 C   0  0  0  0  0  0  0  0  0  0  0  0
  148.8967  138.9757  155.7065 N   0  0  0  0  0  0  0  0  0  0  0  0
  147.8357  138.1717  155.8021 C   0  0  0  0  0  0  0  0  0  0  0  0
  147.7730  136.8523  155.6235 N   0  0  0  0  0  0  0  0  0  0  0  0
  148.9884  136.3227  155.2969 C   0  0  0  0  0  0  0  0  0  0  0  0
  150.2039  137.0582  155.1688 C   0  0  0  0  0  0  0  0  0  0  0  0
  151.2359  136.1840  154.8495 N   0  0  0  0  0  0  0  0  0  0  0  0
  150.6652  135.0127  154.8001 C   0  0  0  0  0  0  0  0  0  0  0  0
  149.3058  135.0024  155.0241 N   0  0  0  0  0  0  0  0  0  0  0  0
  148.3995  133.7990  155.0567 C   0  0  1  0  0  0  0  0  0  0  0  0
  147.4310  133.9248  154.0615 O   0  0  0  0  0  0  0  0  0  0  0  0
  147.8976  133.3028  152.8716 C   0  0  2  0  0  0  0  0  0  0  0  0
  146.7561  133.1041  151.8592 C   0  0  0  0  0  0  0  0  0  0  0  0
  147.2730  132.6235  150.6365 O   0  0  0  0  0  0  0  0  0  0  0  0
  148.5265  132.0222  153.4330 C   0  0  2  0  0  0  0  0  0  0  0  0
  147.5312  131.0403  153.6737 O   0  0  0  0  0  0  0  0  0  0  0  0
  149.1936  132.5179  154.7186 C   0  0  2  0  0  0  0  0  0  0  0  0
  149.1756  131.5567  155.7580 O   0  0  0  0  0  0  0  0  0  0  0  0
  151.7825  142.3908  158.5299 C   0  0  0  0  0  0  0  0  0  0  0  0
  151.2790  143.2391  157.4093 C   0  0  0  0  0  0  0  0  0  0  0  0
  152.0899  143.0667  159.6719 O   0  0  0  0  0  0  0  0  0  0  0  0
  147.9564  133.8173  156.0531 H   0  0  0  0  0  0  0  0  0  0  0  0
  148.6885  133.9126  152.4295 H   0  0  0  0  0  0  0  0  0  0  0  0
  149.2563  131.5987  152.7423 H   0  0  0  0  0  0  0  0  0  0  0  0
  150.2312  132.7700  154.4978 H   0  0  0  0  0  0  0  0  0  0  0  0
  153.0562  141.8609  162.6192 H   0  0  0  0  0  0  0  0  0  0  0  0
  152.1813  143.3575  162.2927 H   0  0  0  0  0  0  0  0  0  0  0  0
  153.8815  143.2127  161.8398 H   0  0  0  0  0  0  0  0  0  0  0  0
  152.8287  139.9952  160.4953 H   0  0  0  0  0  0  0  0  0  0  0  0
  149.9326  139.2384  158.5124 H   0  0  0  0  0  0  0  0  0  0  0  0
  151.3406  138.4233  159.1817 H   0  0  0  0  0  0  0  0  0  0  0  0
  150.7659  138.0097  157.5696 H   0  0  0  0  0  0  0  0  0  0  0  0
  152.8669  138.6488  156.6454 H   0  0  0  0  0  0  0  0  0  0  0  0
  150.2823  140.9141  156.4803 H   0  0  0  0  0  0  0  0  0  0  0  0
  151.9218  141.1711  155.9143 H   0  0  0  0  0  0  0  0  0  0  0  0
  151.8199  139.3578  154.6077 H   0  0  0  0  0  0  0  0  0  0  0  0
  146.9034  138.6535  156.0572 H   0  0  0  0  0  0  0  0  0  0  0  0
  151.2286  134.1148  154.5914 H   0  0  0  0  0  0  0  0  0  0  0  0
  146.0502  132.3609  152.2303 H   0  0  0  0  0  0  0  0  0  0  0  0
  146.2022  134.0291  151.6967 H   0  0  0  0  0  0  0  0  0  0  0  0
  147.9136  131.9545  150.8233 H   0  0  0  0  0  0  0  0  0  0  0  0
  147.7589  130.5749  154.4644 H   0  0  0  0  0  0  0  0  0  0  0  0
  148.8164  130.7518  155.4175 H   0  0  0  0  0  0  0  0  0  0  0  0
  151.8674  143.0748  156.5066 H   0  0  0  0  0  0  0  0  0  0  0  0
  151.3374  144.2987  157.6592 H   0  0  0  0  0  0  0  0  0  0  0  0
  150.2387  143.0039  157.1850 H   0  0  0  0  0  0  0  0  0  0  0  0
  1  2  1  0  0  0  0
  1 35  1  0  0  0  0
  1 36  1  0  0  0  0
  1 37  1  0  0  0  0
  2 30  1  0  0  0  0
  2  3  2  0  0  0  0
  3  4  1  0  0  0  0
  3 38  1  0  0  0  0
  4  5  1  0  0  0  0
  4 28  2  0  0  0  0
  5  6  1  0  0  0  0
  5  7  1  0  0  0  0
  5  8  1  0  0  0  0
  6 39  1  0  0  0  0
  6 40  1  0  0  0  0
  6 41  1  0  0  0  0
  7 42  1  0  0  0  0
  8  9  1  0  0  0  0
  8 43  1  0  0  0  0
  8 44  1  0  0  0  0
  9 10  1  0  0  0  0
  9 45  1  0  0  0  0
 10 15  1  0  0  0  0
 10 11  2  0  0  0  0
 11 12  1  0  0  0  0
 12 13  2  0  0  0  0
 12 46  1  0  0  0  0
 13 14  1  0  0  0  0
 14 18  1  0  0  0  0
 14 15  2  0  0  0  0
 15 16  1  0  0  0  0
 16 17  2  0  0  0  0
 17 18  1  0  0  0  0
 17 47  1  0  0  0  0
 18 19  1  0  0  0  0
 19 31  1  0  0  0  0
 19 26  1  0  0  0  0
 19 20  1  0  0  0  0
 20 21  1  0  0  0  0
 21 32  1  0  0  0  0
 21 22  1  0  0  0  0
 21 24  1  0  0  0  0
 22 23  1  0  0  0  0
 22 48  1  0  0  0  0
 22 49  1  0  0  0  0
 23 50  1  0  0  0  0
 24 33  1  0  0  0  0
 24 25  1  0  0  0  0
 24 26  1  0  0  0  0
 25 51  1  0  0  0  0
 26 34  1  0  0  0  0
 26 27  1  0  0  0  0
 27 52  1  0  0  0  0
 28 29  1  0  0  0  0
 28 30  1  0  0  0  0
 29 53  1  0  0  0  0
 29 54  1  0  0  0  0
 29 55  1  0  0  0  0
M  END
> <s_m_source_file>
AV-unprocessed.smi

> <i_m_source_file_index>
287

> <i_lp_mmshare_version>
43012

> <i_f3d_flags>
0

> <s_epik_input>
W0NIM11jMVtjSF1jKGMobzEpW0NIM10pW0NAQF0oW0NIM10pKFtPSF0pW0NIMl1bTkhdYyhuW2NIXW4yKWMoYzIzKW5bY0hdbjNbQ0BASF00T1tDQEhdKFtDSDJdW09IXSlbQ0BASF0oW09IXSlbQ0BIXTRbT0hd

> <s_epik_cmdline>
J2VwaWtfcHl0aG9uJywgJy1waCcsICc3LjAnLCAnLXRuJywgJzgnLCAnLW1hJywgJzIwMCcsICctbWV0YWxfYmluZGluZycsICctaW1hZScsICc8aW5maWxlLm1hZT4nLCAnLW9tYWUnLCAnPG91dGZpbGUubWFlPic=

> <r_lp_tautomer_probability>
1

> <r_epik_Ionization_Penalty>
0.000992612

> <r_epik_Ionization_Penalty_Charging>
0

> <r_epik_Ionization_Penalty_Neutral>
0.000992612

> <r_epik_State_Penalty>
-0

> <r_epik_Charging_Adjusted_Penalty>
0

> <i_epik_Tot_Q>
0

> <i_epik_Tot_abs_Q>
0

> <r_epik_Metal_State_Penalty>
-0

> <b_epik_Metal_Only>
0

> <s_epik_Chemistry_Notes>
This compound contains an acetal/aminal-like group ( X-CH(R)-Y where X, Y are N, S, or O) that may be acid/base labile, releasing an aldehyde.

> <s_lp_Force_Field>
OPLS_2005

> <r_lp_Energy>
48.2808

> <b_lp_Chiralities_Consistent>
1

> <s_lp_Variant>
AV-unprocessed.smi:287-28

> <Gold.Version>
5.8.1

> <Gold.Id.Protein>
6NUR|6NUR_protein|mol2

> <Gold.PLP.Fitness>
50.9203

> <Gold.PLP.PLP>
-43.6389

> <Gold.PLP.part.hbond>
-3.0000

> <Gold.PLP.part.metal>
0.0000

> <Gold.PLP.part.buried>
-6.6026

> <Gold.PLP.part.nonpolar>
-34.3357

> <Gold.PLP.part.repulsive>
0.4342

> <Gold.PLP.ligand.clash>
0.0000

> <Gold.PLP.ligand.torsion>
0.5537

> <Gold.PLP.Chemscore.Hbond>
2.7500

> <Gold.PLP.Chemscore.CHOScore>
0.0000

> <Gold.PLP.Chemscore.Metal>
0.0000

> <Gold.Chemscore.Hbonds>
donor molecule, donor type, donor heavy atom, donor atom, acceptor molecule, acceptor atom, score
      L1  H    23    50       P1 10747  0.96
      P1  H  7997  8010       L1     7  1.00
      P1  H 10752 10765       L1    16  0.86

> <Gold.PLP.Chemscore.Internal.Correction>
0.1389

> <Gold.Rescore>
     Score         DG    S(hbond)    S(metal)    S(lipo)     H(rot)  DE(clash)    DE(int)     intcor
      7.60     -10.53       1.99        0.00     101.56       5.27       0.42       2.51       ----

> <Gold.Chemscore.Fitness>
7.5988

> <Gold.Chemscore.DG>
-10.5315

> <Gold.Chemscore.ZeroCoef>
-5.4800

> <Gold.Chemscore.Hbond>
1.9918

> <Gold.Chemscore.Metal>
0.0000

> <Gold.Chemscore.Lipo>
101.5625

> <Gold.Chemscore.Internal_Hbond>
0.0000

> <Gold.Chemscore.DEClash>
0.4202

> <Gold.Chemscore.DEInternal>
2.5125

> <Gold.Chemscore.Rot>
5.2672

> <Gold.Chemscore.Internal.Correction>
   9.000000E+99

> <Gold.Chemscore.Hbonds>
donor molecule, donor type, donor heavy atom, donor atom, acceptor molecule, acceptor atom, score
      L1  H    23    50       P1 10747  0.91
      P1  H  7997  8010       L1     7  0.45
      P1  H 10752 10765       L1    16  0.16

> <Gold.Chemscore.Hbond.Weighted>
-6.6526

> <Gold.Chemscore.Metal.Weighted>
-0.0000

> <Gold.Chemscore.Lipo.Weighted>
-11.8828

> <Gold.Chemscore.Internal_Hbond.Weighted>
0.0000

> <Gold.Chemscore.DEClash.Weighted>
0.4202

> <Gold.Chemscore.DEInternal.Weighted>
2.5125

> <Gold.Chemscore.Rot.Weighted>
13.4839

> <Gold.Chemscore.Internal.Correction.Weighted>
   9.000000E+99

> <Gold.Protein.RotatedTorsions>
[ 6907 6896 6895 6894 ] final  122.14 input  -60.11 | X-H torsion
[ 7974 7965 7964 7962 ] final  167.62 input  175.53 | X-H torsion
[ 8008 7997 7996 7995 ] final   45.44 input   59.86 | X-H torsion
[ 10167 10162 10161 10158 ] final   98.84 input  -65.29 | X-H torsion
[ 10718 10713 10712 10709 ] final -103.04 input   66.30 | X-H torsion
[ 10763 10752 10751 10750 ] final  154.86 input  -60.55 | X-H torsion
[ 11005 11000 10999 10996 ] final  -45.83 input  -57.11 | X-H torsion

> <Gold.Protein.ActiveResidues>
 VAL166  LYS551  ARG553  GLY616  TRP617  ASP618  TYR619  PRO620  LYS621  CYS622 
 ASP623  PHE694  ASN695  SER759  ASP760  ASP761  ALA762  ILE779  LEU786  VAL792 
 PHE793  MET794  SER795  GLU796  ALA797  LYS798  CYS799  TRP800  GLU811  SER814 

> <Gold.Protein.RotatedAtoms>
  152.4267  133.7206  159.6531 H   0  0  0  0  0  0  0  0  0  0  0  0  # atno 6907 bound_to 6896
  150.8143  133.8354  159.3173 H   0  0  0  0  0  0  0  0  0  0  0  0  # atno 6908 bound_to 6896
  151.6055  135.1046  160.0121 H   0  0  0  0  0  0  0  0  0  0  0  0  # atno 6909 bound_to 6896
  144.7417  139.8788  143.6394 H   0  0  0  0  0  0  0  0  0  0  0  0  # atno 7974 bound_to 7965
  155.3359  140.3405  155.4239 H   0  0  0  0  0  0  0  0  0  0  0  0  # atno 8008 bound_to 7997
  156.1838  140.1673  156.8260 H   0  0  0  0  0  0  0  0  0  0  0  0  # atno 8009 bound_to 7997
  154.5363  140.0734  156.8416 H   0  0  0  0  0  0  0  0  0  0  0  0  # atno 8010 bound_to 7997
  139.7671  144.6935  151.0208 H   0  0  0  0  0  0  0  0  0  0  0  0  # atno 10167 bound_to 10162
  156.0250  130.5448  150.7195 H   0  0  0  0  0  0  0  0  0  0  0  0  # atno 10718 bound_to 10713
  154.1591  135.2810  155.3114 H   0  0  0  0  0  0  0  0  0  0  0  0  # atno 10763 bound_to 10752
  154.6160  135.5483  153.7527 H   0  0  0  0  0  0  0  0  0  0  0  0  # atno 10764 bound_to 10752
  153.0198  135.6427  154.1733 H   0  0  0  0  0  0  0  0  0  0  0  0  # atno 10765 bound_to 10752
  141.0540  133.6732  156.3069 H   0  0  0  0  0  0  0  0  0  0  0  0  # atno 11005 bound_to 11000
  146.1226  139.4247  143.0218 LP  0  0  0  0  0  0  0  0  0  0  0  0  # atno 17320 bound_to 7965
  145.7282  141.0052  143.1366 LP  0  0  0  0  0  0  0  0  0  0  0  0  # atno 17321 bound_to 7965
  140.7811  143.4630  151.0251 LP  0  0  0  0  0  0  0  0  0  0  0  0  # atno 17342 bound_to 10162
  139.8315  143.7685  152.3180 LP  0  0  0  0  0  0  0  0  0  0  0  0  # atno 17343 bound_to 10162
  157.4814  131.0902  151.0532 LP  0  0  0  0  0  0  0  0  0  0  0  0  # atno 17370 bound_to 10713
  157.0964  130.5963  149.5450 LP  0  0  0  0  0  0  0  0  0  0  0  0  # atno 17371 bound_to 10713
  140.5999  134.5565  157.5515 LP  0  0  0  0  0  0  0  0  0  0  0  0  # atno 17394 bound_to 11000
  139.9374  134.7849  156.0766 LP  0  0  0  0  0  0  0  0  0  0  0  0  # atno 17395 bound_to 11000

$$$$
