AV-unprocessed.smi:3|AV-procd|sdf|27|dock10
  -GOLD-   2262015143D 1   1.00000     0.00000
 Structure written by MMmdl.
 33 35  0  0  0  0  0  0  0  0  1 V2000
  153.1854  140.2518  159.2455 C   0  0  0  0  0  0  0  0  0  0  0  0
  151.9848  140.7692  158.6048 N   0  0  0  0  0  0  0  0  0  0  0  0
  151.2987  141.8918  159.2486 C   0  0  0  0  0  0  0  0  0  0  0  0
  152.2591  142.7941  160.0230 C   0  0  1  0  0  0  0  0  0  0  0  0
  151.7668  144.1250  160.6117 C   0  0  0  0  0  0  0  0  0  0  0  0
  152.6970  143.8988  161.8075 C   0  0  1  0  0  0  0  0  0  0  0  0
  152.2158  144.2715  163.0795 O   0  0  0  0  0  0  0  0  0  0  0  0
  152.6588  142.4081  161.4540 C   0  0  0  0  0  0  0  0  0  0  0  0
  151.6794  140.3966  157.2718 C   0  0  0  0  0  0  0  0  0  0  0  0
  152.5351  139.5466  156.6452 N   0  0  0  0  0  0  0  0  0  0  0  0
  152.3069  139.1524  155.3910 C   0  0  0  0  0  0  0  0  0  0  0  0
  151.2989  139.4852  154.5852 N   0  0  0  0  0  0  0  0  0  0  0  0
  150.4390  140.3437  155.1999 C   0  0  0  0  0  0  0  0  0  0  0  0
  149.2968  140.8898  154.6544 N   0  0  0  0  0  0  0  0  0  0  0  0
  148.6778  141.7192  155.5695 C   0  0  0  0  0  0  0  0  0  0  0  0
  149.4089  141.7266  156.7293 C   0  0  0  0  0  0  0  0  0  0  0  0
  150.5436  140.8539  156.5296 C   0  0  0  0  0  0  0  0  0  0  0  0
  153.1743  142.9741  159.4548 H   0  0  0  0  0  0  0  0  0  0  0  0
  153.6861  144.3291  161.6412 H   0  0  0  0  0  0  0  0  0  0  0  0
  148.9433  140.7251  153.7230 H   0  0  0  0  0  0  0  0  0  0  0  0
  153.0879  139.1823  159.4308 H   0  0  0  0  0  0  0  0  0  0  0  0
  153.3546  140.7359  160.2077 H   0  0  0  0  0  0  0  0  0  0  0  0
  154.0647  140.4348  158.6278 H   0  0  0  0  0  0  0  0  0  0  0  0
  150.7147  142.4690  158.5317 H   0  0  0  0  0  0  0  0  0  0  0  0
  150.5597  141.4768  159.9346 H   0  0  0  0  0  0  0  0  0  0  0  0
  152.0044  144.9992  160.0049 H   0  0  0  0  0  0  0  0  0  0  0  0
  150.7117  144.1069  160.8901 H   0  0  0  0  0  0  0  0  0  0  0  0
  151.2753  144.3341  163.0117 H   0  0  0  0  0  0  0  0  0  0  0  0
  151.8741  141.8651  161.9842 H   0  0  0  0  0  0  0  0  0  0  0  0
  153.6190  141.8972  161.5310 H   0  0  0  0  0  0  0  0  0  0  0  0
  153.0365  138.4740  154.9740 H   0  0  0  0  0  0  0  0  0  0  0  0
  147.7643  142.2395  155.3205 H   0  0  0  0  0  0  0  0  0  0  0  0
  149.1689  142.2860  157.6198 H   0  0  0  0  0  0  0  0  0  0  0  0
  1  2  1  0  0  0  0
  1 21  1  0  0  0  0
  1 22  1  0  0  0  0
  1 23  1  0  0  0  0
  2  3  1  0  0  0  0
  2  9  1  0  0  0  0
  3  4  1  0  0  0  0
  3 24  1  0  0  0  0
  3 25  1  0  0  0  0
  4 18  1  0  0  0  0
  4  8  1  0  0  0  0
  4  5  1  0  0  0  0
  5  6  1  0  0  0  0
  5 26  1  0  0  0  0
  5 27  1  0  0  0  0
  6 19  1  0  0  0  0
  6  7  1  0  0  0  0
  6  8  1  0  0  0  0
  7 28  1  0  0  0  0
  8 29  1  0  0  0  0
  8 30  1  0  0  0  0
  9 17  1  0  0  0  0
  9 10  2  0  0  0  0
 10 11  1  0  0  0  0
 11 12  2  0  0  0  0
 11 31  1  0  0  0  0
 12 13  1  0  0  0  0
 13 17  2  0  0  0  0
 13 14  1  0  0  0  0
 14 20  1  0  0  0  0
 14 15  1  0  0  0  0
 15 16  2  0  0  0  0
 15 32  1  0  0  0  0
 16 17  1  0  0  0  0
 16 33  1  0  0  0  0
M  END
> <s_m_source_file>
AV-unprocessed.smi

> <i_m_source_file_index>
3

> <i_lp_mmshare_version>
43012

> <i_f3d_flags>
0

> <s_epik_input>
W25IXTFbY0hdW2NIXWMoYzEyKWMobltjSF1uMilOKFtDSDNdKVtDSDJdW0NASF0zW0NIMl1bQ0BASF0oW09IXSlbQ0gyXTM=

> <s_epik_cmdline>
J2VwaWtfcHl0aG9uJywgJy1waCcsICc3LjAnLCAnLXRuJywgJzgnLCAnLW1hJywgJzIwMCcsICctbWV0YWxfYmluZGluZycsICctaW1hZScsICc8aW5maWxlLm1hZT4nLCAnLW9tYWUnLCAnPG91dGZpbGUubWFlPic=

> <r_lp_tautomer_probability>
0.999998

> <r_epik_Ionization_Penalty>
0.0134605

> <r_epik_Ionization_Penalty_Charging>
0

> <r_epik_Ionization_Penalty_Neutral>
0.0134605

> <r_epik_State_Penalty>
0.00982199

> <r_epik_Charging_Adjusted_Penalty>
0.00982199

> <i_epik_Tot_Q>
0

> <i_epik_Tot_abs_Q>
0

> <r_epik_Metal_State_Penalty>
0.00963912

> <b_epik_Metal_Only>
0

> <s_lp_Force_Field>
OPLS_2005

> <r_lp_Energy>
10.8509

> <b_lp_Chiralities_Consistent>
1

> <s_lp_Variant>
AV-unprocessed.smi:3-1

> <Gold.Version>
5.8.1

> <Gold.Id.Protein>
6NUR|6NUR_protein|mol2

> <Gold.PLP.Fitness>
39.2030

> <Gold.PLP.PLP>
-35.1527

> <Gold.PLP.part.hbond>
-4.0000

> <Gold.PLP.part.metal>
0.0000

> <Gold.PLP.part.buried>
-4.5793

> <Gold.PLP.part.nonpolar>
-26.8180

> <Gold.PLP.part.repulsive>
0.2307

> <Gold.PLP.ligand.clash>
0.0000

> <Gold.PLP.ligand.torsion>
0.4758

> <Gold.PLP.Chemscore.Hbond>
1.6000

> <Gold.PLP.Chemscore.CHOScore>
0.0000

> <Gold.PLP.Chemscore.Metal>
0.0000

> <Gold.Chemscore.Hbonds>
donor molecule, donor type, donor heavy atom, donor atom, acceptor molecule, acceptor atom, score
      P1  H  7989  7998       L1    12  0.25
      P1  H  7997  8010       L1    10  0.80
      L1  C    15    32       P1  8028  0.15

> <Gold.PLP.Chemscore.Internal.Correction>
0.2019

> <Gold.Rescore>
     Score         DG    S(hbond)    S(metal)    S(lipo)     H(rot)  DE(clash)    DE(int)     intcor
      8.58     -11.40       0.57        0.00      74.54       1.84       2.35       0.47       ----

> <Gold.Chemscore.Fitness>
8.5850

> <Gold.Chemscore.DG>
-11.4041

> <Gold.Chemscore.ZeroCoef>
-5.4800

> <Gold.Chemscore.Hbond>
0.5726

> <Gold.Chemscore.Metal>
0.0000

> <Gold.Chemscore.Lipo>
74.5404

> <Gold.Chemscore.Internal_Hbond>
0.0000

> <Gold.Chemscore.DEClash>
2.3450

> <Gold.Chemscore.DEInternal>
0.4741

> <Gold.Chemscore.Rot>
1.8396

> <Gold.Chemscore.Internal.Correction>
   9.000000E+99

> <Gold.Chemscore.Hbonds>
donor molecule, donor type, donor heavy atom, donor atom, acceptor molecule, acceptor atom, score
      P1  H  7997  8010       L1    10  0.11

> <Gold.Chemscore.Hbond.Weighted>
-1.9123

> <Gold.Chemscore.Metal.Weighted>
-0.0000

> <Gold.Chemscore.Lipo.Weighted>
-8.7212

> <Gold.Chemscore.Internal_Hbond.Weighted>
0.0000

> <Gold.Chemscore.DEClash.Weighted>
2.3450

> <Gold.Chemscore.DEInternal.Weighted>
0.4741

> <Gold.Chemscore.Rot.Weighted>
4.7095

> <Gold.Chemscore.Internal.Correction.Weighted>
   9.000000E+99

> <Gold.Protein.RotatedTorsions>
[ 6907 6896 6895 6894 ] final   64.15 input  -60.11 | X-H torsion
[ 7974 7965 7964 7962 ] final   94.85 input  175.53 | X-H torsion
[ 8008 7997 7996 7995 ] final   77.26 input   59.86 | X-H torsion
[ 10167 10162 10161 10158 ] final   25.59 input  -65.29 | X-H torsion
[ 10718 10713 10712 10709 ] final  -72.14 input   66.30 | X-H torsion
[ 10763 10752 10751 10750 ] final   24.54 input  -60.55 | X-H torsion
[ 11005 11000 10999 10996 ] final -109.49 input  -57.11 | X-H torsion

> <Gold.Protein.ActiveResidues>
 VAL166  LYS551  ARG553  GLY616  TRP617  ASP618  TYR619  PRO620  LYS621  CYS622 
 ASP623  PHE694  ASN695  SER759  ASP760  ASP761  ALA762  ILE779  LEU786  VAL792 
 PHE793  MET794  SER795  GLU796  ALA797  LYS798  CYS799  TRP800  GLU811  SER814 

> <Gold.Protein.RotatedAtoms>
  152.4309  134.5779  159.9939 H   0  0  0  0  0  0  0  0  0  0  0  0  # atno 6907 bound_to 6896
  151.5902  133.3362  159.3034 H   0  0  0  0  0  0  0  0  0  0  0  0  # atno 6908 bound_to 6896
  150.8202  134.7442  159.6830 H   0  0  0  0  0  0  0  0  0  0  0  0  # atno 6909 bound_to 6896
  145.4600  139.2287  143.2993 H   0  0  0  0  0  0  0  0  0  0  0  0  # atno 7974 bound_to 7965
  155.8390  140.3463  155.5620 H   0  0  0  0  0  0  0  0  0  0  0  0  # atno 8008 bound_to 7997
  155.8161  140.0906  157.1896 H   0  0  0  0  0  0  0  0  0  0  0  0  # atno 8009 bound_to 7997
  154.4005  140.1439  156.3431 H   0  0  0  0  0  0  0  0  0  0  0  0  # atno 8010 bound_to 7997
  140.5093  144.0187  150.6365 H   0  0  0  0  0  0  0  0  0  0  0  0  # atno 10167 bound_to 10162
  156.0333  130.4366  150.2548 H   0  0  0  0  0  0  0  0  0  0  0  0  # atno 10718 bound_to 10713
  153.0757  135.6603  154.0152 H   0  0  0  0  0  0  0  0  0  0  0  0  # atno 10763 bound_to 10752
  153.9786  135.2957  155.3423 H   0  0  0  0  0  0  0  0  0  0  0  0  # atno 10764 bound_to 10752
  154.7144  135.5191  153.8785 H   0  0  0  0  0  0  0  0  0  0  0  0  # atno 10765 bound_to 10752
  141.0844  133.9164  157.2217 H   0  0  0  0  0  0  0  0  0  0  0  0  # atno 11005 bound_to 11000
  146.2456  140.5368  142.8915 LP  0  0  0  0  0  0  0  0  0  0  0  0  # atno 17320 bound_to 7965
  144.8009  140.6210  143.6479 LP  0  0  0  0  0  0  0  0  0  0  0  0  # atno 17321 bound_to 7965
  140.3505  143.2966  152.0492 LP  0  0  0  0  0  0  0  0  0  0  0  0  # atno 17342 bound_to 10162
  139.4892  144.6377  151.6941 LP  0  0  0  0  0  0  0  0  0  0  0  0  # atno 17343 bound_to 10162
  157.0649  131.0100  151.3210 LP  0  0  0  0  0  0  0  0  0  0  0  0  # atno 17370 bound_to 10713
  157.5043  130.7899  149.7637 LP  0  0  0  0  0  0  0  0  0  0  0  0  # atno 17371 bound_to 10713
  139.9661  135.0141  156.9391 LP  0  0  0  0  0  0  0  0  0  0  0  0  # atno 17394 bound_to 11000
  140.5395  134.0734  155.7337 LP  0  0  0  0  0  0  0  0  0  0  0  0  # atno 17395 bound_to 11000

$$$$
