AV-unprocessed.smi:280|AV-procd|sdf|2098|dock9
  -GOLD-   2262021383D 1   1.00000     0.00000
 Structure written by MMmdl.
 59 62  0  0  0  0  0  0  0  0  2 V2000
  148.7317  132.9513  153.2948 C   0  0  0  0  0  0  0  0  0  0  0  0
  147.2743  132.6027  153.6699 C   0  0  1  0  0  0  0  0  0  0  0  0
  146.9377  133.0237  155.1167 C   0  0  0  0  0  0  0  0  0  0  0  0
  146.7806  134.4750  155.2199 N   0  0  0  0  0  0  0  0  0  0  0  0
  147.8213  135.2094  155.7020 C   0  0  0  0  0  0  0  0  0  0  0  0
  149.0339  134.5996  155.7669 N   0  0  0  0  0  0  0  0  0  0  0  0
  150.1040  135.2515  156.2271 C   0  0  0  0  0  0  0  0  0  0  0  0
  150.1866  136.5055  156.6693 N   0  0  0  0  0  0  0  0  0  0  0  0
  148.9780  137.1316  156.6125 C   0  0  0  0  0  0  0  0  0  0  0  0
  147.7543  136.5669  156.1452 C   0  0  0  0  0  0  0  0  0  0  0  0
  146.7491  137.5260  156.2201 N   0  0  0  0  0  0  0  0  0  0  0  0
  147.3377  138.5826  156.7077 C   0  0  0  0  0  0  0  0  0  0  0  0
  148.6766  138.4309  156.9832 N   0  0  0  0  0  0  0  0  0  0  0  0
  149.5701  139.4438  157.5265 C   0  0  0  0  0  0  0  0  0  0  0  0
  150.1941  140.3743  156.4674 C   0  0  0  0  0  0  0  0  0  0  0  0
  150.5344  141.7269  157.1267 C   0  0  0  0  0  0  0  0  0  0  0  0
  150.8443  142.7300  156.1799 O   0  0  0  0  0  0  0  0  0  0  0  0
  151.2951  139.7652  155.5868 C   0  0  0  0  0  0  0  0  0  0  0  0
  150.6287  140.1799  154.3744 O   0  0  0  0  0  0  0  0  0  0  0  0
  149.4298  140.4407  155.1367 C   0  0  0  0  0  0  0  0  0  0  0  0
  145.8078  135.0475  154.2955 C   0  0  0  0  0  0  0  0  0  0  0  0
  146.1226  134.6454  152.8423 C   0  0  0  0  0  0  0  0  0  0  0  0
  146.2685  133.1689  152.7225 N   0  3  1  0  0  0  0  0  0  0  0  0
  146.4009  132.6813  151.3220 C   0  0  0  0  0  0  0  0  0  0  0  0
  145.1597  132.9873  150.4486 C   0  0  0  0  0  0  0  0  0  0  0  0
  145.1682  132.0972  149.1939 C   0  0  0  0  0  0  0  0  0  0  0  0
  143.8412  132.8026  151.2225 C   0  0  0  0  0  0  0  0  0  0  0  0
  145.2210  134.3214  149.9870 O   0  0  0  0  0  0  0  0  0  0  0  0
  149.4268  132.5063  154.0071 H   0  0  0  0  0  0  0  0  0  0  0  0
  148.9140  134.0255  153.2967 H   0  0  0  0  0  0  0  0  0  0  0  0
  149.0024  132.5749  152.3087 H   0  0  0  0  0  0  0  0  0  0  0  0
  147.1806  131.5167  153.6263 H   0  0  0  0  0  0  0  0  0  0  0  0
  145.9930  132.5679  155.4155 H   0  0  0  0  0  0  0  0  0  0  0  0
  147.6865  132.6286  155.8031 H   0  0  0  0  0  0  0  0  0  0  0  0
  151.0254  134.6880  156.2429 H   0  0  0  0  0  0  0  0  0  0  0  0
  146.8066  139.5066  156.8856 H   0  0  0  0  0  0  0  0  0  0  0  0
  149.0101  140.0215  158.2630 H   0  0  0  0  0  0  0  0  0  0  0  0
  150.3545  138.9355  158.0885 H   0  0  0  0  0  0  0  0  0  0  0  0
  149.7027  142.0836  157.7351 H   0  0  0  0  0  0  0  0  0  0  0  0
  151.3957  141.6349  157.7884 H   0  0  0  0  0  0  0  0  0  0  0  0
  150.1896  143.4093  156.2359 H   0  0  0  0  0  0  0  0  0  0  0  0
  152.2751  140.2272  155.7109 H   0  0  0  0  0  0  0  0  0  0  0  0
  151.3672  138.6790  155.6457 H   0  0  0  0  0  0  0  0  0  0  0  0
  148.6923  139.6464  155.0098 H   0  0  0  0  0  0  0  0  0  0  0  0
  148.9892  141.4132  154.9144 H   0  0  0  0  0  0  0  0  0  0  0  0
  144.8267  134.6575  154.5685 H   0  0  0  0  0  0  0  0  0  0  0  0
  145.7295  136.1284  154.4048 H   0  0  0  0  0  0  0  0  0  0  0  0
  145.3226  135.0034  152.1965 H   0  0  0  0  0  0  0  0  0  0  0  0
  147.0341  135.1318  152.4961 H   0  0  0  0  0  0  0  0  0  0  0  0
  147.3098  133.0823  150.8703 H   0  0  0  0  0  0  0  0  0  0  0  0
  146.5278  131.5978  151.3273 H   0  0  0  0  0  0  0  0  0  0  0  0
  145.1067  131.0410  149.4586 H   0  0  0  0  0  0  0  0  0  0  0  0
  146.0803  132.2365  148.6122 H   0  0  0  0  0  0  0  0  0  0  0  0
  144.3244  132.3197  148.5392 H   0  0  0  0  0  0  0  0  0  0  0  0
  143.7493  131.7857  151.6059 H   0  0  0  0  0  0  0  0  0  0  0  0
  142.9774  132.9907  150.5836 H   0  0  0  0  0  0  0  0  0  0  0  0
  143.7683  133.4826  152.0718 H   0  0  0  0  0  0  0  0  0  0  0  0
  145.7894  134.3540  149.2320 H   0  0  0  0  0  0  0  0  0  0  0  0
  145.3865  132.7924  153.0396 H   0  0  0  0  0  0  0  0  0  0  0  0
  1  2  1  0  0  0  0
  1 29  1  0  0  0  0
  1 30  1  0  0  0  0
  1 31  1  0  0  0  0
  2 23  1  0  0  0  0
  2  3  1  0  0  0  0
  2 32  1  0  0  0  0
  3  4  1  0  0  0  0
  3 33  1  0  0  0  0
  3 34  1  0  0  0  0
  4  5  1  0  0  0  0
  4 21  1  0  0  0  0
  5 10  1  0  0  0  0
  5  6  2  0  0  0  0
  6  7  1  0  0  0  0
  7  8  2  0  0  0  0
  7 35  1  0  0  0  0
  8  9  1  0  0  0  0
  9 13  1  0  0  0  0
  9 10  2  0  0  0  0
 10 11  1  0  0  0  0
 11 12  2  0  0  0  0
 12 13  1  0  0  0  0
 12 36  1  0  0  0  0
 13 14  1  0  0  0  0
 14 15  1  0  0  0  0
 14 37  1  0  0  0  0
 14 38  1  0  0  0  0
 15 20  1  0  0  0  0
 15 16  1  0  0  0  0
 15 18  1  0  0  0  0
 16 17  1  0  0  0  0
 16 39  1  0  0  0  0
 16 40  1  0  0  0  0
 17 41  1  0  0  0  0
 18 19  1  0  0  0  0
 18 42  1  0  0  0  0
 18 43  1  0  0  0  0
 19 20  1  0  0  0  0
 20 44  1  0  0  0  0
 20 45  1  0  0  0  0
 21 22  1  0  0  0  0
 21 46  1  0  0  0  0
 21 47  1  0  0  0  0
 22 23  1  0  0  0  0
 22 48  1  0  0  0  0
 22 49  1  0  0  0  0
 23 24  1  0  0  0  0
 23 59  1  0  0  0  0
 24 25  1  0  0  0  0
 24 50  1  0  0  0  0
 24 51  1  0  0  0  0
 25 26  1  0  0  0  0
 25 27  1  0  0  0  0
 25 28  1  0  0  0  0
 26 52  1  0  0  0  0
 26 53  1  0  0  0  0
 26 54  1  0  0  0  0
 27 55  1  0  0  0  0
 27 56  1  0  0  0  0
 27 57  1  0  0  0  0
 28 58  1  0  0  0  0
M  CHG  1  23   1
M  END
> <s_m_source_file>
AV-unprocessed.smi

> <i_m_source_file_index>
280

> <i_lp_mmshare_version>
43012

> <i_f3d_flags>
0

> <s_epik_input>
W0NIM11DKFtDSDNdKShbT0hdKVtDSDJdTjFbQ0gyXVtDSDJdTihbQ0gyXVtDQEhdMVtDSDNdKWMobltjSF1uMiljKGMyMyluW2NIXW4zW0NIMl1DNChbQ0gyXVtPSF0pW0NIMl1PW0NIMl00

> <s_epik_cmdline>
J2VwaWtfcHl0aG9uJywgJy1waCcsICc3LjAnLCAnLXRuJywgJzgnLCAnLW1hJywgJzIwMCcsICctbWV0YWxfYmluZGluZycsICctaW1hZScsICc8aW5maWxlLm1hZT4nLCAnLW9tYWUnLCAnPG91dGZpbGUubWFlPic=

> <r_lp_tautomer_probability>
1

> <r_epik_Ionization_Penalty>
0.00179402

> <r_epik_Ionization_Penalty_Charging>
0.00173996

> <r_epik_Ionization_Penalty_Neutral>
5.40607e-05

> <r_epik_State_Penalty>
-0

> <r_epik_Charging_Adjusted_Penalty>
0.00173996

> <i_epik_Tot_Q>
1

> <i_epik_Tot_abs_Q>
1

> <r_epik_Metal_State_Penalty>
-0

> <b_epik_Metal_Only>
0

> <s_lp_Force_Field>
OPLS_2005

> <r_lp_Energy>
54.8934

> <b_lp_Chiralities_Consistent>
1

> <s_lp_Variant>
AV-unprocessed.smi:280-2

> <Gold.Version>
5.8.1

> <Gold.Id.Protein>
6NUR|6NUR_protein|mol2

> <Gold.PLP.Fitness>
40.0877

> <Gold.PLP.PLP>
-33.6041

> <Gold.PLP.part.hbond>
-2.9189

> <Gold.PLP.part.metal>
0.0000

> <Gold.PLP.part.buried>
-6.1075

> <Gold.PLP.part.nonpolar>
-24.7697

> <Gold.PLP.part.repulsive>
0.1617

> <Gold.PLP.ligand.clash>
0.0000

> <Gold.PLP.ligand.torsion>
1.7176

> <Gold.PLP.Chemscore.Hbond>
3.0000

> <Gold.PLP.Chemscore.CHOScore>
0.0000

> <Gold.PLP.Chemscore.Metal>
0.0000

> <Gold.Chemscore.Hbonds>
donor molecule, donor type, donor heavy atom, donor atom, acceptor molecule, acceptor atom, score
      L1  H    17    41       P1  8028  1.00
      L1  H    28    58       P1  7921  1.00
      P1  H  7989  7998       L1    19  0.91

> <Gold.PLP.Chemscore.Internal.Correction>
0.9188

> <Gold.Rescore>
     Score         DG    S(hbond)    S(metal)    S(lipo)     H(rot)  DE(clash)    DE(int)     intcor
     13.25     -16.37       2.93        0.00      81.52       3.30       0.00       3.12       ----

> <Gold.Chemscore.Fitness>
13.2497

> <Gold.Chemscore.DG>
-16.3747

> <Gold.Chemscore.ZeroCoef>
-5.4800

> <Gold.Chemscore.Hbond>
2.9350

> <Gold.Chemscore.Metal>
0.0000

> <Gold.Chemscore.Lipo>
81.5168

> <Gold.Chemscore.Internal_Hbond>
0.0000

> <Gold.Chemscore.DEClash>
0.0004

> <Gold.Chemscore.DEInternal>
3.1245

> <Gold.Chemscore.Rot>
3.2991

> <Gold.Chemscore.Internal.Correction>
   9.000000E+99

> <Gold.Chemscore.Hbonds>
donor molecule, donor type, donor heavy atom, donor atom, acceptor molecule, acceptor atom, score
      L1  H    17    41       P1  8028  0.99
      L1  H    28    58       P1  7921  0.68
      P1  H  7989  7998       L1    19  0.62

> <Gold.Chemscore.Hbond.Weighted>
-9.8028

> <Gold.Chemscore.Metal.Weighted>
-0.0000

> <Gold.Chemscore.Lipo.Weighted>
-9.5375

> <Gold.Chemscore.Internal_Hbond.Weighted>
0.0000

> <Gold.Chemscore.DEClash.Weighted>
0.0004

> <Gold.Chemscore.DEInternal.Weighted>
3.1245

> <Gold.Chemscore.Rot.Weighted>
8.4456

> <Gold.Chemscore.Internal.Correction.Weighted>
   9.000000E+99

> <Gold.Protein.RotatedTorsions>
[ 6907 6896 6895 6894 ] final  129.52 input  -60.11 | X-H torsion
[ 7974 7965 7964 7962 ] final  164.41 input  175.53 | X-H torsion
[ 8008 7997 7996 7995 ] final  -18.08 input   59.86 | X-H torsion
[ 10167 10162 10161 10158 ] final  115.25 input  -65.29 | X-H torsion
[ 10718 10713 10712 10709 ] final    6.89 input   66.30 | X-H torsion
[ 10763 10752 10751 10750 ] final  -73.22 input  -60.55 | X-H torsion
[ 11005 11000 10999 10996 ] final    0.85 input  -57.11 | X-H torsion

> <Gold.Protein.ActiveResidues>
 VAL166  LYS551  ARG553  GLY616  TRP617  ASP618  TYR619  PRO620  LYS621  CYS622 
 ASP623  PHE694  ASN695  SER759  ASP760  ASP761  ALA762  ILE779  LEU786  VAL792 
 PHE793  MET794  SER795  GLU796  ALA797  LYS798  CYS799  TRP800  GLU811  SER814 

> <Gold.Protein.RotatedAtoms>
  152.3615  133.6303  159.6018 H   0  0  0  0  0  0  0  0  0  0  0  0  # atno 6907 bound_to 6896
  150.7605  133.9415  159.3466 H   0  0  0  0  0  0  0  0  0  0  0  0  # atno 6908 bound_to 6896
  151.7252  135.0887  160.0342 H   0  0  0  0  0  0  0  0  0  0  0  0  # atno 6909 bound_to 6896
  144.7546  139.8321  143.6354 H   0  0  0  0  0  0  0  0  0  0  0  0  # atno 7974 bound_to 7965
  154.4932  140.2125  155.9503 H   0  0  0  0  0  0  0  0  0  0  0  0  # atno 8008 bound_to 7997
  156.1334  140.3193  155.8352 H   0  0  0  0  0  0  0  0  0  0  0  0  # atno 8009 bound_to 7997
  155.4254  140.0500  157.3013 H   0  0  0  0  0  0  0  0  0  0  0  0  # atno 8010 bound_to 7997
  139.6330  144.7117  151.2392 H   0  0  0  0  0  0  0  0  0  0  0  0  # atno 10167 bound_to 10162
  156.9288  130.5818  149.5649 H   0  0  0  0  0  0  0  0  0  0  0  0  # atno 10718 bound_to 10713
  154.4565  135.5904  153.6226 H   0  0  0  0  0  0  0  0  0  0  0  0  # atno 10763 bound_to 10752
  152.9819  135.6033  154.3540 H   0  0  0  0  0  0  0  0  0  0  0  0  # atno 10764 bound_to 10752
  154.3407  135.2841  155.2403 H   0  0  0  0  0  0  0  0  0  0  0  0  # atno 10765 bound_to 10752
  140.6220  133.9652  155.8230 H   0  0  0  0  0  0  0  0  0  0  0  0  # atno 11005 bound_to 11000
  146.1541  139.4634  143.0030 LP  0  0  0  0  0  0  0  0  0  0  0  0  # atno 17320 bound_to 7965
  145.6822  141.0188  143.1600 LP  0  0  0  0  0  0  0  0  0  0  0  0  # atno 17321 bound_to 7965
  140.7450  143.6446  150.8304 LP  0  0  0  0  0  0  0  0  0  0  0  0  # atno 17342 bound_to 10162
  140.0073  143.5680  152.2852 LP  0  0  0  0  0  0  0  0  0  0  0  0  # atno 17343 bound_to 10162
  156.0456  130.5533  150.8874 LP  0  0  0  0  0  0  0  0  0  0  0  0  # atno 17370 bound_to 10713
  157.5860  131.0945  150.9195 LP  0  0  0  0  0  0  0  0  0  0  0  0  # atno 17371 bound_to 10713
  141.0735  134.0169  157.3491 LP  0  0  0  0  0  0  0  0  0  0  0  0  # atno 17394 bound_to 11000
  139.9149  135.0195  156.7843 LP  0  0  0  0  0  0  0  0  0  0  0  0  # atno 17395 bound_to 11000

$$$$
