AV-unprocessed.smi:148|AV-procd|sdf|1212|dock7
  -GOLD-   2262018393D 1   1.00000     0.00000
 Structure written by MMmdl.
 63 67  0  0  0  0  0  0  0  0  1 V2000
  145.6633  138.7781  161.9058 O   0  0  0  0  0  0  0  0  0  0  0  0
  145.1296  137.4952  161.6489 C   0  0  0  0  0  0  0  0  0  0  0  0
  146.2528  136.4490  161.4271 C   0  0  2  0  0  0  0  0  0  0  0  0
  146.1706  135.8265  160.0073 C   0  0  0  0  0  0  0  0  0  0  0  0
  146.5015  136.7686  158.9522 N   0  0  0  0  0  0  0  0  0  0  0  0
  145.6719  137.7332  158.4275 C   0  0  0  0  0  0  0  0  0  0  0  0
  146.1924  138.4555  157.4733 N   0  0  0  0  0  0  0  0  0  0  0  0
  147.4814  137.9545  157.3359 C   0  0  0  0  0  0  0  0  0  0  0  0
  148.5861  138.2663  156.4936 C   0  0  0  0  0  0  0  0  0  0  0  0
  148.5790  139.2209  155.5379 N   0  0  0  0  0  0  0  0  0  0  0  0
  147.3657  139.0654  154.7316 C   0  0  0  0  0  0  0  0  0  0  0  0
  147.4060  139.9380  153.4745 C   0  0  0  0  0  0  0  0  0  0  0  0
  147.6369  141.3969  153.8671 C   0  0  0  0  0  0  0  0  0  0  0  0
  148.9216  141.5113  154.6962 C   0  0  0  0  0  0  0  0  0  0  0  0
  148.9115  140.6002  155.9551 C   0  0  2  0  0  0  0  0  0  0  0  0
  150.2781  140.7211  156.7162 C   0  0  2  0  0  0  0  0  0  0  0  0
  150.3693  140.0710  158.1143 C   0  0  0  0  0  0  0  0  0  0  0  0
  151.4889  140.7948  158.8765 C   0  0  0  0  0  0  0  0  0  0  0  0
  151.9029  141.9817  158.0028 C   0  0  0  0  0  0  0  0  0  0  0  0
  150.7637  142.1591  156.9983 C   0  0  2  0  0  0  0  0  0  0  0  0
  149.7471  142.9392  157.6036 O   0  0  0  0  0  0  0  0  0  0  0  0
  149.7202  137.5360  156.6313 N   0  0  0  0  0  0  0  0  0  0  0  0
  149.7825  136.5700  157.5528 C   0  0  0  0  0  0  0  0  0  0  0  0
  148.8415  136.1734  158.4127 N   0  0  0  0  0  0  0  0  0  0  0  0
  147.6953  136.8979  158.2644 C   0  0  0  0  0  0  0  0  0  0  0  0
  146.3030  135.3505  162.5332 C   0  0  2  0  0  0  0  0  0  0  0  0
  147.5288  134.4433  162.5021 C   0  0  0  0  0  0  0  0  0  0  0  0
  147.1680  133.3941  161.4529 C   0  0  0  0  0  0  0  0  0  0  0  0
  145.7455  133.3413  161.4344 O   0  0  0  0  0  0  0  0  0  0  0  0
  145.2220  134.2714  162.3752 C   0  0  0  0  0  0  0  0  0  0  0  0
  145.7510  138.8862  162.8406 H   0  0  0  0  0  0  0  0  0  0  0  0
  144.4878  137.2144  162.4834 H   0  0  0  0  0  0  0  0  0  0  0  0
  144.4622  137.5534  160.7909 H   0  0  0  0  0  0  0  0  0  0  0  0
  147.1932  137.0000  161.4761 H   0  0  0  0  0  0  0  0  0  0  0  0
  146.8492  134.9827  159.9006 H   0  0  0  0  0  0  0  0  0  0  0  0
  145.1700  135.4332  159.8241 H   0  0  0  0  0  0  0  0  0  0  0  0
  144.6590  137.8799  158.7735 H   0  0  0  0  0  0  0  0  0  0  0  0
  147.2415  138.0212  154.4389 H   0  0  0  0  0  0  0  0  0  0  0  0
  146.4929  139.3323  155.3293 H   0  0  0  0  0  0  0  0  0  0  0  0
  148.2034  139.5988  152.8118 H   0  0  0  0  0  0  0  0  0  0  0  0
  146.4724  139.8399  152.9200 H   0  0  0  0  0  0  0  0  0  0  0  0
  147.7057  142.0208  152.9757 H   0  0  0  0  0  0  0  0  0  0  0  0
  146.7887  141.7653  154.4452 H   0  0  0  0  0  0  0  0  0  0  0  0
  149.7761  141.2554  154.0680 H   0  0  0  0  0  0  0  0  0  0  0  0
  149.0451  142.5581  154.9696 H   0  0  0  0  0  0  0  0  0  0  0  0
  148.1158  140.9526  156.6123 H   0  0  0  0  0  0  0  0  0  0  0  0
  151.0422  140.2539  156.0922 H   0  0  0  0  0  0  0  0  0  0  0  0
  149.4292  140.2023  158.6511 H   0  0  0  0  0  0  0  0  0  0  0  0
  150.5753  139.0026  158.0666 H   0  0  0  0  0  0  0  0  0  0  0  0
  151.1209  141.1371  159.8443 H   0  0  0  0  0  0  0  0  0  0  0  0
  152.3382  140.1371  159.0638 H   0  0  0  0  0  0  0  0  0  0  0  0
  152.1096  142.8824  158.5820 H   0  0  0  0  0  0  0  0  0  0  0  0
  152.8170  141.7265  157.4649 H   0  0  0  0  0  0  0  0  0  0  0  0
  151.1141  142.6636  156.0974 H   0  0  0  0  0  0  0  0  0  0  0  0
  149.3808  143.5144  156.9495 H   0  0  0  0  0  0  0  0  0  0  0  0
  150.7202  136.0367  157.6084 H   0  0  0  0  0  0  0  0  0  0  0  0
  146.2192  135.8317  163.5087 H   0  0  0  0  0  0  0  0  0  0  0  0
  148.4781  134.9376  162.3071 H   0  0  0  0  0  0  0  0  0  0  0  0
  147.6300  133.9537  163.4721 H   0  0  0  0  0  0  0  0  0  0  0  0
  147.5206  133.6955  160.4659 H   0  0  0  0  0  0  0  0  0  0  0  0
  147.5984  132.4196  161.6843 H   0  0  0  0  0  0  0  0  0  0  0  0
  145.0766  133.7508  163.3231 H   0  0  0  0  0  0  0  0  0  0  0  0
  144.2473  134.6385  162.0604 H   0  0  0  0  0  0  0  0  0  0  0  0
  1  2  1  0  0  0  0
  1 31  1  0  0  0  0
  2  3  1  0  0  0  0
  2 32  1  0  0  0  0
  2 33  1  0  0  0  0
  3  4  1  0  0  0  0
  3 26  1  0  0  0  0
  3 34  1  0  0  0  0
  4  5  1  0  0  0  0
  4 35  1  0  0  0  0
  4 36  1  0  0  0  0
  5 25  1  0  0  0  0
  5  6  1  0  0  0  0
  6  7  2  0  0  0  0
  6 37  1  0  0  0  0
  7  8  1  0  0  0  0
  8 25  2  0  0  0  0
  8  9  1  0  0  0  0
  9 10  1  0  0  0  0
  9 22  2  0  0  0  0
 10 15  1  0  0  0  0
 10 11  1  0  0  0  0
 11 12  1  0  0  0  0
 11 38  1  0  0  0  0
 11 39  1  0  0  0  0
 12 13  1  0  0  0  0
 12 40  1  0  0  0  0
 12 41  1  0  0  0  0
 13 14  1  0  0  0  0
 13 42  1  0  0  0  0
 13 43  1  0  0  0  0
 14 15  1  0  0  0  0
 14 44  1  0  0  0  0
 14 45  1  0  0  0  0
 15 16  1  0  0  0  0
 15 46  1  0  0  0  0
 16 20  1  0  0  0  0
 16 17  1  0  0  0  0
 16 47  1  0  0  0  0
 17 18  1  0  0  0  0
 17 48  1  0  0  0  0
 17 49  1  0  0  0  0
 18 19  1  0  0  0  0
 18 50  1  0  0  0  0
 18 51  1  0  0  0  0
 19 20  1  0  0  0  0
 19 52  1  0  0  0  0
 19 53  1  0  0  0  0
 20 21  1  0  0  0  0
 20 54  1  0  0  0  0
 21 55  1  0  0  0  0
 22 23  1  0  0  0  0
 23 24  2  0  0  0  0
 23 56  1  0  0  0  0
 24 25  1  0  0  0  0
 26 30  1  0  0  0  0
 26 27  1  0  0  0  0
 26 57  1  0  0  0  0
 27 28  1  0  0  0  0
 27 58  1  0  0  0  0
 27 59  1  0  0  0  0
 28 29  1  0  0  0  0
 28 60  1  0  0  0  0
 28 61  1  0  0  0  0
 29 30  1  0  0  0  0
 30 62  1  0  0  0  0
 30 63  1  0  0  0  0
M  END
> <s_m_source_file>
AV-unprocessed.smi

> <i_m_source_file_index>
148

> <i_lp_mmshare_version>
43012

> <i_f3d_flags>
0

> <s_epik_input>
W0NIMl0xT1tDSDJdW0NIMl1bQ0BIXTFbQ0BIXShbQ0gyXVtPSF0pW0NIMl1uKFtjSF1uMiljKGMyMyluW2NIXW5jM040W0NIMl1bQ0gyXVtDSDJdW0NIMl1bQ0BIXTRbQ0BASF01W0NIMl1bQ0gyXVtDSDJdW0NASF01W09IXQ==

> <s_epik_cmdline>
J2VwaWtfcHl0aG9uJywgJy1waCcsICc3LjAnLCAnLXRuJywgJzgnLCAnLW1hJywgJzIwMCcsICctbWV0YWxfYmluZGluZycsICctaW1hZScsICc8aW5maWxlLm1hZT4nLCAnLW9tYWUnLCAnPG91dGZpbGUubWFlPic=

> <r_lp_tautomer_probability>
1

> <r_epik_Ionization_Penalty>
0.00556303

> <r_epik_Ionization_Penalty_Charging>
0

> <r_epik_Ionization_Penalty_Neutral>
0.00556303

> <r_epik_State_Penalty>
0.00401767

> <r_epik_Charging_Adjusted_Penalty>
0.00401767

> <i_epik_Tot_Q>
0

> <i_epik_Tot_abs_Q>
0

> <r_epik_Metal_State_Penalty>
-0

> <b_epik_Metal_Only>
0

> <s_lp_Force_Field>
OPLS_2005

> <r_lp_Energy>
72.8369

> <b_lp_Chiralities_Consistent>
1

> <s_lp_Variant>
AV-unprocessed.smi:148-11

> <Gold.Version>
5.8.1

> <Gold.Id.Protein>
6NUR|6NUR_protein|mol2

> <Gold.PLP.Fitness>
39.5729

> <Gold.PLP.PLP>
-38.8538

> <Gold.PLP.part.hbond>
-2.0599

> <Gold.PLP.part.metal>
0.0000

> <Gold.PLP.part.buried>
-6.8022

> <Gold.PLP.part.nonpolar>
-29.6528

> <Gold.PLP.part.repulsive>
0.0578

> <Gold.PLP.ligand.clash>
0.0000

> <Gold.PLP.ligand.torsion>
1.7848

> <Gold.PLP.Chemscore.Hbond>
1.2080

> <Gold.PLP.Chemscore.CHOScore>
0.0000

> <Gold.PLP.Chemscore.Metal>
0.0000

> <Gold.Chemscore.Hbonds>
donor molecule, donor type, donor heavy atom, donor atom, acceptor molecule, acceptor atom, score
      L1  H    21    55       P1  8028  1.00
      P1  H  6934  6947       L1     1  0.22

> <Gold.PLP.Chemscore.Internal.Correction>
0.6648

> <Gold.Rescore>
     Score         DG    S(hbond)    S(metal)    S(lipo)     H(rot)  DE(clash)    DE(int)     intcor
      9.03     -12.67       1.13        0.00     101.86       3.32       0.14       3.50       ----

> <Gold.Chemscore.Fitness>
9.0312

> <Gold.Chemscore.DG>
-12.6711

> <Gold.Chemscore.ZeroCoef>
-5.4800

> <Gold.Chemscore.Hbond>
1.1299

> <Gold.Chemscore.Metal>
0.0000

> <Gold.Chemscore.Lipo>
101.8580

> <Gold.Chemscore.Internal_Hbond>
0.0000

> <Gold.Chemscore.DEClash>
0.1374

> <Gold.Chemscore.DEInternal>
3.5025

> <Gold.Chemscore.Rot>
3.3203

> <Gold.Chemscore.Internal.Correction>
   9.000000E+99

> <Gold.Chemscore.Hbonds>
donor molecule, donor type, donor heavy atom, donor atom, acceptor molecule, acceptor atom, score
      L1  H    21    55       P1  8028  0.93
      P1  H  6934  6947       L1     1  0.17

> <Gold.Chemscore.Hbond.Weighted>
-3.7737

> <Gold.Chemscore.Metal.Weighted>
-0.0000

> <Gold.Chemscore.Lipo.Weighted>
-11.9174

> <Gold.Chemscore.Internal_Hbond.Weighted>
0.0000

> <Gold.Chemscore.DEClash.Weighted>
0.1374

> <Gold.Chemscore.DEInternal.Weighted>
3.5025

> <Gold.Chemscore.Rot.Weighted>
8.5000

> <Gold.Chemscore.Internal.Correction.Weighted>
   9.000000E+99

> <Gold.Protein.RotatedTorsions>
[ 6907 6896 6895 6894 ] final   43.02 input  -60.11 | X-H torsion
[ 7974 7965 7964 7962 ] final  150.57 input  175.53 | X-H torsion
[ 8008 7997 7996 7995 ] final  149.48 input   59.86 | X-H torsion
[ 10167 10162 10161 10158 ] final  177.30 input  -65.29 | X-H torsion
[ 10718 10713 10712 10709 ] final   35.41 input   66.30 | X-H torsion
[ 10763 10752 10751 10750 ] final -161.33 input  -60.55 | X-H torsion
[ 11005 11000 10999 10996 ] final -133.90 input  -57.11 | X-H torsion

> <Gold.Protein.ActiveResidues>
 VAL166  LYS551  ARG553  GLY616  TRP617  ASP618  TYR619  PRO620  LYS621  CYS622 
 ASP623  PHE694  ASN695  SER759  ASP760  ASP761  ALA762  ILE779  LEU786  VAL792 
 PHE793  MET794  SER795  GLU796  ALA797  LYS798  CYS799  TRP800  GLU811  SER814 

> <Gold.Protein.RotatedAtoms>
  152.2151  134.8465  160.0492 H   0  0  0  0  0  0  0  0  0  0  0  0  # atno 6907 bound_to 6896
  151.9269  133.3595  159.3925 H   0  0  0  0  0  0  0  0  0  0  0  0  # atno 6908 bound_to 6896
  150.6986  134.4502  159.5377 H   0  0  0  0  0  0  0  0  0  0  0  0  # atno 6909 bound_to 6896
  144.8355  139.6425  143.6040 H   0  0  0  0  0  0  0  0  0  0  0  0  # atno 7974 bound_to 7965
  156.2753  140.2100  156.5865 H   0  0  0  0  0  0  0  0  0  0  0  0  # atno 8008 bound_to 7997
  154.7017  140.0520  157.0487 H   0  0  0  0  0  0  0  0  0  0  0  0  # atno 8009 bound_to 7997
  155.0726  140.3178  155.4628 H   0  0  0  0  0  0  0  0  0  0  0  0  # atno 8010 bound_to 7997
  139.5248  144.2814  152.0543 H   0  0  0  0  0  0  0  0  0  0  0  0  # atno 10167 bound_to 10162
  157.3223  130.7455  149.6793 H   0  0  0  0  0  0  0  0  0  0  0  0  # atno 10718 bound_to 10713
  154.7313  135.3047  154.8887 H   0  0  0  0  0  0  0  0  0  0  0  0  # atno 10763 bound_to 10752
  153.9729  135.6739  153.4751 H   0  0  0  0  0  0  0  0  0  0  0  0  # atno 10764 bound_to 10752
  153.0921  135.4954  154.8630 H   0  0  0  0  0  0  0  0  0  0  0  0  # atno 10765 bound_to 10752
  140.9039  134.1655  157.4440 H   0  0  0  0  0  0  0  0  0  0  0  0  # atno 11005 bound_to 11000
  146.2654  139.6507  142.9333 LP  0  0  0  0  0  0  0  0  0  0  0  0  # atno 17320 bound_to 7965
  145.4804  141.0438  143.2649 LP  0  0  0  0  0  0  0  0  0  0  0  0  # atno 17321 bound_to 7965
  140.2269  144.4408  150.6317 LP  0  0  0  0  0  0  0  0  0  0  0  0  # atno 17342 bound_to 10162
  140.6381  143.2198  151.6350 LP  0  0  0  0  0  0  0  0  0  0  0  0  # atno 17343 bound_to 10162
  155.9687  130.4219  150.4493 LP  0  0  0  0  0  0  0  0  0  0  0  0  # atno 17370 bound_to 10713
  157.2510  131.0546  151.2379 LP  0  0  0  0  0  0  0  0  0  0  0  0  # atno 17371 bound_to 10713
  139.8746  134.9909  156.5524 LP  0  0  0  0  0  0  0  0  0  0  0  0  # atno 17394 bound_to 11000
  140.8195  133.8365  155.8883 LP  0  0  0  0  0  0  0  0  0  0  0  0  # atno 17395 bound_to 11000

$$$$
