AV-unprocessed.smi:1534|AV-procd|sdf|6166|dock5
  -GOLD-   22720 6313D 1   1.00000     0.00000
 Structure written by MMmdl.
 36 37  0  0  0  0  0  0  0  0  1 V2000
  147.4817  141.3869  159.3432 O   0  0  0  0  0  0  0  0  0  0  0  0
  147.6219  142.4695  158.7779 C   0  0  0  0  0  0  0  0  0  0  0  0
  148.4000  142.6446  157.6974 N   0  0  0  0  0  0  0  0  0  0  0  0
  149.2483  141.6209  157.0962 C   0  0  0  0  0  0  0  0  0  0  0  0
  150.6586  142.1427  156.7524 C   0  0  0  0  0  0  0  0  0  0  0  0
  151.4139  142.6907  157.9525 C   0  0  0  0  0  0  0  0  0  0  0  0
  151.8292  141.8350  158.9959 C   0  0  0  0  0  0  0  0  0  0  0  0
  152.5083  142.3961  160.0944 C   0  0  0  0  0  0  0  0  0  0  0  0
  152.7451  143.7840  160.1076 C   0  0  0  0  0  0  0  0  0  0  0  0
  152.2933  144.5515  159.0156 C   0  0  0  0  0  0  0  0  0  0  0  0
  151.6408  144.0234  157.9575 N   0  0  0  0  0  0  0  0  0  0  0  0
  147.0038  143.5829  159.2106 N   0  0  0  0  0  0  0  0  0  0  0  0
  146.0973  143.7278  160.3511 C   0  0  2  0  0  0  0  0  0  0  0  0
  146.7556  143.3055  161.6828 C   0  0  0  0  0  0  0  0  0  0  0  0
  145.6606  143.1082  162.7369 C   0  0  0  0  0  0  0  0  0  0  0  0
  144.1700  142.5555  161.8260 S   0  0  0  0  0  0  0  0  0  0  0  0
  143.9866  141.1083  162.0118 O   0  0  0  0  0  0  0  0  0  0  0  0
  143.0730  143.4983  162.0915 O   0  0  0  0  0  0  0  0  0  0  0  0
  144.8456  142.8619  160.1506 C   0  0  0  0  0  0  0  0  0  0  0  0
  148.4460  143.5671  157.2904 H   0  0  0  0  0  0  0  0  0  0  0  0
  149.3110  140.7465  157.7455 H   0  0  0  0  0  0  0  0  0  0  0  0
  148.7536  141.2909  156.1824 H   0  0  0  0  0  0  0  0  0  0  0  0
  151.2451  141.3395  156.3046 H   0  0  0  0  0  0  0  0  0  0  0  0
  150.5875  142.9201  155.9906 H   0  0  0  0  0  0  0  0  0  0  0  0
  151.6253  140.7748  158.9606 H   0  0  0  0  0  0  0  0  0  0  0  0
  152.8378  141.7740  160.9134 H   0  0  0  0  0  0  0  0  0  0  0  0
  153.2623  144.2492  160.9337 H   0  0  0  0  0  0  0  0  0  0  0  0
  152.4583  145.6185  158.9923 H   0  0  0  0  0  0  0  0  0  0  0  0
  147.1545  144.4177  158.6629 H   0  0  0  0  0  0  0  0  0  0  0  0
  145.7707  144.7659  160.4358 H   0  0  0  0  0  0  0  0  0  0  0  0
  147.2782  142.3584  161.5404 H   0  0  0  0  0  0  0  0  0  0  0  0
  147.4977  144.0286  162.0213 H   0  0  0  0  0  0  0  0  0  0  0  0
  145.9309  142.3779  163.4997 H   0  0  0  0  0  0  0  0  0  0  0  0
  145.4229  144.0522  163.2280 H   0  0  0  0  0  0  0  0  0  0  0  0
  144.0926  143.3390  159.5229 H   0  0  0  0  0  0  0  0  0  0  0  0
  145.0979  141.8941  159.7157 H   0  0  0  0  0  0  0  0  0  0  0  0
  1  2  2  0  0  0  0
  2  3  1  0  0  0  0
  2 12  1  0  0  0  0
  3  4  1  0  0  0  0
  3 20  1  0  0  0  0
  4  5  1  0  0  0  0
  4 21  1  0  0  0  0
  4 22  1  0  0  0  0
  5  6  1  0  0  0  0
  5 23  1  0  0  0  0
  5 24  1  0  0  0  0
  6 11  1  0  0  0  0
  6  7  2  0  0  0  0
  7  8  1  0  0  0  0
  7 25  1  0  0  0  0
  8  9  2  0  0  0  0
  8 26  1  0  0  0  0
  9 10  1  0  0  0  0
  9 27  1  0  0  0  0
 10 11  2  0  0  0  0
 10 28  1  0  0  0  0
 12 13  1  0  0  0  0
 12 29  1  0  0  0  0
 13 19  1  0  0  0  0
 13 14  1  0  0  0  0
 13 30  1  0  0  0  0
 14 15  1  0  0  0  0
 14 31  1  0  0  0  0
 14 32  1  0  0  0  0
 15 16  1  0  0  0  0
 15 33  1  0  0  0  0
 15 34  1  0  0  0  0
 16 17  2  0  0  0  0
 16 18  2  0  0  0  0
 16 19  1  0  0  0  0
 19 35  1  0  0  0  0
 19 36  1  0  0  0  0
M  END
> <s_m_source_file>
AV-unprocessed.smi

> <i_m_source_file_index>
1534

> <i_lp_mmshare_version>
43012

> <i_f3d_flags>
0

> <s_epik_input>
Tz1TMSg9TylbQ0gyXVtDSDJdW0NASF0oW0NIMl0xKVtOSF1DKD1PKVtOSF1bQ0gyXVtDSDJdYzJbY0hdW2NIXVtjSF1bY0hdbjI=

> <s_epik_cmdline>
J2VwaWtfcHl0aG9uJywgJy1waCcsICc3LjAnLCAnLXRuJywgJzgnLCAnLW1hJywgJzIwMCcsICctbWV0YWxfYmluZGluZycsICctaW1hZScsICc8aW5maWxlLm1hZT4nLCAnLW9tYWUnLCAnPG91dGZpbGUubWFlPic=

> <r_epik_Ionization_Penalty>
0.0423605

> <r_epik_Ionization_Penalty_Charging>
0

> <r_epik_Ionization_Penalty_Neutral>
0.0423605

> <r_epik_State_Penalty>
0.0357408

> <r_epik_Charging_Adjusted_Penalty>
0.0357408

> <i_epik_Tot_Q>
0

> <i_epik_Tot_abs_Q>
0

> <r_epik_Metal_State_Penalty>
0.033344

> <b_epik_Metal_Only>
0

> <s_lp_Force_Field>
OPLS_2005

> <r_lp_Energy>
11.0291

> <b_lp_Chiralities_Consistent>
1

> <s_lp_Variant>
AV-unprocessed.smi:1534-1

> <Gold.Version>
5.8.1

> <Gold.Id.Protein>
6NUR|6NUR_protein|mol2

> <Gold.PLP.Fitness>
42.5746

> <Gold.PLP.PLP>
-35.8801

> <Gold.PLP.part.hbond>
-5.5594

> <Gold.PLP.part.metal>
0.0000

> <Gold.PLP.part.buried>
-4.2044

> <Gold.PLP.part.nonpolar>
-26.3786

> <Gold.PLP.part.repulsive>
0.3258

> <Gold.PLP.ligand.clash>
0.0000

> <Gold.PLP.ligand.torsion>
0.1504

> <Gold.PLP.Chemscore.Hbond>
2.3300

> <Gold.PLP.Chemscore.CHOScore>
0.0000

> <Gold.PLP.Chemscore.Metal>
0.0000

> <Gold.Chemscore.Hbonds>
donor molecule, donor type, donor heavy atom, donor atom, acceptor molecule, acceptor atom, score
      L1  H     3    20       P1  8028  0.60
      L1  H    12    29       P1  8029  0.63
      P1  H  6934  6946       L1     1  0.22

> <Gold.PLP.Chemscore.Internal.Correction>
0.0053

> <Gold.Rescore>
     Score         DG    S(hbond)    S(metal)    S(lipo)     H(rot)  DE(clash)    DE(int)     intcor
     14.27     -14.75       1.24        0.00      81.81       1.73       0.26       0.22       ----

> <Gold.Chemscore.Fitness>
14.2739

> <Gold.Chemscore.DG>
-14.7491

> <Gold.Chemscore.ZeroCoef>
-5.4800

> <Gold.Chemscore.Hbond>
1.2388

> <Gold.Chemscore.Metal>
0.0000

> <Gold.Chemscore.Lipo>
81.8150

> <Gold.Chemscore.Internal_Hbond>
0.0000

> <Gold.Chemscore.DEClash>
0.2579

> <Gold.Chemscore.DEInternal>
0.2173

> <Gold.Chemscore.Rot>
1.7348

> <Gold.Chemscore.Internal.Correction>
   9.000000E+99

> <Gold.Chemscore.Hbonds>
donor molecule, donor type, donor heavy atom, donor atom, acceptor molecule, acceptor atom, score
      L1  H     3    20       P1  8028  0.04
      L1  H    12    29       P1  8029  0.60
      P1  H  6934  6946       L1     1  0.21

> <Gold.Chemscore.Hbond.Weighted>
-4.1377

> <Gold.Chemscore.Metal.Weighted>
-0.0000

> <Gold.Chemscore.Lipo.Weighted>
-9.5724

> <Gold.Chemscore.Internal_Hbond.Weighted>
0.0000

> <Gold.Chemscore.DEClash.Weighted>
0.2579

> <Gold.Chemscore.DEInternal.Weighted>
0.2173

> <Gold.Chemscore.Rot.Weighted>
4.4410

> <Gold.Chemscore.Internal.Correction.Weighted>
   9.000000E+99

> <Gold.Protein.RotatedTorsions>
[ 6907 6896 6895 6894 ] final   54.57 input  -60.11 | X-H torsion
[ 7974 7965 7964 7962 ] final -144.36 input  175.53 | X-H torsion
[ 8008 7997 7996 7995 ] final   94.63 input   59.86 | X-H torsion
[ 10167 10162 10161 10158 ] final  -58.72 input  -65.29 | X-H torsion
[ 10718 10713 10712 10709 ] final  -86.78 input   66.30 | X-H torsion
[ 10763 10752 10751 10750 ] final  140.88 input  -60.55 | X-H torsion
[ 11005 11000 10999 10996 ] final   13.72 input  -57.11 | X-H torsion

> <Gold.Protein.ActiveResidues>
 VAL166  LYS551  ARG553  GLY616  TRP617  ASP618  TYR619  PRO620  LYS621  CYS622 
 ASP623  PHE694  ASN695  SER759  ASP760  ASP761  ALA762  ILE779  LEU786  VAL792 
 PHE793  MET794  SER795  GLU796  ALA797  LYS798  CYS799  TRP800  GLU811  SER814 

> <Gold.Protein.RotatedAtoms>
  152.3452  134.7081  160.0252 H   0  0  0  0  0  0  0  0  0  0  0  0  # atno 6907 bound_to 6896
  151.7453  133.3319  159.3385 H   0  0  0  0  0  0  0  0  0  0  0  0  # atno 6908 bound_to 6896
  150.7504  134.6174  159.6162 H   0  0  0  0  0  0  0  0  0  0  0  0  # atno 6909 bound_to 6896
  144.8303  140.5720  143.5519 H   0  0  0  0  0  0  0  0  0  0  0  0  # atno 7974 bound_to 7965
  156.0600  140.3297  155.7450 H   0  0  0  0  0  0  0  0  0  0  0  0  # atno 8008 bound_to 7997
  155.5469  140.0607  157.2875 H   0  0  0  0  0  0  0  0  0  0  0  0  # atno 8009 bound_to 7997
  154.4477  140.1901  156.0636 H   0  0  0  0  0  0  0  0  0  0  0  0  # atno 8010 bound_to 7997
  140.6180  143.2409  151.5551 H   0  0  0  0  0  0  0  0  0  0  0  0  # atno 10167 bound_to 10162
  155.9988  130.4777  150.4767 H   0  0  0  0  0  0  0  0  0  0  0  0  # atno 10718 bound_to 10713
  153.9300  135.2991  155.3446 H   0  0  0  0  0  0  0  0  0  0  0  0  # atno 10763 bound_to 10752
  154.7531  135.4970  153.9329 H   0  0  0  0  0  0  0  0  0  0  0  0  # atno 10764 bound_to 10752
  153.1096  135.6756  153.9628 H   0  0  0  0  0  0  0  0  0  0  0  0  # atno 10765 bound_to 10752
  140.4776  134.0968  155.7744 H   0  0  0  0  0  0  0  0  0  0  0  0  # atno 11005 bound_to 11000
  145.4910  139.1489  143.3710 LP  0  0  0  0  0  0  0  0  0  0  0  0  # atno 17320 bound_to 7965
  146.2606  140.5048  142.8855 LP  0  0  0  0  0  0  0  0  0  0  0  0  # atno 17321 bound_to 7965
  139.5414  144.2637  152.1358 LP  0  0  0  0  0  0  0  0  0  0  0  0  # atno 17342 bound_to 10162
  140.1850  144.4807  150.6508 LP  0  0  0  0  0  0  0  0  0  0  0  0  # atno 17343 bound_to 10162
  157.2777  131.0600  151.2218 LP  0  0  0  0  0  0  0  0  0  0  0  0  # atno 17370 bound_to 10713
  157.3276  130.6969  149.6305 LP  0  0  0  0  0  0  0  0  0  0  0  0  # atno 17371 bound_to 10713
  141.1547  133.8905  157.2008 LP  0  0  0  0  0  0  0  0  0  0  0  0  # atno 17394 bound_to 11000
  139.9846  135.0086  156.9832 LP  0  0  0  0  0  0  0  0  0  0  0  0  # atno 17395 bound_to 11000

$$$$
