AV-unprocessed.smi:163|AV-procd|sdf|1381|dock10
  -GOLD-   2262019113D 1   1.00000     0.00000
 Structure written by MMmdl.
 48 51  0  0  0  0  0  0  0  0  1 V2000
  155.4317  135.9135  150.3330 N   0  0  0  0  0  0  0  0  0  0  0  0
  156.3011  136.2665  151.0105 C   0  0  0  0  0  0  0  0  0  0  0  0
  157.4058  136.7137  151.8753 C   0  0  0  0  0  0  0  0  0  0  0  0
  157.7647  135.7120  152.9809 C   0  0  0  0  0  0  0  0  0  0  0  0
  157.6724  134.5065  152.7456 O   0  0  0  0  0  0  0  0  0  0  0  0
  158.1731  136.1879  154.1804 N   0  0  0  0  0  0  0  0  0  0  0  0
  158.2441  137.6068  154.5493 C   0  0  0  0  0  0  0  0  0  0  0  0
  157.1969  137.8928  155.6412 C   0  0  0  0  0  0  0  0  0  0  0  0
  157.3678  136.9810  156.7745 N   0  0  0  0  0  0  0  0  0  0  0  0
  156.7087  137.3274  157.9102 C   0  0  0  0  0  0  0  0  0  0  0  0
  156.8851  138.5668  158.4422 N   0  0  0  0  0  0  0  0  0  0  0  0
  156.2478  138.9197  159.5624 C   0  0  0  0  0  0  0  0  0  0  0  0
  155.3980  138.2029  160.3000 N   0  0  0  0  0  0  0  0  0  0  0  0
  155.2068  136.9622  159.7671 C   0  0  0  0  0  0  0  0  0  0  0  0
  155.8170  136.4473  158.5879 C   0  0  0  0  0  0  0  0  0  0  0  0
  155.3697  135.1521  158.3543 N   0  0  0  0  0  0  0  0  0  0  0  0
  154.5541  134.9112  159.3437 C   0  0  0  0  0  0  0  0  0  0  0  0
  154.3899  135.9473  160.2348 N   0  0  0  0  0  0  0  0  0  0  0  0
  153.5466  135.9518  161.4208 C   0  0  0  0  0  0  0  0  0  0  0  0
  154.0361  135.0085  162.5490 C   0  0  2  0  0  0  0  0  0  0  0  0
  154.0184  133.6729  162.0790 O   0  0  0  0  0  0  0  0  0  0  0  0
  153.2174  135.0978  163.8384 C   0  0  0  0  0  0  0  0  0  0  0  0
  154.0420  136.0453  164.6966 C   0  0  0  0  0  0  0  0  0  0  0  0
  155.3671  135.6319  164.4135 O   0  0  0  0  0  0  0  0  0  0  0  0
  155.4595  135.3765  163.0168 C   0  0  0  0  0  0  0  0  0  0  0  0
  157.4522  135.5574  156.4352 C   0  0  0  0  0  0  0  0  0  0  0  0
  158.4901  135.3213  155.3221 C   0  0  0  0  0  0  0  0  0  0  0  0
  158.2702  136.8863  151.2338 H   0  0  0  0  0  0  0  0  0  0  0  0
  157.1083  137.6661  152.3152 H   0  0  0  0  0  0  0  0  0  0  0  0
  159.2435  137.8249  154.9286 H   0  0  0  0  0  0  0  0  0  0  0  0
  158.0946  138.2859  153.7118 H   0  0  0  0  0  0  0  0  0  0  0  0
  157.2762  138.9343  155.9478 H   0  0  0  0  0  0  0  0  0  0  0  0
  156.1924  137.7628  155.2361 H   0  0  0  0  0  0  0  0  0  0  0  0
  156.4479  139.9196  159.9185 H   0  0  0  0  0  0  0  0  0  0  0  0
  154.0405  133.9662  159.4485 H   0  0  0  0  0  0  0  0  0  0  0  0
  153.4876  136.9771  161.7887 H   0  0  0  0  0  0  0  0  0  0  0  0
  152.5341  135.6799  161.1198 H   0  0  0  0  0  0  0  0  0  0  0  0
  153.6999  133.6735  161.1891 H   0  0  0  0  0  0  0  0  0  0  0  0
  152.1915  135.4371  163.7030 H   0  0  0  0  0  0  0  0  0  0  0  0
  153.1739  134.1275  164.3361 H   0  0  0  0  0  0  0  0  0  0  0  0
  153.9001  137.0822  164.3875 H   0  0  0  0  0  0  0  0  0  0  0  0
  153.8117  135.9635  165.7590 H   0  0  0  0  0  0  0  0  0  0  0  0
  156.1912  134.5894  162.8290 H   0  0  0  0  0  0  0  0  0  0  0  0
  155.8203  136.2792  162.5216 H   0  0  0  0  0  0  0  0  0  0  0  0
  157.7282  134.9786  157.3177 H   0  0  0  0  0  0  0  0  0  0  0  0
  156.4720  135.2051  156.1098 H   0  0  0  0  0  0  0  0  0  0  0  0
  158.5149  134.2629  155.0598 H   0  0  0  0  0  0  0  0  0  0  0  0
  159.4898  135.5626  155.6860 H   0  0  0  0  0  0  0  0  0  0  0  0
  1  2  3  0  0  0  0
  2  3  1  0  0  0  0
  3  4  1  0  0  0  0
  3 28  1  0  0  0  0
  3 29  1  0  0  0  0
  4  5  2  0  0  0  0
  4  6  1  0  0  0  0
  6 27  1  0  0  0  0
  6  7  1  0  0  0  0
  7  8  1  0  0  0  0
  7 30  1  0  0  0  0
  7 31  1  0  0  0  0
  8  9  1  0  0  0  0
  8 32  1  0  0  0  0
  8 33  1  0  0  0  0
  9 10  1  0  0  0  0
  9 26  1  0  0  0  0
 10 15  1  0  0  0  0
 10 11  2  0  0  0  0
 11 12  1  0  0  0  0
 12 13  2  0  0  0  0
 12 34  1  0  0  0  0
 13 14  1  0  0  0  0
 14 18  1  0  0  0  0
 14 15  2  0  0  0  0
 15 16  1  0  0  0  0
 16 17  2  0  0  0  0
 17 18  1  0  0  0  0
 17 35  1  0  0  0  0
 18 19  1  0  0  0  0
 19 20  1  0  0  0  0
 19 36  1  0  0  0  0
 19 37  1  0  0  0  0
 20 25  1  0  0  0  0
 20 21  1  0  0  0  0
 20 22  1  0  0  0  0
 21 38  1  0  0  0  0
 22 23  1  0  0  0  0
 22 39  1  0  0  0  0
 22 40  1  0  0  0  0
 23 24  1  0  0  0  0
 23 41  1  0  0  0  0
 23 42  1  0  0  0  0
 24 25  1  0  0  0  0
 25 43  1  0  0  0  0
 25 44  1  0  0  0  0
 26 27  1  0  0  0  0
 26 45  1  0  0  0  0
 26 46  1  0  0  0  0
 27 47  1  0  0  0  0
 27 48  1  0  0  0  0
M  END
> <s_m_source_file>
AV-unprocessed.smi

> <i_m_source_file_index>
163

> <i_lp_mmshare_version>
43012

> <i_f3d_flags>
0

> <s_epik_input>
TiNDW0NIMl1DKD1PKU4xW0NIMl1bQ0gyXU4oW0NIMl1bQ0gyXTEpYyhuW2NIXW4yKWMoYzIzKW5bY0hdbjNbQ0gyXVtDQEBdNChbT0hdKVtDSDJdW0NIMl1PW0NIMl00

> <s_epik_cmdline>
J2VwaWtfcHl0aG9uJywgJy1waCcsICc3LjAnLCAnLXRuJywgJzgnLCAnLW1hJywgJzIwMCcsICctbWV0YWxfYmluZGluZycsICctaW1hZScsICc8aW5maWxlLm1hZT4nLCAnLW9tYWUnLCAnPG91dGZpbGUubWFlPic=

> <r_lp_tautomer_probability>
1

> <r_epik_Ionization_Penalty>
0.000981096

> <r_epik_Ionization_Penalty_Charging>
0

> <r_epik_Ionization_Penalty_Neutral>
0.000981096

> <r_epik_State_Penalty>
0.000482875

> <r_epik_Charging_Adjusted_Penalty>
0.000482875

> <i_epik_Tot_Q>
0

> <i_epik_Tot_abs_Q>
0

> <r_epik_Metal_State_Penalty>
-0

> <b_epik_Metal_Only>
0

> <s_lp_Force_Field>
OPLS_2005

> <r_lp_Energy>
51.4692

> <b_lp_Chiralities_Consistent>
1

> <s_lp_Variant>
AV-unprocessed.smi:163-2

> <Gold.Version>
5.8.1

> <Gold.Id.Protein>
6NUR|6NUR_protein|mol2

> <Gold.PLP.Fitness>
40.9111

> <Gold.PLP.PLP>
-35.8076

> <Gold.PLP.part.hbond>
-2.0000

> <Gold.PLP.part.metal>
0.0000

> <Gold.PLP.part.buried>
-4.2214

> <Gold.PLP.part.nonpolar>
-31.6113

> <Gold.PLP.part.repulsive>
1.7314

> <Gold.PLP.ligand.clash>
0.0000

> <Gold.PLP.ligand.torsion>
0.6951

> <Gold.PLP.Chemscore.Hbond>
2.0000

> <Gold.PLP.Chemscore.CHOScore>
0.0000

> <Gold.PLP.Chemscore.Metal>
0.0000

> <Gold.Chemscore.Hbonds>
donor molecule, donor type, donor heavy atom, donor atom, acceptor molecule, acceptor atom, score
      P1  H  7997  8010       L1    11  0.30
      P1  H 10708 10714       L1     1  0.88

> <Gold.PLP.Chemscore.Internal.Correction>
0.4938

> <Gold.Rescore>
     Score         DG    S(hbond)    S(metal)    S(lipo)     H(rot)  DE(clash)    DE(int)     intcor
      8.36     -10.93       1.37        0.00      67.12       2.72       0.50       2.07       ----

> <Gold.Chemscore.Fitness>
8.3604

> <Gold.Chemscore.DG>
-10.9269

> <Gold.Chemscore.ZeroCoef>
-5.4800

> <Gold.Chemscore.Hbond>
1.3666

> <Gold.Chemscore.Metal>
0.0000

> <Gold.Chemscore.Lipo>
67.1211

> <Gold.Chemscore.Internal_Hbond>
0.0000

> <Gold.Chemscore.DEClash>
0.4979

> <Gold.Chemscore.DEInternal>
2.0685

> <Gold.Chemscore.Rot>
2.7230

> <Gold.Chemscore.Internal.Correction>
   9.000000E+99

> <Gold.Chemscore.Hbonds>
donor molecule, donor type, donor heavy atom, donor atom, acceptor molecule, acceptor atom, score
      P1  H  7997  8010       L1    11  0.09
      P1  H 10708 10714       L1     1  0.86

> <Gold.Chemscore.Hbond.Weighted>
-4.5646

> <Gold.Chemscore.Metal.Weighted>
-0.0000

> <Gold.Chemscore.Lipo.Weighted>
-7.8532

> <Gold.Chemscore.Internal_Hbond.Weighted>
0.0000

> <Gold.Chemscore.DEClash.Weighted>
0.4979

> <Gold.Chemscore.DEInternal.Weighted>
2.0685

> <Gold.Chemscore.Rot.Weighted>
6.9709

> <Gold.Chemscore.Internal.Correction.Weighted>
   9.000000E+99

> <Gold.Protein.RotatedTorsions>
[ 6907 6896 6895 6894 ] final   71.46 input  -60.11 | X-H torsion
[ 7974 7965 7964 7962 ] final  163.81 input  175.53 | X-H torsion
[ 8008 7997 7996 7995 ] final  -72.17 input   59.86 | X-H torsion
[ 10167 10162 10161 10158 ] final  -21.59 input  -65.29 | X-H torsion
[ 10718 10713 10712 10709 ] final  -72.82 input   66.30 | X-H torsion
[ 10763 10752 10751 10750 ] final  155.59 input  -60.55 | X-H torsion
[ 11005 11000 10999 10996 ] final  -56.60 input  -57.11 | X-H torsion

> <Gold.Protein.ActiveResidues>
 VAL166  LYS551  ARG553  GLY616  TRP617  ASP618  TYR619  PRO620  LYS621  CYS622 
 ASP623  PHE694  ASN695  SER759  ASP760  ASP761  ALA762  ILE779  LEU786  VAL792 
 PHE793  MET794  SER795  GLU796  ALA797  LYS798  CYS799  TRP800  GLU811  SER814 

> <Gold.Protein.RotatedAtoms>
  152.4811  134.4716  159.9637 H   0  0  0  0  0  0  0  0  0  0  0  0  # atno 6907 bound_to 6896
  151.4722  133.3560  159.2833 H   0  0  0  0  0  0  0  0  0  0  0  0  # atno 6908 bound_to 6896
  150.8885  134.8311  159.7337 H   0  0  0  0  0  0  0  0  0  0  0  0  # atno 6909 bound_to 6896
  144.7573  139.8236  143.6345 H   0  0  0  0  0  0  0  0  0  0  0  0  # atno 7974 bound_to 7965
  154.5145  140.0802  156.8054 H   0  0  0  0  0  0  0  0  0  0  0  0  # atno 8008 bound_to 7997
  155.3712  140.3423  155.4225 H   0  0  0  0  0  0  0  0  0  0  0  0  # atno 8009 bound_to 7997
  156.1611  140.1589  156.8597 H   0  0  0  0  0  0  0  0  0  0  0  0  # atno 8010 bound_to 7997
  140.7282  143.4614  151.0375 H   0  0  0  0  0  0  0  0  0  0  0  0  # atno 10167 bound_to 10162
  156.0305  130.4380  150.2650 H   0  0  0  0  0  0  0  0  0  0  0  0  # atno 10718 bound_to 10713
  154.1708  135.2804  155.3081 H   0  0  0  0  0  0  0  0  0  0  0  0  # atno 10763 bound_to 10752
  154.6077  135.5509  153.7443 H   0  0  0  0  0  0  0  0  0  0  0  0  # atno 10764 bound_to 10752
  153.0165  135.6407  154.1848 H   0  0  0  0  0  0  0  0  0  0  0  0  # atno 10765 bound_to 10752
  141.1127  133.6610  156.4643 H   0  0  0  0  0  0  0  0  0  0  0  0  # atno 11005 bound_to 11000
  146.1597  139.4707  142.9996 LP  0  0  0  0  0  0  0  0  0  0  0  0  # atno 17320 bound_to 7965
  145.6737  141.0210  143.1644 LP  0  0  0  0  0  0  0  0  0  0  0  0  # atno 17321 bound_to 7965
  139.8298  143.7706  152.3179 LP  0  0  0  0  0  0  0  0  0  0  0  0  # atno 17342 bound_to 10162
  139.7818  144.7442  151.0078 LP  0  0  0  0  0  0  0  0  0  0  0  0  # atno 17343 bound_to 10162
  157.0752  131.0128  151.3176 LP  0  0  0  0  0  0  0  0  0  0  0  0  # atno 17370 bound_to 10713
  157.4969  130.7856  149.7564 LP  0  0  0  0  0  0  0  0  0  0  0  0  # atno 17371 bound_to 10713
  140.4730  134.6735  157.5138 LP  0  0  0  0  0  0  0  0  0  0  0  0  # atno 17394 bound_to 11000
  140.0031  134.6806  155.9499 LP  0  0  0  0  0  0  0  0  0  0  0  0  # atno 17395 bound_to 11000

$$$$
