AV-unprocessed.smi:2441|AV-procd|sdf|9622|dock9
  -GOLD-   2272013253D 1   1.00000     0.00000
 Structure written by MMmdl.
 40 41  0  0  0  0  0  0  0  0  1 V2000
  146.2067  133.6844  153.8904 C   0  0  0  0  0  0  0  0  0  0  0  0
  145.8751  133.8147  152.3932 C   0  0  1  0  0  0  0  0  0  0  0  0
  144.7900  132.7946  151.9916 C   0  0  0  0  0  0  0  0  0  0  0  0
  144.4317  132.8926  150.5013 C   0  0  0  0  0  0  0  0  0  0  0  0
  143.9901  134.3153  150.1336 C   0  0  0  0  0  0  0  0  0  0  0  0
  145.0714  135.3384  150.5087 C   0  0  0  0  0  0  0  0  0  0  0  0
  145.4465  135.2518  152.0012 C   0  0  2  0  0  0  0  0  0  0  0  0
  146.5220  136.2055  152.2709 N   0  0  0  0  0  0  0  0  0  0  0  0
  146.3850  137.4058  152.8529 C   0  0  0  0  0  0  0  0  0  0  0  0
  145.3077  137.8505  153.2480 O   0  0  0  0  0  0  0  0  0  0  0  0
  147.5706  138.0393  152.9212 N   0  0  0  0  0  0  0  0  0  0  0  0
  147.8812  139.2932  153.4757 C   0  0  0  0  0  0  0  0  0  0  0  0
  147.0988  140.3965  153.3688 C   0  0  0  0  0  0  0  0  0  0  0  0
  147.4881  141.6435  153.9810 C   0  0  0  0  0  0  0  0  0  0  0  0
  148.6373  141.6822  154.6690 C   0  0  0  0  0  0  0  0  0  0  0  0
  149.4581  140.5513  154.8045 N   0  0  0  0  0  0  0  0  0  0  0  0
  150.6842  140.7451  155.5837 C   0  0  0  0  0  0  0  0  0  0  0  0
  149.1432  139.3453  154.2409 C   0  0  0  0  0  0  0  0  0  0  0  0
  149.8777  138.3630  154.3683 O   0  0  0  0  0  0  0  0  0  0  0  0
  145.3503  133.9556  154.5082 H   0  0  0  0  0  0  0  0  0  0  0  0
  147.0398  134.3263  154.1770 H   0  0  0  0  0  0  0  0  0  0  0  0
  146.4866  132.6612  154.1419 H   0  0  0  0  0  0  0  0  0  0  0  0
  146.7799  133.5675  151.8355 H   0  0  0  0  0  0  0  0  0  0  0  0
  145.1288  131.7827  152.2161 H   0  0  0  0  0  0  0  0  0  0  0  0
  143.8931  132.9578  152.5907 H   0  0  0  0  0  0  0  0  0  0  0  0
  145.2943  132.6083  149.8971 H   0  0  0  0  0  0  0  0  0  0  0  0
  143.6387  132.1838  150.2622 H   0  0  0  0  0  0  0  0  0  0  0  0
  143.7764  134.3743  149.0662 H   0  0  0  0  0  0  0  0  0  0  0  0
  143.0606  134.5576  150.6503 H   0  0  0  0  0  0  0  0  0  0  0  0
  145.9567  135.1666  149.8944 H   0  0  0  0  0  0  0  0  0  0  0  0
  144.7213  136.3435  150.2699 H   0  0  0  0  0  0  0  0  0  0  0  0
  144.5586  135.5103  152.5818 H   0  0  0  0  0  0  0  0  0  0  0  0
  147.4483  135.9290  151.9803 H   0  0  0  0  0  0  0  0  0  0  0  0
  148.3518  137.5718  152.4843 H   0  0  0  0  0  0  0  0  0  0  0  0
  146.1577  140.3793  152.8435 H   0  0  0  0  0  0  0  0  0  0  0  0
  146.8687  142.5234  153.8865 H   0  0  0  0  0  0  0  0  0  0  0  0
  149.0042  142.5738  155.1576 H   0  0  0  0  0  0  0  0  0  0  0  0
  151.2566  139.8331  155.7556 H   0  0  0  0  0  0  0  0  0  0  0  0
  150.4437  141.1600  156.5632 H   0  0  0  0  0  0  0  0  0  0  0  0
  151.3400  141.4513  155.0732 H   0  0  0  0  0  0  0  0  0  0  0  0
  1  2  1  0  0  0  0
  1 20  1  0  0  0  0
  1 21  1  0  0  0  0
  1 22  1  0  0  0  0
  2  7  1  0  0  0  0
  2  3  1  0  0  0  0
  2 23  1  0  0  0  0
  3  4  1  0  0  0  0
  3 24  1  0  0  0  0
  3 25  1  0  0  0  0
  4  5  1  0  0  0  0
  4 26  1  0  0  0  0
  4 27  1  0  0  0  0
  5  6  1  0  0  0  0
  5 28  1  0  0  0  0
  5 29  1  0  0  0  0
  6  7  1  0  0  0  0
  6 30  1  0  0  0  0
  6 31  1  0  0  0  0
  7  8  1  0  0  0  0
  7 32  1  0  0  0  0
  8  9  1  0  0  0  0
  8 33  1  0  0  0  0
  9 10  2  0  0  0  0
  9 11  1  0  0  0  0
 11 12  1  0  0  0  0
 11 34  1  0  0  0  0
 12 18  1  0  0  0  0
 12 13  2  0  0  0  0
 13 14  1  0  0  0  0
 13 35  1  0  0  0  0
 14 15  2  0  0  0  0
 14 36  1  0  0  0  0
 15 16  1  0  0  0  0
 15 37  1  0  0  0  0
 16 17  1  0  0  0  0
 16 18  1  0  0  0  0
 17 38  1  0  0  0  0
 17 39  1  0  0  0  0
 17 40  1  0  0  0  0
 18 19  2  0  0  0  0
M  END
> <s_m_source_file>
AV-unprocessed.smi

> <i_m_source_file_index>
2441

> <i_lp_mmshare_version>
43012

> <i_f3d_flags>
0

> <s_epik_input>
W0NIM11bQ0BASF0xW0NIMl1bQ0gyXVtDSDJdW0NIMl1bQ0BIXTFbTkhdQyg9TylbTkhdYzJbY0hdW2NIXVtjSF1uKFtDSDNdKWMyPU8=

> <s_epik_cmdline>
J2VwaWtfcHl0aG9uJywgJy1waCcsICc3LjAnLCAnLXRuJywgJzgnLCAnLW1hJywgJzIwMCcsICctbWV0YWxfYmluZGluZycsICctaW1hZScsICc8aW5maWxlLm1hZT4nLCAnLW9tYWUnLCAnPG91dGZpbGUubWFlPic=

> <r_lp_tautomer_probability>
1

> <r_epik_Ionization_Penalty>
2.64999e-05

> <r_epik_Ionization_Penalty_Charging>
5.09663e-06

> <r_epik_Ionization_Penalty_Neutral>
2.14032e-05

> <r_epik_State_Penalty>
-0

> <r_epik_Charging_Adjusted_Penalty>
5.09663e-06

> <i_epik_Tot_Q>
0

> <i_epik_Tot_abs_Q>
0

> <r_epik_Metal_State_Penalty>
-0

> <b_epik_Metal_Only>
0

> <s_lp_Force_Field>
OPLS_2005

> <r_lp_Energy>
23.8871

> <b_lp_Chiralities_Consistent>
1

> <s_lp_Variant>
AV-unprocessed.smi:2441-4

> <Gold.Version>
5.8.1

> <Gold.Id.Protein>
6NUR|6NUR_protein|mol2

> <Gold.PLP.Fitness>
38.7425

> <Gold.PLP.PLP>
-30.8204

> <Gold.PLP.part.hbond>
-1.7253

> <Gold.PLP.part.metal>
0.0000

> <Gold.PLP.part.buried>
1.6264

> <Gold.PLP.part.nonpolar>
-31.0694

> <Gold.PLP.part.repulsive>
0.5011

> <Gold.PLP.ligand.clash>
0.0000

> <Gold.PLP.ligand.torsion>
0.5410

> <Gold.PLP.Chemscore.Hbond>
2.0000

> <Gold.PLP.Chemscore.CHOScore>
1.0000

> <Gold.PLP.Chemscore.Metal>
0.0000

> <Gold.Chemscore.Hbonds>
donor molecule, donor type, donor heavy atom, donor atom, acceptor molecule, acceptor atom, score
      L1  H     8    33       P1  7948  0.96
      L1  H    11    34       P1  7948  0.99
      L1  C    15    37       P1  8028  1.00

> <Gold.PLP.Chemscore.Internal.Correction>
0.0040

> <Gold.Rescore>
     Score         DG    S(hbond)    S(metal)    S(lipo)     H(rot)  DE(clash)    DE(int)     intcor
     17.05     -17.72       1.95        0.00      70.95       1.00       0.12       0.55       ----

> <Gold.Chemscore.Fitness>
17.0482

> <Gold.Chemscore.DG>
-17.7227

> <Gold.Chemscore.ZeroCoef>
-5.4800

> <Gold.Chemscore.Hbond>
1.9465

> <Gold.Chemscore.Metal>
0.0000

> <Gold.Chemscore.Lipo>
70.9512

> <Gold.Chemscore.Internal_Hbond>
0.0000

> <Gold.Chemscore.DEClash>
0.1221

> <Gold.Chemscore.DEInternal>
0.5525

> <Gold.Chemscore.Rot>
1.0000

> <Gold.Chemscore.Internal.Correction>
   9.000000E+99

> <Gold.Chemscore.Hbonds>
donor molecule, donor type, donor heavy atom, donor atom, acceptor molecule, acceptor atom, score
      L1  H     8    33       P1  7948  0.87
      L1  H    11    34       P1  7948  0.91

> <Gold.Chemscore.Hbond.Weighted>
-6.5014

> <Gold.Chemscore.Metal.Weighted>
-0.0000

> <Gold.Chemscore.Lipo.Weighted>
-8.3013

> <Gold.Chemscore.Internal_Hbond.Weighted>
0.0000

> <Gold.Chemscore.DEClash.Weighted>
0.1221

> <Gold.Chemscore.DEInternal.Weighted>
0.5525

> <Gold.Chemscore.Rot.Weighted>
2.5600

> <Gold.Chemscore.Internal.Correction.Weighted>
   9.000000E+99

> <Gold.Protein.RotatedTorsions>
[ 6907 6896 6895 6894 ] final   26.14 input  -60.11 | X-H torsion
[ 7974 7965 7964 7962 ] final  -28.93 input  175.53 | X-H torsion
[ 8008 7997 7996 7995 ] final -177.05 input   59.86 | X-H torsion
[ 10167 10162 10161 10158 ] final   70.77 input  -65.29 | X-H torsion
[ 10718 10713 10712 10709 ] final  133.89 input   66.30 | X-H torsion
[ 10763 10752 10751 10750 ] final -138.29 input  -60.55 | X-H torsion
[ 11005 11000 10999 10996 ] final  106.74 input  -57.11 | X-H torsion

> <Gold.Protein.ActiveResidues>
 VAL166  LYS551  ARG553  GLY616  TRP617  ASP618  TYR619  PRO620  LYS621  CYS622 
 ASP623  PHE694  ASN695  SER759  ASP760  ASP761  ALA762  ILE779  LEU786  VAL792 
 PHE793  MET794  SER795  GLU796  ALA797  LYS798  CYS799  TRP800  GLU811  SER814 

> <Gold.Protein.RotatedAtoms>
  151.9830  135.0018  160.0558 H   0  0  0  0  0  0  0  0  0  0  0  0  # atno 6907 bound_to 6896
  152.1678  133.4619  159.4902 H   0  0  0  0  0  0  0  0  0  0  0  0  # atno 6908 bound_to 6896
  150.6897  134.1908  159.4327 H   0  0  0  0  0  0  0  0  0  0  0  0  # atno 6909 bound_to 6896
  146.1253  140.5346  142.8717 H   0  0  0  0  0  0  0  0  0  0  0  0  # atno 7974 bound_to 7965
  156.0022  140.1223  157.0536 H   0  0  0  0  0  0  0  0  0  0  0  0  # atno 8008 bound_to 7997
  154.4246  140.1104  156.5782 H   0  0  0  0  0  0  0  0  0  0  0  0  # atno 8009 bound_to 7997
  155.6196  140.3472  155.4650 H   0  0  0  0  0  0  0  0  0  0  0  0  # atno 8010 bound_to 7997
  140.0534  144.5293  150.7347 H   0  0  0  0  0  0  0  0  0  0  0  0  # atno 10167 bound_to 10162
  157.4728  131.1081  150.9781 H   0  0  0  0  0  0  0  0  0  0  0  0  # atno 10718 bound_to 10713
  154.8641  135.3616  154.5361 H   0  0  0  0  0  0  0  0  0  0  0  0  # atno 10763 bound_to 10752
  153.5984  135.7013  153.5399 H   0  0  0  0  0  0  0  0  0  0  0  0  # atno 10764 bound_to 10752
  153.3312  135.4124  155.1458 H   0  0  0  0  0  0  0  0  0  0  0  0  # atno 10765 bound_to 10752
  139.8818  134.9379  156.5712 H   0  0  0  0  0  0  0  0  0  0  0  0  # atno 11005 bound_to 11000
  144.7636  140.5480  143.6718 LP  0  0  0  0  0  0  0  0  0  0  0  0  # atno 17320 bound_to 7965
  145.5378  139.1475  143.3463 LP  0  0  0  0  0  0  0  0  0  0  0  0  # atno 17321 bound_to 7965
  140.7206  143.2585  151.4291 LP  0  0  0  0  0  0  0  0  0  0  0  0  # atno 17342 bound_to 10162
  139.5939  144.1440  152.2120 LP  0  0  0  0  0  0  0  0  0  0  0  0  # atno 17343 bound_to 10162
  157.0541  130.5799  149.5375 LP  0  0  0  0  0  0  0  0  0  0  0  0  # atno 17370 bound_to 10713
  156.0082  130.5170  150.7900 LP  0  0  0  0  0  0  0  0  0  0  0  0  # atno 17371 bound_to 10713
  140.8097  133.8439  155.8799 LP  0  0  0  0  0  0  0  0  0  0  0  0  # atno 17394 bound_to 11000
  140.9518  134.1769  157.4722 LP  0  0  0  0  0  0  0  0  0  0  0  0  # atno 17395 bound_to 11000

$$$$
