#       Name:                AV-unprocessed.smi:1947
#       Creating user name   scv26
#       Creation time:       Fri Mar 27 10:01:50 2020


#       File generated by GOLD software.
#

@<TRIPOS>MOLECULE
AV-unprocessed.smi:1947
    45    46     1
SMALL
NO_CHARGES


@<TRIPOS>ATOM
      1 ****        -0.4492   1.4080   1.2675 C.3            1 S1                 0.0000
      2 ****        -1.2775   1.7219   0.0109 C.3            1 S1                 0.0000
      3 ****        -2.5189   0.8148  -0.0998 C.3            1 S1                 0.0000
      4 ****        -3.3542   1.1547  -1.3446 C.3            1 S1                 0.0000
      5 ****        -2.5070   1.0782  -2.6240 C.3            1 S1                 0.0000
      6 ****        -1.2625   1.9769  -2.5261 C.3            1 S1                 0.0000
      7 ****        -0.4236   1.6563  -1.2746 C.3            1 S1                 0.0000
      8 ****         0.1044   0.3425  -1.4048 O.3            1 S1                 0.0000
      9 ****         1.4804   0.2959  -1.7463 C.3            1 S1                 0.0000
     10 ****         1.9304  -1.1729  -1.7924 C.3            1 S1                 0.0000
     11 ****         1.6022  -1.8799  -0.5584 N.am           1 S1                 0.0000
     12 ****         2.1840  -1.6777   0.6318 C.2            1 S1                 0.0000
     13 ****         3.1291  -0.9083   0.8047 O.2            1 S1                 0.0000
     14 ****         1.5936  -2.4123   1.5878 N.am           1 S1                 0.0000
     15 ****         1.8525  -2.3999   2.9807 C.2            1 S1                 0.0000
     16 ****         1.1358  -3.2184   3.7599 N.2            1 S1                 0.0000
     17 ****         1.4836  -3.0982   5.0999 N.2            1 S1                 0.0000
     18 ****         2.4488  -2.1912   5.2786 C.2            1 S1                 0.0000
     19 ****         3.0294  -1.3922   3.8281 S.3            1 S1                 0.0000
     20 ****        -0.0754   0.3839   1.2554 H              1 S1                 0.0000
     21 ****        -1.0463   1.5305   2.1714 H              1 S1                 0.0000
     22 ****         0.4105   2.0738   1.3475 H              1 S1                 0.0000
     23 ****        -1.6322   2.7486   0.1133 H              1 S1                 0.0000
     24 ****        -2.2118  -0.2312  -0.1402 H              1 S1                 0.0000
     25 ****        -3.1368   0.9187   0.7927 H              1 S1                 0.0000
     26 ****        -4.2024   0.4737  -1.4198 H              1 S1                 0.0000
     27 ****        -3.7710   2.1573  -1.2419 H              1 S1                 0.0000
     28 ****        -2.2010   0.0457  -2.7974 H              1 S1                 0.0000
     29 ****        -3.1079   1.3693  -3.4857 H              1 S1                 0.0000
     30 ****        -0.6533   1.8684  -3.4238 H              1 S1                 0.0000
     31 ****        -1.5751   3.0212  -2.4925 H              1 S1                 0.0000
     32 ****         0.3788   2.3921  -1.1902 H              1 S1                 0.0000
     33 ****         1.6428   0.7713  -2.7146 H              1 S1                 0.0000
     34 ****         2.0675   0.8464  -1.0097 H              1 S1                 0.0000
     35 ****         1.4306  -1.6839  -2.6156 H              1 S1                 0.0000
     36 ****         3.0019  -1.2378  -1.9873 H              1 S1                 0.0000
     37 ****         0.8351  -2.5344  -0.6056 H              1 S1                 0.0000
     38 ****         0.8458  -3.0221   1.2913 H              1 S1                 0.0000
     39 ****         2.8204  -1.9904   6.2725 H              1 S1                 0.0000
     40 ****        -0.4112  -0.1327  -2.1177 LP             1 S1                 0.0000
     41 ****        -0.0179  -0.1316  -0.5329 LP             1 S1                 0.0000
     42 ****         3.5026  -0.3938   0.0329 LP             1 S1                 0.0000
     43 ****         3.5234  -0.7977   1.7170 LP             1 S1                 0.0000
     44 ****         0.4331  -3.8426   3.4184 LP             1 S1                 0.0000
     45 ****         1.0637  -3.6250   5.8389 LP             1 S1                 0.0000
@<TRIPOS>BOND
    1    1    2 1     
    2    1   20 1     
    3    1   21 1     
    4    1   22 1     
    5    2    7 1     
    6    2    3 1     
    7    2   23 1     
    8    3    4 1     
    9    3   24 1     
   10    3   25 1     
   11    4    5 1     
   12    4   26 1     
   13    4   27 1     
   14    5    6 1     
   15    5   28 1     
   16    5   29 1     
   17    6    7 1     
   18    6   30 1     
   19    6   31 1     
   20    7    8 1     
   21    7   32 1     
   22    8    9 1     
   23    9   10 1     
   24    9   33 1     
   25    9   34 1     
   26   10   11 1     
   27   10   35 1     
   28   10   36 1     
   29   11   12 am    
   30   11   37 1     
   31   12   13 2     
   32   12   14 am    
   33   14   15 1     
   34   14   38 1     
   35   15   19 1     
   36   15   16 2     
   37   16   17 1     
   38   17   18 2     
   39   18   19 1     
   40   18   39 1     
   41    8   40 1     
   42    8   41 1     
   43   13   42 1     
   44   13   43 1     
   45   16   44 1     
   46   17   45 1     
@<TRIPOS>SUBSTRUCTURE
      1 S1             1
@<TRIPOS>SET
LONE_PAIRS      STATIC     ATOMS    <user>   **** ""
6 40 41 42 43 44 45
DONOR_HYDROGENS      STATIC     ATOMS    <user>   **** ""
2 37 38
ATOM$BLUE        STATIC     ATOMS    COLORGROUP SYSTEM
6 40 41 42 43 44 45
ATOM$RED        STATIC     ATOMS    COLORGROUP SYSTEM
2 37 38
