AV-unprocessed.smi:1055|AV-procd|sdf|4628|dock2
  -GOLD-   22720 3133D 1   1.00000     0.00000
 Structure written by MMmdl.
 51 52  0  0  0  0  0  0  0  0  2 V2000
  152.7527  142.3675  160.2786 C   0  0  0  0  0  0  0  0  0  0  0  0
  152.0812  143.2754  159.5513 C   0  0  0  0  0  0  0  0  0  0  0  0
  151.4437  144.4990  160.1825 C   0  0  0  0  0  0  0  0  0  0  0  0
  151.9362  143.1482  158.0416 C   0  0  0  0  0  0  0  0  0  0  0  0
  151.3006  141.9001  157.6183 N   0  0  0  0  0  0  0  0  0  0  0  0
  152.1903  140.7496  157.8138 C   0  0  0  0  0  0  0  0  0  0  0  0
  151.4763  139.4449  157.4203 C   0  0  0  0  0  0  0  0  0  0  0  0
  150.9988  139.4931  155.9591 C   0  0  0  0  0  0  0  0  0  0  0  0
  150.2058  138.3122  155.6297 N   0  0  0  0  0  0  0  0  0  0  0  0
  150.6834  137.0624  155.5463 C   0  0  0  0  0  0  0  0  0  0  0  0
  151.8654  136.7738  155.7319 O   0  0  0  0  0  0  0  0  0  0  0  0
  149.7129  136.1900  155.2231 N   0  0  0  0  0  0  0  0  0  0  0  0
  149.8050  134.7792  155.0768 C   0  0  0  0  0  0  0  0  0  0  0  0
  150.7841  134.1001  155.8315 C   0  0  0  0  0  0  0  0  0  0  0  0
  150.9224  132.7022  155.7074 C   0  0  0  0  0  0  0  0  0  0  0  0
  150.0830  131.9872  154.8179 C   0  0  0  0  0  0  0  0  0  0  0  0
  150.1601  130.5892  154.6368 N   0  0  0  0  0  0  0  0  0  0  0  0
  151.2222  129.8311  155.2851 C   0  0  0  0  0  0  0  0  0  0  0  0
  149.1865  129.9137  153.7859 C   0  0  0  0  0  0  0  0  0  0  0  0
  149.1659  132.6855  154.1049 N   0  3  0  0  0  0  0  0  0  0  0  0
  148.9985  134.0224  154.1938 C   0  0  0  0  0  0  0  0  0  0  0  0
  150.1625  140.7631  155.7477 C   0  0  0  0  0  0  0  0  0  0  0  0
  150.9340  142.0130  156.2053 C   0  0  0  0  0  0  0  0  0  0  0  0
  152.8566  142.4717  161.3487 H   0  0  0  0  0  0  0  0  0  0  0  0
  153.2084  141.5050  159.8148 H   0  0  0  0  0  0  0  0  0  0  0  0
  151.8560  145.4078  159.7437 H   0  0  0  0  0  0  0  0  0  0  0  0
  151.6216  144.5304  161.2581 H   0  0  0  0  0  0  0  0  0  0  0  0
  150.3656  144.4977  160.0197 H   0  0  0  0  0  0  0  0  0  0  0  0
  151.3392  143.9923  157.6937 H   0  0  0  0  0  0  0  0  0  0  0  0
  152.9166  143.2393  157.5706 H   0  0  0  0  0  0  0  0  0  0  0  0
  153.1000  140.8761  157.2249 H   0  0  0  0  0  0  0  0  0  0  0  0
  152.4947  140.6765  158.8579 H   0  0  0  0  0  0  0  0  0  0  0  0
  152.1511  138.6014  157.5692 H   0  0  0  0  0  0  0  0  0  0  0  0
  150.6274  139.2828  158.0865 H   0  0  0  0  0  0  0  0  0  0  0  0
  151.8680  139.5412  155.3000 H   0  0  0  0  0  0  0  0  0  0  0  0
  149.2218  138.4607  155.4599 H   0  0  0  0  0  0  0  0  0  0  0  0
  148.8071  136.5892  155.0244 H   0  0  0  0  0  0  0  0  0  0  0  0
  151.4268  134.6438  156.5085 H   0  0  0  0  0  0  0  0  0  0  0  0
  151.6747  132.2015  156.2982 H   0  0  0  0  0  0  0  0  0  0  0  0
  152.1989  130.1685  154.9371 H   0  0  0  0  0  0  0  0  0  0  0  0
  151.1401  128.7663  155.0662 H   0  0  0  0  0  0  0  0  0  0  0  0
  151.1747  129.9521  156.3677 H   0  0  0  0  0  0  0  0  0  0  0  0
  149.2208  130.3129  152.7717 H   0  0  0  0  0  0  0  0  0  0  0  0
  148.1777  130.0475  154.1777 H   0  0  0  0  0  0  0  0  0  0  0  0
  149.3831  128.8430  153.7290 H   0  0  0  0  0  0  0  0  0  0  0  0
  148.2359  134.4258  153.5449 H   0  0  0  0  0  0  0  0  0  0  0  0
  149.8924  140.8625  154.6957 H   0  0  0  0  0  0  0  0  0  0  0  0
  149.2257  140.6932  156.3031 H   0  0  0  0  0  0  0  0  0  0  0  0
  150.3074  142.8938  156.0595 H   0  0  0  0  0  0  0  0  0  0  0  0
  151.8277  142.1516  155.5944 H   0  0  0  0  0  0  0  0  0  0  0  0
  148.5664  132.1718  153.4589 H   0  0  0  0  0  0  0  0  0  0  0  0
  1  2  2  0  0  0  0
  1 24  1  0  0  0  0
  1 25  1  0  0  0  0
  2  3  1  0  0  0  0
  2  4  1  0  0  0  0
  3 26  1  0  0  0  0
  3 27  1  0  0  0  0
  3 28  1  0  0  0  0
  4  5  1  0  0  0  0
  4 29  1  0  0  0  0
  4 30  1  0  0  0  0
  5 23  1  0  0  0  0
  5  6  1  0  0  0  0
  6  7  1  0  0  0  0
  6 31  1  0  0  0  0
  6 32  1  0  0  0  0
  7  8  1  0  0  0  0
  7 33  1  0  0  0  0
  7 34  1  0  0  0  0
  8  9  1  0  0  0  0
  8 22  1  0  0  0  0
  8 35  1  0  0  0  0
  9 10  1  0  0  0  0
  9 36  1  0  0  0  0
 10 11  2  0  0  0  0
 10 12  1  0  0  0  0
 12 13  1  0  0  0  0
 12 37  1  0  0  0  0
 13 21  1  0  0  0  0
 13 14  2  0  0  0  0
 14 15  1  0  0  0  0
 14 38  1  0  0  0  0
 15 16  2  0  0  0  0
 15 39  1  0  0  0  0
 16 17  1  0  0  0  0
 16 20  1  0  0  0  0
 17 18  1  0  0  0  0
 17 19  1  0  0  0  0
 18 40  1  0  0  0  0
 18 41  1  0  0  0  0
 18 42  1  0  0  0  0
 19 43  1  0  0  0  0
 19 44  1  0  0  0  0
 19 45  1  0  0  0  0
 20 21  2  0  0  0  0
 20 51  1  0  0  0  0
 21 46  1  0  0  0  0
 22 23  1  0  0  0  0
 22 47  1  0  0  0  0
 22 48  1  0  0  0  0
 23 49  1  0  0  0  0
 23 50  1  0  0  0  0
M  CHG  1  20   1
M  END
> <s_m_source_file>
AV-unprocessed.smi

> <i_m_source_file_index>
1055

> <i_lp_mmshare_version>
43012

> <i_f3d_flags>
0

> <s_epik_input>
W0NIMl09QyhbQ0gzXSlbQ0gyXU4xW0NIMl1bQ0gyXVtDSF0oW0NIMl1bQ0gyXTEpW05IXUMoPU8pW05IXWMyW2NIXVtjSF1jKE4oW0NIM10pW0NIM10pbltjSF0y

> <s_epik_cmdline>
J2VwaWtfcHl0aG9uJywgJy1waCcsICc3LjAnLCAnLXRuJywgJzgnLCAnLW1hJywgJzIwMCcsICctbWV0YWxfYmluZGluZycsICctaW1hZScsICc8aW5maWxlLm1hZT4nLCAnLW9tYWUnLCAnPG91dGZpbGUubWFlPic=

> <r_epik_Ionization_Penalty>
2.2313

> <r_epik_Ionization_Penalty_Charging>
0.252156

> <r_epik_Ionization_Penalty_Neutral>
1.97915

> <r_epik_State_Penalty>
2.37644

> <r_epik_Charging_Adjusted_Penalty>
2.62859

> <i_epik_Tot_Q>
1

> <i_epik_Tot_abs_Q>
1

> <r_epik_Metal_State_Penalty>
2.63815

> <b_epik_Metal_Only>
0

> <s_lp_Force_Field>
OPLS_2005

> <r_lp_Energy>
24.1414

> <b_lp_Chiralities_Consistent>
1

> <s_lp_Variant>
AV-unprocessed.smi:1055-5

> <Gold.Version>
5.8.1

> <Gold.Id.Protein>
6NUR|6NUR_protein|mol2

> <Gold.PLP.Fitness>
45.1815

> <Gold.PLP.PLP>
-42.8353

> <Gold.PLP.part.hbond>
-1.0000

> <Gold.PLP.part.metal>
0.0000

> <Gold.PLP.part.buried>
-6.2445

> <Gold.PLP.part.nonpolar>
-34.9748

> <Gold.PLP.part.repulsive>
0.1271

> <Gold.PLP.ligand.clash>
0.0000

> <Gold.PLP.ligand.torsion>
0.3431

> <Gold.PLP.Chemscore.Hbond>
1.0000

> <Gold.PLP.Chemscore.CHOScore>
0.0000

> <Gold.PLP.Chemscore.Metal>
0.0000

> <Gold.Chemscore.Hbonds>
donor molecule, donor type, donor heavy atom, donor atom, acceptor molecule, acceptor atom, score
      P1  H 10752 10764       L1    11  1.00

> <Gold.PLP.Chemscore.Internal.Correction>
0.0324

> <Gold.Rescore>
     Score         DG    S(hbond)    S(metal)    S(lipo)     H(rot)  DE(clash)    DE(int)     intcor
     16.16     -17.95       0.99        0.00     107.15       1.32       0.06       1.72       ----

> <Gold.Chemscore.Fitness>
16.1629

> <Gold.Chemscore.DG>
-17.9486

> <Gold.Chemscore.ZeroCoef>
-5.4800

> <Gold.Chemscore.Hbond>
0.9937

> <Gold.Chemscore.Metal>
0.0000

> <Gold.Chemscore.Lipo>
107.1521

> <Gold.Chemscore.Internal_Hbond>
0.0000

> <Gold.Chemscore.DEClash>
0.0611

> <Gold.Chemscore.DEInternal>
1.7246

> <Gold.Chemscore.Rot>
1.3231

> <Gold.Chemscore.Internal.Correction>
   9.000000E+99

> <Gold.Chemscore.Hbonds>
donor molecule, donor type, donor heavy atom, donor atom, acceptor molecule, acceptor atom, score
      P1  H 10752 10764       L1    11  0.99

> <Gold.Chemscore.Hbond.Weighted>
-3.3190

> <Gold.Chemscore.Metal.Weighted>
-0.0000

> <Gold.Chemscore.Lipo.Weighted>
-12.5368

> <Gold.Chemscore.Internal_Hbond.Weighted>
0.0000

> <Gold.Chemscore.DEClash.Weighted>
0.0611

> <Gold.Chemscore.DEInternal.Weighted>
1.7246

> <Gold.Chemscore.Rot.Weighted>
3.3871

> <Gold.Chemscore.Internal.Correction.Weighted>
   9.000000E+99

> <Gold.Protein.RotatedTorsions>
[ 6907 6896 6895 6894 ] final  -72.56 input  -60.11 | X-H torsion
[ 7974 7965 7964 7962 ] final  164.46 input  175.53 | X-H torsion
[ 8008 7997 7996 7995 ] final    0.95 input   59.86 | X-H torsion
[ 10167 10162 10161 10158 ] final  113.50 input  -65.29 | X-H torsion
[ 10718 10713 10712 10709 ] final   46.70 input   66.30 | X-H torsion
[ 10763 10752 10751 10750 ] final  -47.06 input  -60.55 | X-H torsion
[ 11005 11000 10999 10996 ] final -130.59 input  -57.11 | X-H torsion

> <Gold.Protein.ActiveResidues>
 VAL166  LYS551  ARG553  GLY616  TRP617  ASP618  TYR619  PRO620  LYS621  CYS622 
 ASP623  PHE694  ASN695  SER759  ASP760  ASP761  ALA762  ILE779  LEU786  VAL792 
 PHE793  MET794  SER795  GLU796  ALA797  LYS798  CYS799  TRP800  GLU811  SER814 

> <Gold.Protein.RotatedAtoms>
  150.7165  134.5145  159.5623 H   0  0  0  0  0  0  0  0  0  0  0  0  # atno 6907 bound_to 6896
  152.2714  134.7926  160.0422 H   0  0  0  0  0  0  0  0  0  0  0  0  # atno 6908 bound_to 6896
  151.8604  133.3421  159.3739 H   0  0  0  0  0  0  0  0  0  0  0  0  # atno 6909 bound_to 6896
  144.7544  139.8328  143.6355 H   0  0  0  0  0  0  0  0  0  0  0  0  # atno 7974 bound_to 7965
  154.6741  140.2618  155.6976 H   0  0  0  0  0  0  0  0  0  0  0  0  # atno 8008 bound_to 7997
  156.2671  140.2823  156.1183 H   0  0  0  0  0  0  0  0  0  0  0  0  # atno 8009 bound_to 7997
  155.1126  140.0376  157.2718 H   0  0  0  0  0  0  0  0  0  0  0  0  # atno 8010 bound_to 7997
  139.6456  144.7126  151.2148 H   0  0  0  0  0  0  0  0  0  0  0  0  # atno 10167 bound_to 10162
  157.4509  130.8137  149.7787 H   0  0  0  0  0  0  0  0  0  0  0  0  # atno 10718 bound_to 10713
  154.0551  135.6625  153.4805 H   0  0  0  0  0  0  0  0  0  0  0  0  # atno 10763 bound_to 10752
  153.0448  135.5121  154.7713 H   0  0  0  0  0  0  0  0  0  0  0  0  # atno 10764 bound_to 10752
  154.6732  135.3033  154.9681 H   0  0  0  0  0  0  0  0  0  0  0  0  # atno 10765 bound_to 10752
  140.9333  134.1291  157.4216 H   0  0  0  0  0  0  0  0  0  0  0  0  # atno 11005 bound_to 11000
  146.1537  139.4628  143.0033 LP  0  0  0  0  0  0  0  0  0  0  0  0  # atno 17320 bound_to 7965
  145.6829  141.0186  143.1596 LP  0  0  0  0  0  0  0  0  0  0  0  0  # atno 17321 bound_to 7965
  140.7513  143.6236  150.8490 LP  0  0  0  0  0  0  0  0  0  0  0  0  # atno 17342 bound_to 10162
  139.9878  143.5880  152.2920 LP  0  0  0  0  0  0  0  0  0  0  0  0  # atno 17343 bound_to 10162
  155.9986  130.3893  150.2694 LP  0  0  0  0  0  0  0  0  0  0  0  0  # atno 17370 bound_to 10713
  157.0865  131.0158  151.3137 LP  0  0  0  0  0  0  0  0  0  0  0  0  # atno 17371 bound_to 10713
  139.8801  135.0012  156.6055 LP  0  0  0  0  0  0  0  0  0  0  0  0  # atno 17394 bound_to 11000
  140.7834  133.8641  155.8586 LP  0  0  0  0  0  0  0  0  0  0  0  0  # atno 17395 bound_to 11000

$$$$
