AV-unprocessed.smi:16|AV-procd|sdf|97|dock2
  -GOLD-   2262015243D 1   1.00000     0.00000
 Structure written by MMmdl.
 59 63  0  0  0  0  0  0  0  0  1 V2000
  150.4306  136.4248  155.8267 C   0  0  0  0  0  0  0  0  0  0  0  0
  151.0165  137.8338  155.9986 C   0  0  0  0  0  0  0  0  0  0  0  0
  150.2114  138.6584  156.9034 N   0  0  0  0  0  0  0  0  0  0  0  0
  150.7287  140.0171  157.1153 C   0  0  0  0  0  0  0  0  0  0  0  0
  150.5647  140.9191  155.8743 C   0  0  0  0  0  0  0  0  0  0  0  0
  149.0967  140.9613  155.4371 C   0  0  1  0  0  0  0  0  0  0  0  0
  148.9617  141.7113  154.2344 O   0  0  0  0  0  0  0  0  0  0  0  0
  147.5989  141.8200  153.8334 C   0  0  0  0  0  0  0  0  0  0  0  0
  147.0142  140.4180  153.5866 C   0  0  0  0  0  0  0  0  0  0  0  0
  147.1973  139.5747  154.7632 N   0  0  0  0  0  0  0  0  0  0  0  0
  146.5726  138.3841  154.6243 C   0  0  0  0  0  0  0  0  0  0  0  0
  146.2427  137.7282  155.7638 N   0  0  0  0  0  0  0  0  0  0  0  0
  145.6374  136.5386  155.6984 C   0  0  0  0  0  0  0  0  0  0  0  0
  145.2805  135.8417  154.6173 N   0  0  0  0  0  0  0  0  0  0  0  0
  145.6047  136.5038  153.4695 C   0  0  0  0  0  0  0  0  0  0  0  0
  146.2384  137.7749  153.3812 C   0  0  0  0  0  0  0  0  0  0  0  0
  146.3846  138.1389  152.0479 N   0  0  0  0  0  0  0  0  0  0  0  0
  145.8704  137.1389  151.3861 C   0  0  0  0  0  0  0  0  0  0  0  0
  145.4076  136.0994  152.1609 N   0  0  0  0  0  0  0  0  0  0  0  0
  144.7753  134.8984  151.7010 C   0  0  0  0  0  0  0  0  0  0  0  0
  145.3686  133.5259  152.0257 C   0  0  0  0  0  0  0  0  0  0  0  0
  144.8504  132.9888  150.6724 C   0  0  0  0  0  0  0  0  0  0  0  0
  145.8221  132.0771  149.9056 C   0  0  0  0  0  0  0  0  0  0  0  0
  147.1655  132.3882  150.2147 O   0  0  0  0  0  0  0  0  0  0  0  0
  143.4597  132.3244  150.7173 C   0  0  0  0  0  0  0  0  0  0  0  0
  143.0018  131.9964  149.4212 O   0  0  0  0  0  0  0  0  0  0  0  0
  144.8568  134.4697  150.2339 C   0  0  0  0  0  0  0  0  0  0  0  0
  148.5925  139.5252  155.2033 C   0  0  2  0  0  0  0  0  0  0  0  0
  148.8026  138.6974  156.4975 C   0  0  0  0  0  0  0  0  0  0  0  0
  148.5108  141.4393  156.2252 H   0  0  0  0  0  0  0  0  0  0  0  0
  149.1802  139.0903  154.3956 H   0  0  0  0  0  0  0  0  0  0  0  0
  150.9672  135.8830  155.0478 H   0  0  0  0  0  0  0  0  0  0  0  0
  149.3806  136.4653  155.5353 H   0  0  0  0  0  0  0  0  0  0  0  0
  150.5085  135.8342  156.7391 H   0  0  0  0  0  0  0  0  0  0  0  0
  152.0534  137.7733  156.3273 H   0  0  0  0  0  0  0  0  0  0  0  0
  151.0319  138.3099  155.0175 H   0  0  0  0  0  0  0  0  0  0  0  0
  150.1796  140.4578  157.9484 H   0  0  0  0  0  0  0  0  0  0  0  0
  151.7710  139.9888  157.4299 H   0  0  0  0  0  0  0  0  0  0  0  0
  150.9094  141.9275  156.1044 H   0  0  0  0  0  0  0  0  0  0  0  0
  151.1922  140.5632  155.0570 H   0  0  0  0  0  0  0  0  0  0  0  0
  147.0257  142.3500  154.5958 H   0  0  0  0  0  0  0  0  0  0  0  0
  147.5435  142.4161  152.9224 H   0  0  0  0  0  0  0  0  0  0  0  0
  145.9538  140.4968  153.3428 H   0  0  0  0  0  0  0  0  0  0  0  0
  147.5077  139.9585  152.7288 H   0  0  0  0  0  0  0  0  0  0  0  0
  145.4113  136.0765  156.6480 H   0  0  0  0  0  0  0  0  0  0  0  0
  145.8235  137.1306  150.3068 H   0  0  0  0  0  0  0  0  0  0  0  0
  143.7366  134.9579  152.0306 H   0  0  0  0  0  0  0  0  0  0  0  0
  146.4582  133.5505  152.0876 H   0  0  0  0  0  0  0  0  0  0  0  0
  144.9412  133.0500  152.9089 H   0  0  0  0  0  0  0  0  0  0  0  0
  145.6564  131.0308  150.1639 H   0  0  0  0  0  0  0  0  0  0  0  0
  145.6790  132.1513  148.8275 H   0  0  0  0  0  0  0  0  0  0  0  0
  147.6385  131.5801  150.3437 H   0  0  0  0  0  0  0  0  0  0  0  0
  143.4813  131.4056  151.3036 H   0  0  0  0  0  0  0  0  0  0  0  0
  142.7239  132.9705  151.1965 H   0  0  0  0  0  0  0  0  0  0  0  0
  142.1638  131.5669  149.4992 H   0  0  0  0  0  0  0  0  0  0  0  0
  144.0031  134.7714  149.6262 H   0  0  0  0  0  0  0  0  0  0  0  0
  145.7957  134.7666  149.7623 H   0  0  0  0  0  0  0  0  0  0  0  0
  148.4442  137.6747  156.3762 H   0  0  0  0  0  0  0  0  0  0  0  0
  148.2167  139.1309  157.3092 H   0  0  0  0  0  0  0  0  0  0  0  0
  1  2  1  0  0  0  0
  1 32  1  0  0  0  0
  1 33  1  0  0  0  0
  1 34  1  0  0  0  0
  2  3  1  0  0  0  0
  2 35  1  0  0  0  0
  2 36  1  0  0  0  0
  3 29  1  0  0  0  0
  3  4  1  0  0  0  0
  4  5  1  0  0  0  0
  4 37  1  0  0  0  0
  4 38  1  0  0  0  0
  5  6  1  0  0  0  0
  5 39  1  0  0  0  0
  5 40  1  0  0  0  0
  6 30  1  0  0  0  0
  6 28  1  0  0  0  0
  6  7  1  0  0  0  0
  7  8  1  0  0  0  0
  8  9  1  0  0  0  0
  8 41  1  0  0  0  0
  8 42  1  0  0  0  0
  9 10  1  0  0  0  0
  9 43  1  0  0  0  0
  9 44  1  0  0  0  0
 10 11  1  0  0  0  0
 10 28  1  0  0  0  0
 11 16  1  0  0  0  0
 11 12  2  0  0  0  0
 12 13  1  0  0  0  0
 13 14  2  0  0  0  0
 13 45  1  0  0  0  0
 14 15  1  0  0  0  0
 15 19  1  0  0  0  0
 15 16  2  0  0  0  0
 16 17  1  0  0  0  0
 17 18  2  0  0  0  0
 18 19  1  0  0  0  0
 18 46  1  0  0  0  0
 19 20  1  0  0  0  0
 20 27  1  0  0  0  0
 20 21  1  0  0  0  0
 20 47  1  0  0  0  0
 21 22  1  0  0  0  0
 21 48  1  0  0  0  0
 21 49  1  0  0  0  0
 22 23  1  0  0  0  0
 22 25  1  0  0  0  0
 22 27  1  0  0  0  0
 23 24  1  0  0  0  0
 23 50  1  0  0  0  0
 23 51  1  0  0  0  0
 24 52  1  0  0  0  0
 25 26  1  0  0  0  0
 25 53  1  0  0  0  0
 25 54  1  0  0  0  0
 26 55  1  0  0  0  0
 27 56  1  0  0  0  0
 27 57  1  0  0  0  0
 28 31  1  0  0  0  0
 28 29  1  0  0  0  0
 29 58  1  0  0  0  0
 29 59  1  0  0  0  0
M  END
> <s_m_source_file>
AV-unprocessed.smi

> <i_m_source_file_index>
16

> <i_lp_mmshare_version>
43012

> <i_f3d_flags>
0

> <s_epik_input>
W0NIM11bQ0gyXU4oW0NIMl1bQ0gyXTEpW0NIMl1bQ0BASF0oW0NAQEhdMTIpTihbQ0gyXVtDSDJdTzIpYyhuW2NIXW4zKWMoYzM0KW5bY0hdbjRbQ0hdKFtDSDJdNSlbQ0gyXUM1KFtDSDJdW09IXSlbQ0gyXVtPSF0=

> <s_epik_cmdline>
J2VwaWtfcHl0aG9uJywgJy1waCcsICc3LjAnLCAnLXRuJywgJzgnLCAnLW1hJywgJzIwMCcsICctbWV0YWxfYmluZGluZycsICctaW1hZScsICc8aW5maWxlLm1hZT4nLCAnLW9tYWUnLCAnPG91dGZpbGUubWFlPic=

> <r_lp_tautomer_probability>
1

> <r_epik_Ionization_Penalty>
2.27341

> <r_epik_Ionization_Penalty_Charging>
0

> <r_epik_Ionization_Penalty_Neutral>
2.27341

> <r_epik_State_Penalty>
2.41121

> <r_epik_Charging_Adjusted_Penalty>
2.41121

> <i_epik_Tot_Q>
0

> <i_epik_Tot_abs_Q>
0

> <r_epik_Metal_State_Penalty>
2.40177

> <b_epik_Metal_Only>
0

> <s_lp_Force_Field>
OPLS_2005

> <r_lp_Energy>
55.3921

> <b_lp_Chiralities_Consistent>
1

> <s_lp_Variant>
AV-unprocessed.smi:16-11

> <Gold.Version>
5.8.1

> <Gold.Id.Protein>
6NUR|6NUR_protein|mol2

> <Gold.PLP.Fitness>
49.3596

> <Gold.PLP.PLP>
-41.5255

> <Gold.PLP.part.hbond>
-6.5527

> <Gold.PLP.part.metal>
0.0000

> <Gold.PLP.part.buried>
-1.9613

> <Gold.PLP.part.nonpolar>
-33.7042

> <Gold.PLP.part.repulsive>
0.6572

> <Gold.PLP.ligand.clash>
0.0000

> <Gold.PLP.ligand.torsion>
1.0586

> <Gold.PLP.Chemscore.Hbond>
2.5320

> <Gold.PLP.Chemscore.CHOScore>
0.5681

> <Gold.PLP.Chemscore.Metal>
0.0000

> <Gold.Chemscore.Hbonds>
donor molecule, donor type, donor heavy atom, donor atom, acceptor molecule, acceptor atom, score
      L1  H    24    52       P1 10747  0.89
      L1  H    26    55       P1 10952  1.00
      P1  H  8011  8017       L1     7  0.24
      L1  C    18    46       P1 10171  0.48

> <Gold.PLP.Chemscore.Internal.Correction>
0.6512

> <Gold.Rescore>
     Score         DG    S(hbond)    S(metal)    S(lipo)     H(rot)  DE(clash)    DE(int)     intcor
     10.59     -15.41       2.16        0.00      95.01       3.28       0.95       3.87       ----

> <Gold.Chemscore.Fitness>
10.5939

> <Gold.Chemscore.DG>
-15.4144

> <Gold.Chemscore.ZeroCoef>
-5.4800

> <Gold.Chemscore.Hbond>
2.1584

> <Gold.Chemscore.Metal>
0.0000

> <Gold.Chemscore.Lipo>
95.0102

> <Gold.Chemscore.Internal_Hbond>
0.0000

> <Gold.Chemscore.DEClash>
0.9515

> <Gold.Chemscore.DEInternal>
3.8690

> <Gold.Chemscore.Rot>
3.2776

> <Gold.Chemscore.Internal.Correction>
   9.000000E+99

> <Gold.Chemscore.Hbonds>
donor molecule, donor type, donor heavy atom, donor atom, acceptor molecule, acceptor atom, score
      L1  H    24    52       P1 10747  0.83
      L1  H    26    55       P1 10952  1.00
      P1  H  8011  8017       L1     7  0.03

> <Gold.Chemscore.Hbond.Weighted>
-7.2089

> <Gold.Chemscore.Metal.Weighted>
-0.0000

> <Gold.Chemscore.Lipo.Weighted>
-11.1162

> <Gold.Chemscore.Internal_Hbond.Weighted>
0.0000

> <Gold.Chemscore.DEClash.Weighted>
0.9515

> <Gold.Chemscore.DEInternal.Weighted>
3.8690

> <Gold.Chemscore.Rot.Weighted>
8.3907

> <Gold.Chemscore.Internal.Correction.Weighted>
   9.000000E+99

> <Gold.Protein.RotatedTorsions>
[ 6907 6896 6895 6894 ] final  113.39 input  -60.11 | X-H torsion
[ 7974 7965 7964 7962 ] final  -18.60 input  175.53 | X-H torsion
[ 8008 7997 7996 7995 ] final   87.05 input   59.86 | X-H torsion
[ 10167 10162 10161 10158 ] final  156.41 input  -65.29 | X-H torsion
[ 10718 10713 10712 10709 ] final  -91.80 input   66.30 | X-H torsion
[ 10763 10752 10751 10750 ] final  130.26 input  -60.55 | X-H torsion
[ 11005 11000 10999 10996 ] final -160.24 input  -57.11 | X-H torsion

> <Gold.Protein.ActiveResidues>
 VAL166  LYS551  ARG553  GLY616  TRP617  ASP618  TYR619  PRO620  LYS621  CYS622 
 ASP623  PHE694  ASN695  SER759  ASP760  ASP761  ALA762  ILE779  LEU786  VAL792 
 PHE793  MET794  SER795  GLU796  ALA797  LYS798  CYS799  TRP800  GLU811  SER814 

> <Gold.Protein.RotatedAtoms>
  152.4863  133.8382  159.7138 H   0  0  0  0  0  0  0  0  0  0  0  0  # atno 6907 bound_to 6896
  150.8953  133.7180  159.2900 H   0  0  0  0  0  0  0  0  0  0  0  0  # atno 6908 bound_to 6896
  151.4639  135.1044  159.9785 H   0  0  0  0  0  0  0  0  0  0  0  0  # atno 6909 bound_to 6896
  146.1884  140.3944  142.8467 H   0  0  0  0  0  0  0  0  0  0  0  0  # atno 7974 bound_to 7965
  155.9705  140.3386  155.6571 H   0  0  0  0  0  0  0  0  0  0  0  0  # atno 8008 bound_to 7997
  155.6680  140.0723  157.2548 H   0  0  0  0  0  0  0  0  0  0  0  0  # atno 8009 bound_to 7997
  154.4165  140.1696  156.1836 H   0  0  0  0  0  0  0  0  0  0  0  0  # atno 8010 bound_to 7997
  139.4821  144.5011  151.8167 H   0  0  0  0  0  0  0  0  0  0  0  0  # atno 10167 bound_to 10162
  155.9996  130.4962  150.5530 H   0  0  0  0  0  0  0  0  0  0  0  0  # atno 10718 bound_to 10713
  153.7551  135.3204  155.3328 H   0  0  0  0  0  0  0  0  0  0  0  0  # atno 10763 bound_to 10752
  154.8250  135.4576  154.0893 H   0  0  0  0  0  0  0  0  0  0  0  0  # atno 10764 bound_to 10752
  153.2107  135.6935  153.8200 H   0  0  0  0  0  0  0  0  0  0  0  0  # atno 10765 bound_to 10752
  140.6337  134.4624  157.5230 H   0  0  0  0  0  0  0  0  0  0  0  0  # atno 11005 bound_to 11000
  144.8440  140.6900  143.6211 LP  0  0  0  0  0  0  0  0  0  0  0  0  # atno 17320 bound_to 7965
  145.3869  139.1625  143.4250 LP  0  0  0  0  0  0  0  0  0  0  0  0  # atno 17321 bound_to 7965
  140.4504  144.1863  150.5897 LP  0  0  0  0  0  0  0  0  0  0  0  0  # atno 17342 bound_to 10162
  140.4590  143.2456  151.9245 LP  0  0  0  0  0  0  0  0  0  0  0  0  # atno 17343 bound_to 10162
  157.3450  131.0723  151.1758 LP  0  0  0  0  0  0  0  0  0  0  0  0  # atno 17370 bound_to 10713
  157.2594  130.6651  149.5967 LP  0  0  0  0  0  0  0  0  0  0  0  0  # atno 17371 bound_to 10713
  139.9106  134.8353  156.1542 LP  0  0  0  0  0  0  0  0  0  0  0  0  # atno 17394 bound_to 11000
  141.0657  133.6820  156.2040 LP  0  0  0  0  0  0  0  0  0  0  0  0  # atno 17395 bound_to 11000

$$$$
