#       Name:                AV-unprocessed.smi:763
#       Creating user name   scv26
#       Creation time:       Fri Mar 27 01:04:19 2020


#       File generated by GOLD software.
#

@<TRIPOS>MOLECULE
AV-unprocessed.smi:763
    51    52     1
SMALL
NO_CHARGES


@<TRIPOS>ATOM
      1 ****        -4.4837   3.6457   0.0579 C.3            1 S1                 0.0000
      2 ****        -3.1063   3.9772   0.0589 O.3            1 S1                 0.0000
      3 ****        -2.2727   2.8305   0.0281 C.3            1 S1                 0.0000
      4 ****        -0.8076   3.2743   0.0389 C.3            1 S1                 0.0000
      5 ****         0.0153   2.1127   0.0328 O.3            1 S1                 0.0000
      6 ****         1.3899   2.2651   0.0498 C.ar           1 S1                 0.0000
      7 ****         1.8901   3.5269   0.0504 N.ar           1 S1                 0.0000
      8 ****         3.2271   3.6887   0.0668 C.ar           1 S1                 0.0000
      9 ****         4.1283   2.6116   0.0831 C.ar           1 S1                 0.0000
     10 ****         3.6049   1.3062   0.0825 C.ar           1 S1                 0.0000
     11 ****         2.2030   1.1035   0.0651 C.ar           1 S1                 0.0000
     12 ****         1.6375  -0.1154   0.0623 N.pl3          1 S1                -1.0000
     13 ****         2.4096  -1.5382   0.0710 S.o2           1 S1                 0.0000
     14 ****         3.1877  -1.7381  -1.1615 O.2            1 S1                 0.0000
     15 ****         3.1056  -1.7667   1.3467 O.2            1 S1                 0.0000
     16 ****         0.9922  -2.7434   0.0168 C.3            1 S1                 0.0000
     17 ****         0.1982  -2.6950   1.3398 C.3            1 S1                 0.0000
     18 ****        -0.9880  -3.6708   1.3306 C.3            1 S1                 0.0000
     19 ****        -1.9068  -3.4099   0.1286 C.3            1 S1                 0.0000
     20 ****        -1.1251  -3.5085  -1.1891 C.3            1 S1                 0.0000
     21 ****         0.0719  -2.5395  -1.2144 C.3            1 S1                 0.0000
     22 ****         0.7771  -2.7679  -2.4174 O.3            1 S1                 0.0000
     23 ****        -5.0806   4.5574   0.0833 H              1 S1                 0.0000
     24 ****        -4.7460   3.0475   0.9315 H              1 S1                 0.0000
     25 ****        -4.7551   3.0904  -0.8409 H              1 S1                 0.0000
     26 ****        -2.4750   2.1972   0.8935 H              1 S1                 0.0000
     27 ****        -2.4764   2.2411  -0.8674 H              1 S1                 0.0000
     28 ****        -0.6032   3.8918  -0.8371 H              1 S1                 0.0000
     29 ****        -0.6117   3.8725   0.9303 H              1 S1                 0.0000
     30 ****         3.5886   4.7064   0.0668 H              1 S1                 0.0000
     31 ****         5.1948   2.7802   0.0959 H              1 S1                 0.0000
     32 ****         4.2918   0.4730   0.0960 H              1 S1                 0.0000
     33 ****         1.4471  -3.7318  -0.0563 H              1 S1                 0.0000
     34 ****         0.8525  -2.9278   2.1800 H              1 S1                 0.0000
     35 ****        -0.1737  -1.6846   1.5123 H              1 S1                 0.0000
     36 ****        -0.6190  -4.6967   1.2955 H              1 S1                 0.0000
     37 ****        -1.5533  -3.5763   2.2581 H              1 S1                 0.0000
     38 ****        -2.7292  -4.1256   0.1268 H              1 S1                 0.0000
     39 ****        -2.3557  -2.4197   0.2164 H              1 S1                 0.0000
     40 ****        -0.7737  -4.5331  -1.3203 H              1 S1                 0.0000
     41 ****        -1.7908  -3.3011  -2.0278 H              1 S1                 0.0000
     42 ****        -0.3066  -1.5172  -1.2303 H              1 S1                 0.0000
     43 ****         1.5266  -2.1906  -2.4358 H              1 S1                 0.0000
     44 ****        -2.9026   4.4997   0.8869 LP             1 S1                 0.0000
     45 ****        -2.9106   4.5378  -0.7457 LP             1 S1                 0.0000
     46 ****        -0.2122   1.5966  -0.7930 LP             1 S1                 0.0000
     47 ****        -0.2300   1.5754   0.8398 LP             1 S1                 0.0000
     48 ****         1.2795   4.3187   0.0390 LP             1 S1                 0.0000
     49 ****         0.6380  -0.1469   0.0540 LP             1 S1                 0.0000
     50 ****         0.1835  -2.5767  -3.1990 LP             1 S1                 0.0000
     51 ****         1.0820  -3.7196  -2.4553 LP             1 S1                 0.0000
@<TRIPOS>BOND
    1    1    2 1     
    2    1   23 1     
    3    1   24 1     
    4    1   25 1     
    5    2    3 1     
    6    3    4 1     
    7    3   26 1     
    8    3   27 1     
    9    4    5 1     
   10    4   28 1     
   11    4   29 1     
   12    5    6 1     
   13    6   11 ar    
   14    6    7 ar    
   15    7    8 ar    
   16    8    9 ar    
   17    8   30 1     
   18    9   10 ar    
   19    9   31 1     
   20   10   11 ar    
   21   10   32 1     
   22   11   12 1     
   23   12   13 1     
   24   13   14 2     
   25   13   15 2     
   26   13   16 1     
   27   16   21 1     
   28   16   17 1     
   29   16   33 1     
   30   17   18 1     
   31   17   34 1     
   32   17   35 1     
   33   18   19 1     
   34   18   36 1     
   35   18   37 1     
   36   19   20 1     
   37   19   38 1     
   38   19   39 1     
   39   20   21 1     
   40   20   40 1     
   41   20   41 1     
   42   21   22 1     
   43   21   42 1     
   44   22   43 1     
   45    2   44 1     
   46    2   45 1     
   47    5   46 1     
   48    5   47 1     
   49    7   48 1     
   50   12   49 1     
   51   22   50 1     
   52   22   51 1     
@<TRIPOS>SUBSTRUCTURE
      1 S1             1
@<TRIPOS>SET
LONE_PAIRS      STATIC     ATOMS    <user>   **** ""
10 44 45 46 47 48 49 14 15 50 51
DONOR_HYDROGENS      STATIC     ATOMS    <user>   **** ""
1 43
ATOM$BLUE        STATIC     ATOMS    COLORGROUP SYSTEM
10 44 45 46 47 48 49 14 15 50 51
ATOM$RED        STATIC     ATOMS    COLORGROUP SYSTEM
1 43
