AV-unprocessed.smi:3246|AV-procd|sdf|12410|dock4
  -GOLD-   2272018293D 1   1.00000     0.00000
 Structure written by MMmdl.
 35 36  0  0  0  0  0  0  0  0  1 V2000
  149.2743  143.0174  159.0983 O   0  0  0  0  0  0  0  0  0  0  0  0
  150.2312  143.1195  158.3315 C   0  0  0  0  0  0  0  0  0  0  0  0
  151.4546  143.9390  158.7744 C   0  0  0  0  0  0  0  0  0  0  0  0
  152.0307  143.5460  160.0632 N   0  0  0  0  0  0  0  0  0  0  0  0
  152.0425  144.4730  161.1830 C   0  0  0  0  0  0  0  0  0  0  0  0
  152.4989  143.6368  162.3871 C   0  0  0  0  0  0  0  0  0  0  0  0
  153.0724  142.3420  161.8014 C   0  0  0  0  0  0  0  0  0  0  0  0
  152.5989  142.3699  160.3582 C   0  0  0  0  0  0  0  0  0  0  0  0
  152.7290  141.4157  159.5935 O   0  0  0  0  0  0  0  0  0  0  0  0
  150.2545  142.5388  157.1195 N   0  0  0  0  0  0  0  0  0  0  0  0
  149.1815  141.7315  156.5530 C   0  0  0  0  0  0  0  0  0  0  0  0
  149.6238  141.0339  155.2570 C   0  0  0  0  0  0  0  0  0  0  0  0
  150.5252  139.8461  155.5296 C   0  0  0  0  0  0  0  0  0  0  0  0
  150.2848  138.5973  154.9203 C   0  0  0  0  0  0  0  0  0  0  0  0
  151.1486  137.5238  155.2112 C   0  0  0  0  0  0  0  0  0  0  0  0
  152.2184  137.7458  156.1014 C   0  0  0  0  0  0  0  0  0  0  0  0
  152.4576  138.9372  156.6910 N   0  0  0  0  0  0  0  0  0  0  0  0
  151.6246  139.9615  156.4066 C   0  0  0  0  0  0  0  0  0  0  0  0
  152.2187  143.8708  157.9982 H   0  0  0  0  0  0  0  0  0  0  0  0
  151.1636  144.9891  158.8204 H   0  0  0  0  0  0  0  0  0  0  0  0
  152.7487  145.2782  160.9759 H   0  0  0  0  0  0  0  0  0  0  0  0
  151.0581  144.9137  161.3456 H   0  0  0  0  0  0  0  0  0  0  0  0
  153.2305  144.1701  162.9949 H   0  0  0  0  0  0  0  0  0  0  0  0
  151.6463  143.4067  163.0275 H   0  0  0  0  0  0  0  0  0  0  0  0
  154.1625  142.3417  161.8248 H   0  0  0  0  0  0  0  0  0  0  0  0
  152.7095  141.4565  162.3239 H   0  0  0  0  0  0  0  0  0  0  0  0
  151.0751  142.6732  156.5466 H   0  0  0  0  0  0  0  0  0  0  0  0
  148.8374  140.9997  157.2859 H   0  0  0  0  0  0  0  0  0  0  0  0
  148.3360  142.3897  156.3509 H   0  0  0  0  0  0  0  0  0  0  0  0
  148.7508  140.6996  154.6946 H   0  0  0  0  0  0  0  0  0  0  0  0
  150.1555  141.7345  154.6115 H   0  0  0  0  0  0  0  0  0  0  0  0
  149.4538  138.4619  154.2439 H   0  0  0  0  0  0  0  0  0  0  0  0
  150.9953  136.5532  154.7632 H   0  0  0  0  0  0  0  0  0  0  0  0
  152.9002  136.9448  156.3462 H   0  0  0  0  0  0  0  0  0  0  0  0
  151.8405  140.9002  156.8958 H   0  0  0  0  0  0  0  0  0  0  0  0
  1  2  2  0  0  0  0
  2  3  1  0  0  0  0
  2 10  1  0  0  0  0
  3  4  1  0  0  0  0
  3 19  1  0  0  0  0
  3 20  1  0  0  0  0
  4  8  1  0  0  0  0
  4  5  1  0  0  0  0
  5  6  1  0  0  0  0
  5 21  1  0  0  0  0
  5 22  1  0  0  0  0
  6  7  1  0  0  0  0
  6 23  1  0  0  0  0
  6 24  1  0  0  0  0
  7  8  1  0  0  0  0
  7 25  1  0  0  0  0
  7 26  1  0  0  0  0
  8  9  2  0  0  0  0
 10 11  1  0  0  0  0
 10 27  1  0  0  0  0
 11 12  1  0  0  0  0
 11 28  1  0  0  0  0
 11 29  1  0  0  0  0
 12 13  1  0  0  0  0
 12 30  1  0  0  0  0
 12 31  1  0  0  0  0
 13 18  1  0  0  0  0
 13 14  2  0  0  0  0
 14 15  1  0  0  0  0
 14 32  1  0  0  0  0
 15 16  2  0  0  0  0
 15 33  1  0  0  0  0
 16 17  1  0  0  0  0
 16 34  1  0  0  0  0
 17 18  2  0  0  0  0
 18 35  1  0  0  0  0
M  END
> <s_m_source_file>
AV-unprocessed.smi

> <i_m_source_file_index>
3246

> <i_lp_mmshare_version>
43012

> <i_f3d_flags>
0

> <s_epik_input>
Tz1DMVtDSDJdW0NIMl1bQ0gyXU4xW0NIMl1DKD1PKVtOSF1bQ0gyXVtDSDJdYzJbY0hdW2NIXVtjSF1uW2NIXTI=

> <s_epik_cmdline>
J2VwaWtfcHl0aG9uJywgJy1waCcsICc3LjAnLCAnLXRuJywgJzgnLCAnLW1hJywgJzIwMCcsICctbWV0YWxfYmluZGluZycsICctaW1hZScsICc8aW5maWxlLm1hZT4nLCAnLW9tYWUnLCAnPG91dGZpbGUubWFlPic=

> <r_epik_Ionization_Penalty>
0.0129263

> <r_epik_Ionization_Penalty_Charging>
0

> <r_epik_Ionization_Penalty_Neutral>
0.0129263

> <r_epik_State_Penalty>
0.0100328

> <r_epik_Charging_Adjusted_Penalty>
0.0100328

> <i_epik_Tot_Q>
0

> <i_epik_Tot_abs_Q>
0

> <r_epik_Metal_State_Penalty>
0.00981748

> <b_epik_Metal_Only>
0

> <s_lp_Force_Field>
OPLS_2005

> <r_lp_Energy>
11.4517

> <b_lp_Chiralities_Consistent>
1

> <s_lp_Variant>
AV-unprocessed.smi:3246-1

> <Gold.Version>
5.8.1

> <Gold.Id.Protein>
6NUR|6NUR_protein|mol2

> <Gold.PLP.Fitness>
48.5621

> <Gold.PLP.PLP>
-46.0611

> <Gold.PLP.part.hbond>
-3.0000

> <Gold.PLP.part.metal>
0.0000

> <Gold.PLP.part.buried>
-4.0235

> <Gold.PLP.part.nonpolar>
-40.0040

> <Gold.PLP.part.repulsive>
0.1105

> <Gold.PLP.ligand.clash>
0.0000

> <Gold.PLP.ligand.torsion>
0.2690

> <Gold.PLP.Chemscore.Hbond>
1.0047

> <Gold.PLP.Chemscore.CHOScore>
0.0000

> <Gold.PLP.Chemscore.Metal>
0.0000

> <Gold.Chemscore.Hbonds>
donor molecule, donor type, donor heavy atom, donor atom, acceptor molecule, acceptor atom, score
      P1  H  7997  8010       L1    17  0.33

> <Gold.PLP.Chemscore.Internal.Correction>
0.0250

> <Gold.Rescore>
     Score         DG    S(hbond)    S(metal)    S(lipo)     H(rot)  DE(clash)    DE(int)     intcor
     14.00     -14.32       0.82        0.00      92.60       1.85       0.02       0.30       ----

> <Gold.Chemscore.Fitness>
14.0004

> <Gold.Chemscore.DG>
-14.3177

> <Gold.Chemscore.ZeroCoef>
-5.4800

> <Gold.Chemscore.Hbond>
0.8198

> <Gold.Chemscore.Metal>
0.0000

> <Gold.Chemscore.Lipo>
92.5988

> <Gold.Chemscore.Internal_Hbond>
0.0000

> <Gold.Chemscore.DEClash>
0.0195

> <Gold.Chemscore.DEInternal>
0.2979

> <Gold.Chemscore.Rot>
1.8494

> <Gold.Chemscore.Internal.Correction>
   9.000000E+99

> <Gold.Chemscore.Hbonds>
donor molecule, donor type, donor heavy atom, donor atom, acceptor molecule, acceptor atom, score
      P1  H  7997  8010       L1    17  0.04

> <Gold.Chemscore.Hbond.Weighted>
-2.7381

> <Gold.Chemscore.Metal.Weighted>
-0.0000

> <Gold.Chemscore.Lipo.Weighted>
-10.8341

> <Gold.Chemscore.Internal_Hbond.Weighted>
0.0000

> <Gold.Chemscore.DEClash.Weighted>
0.0195

> <Gold.Chemscore.DEInternal.Weighted>
0.2979

> <Gold.Chemscore.Rot.Weighted>
4.7344

> <Gold.Chemscore.Internal.Correction.Weighted>
   9.000000E+99

> <Gold.Protein.RotatedTorsions>
[ 6907 6896 6895 6894 ] final  -99.84 input  -60.11 | X-H torsion
[ 7974 7965 7964 7962 ] final   24.86 input  175.53 | X-H torsion
[ 8008 7997 7996 7995 ] final   79.50 input   59.86 | X-H torsion
[ 10167 10162 10161 10158 ] final   38.20 input  -65.29 | X-H torsion
[ 10718 10713 10712 10709 ] final  -73.05 input   66.30 | X-H torsion
[ 10763 10752 10751 10750 ] final  -37.57 input  -60.55 | X-H torsion
[ 11005 11000 10999 10996 ] final  107.57 input  -57.11 | X-H torsion

> <Gold.Protein.ActiveResidues>
 VAL166  LYS551  ARG553  GLY616  TRP617  ASP618  TYR619  PRO620  LYS621  CYS622 
 ASP623  PHE694  ASN695  SER759  ASP760  ASP761  ALA762  ILE779  LEU786  VAL792 
 PHE793  MET794  SER795  GLU796  ALA797  LYS798  CYS799  TRP800  GLU811  SER814 

> <Gold.Protein.RotatedAtoms>
  150.7094  134.0979  159.3954 H   0  0  0  0  0  0  0  0  0  0  0  0  # atno 6907 bound_to 6896
  151.8965  135.0393  160.0512 H   0  0  0  0  0  0  0  0  0  0  0  0  # atno 6908 bound_to 6896
  152.2449  133.5131  159.5328 H   0  0  0  0  0  0  0  0  0  0  0  0  # atno 6909 bound_to 6896
  146.1917  139.7545  142.8827 H   0  0  0  0  0  0  0  0  0  0  0  0  # atno 7974 bound_to 7965
  155.8705  140.3449  155.5818 H   0  0  0  0  0  0  0  0  0  0  0  0  # atno 8008 bound_to 7997
  155.7833  140.0861  157.2067 H   0  0  0  0  0  0  0  0  0  0  0  0  # atno 8009 bound_to 7997
  154.4017  140.1497  156.3064 H   0  0  0  0  0  0  0  0  0  0  0  0  # atno 8010 bound_to 7997
  140.3959  144.1789  150.6132 H   0  0  0  0  0  0  0  0  0  0  0  0  # atno 10167 bound_to 10162
  156.0296  130.4385  150.2684 H   0  0  0  0  0  0  0  0  0  0  0  0  # atno 10718 bound_to 10713
  153.8986  135.6805  153.4756 H   0  0  0  0  0  0  0  0  0  0  0  0  # atno 10763 bound_to 10752
  153.1142  135.4769  154.9084 H   0  0  0  0  0  0  0  0  0  0  0  0  # atno 10764 bound_to 10752
  154.7587  135.3204  154.8375 H   0  0  0  0  0  0  0  0  0  0  0  0  # atno 10765 bound_to 10752
  139.8830  134.9405  156.5839 H   0  0  0  0  0  0  0  0  0  0  0  0  # atno 11005 bound_to 11000
  145.3772  141.0352  143.3197 LP  0  0  0  0  0  0  0  0  0  0  0  0  # atno 17320 bound_to 7965
  144.8499  139.5338  143.6861 LP  0  0  0  0  0  0  0  0  0  0  0  0  # atno 17321 bound_to 7965
  140.4790  143.2385  151.8981 LP  0  0  0  0  0  0  0  0  0  0  0  0  # atno 17342 bound_to 10162
  139.4786  144.5289  151.8695 LP  0  0  0  0  0  0  0  0  0  0  0  0  # atno 17343 bound_to 10162
  157.0786  131.0137  151.3164 LP  0  0  0  0  0  0  0  0  0  0  0  0  # atno 17370 bound_to 10713
  157.4944  130.7842  149.7541 LP  0  0  0  0  0  0  0  0  0  0  0  0  # atno 17371 bound_to 10713
  140.8006  133.8508  155.8723 LP  0  0  0  0  0  0  0  0  0  0  0  0  # atno 17394 bound_to 11000
  140.9596  134.1673  157.4664 LP  0  0  0  0  0  0  0  0  0  0  0  0  # atno 17395 bound_to 11000

$$$$
