AV-unprocessed.smi:2083|AV-procd|sdf|8505|dock8
  -GOLD-   2272011213D 1   1.00000     0.00000
 Structure written by MMmdl.
 44 45  0  0  0  0  0  0  0  0  3 V2000
  149.1066  140.9032  154.0015 C   0  0  0  0  0  0  0  0  0  0  0  0
  149.9945  139.7380  154.2771 C   0  0  0  0  0  0  0  0  0  0  0  0
  149.7495  138.4050  154.4469 C   0  0  0  0  0  0  0  0  0  0  0  0
  151.0430  137.8642  154.6828 C   0  0  0  0  0  0  0  0  0  0  0  0
  151.3299  136.5711  154.8977 N   0  5  0  0  0  0  0  0  0  0  0  0
  150.3548  135.7093  155.2646 C   0  0  0  0  0  0  0  0  0  0  0  0
  149.9609  135.4939  156.4132 O   0  0  0  0  0  0  0  0  0  0  0  0
  149.7939  135.0607  154.2340 N   0  0  0  0  0  0  0  0  0  0  0  0
  148.7037  134.0941  154.3264 C   0  0  0  0  0  0  0  0  0  0  0  0
  149.1409  132.6537  153.9371 C   0  0  1  0  0  0  0  0  0  0  0  0
  150.0706  132.0634  155.0207 C   0  0  0  0  0  0  0  0  0  0  0  0
  148.0062  131.7079  153.6773 N   0  3  2  0  0  0  0  0  0  0  0  0
  148.4779  130.2996  153.5499 C   0  0  0  0  0  0  0  0  0  0  0  0
  147.3039  129.3116  153.4974 C   0  0  0  0  0  0  0  0  0  0  0  0
  146.3665  129.6479  152.3344 C   0  0  0  0  0  0  0  0  0  0  0  0
  145.8931  131.1044  152.4491 C   0  0  2  0  0  0  0  0  0  0  0  0
  144.9676  131.4840  151.2843 C   0  0  0  0  0  0  0  0  0  0  0  0
  147.0976  132.0643  152.5477 C   0  0  0  0  0  0  0  0  0  0  0  0
  151.9913  138.7851  154.6427 N   0  0  0  0  0  0  0  0  0  0  0  0
  151.3265  139.9908  154.3887 O   0  0  0  0  0  0  0  0  0  0  0  0
  148.6640  140.8239  153.0086 H   0  0  0  0  0  0  0  0  0  0  0  0
  149.6608  141.8408  154.0513 H   0  0  0  0  0  0  0  0  0  0  0  0
  148.2973  140.9514  154.7300 H   0  0  0  0  0  0  0  0  0  0  0  0
  148.7976  137.8971  154.4113 H   0  0  0  0  0  0  0  0  0  0  0  0
  150.1508  135.2626  153.3113 H   0  0  0  0  0  0  0  0  0  0  0  0
  148.3328  134.1118  155.3517 H   0  0  0  0  0  0  0  0  0  0  0  0
  147.8939  134.4534  153.6898 H   0  0  0  0  0  0  0  0  0  0  0  0
  149.7095  132.7355  153.0095 H   0  0  0  0  0  0  0  0  0  0  0  0
  150.9532  132.6836  155.1773 H   0  0  0  0  0  0  0  0  0  0  0  0
  150.4389  131.0723  154.7610 H   0  0  0  0  0  0  0  0  0  0  0  0
  149.5535  131.9810  155.9770 H   0  0  0  0  0  0  0  0  0  0  0  0
  149.0851  130.2017  152.6482 H   0  0  0  0  0  0  0  0  0  0  0  0
  149.1209  130.0278  154.3853 H   0  0  0  0  0  0  0  0  0  0  0  0
  147.6791  128.2935  153.3888 H   0  0  0  0  0  0  0  0  0  0  0  0
  146.7537  129.3412  154.4390 H   0  0  0  0  0  0  0  0  0  0  0  0
  146.8857  129.4962  151.3869 H   0  0  0  0  0  0  0  0  0  0  0  0
  145.5127  128.9691  152.3364 H   0  0  0  0  0  0  0  0  0  0  0  0
  145.3149  131.1978  153.3698 H   0  0  0  0  0  0  0  0  0  0  0  0
  145.4859  131.4153  150.3273 H   0  0  0  0  0  0  0  0  0  0  0  0
  144.5998  132.5050  151.3909 H   0  0  0  0  0  0  0  0  0  0  0  0
  144.0998  130.8253  151.2413 H   0  0  0  0  0  0  0  0  0  0  0  0
  146.6917  133.0654  152.6884 H   0  0  0  0  0  0  0  0  0  0  0  0
  147.6614  132.0688  151.6133 H   0  0  0  0  0  0  0  0  0  0  0  0
  147.4284  131.7468  154.5045 H   0  0  0  0  0  0  0  0  0  0  0  0
  1  2  1  0  0  0  0
  1 21  1  0  0  0  0
  1 22  1  0  0  0  0
  1 23  1  0  0  0  0
  2 20  1  0  0  0  0
  2  3  2  0  0  0  0
  3  4  1  0  0  0  0
  3 24  1  0  0  0  0
  4  5  1  0  0  0  0
  4 19  2  0  0  0  0
  5  6  1  0  0  0  0
  6  7  2  0  0  0  0
  6  8  1  0  0  0  0
  8  9  1  0  0  0  0
  8 25  1  0  0  0  0
  9 10  1  0  0  0  0
  9 26  1  0  0  0  0
  9 27  1  0  0  0  0
 10 11  1  0  0  0  0
 10 12  1  0  0  0  0
 10 28  1  0  0  0  0
 11 29  1  0  0  0  0
 11 30  1  0  0  0  0
 11 31  1  0  0  0  0
 12 18  1  0  0  0  0
 12 13  1  0  0  0  0
 12 44  1  0  0  0  0
 13 14  1  0  0  0  0
 13 32  1  0  0  0  0
 13 33  1  0  0  0  0
 14 15  1  0  0  0  0
 14 34  1  0  0  0  0
 14 35  1  0  0  0  0
 15 16  1  0  0  0  0
 15 36  1  0  0  0  0
 15 37  1  0  0  0  0
 16 17  1  0  0  0  0
 16 18  1  0  0  0  0
 16 38  1  0  0  0  0
 17 39  1  0  0  0  0
 17 40  1  0  0  0  0
 17 41  1  0  0  0  0
 18 42  1  0  0  0  0
 18 43  1  0  0  0  0
 19 20  1  0  0  0  0
M  CHG  1   5  -1
M  CHG  1  12   1
M  END
> <s_m_source_file>
AV-unprocessed.smi

> <i_m_source_file_index>
2083

> <i_lp_mmshare_version>
43012

> <i_f3d_flags>
0

> <s_epik_input>
W0NIM11jMVtjSF1jKG5vMSlbTkhdQyg9TylbTkhdW0NIMl1bQ0BIXShbQ0gzXSlOMltDSDJdW0NIMl1bQ0gyXVtDQEBIXShbQ0gzXSlbQ0gyXTI=

> <s_epik_cmdline>
J2VwaWtfcHl0aG9uJywgJy1waCcsICc3LjAnLCAnLXRuJywgJzgnLCAnLW1hJywgJzIwMCcsICctbWV0YWxfYmluZGluZycsICctaW1hZScsICc8aW5maWxlLm1hZT4nLCAnLW9tYWUnLCAnPG91dGZpbGUubWFlPic=

> <r_epik_Ionization_Penalty>
6.22434

> <r_epik_Ionization_Penalty_Charging>
6.22425

> <r_epik_Ionization_Penalty_Neutral>
9.62407e-05

> <r_epik_State_Penalty>
6.22423

> <r_epik_Charging_Adjusted_Penalty>
12.4485

> <i_epik_Tot_Q>
0

> <i_epik_Tot_abs_Q>
2

> <r_epik_Metal_State_Penalty>
2.16764

> <b_epik_Metal_Only>
1

> <s_lp_Force_Field>
OPLS_2005

> <r_lp_Energy>
9.644

> <b_lp_Chiralities_Consistent>
1

> <s_lp_Variant>
AV-unprocessed.smi:2083-16

> <Gold.Version>
5.8.1

> <Gold.Id.Protein>
6NUR|6NUR_protein|mol2

> <Gold.PLP.Fitness>
43.9932

> <Gold.PLP.PLP>
-36.8603

> <Gold.PLP.part.hbond>
-3.1474

> <Gold.PLP.part.metal>
0.0000

> <Gold.PLP.part.buried>
-4.9762

> <Gold.PLP.part.nonpolar>
-28.9506

> <Gold.PLP.part.repulsive>
0.2943

> <Gold.PLP.ligand.clash>
0.0000

> <Gold.PLP.ligand.torsion>
1.0072

> <Gold.PLP.Chemscore.Hbond>
3.0000

> <Gold.PLP.Chemscore.CHOScore>
0.0000

> <Gold.PLP.Chemscore.Metal>
0.0000

> <Gold.Chemscore.Hbonds>
donor molecule, donor type, donor heavy atom, donor atom, acceptor molecule, acceptor atom, score
      P1  H  7989  7998       L1    20  0.39
      P1  H 10752 10763       L1     5  1.92

> <Gold.PLP.Chemscore.Internal.Correction>
0.1474

> <Gold.Rescore>
     Score         DG    S(hbond)    S(metal)    S(lipo)     H(rot)  DE(clash)    DE(int)     intcor
     15.75     -16.76       1.86        0.00      76.57       1.52       0.01       1.00       ----

> <Gold.Chemscore.Fitness>
15.7542

> <Gold.Chemscore.DG>
-16.7636

> <Gold.Chemscore.ZeroCoef>
-5.4800

> <Gold.Chemscore.Hbond>
1.8603

> <Gold.Chemscore.Metal>
0.0000

> <Gold.Chemscore.Lipo>
76.5710

> <Gold.Chemscore.Internal_Hbond>
0.0000

> <Gold.Chemscore.DEClash>
0.0060

> <Gold.Chemscore.DEInternal>
1.0034

> <Gold.Chemscore.Rot>
1.5190

> <Gold.Chemscore.Internal.Correction>
   9.000000E+99

> <Gold.Chemscore.Hbonds>
donor molecule, donor type, donor heavy atom, donor atom, acceptor molecule, acceptor atom, score
      P1  H  7989  7998       L1    20  0.26
      P1  H 10752 10763       L1     5  0.49

> <Gold.Chemscore.Hbond.Weighted>
-6.2135

> <Gold.Chemscore.Metal.Weighted>
-0.0000

> <Gold.Chemscore.Lipo.Weighted>
-8.9588

> <Gold.Chemscore.Internal_Hbond.Weighted>
0.0000

> <Gold.Chemscore.DEClash.Weighted>
0.0060

> <Gold.Chemscore.DEInternal.Weighted>
1.0034

> <Gold.Chemscore.Rot.Weighted>
3.8886

> <Gold.Chemscore.Internal.Correction.Weighted>
   9.000000E+99

> <Gold.Protein.RotatedTorsions>
[ 6907 6896 6895 6894 ] final  -18.16 input  -60.11 | X-H torsion
[ 7974 7965 7964 7962 ] final  -60.90 input  175.53 | X-H torsion
[ 8008 7997 7996 7995 ] final  150.21 input   59.86 | X-H torsion
[ 10167 10162 10161 10158 ] final  163.26 input  -65.29 | X-H torsion
[ 10718 10713 10712 10709 ] final  114.44 input   66.30 | X-H torsion
[ 10763 10752 10751 10750 ] final   78.92 input  -60.55 | X-H torsion
[ 11005 11000 10999 10996 ] final  103.65 input  -57.11 | X-H torsion

> <Gold.Protein.ActiveResidues>
 VAL166  LYS551  ARG553  GLY616  TRP617  ASP618  TYR619  PRO620  LYS621  CYS622 
 ASP623  PHE694  ASN695  SER759  ASP760  ASP761  ALA762  ILE779  LEU786  VAL792 
 PHE793  MET794  SER795  GLU796  ALA797  LYS798  CYS799  TRP800  GLU811  SER814 

> <Gold.Protein.RotatedAtoms>
  151.2824  135.0718  159.9173 H   0  0  0  0  0  0  0  0  0  0  0  0  # atno 6907 bound_to 6896
  152.5331  134.0017  159.7908 H   0  0  0  0  0  0  0  0  0  0  0  0  # atno 6908 bound_to 6896
  151.0273  133.5771  159.2695 H   0  0  0  0  0  0  0  0  0  0  0  0  # atno 6909 bound_to 6896
  145.8100  140.8604  143.0187 H   0  0  0  0  0  0  0  0  0  0  0  0  # atno 7974 bound_to 7965
  156.2724  140.2081  156.5982 H   0  0  0  0  0  0  0  0  0  0  0  0  # atno 8008 bound_to 7997
  154.6928  140.0528  157.0404 H   0  0  0  0  0  0  0  0  0  0  0  0  # atno 8009 bound_to 7997
  155.0842  140.3190  155.4595 H   0  0  0  0  0  0  0  0  0  0  0  0  # atno 8010 bound_to 7997
  139.4871  144.4355  151.9017 H   0  0  0  0  0  0  0  0  0  0  0  0  # atno 10167 bound_to 10162
  157.6281  131.0998  150.7186 H   0  0  0  0  0  0  0  0  0  0  0  0  # atno 10718 bound_to 10713
  153.0912  135.4859  154.8693 H   0  0  0  0  0  0  0  0  0  0  0  0  # atno 10763 bound_to 10752
  154.7271  135.3052  154.8955 H   0  0  0  0  0  0  0  0  0  0  0  0  # atno 10764 bound_to 10752
  153.9602  135.6813  153.4798 H   0  0  0  0  0  0  0  0  0  0  0  0  # atno 10765 bound_to 10752
  139.8785  134.9271  156.5241 H   0  0  0  0  0  0  0  0  0  0  0  0  # atno 11005 bound_to 11000
  144.6758  140.0382  143.7481 LP  0  0  0  0  0  0  0  0  0  0  0  0  # atno 17320 bound_to 7965
  145.9787  139.2925  143.1055 LP  0  0  0  0  0  0  0  0  0  0  0  0  # atno 17321 bound_to 7965
  140.3805  144.2743  150.5909 LP  0  0  0  0  0  0  0  0  0  0  0  0  # atno 17342 bound_to 10162
  140.5238  143.2259  151.8347 LP  0  0  0  0  0  0  0  0  0  0  0  0  # atno 17343 bound_to 10162
  156.7531  130.4775  149.5452 LP  0  0  0  0  0  0  0  0  0  0  0  0  # atno 17370 bound_to 10713
  156.1466  130.6281  151.0539 LP  0  0  0  0  0  0  0  0  0  0  0  0  # atno 17371 bound_to 10713
  140.8429  133.8191  155.9092 LP  0  0  0  0  0  0  0  0  0  0  0  0  # atno 17394 bound_to 11000
  140.9220  134.2130  157.4920 LP  0  0  0  0  0  0  0  0  0  0  0  0  # atno 17395 bound_to 11000

$$$$
