#       Name:                AV-unprocessed.smi:3348
#       Creating user name   scv26
#       Creation time:       Fri Mar 27 19:35:22 2020


#       File generated by GOLD software.
#

@<TRIPOS>MOLECULE
AV-unprocessed.smi:3348
    50    51     1
SMALL
NO_CHARGES


@<TRIPOS>ATOM
      1 ****        -1.6453   2.3640   2.4625 C.3            1 S1                 0.0000
      2 ****        -0.5410   2.3682   1.3914 C.3            1 S1                 0.0000
      3 ****        -1.0627   2.8088   0.0015 C.3            1 S1                 0.0000
      4 ****        -1.7633   4.0804   0.0320 N.pl3          1 S1                 0.0000
      5 ****        -3.1030   4.3283  -0.1832 C.2            1 S1                 0.0000
      6 ****        -3.2914   5.6753  -0.0610 C.2            1 S1                 0.0000
      7 ****        -1.9901   6.1737   0.2279 C.2            1 S1                 0.0000
      8 ****        -1.0770   5.2175   0.2787 N.2            1 S1                 0.0000
      9 ****         0.0859   1.0436   1.3451 N.3            1 S1                 0.0000
     10 ****         1.2764   0.9384   0.5016 C.3            1 S1                 0.0000
     11 ****         1.9371  -0.4355   0.6539 C.3            1 S1                 0.0000
     12 ****         1.1464  -1.3986  -0.0265 O.3            1 S1                 0.0000
     13 ****         1.6555  -2.7273   0.0213 C.3            1 S1                 0.0000
     14 ****         2.7057  -2.9401  -1.0900 C.3            1 S1                 0.0000
     15 ****         2.0822  -2.8298  -2.4913 C.3            1 S1                 0.0000
     16 ****         0.9032  -3.8012  -2.6541 C.3            1 S1                 0.0000
     17 ****        -0.1486  -3.5943  -1.5525 C.3            1 S1                 0.0000
     18 ****         0.4749  -3.7098  -0.1468 C.3            1 S1                 0.0000
     19 ****        -0.5763  -3.5420   0.9614 C.3            1 S1                 0.0000
     20 ****        -2.0641   3.3590   2.6134 H              1 S1                 0.0000
     21 ****        -1.2565   2.0320   3.4258 H              1 S1                 0.0000
     22 ****        -2.4624   1.6967   2.1856 H              1 S1                 0.0000
     23 ****         0.2088   3.0922   1.7130 H              1 S1                 0.0000
     24 ****        -0.2447   2.9057  -0.7126 H              1 S1                 0.0000
     25 ****        -1.7407   2.0546  -0.4003 H              1 S1                 0.0000
     26 ****        -3.8026   3.5347  -0.4008 H              1 S1                 0.0000
     27 ****        -4.2171   6.2218  -0.1636 H              1 S1                 0.0000
     28 ****        -1.6835   7.1950   0.3995 H              1 S1                 0.0000
     29 ****         0.3113   0.7417   2.2875 H              1 S1                 0.0000
     30 ****         1.0374   1.1124  -0.5473 H              1 S1                 0.0000
     31 ****         1.9943   1.7055   0.7937 H              1 S1                 0.0000
     32 ****         2.9362  -0.4005   0.2198 H              1 S1                 0.0000
     33 ****         2.0486  -0.6955   1.7079 H              1 S1                 0.0000
     34 ****         2.1155  -2.9112   0.9942 H              1 S1                 0.0000
     35 ****         3.5266  -2.2304  -0.9918 H              1 S1                 0.0000
     36 ****         3.1514  -3.9290  -0.9753 H              1 S1                 0.0000
     37 ****         1.7409  -1.8077  -2.6609 H              1 S1                 0.0000
     38 ****         2.8380  -3.0328  -3.2507 H              1 S1                 0.0000
     39 ****         0.4452  -3.6691  -3.6349 H              1 S1                 0.0000
     40 ****         1.2695  -4.8281  -2.6204 H              1 S1                 0.0000
     41 ****        -0.6149  -2.6153  -1.6721 H              1 S1                 0.0000
     42 ****        -0.9454  -4.3296  -1.6684 H              1 S1                 0.0000
     43 ****         0.8761  -4.7199  -0.0510 H              1 S1                 0.0000
     44 ****        -1.0441  -2.5577   0.9227 H              1 S1                 0.0000
     45 ****        -0.1277  -3.6584   1.9484 H              1 S1                 0.0000
     46 ****        -1.3659  -4.2879   0.8686 H              1 S1                 0.0000
     47 ****        -0.0982   5.3148   0.4592 LP             1 S1                 0.0000
     48 ****        -0.5932   0.4474   0.9169 LP             1 S1                 0.0000
     49 ****         1.0795  -1.1249  -0.9861 LP             1 S1                 0.0000
     50 ****         0.2347  -1.3994   0.3842 LP             1 S1                 0.0000
@<TRIPOS>BOND
    1    1    2 1     
    2    1   20 1     
    3    1   21 1     
    4    1   22 1     
    5    2    3 1     
    6    2    9 1     
    7    2   23 1     
    8    3    4 1     
    9    3   24 1     
   10    3   25 1     
   11    4    8 1     
   12    4    5 1     
   13    5    6 2     
   14    5   26 1     
   15    6    7 1     
   16    6   27 1     
   17    7    8 2     
   18    7   28 1     
   19    9   10 1     
   20    9   29 1     
   21   10   11 1     
   22   10   30 1     
   23   10   31 1     
   24   11   12 1     
   25   11   32 1     
   26   11   33 1     
   27   12   13 1     
   28   13   18 1     
   29   13   14 1     
   30   13   34 1     
   31   14   15 1     
   32   14   35 1     
   33   14   36 1     
   34   15   16 1     
   35   15   37 1     
   36   15   38 1     
   37   16   17 1     
   38   16   39 1     
   39   16   40 1     
   40   17   18 1     
   41   17   41 1     
   42   17   42 1     
   43   18   19 1     
   44   18   43 1     
   45   19   44 1     
   46   19   45 1     
   47   19   46 1     
   48    8   47 1     
   49    9   48 1     
   50   12   49 1     
   51   12   50 1     
@<TRIPOS>SUBSTRUCTURE
      1 S1             1
@<TRIPOS>SET
LONE_PAIRS      STATIC     ATOMS    <user>   **** ""
4 47 48 49 50
DONOR_HYDROGENS      STATIC     ATOMS    <user>   **** ""
1 29
ATOM$BLUE        STATIC     ATOMS    COLORGROUP SYSTEM
4 47 48 49 50
ATOM$RED        STATIC     ATOMS    COLORGROUP SYSTEM
1 29
