AV-unprocessed.smi:351|AV-procd|sdf|2400|dock5
  -GOLD-   2262022333D 1   1.00000     0.00000
 Structure written by MMmdl.
 39 40  0  0  0  0  0  0  0  0  1 V2000
  153.3328  140.8656  160.4027 C   0  0  0  0  0  0  0  0  0  0  0  0
  152.7041  142.2432  160.3095 C   0  0  0  0  0  0  0  0  0  0  0  0
  152.8711  143.1579  161.3705 C   0  0  0  0  0  0  0  0  0  0  0  0
  152.2937  144.4385  161.3002 C   0  0  0  0  0  0  0  0  0  0  0  0
  151.5460  144.8072  160.1680 C   0  0  0  0  0  0  0  0  0  0  0  0
  151.3755  143.8979  159.1068 C   0  0  0  0  0  0  0  0  0  0  0  0
  151.9535  142.6038  159.1658 C   0  0  0  0  0  0  0  0  0  0  0  0
  151.8277  141.6618  158.1655 O   0  0  0  0  0  0  0  0  0  0  0  0
  150.7694  141.8038  157.2291 C   0  0  0  0  0  0  0  0  0  0  0  0
  151.1218  140.9848  155.9739 C   0  0  0  0  0  0  0  0  0  0  0  0
  150.0249  140.0711  155.5782 N   0  0  0  0  0  0  0  0  0  0  0  0
  150.1211  138.6709  155.8546 C   0  0  0  0  0  0  0  0  0  0  0  0
  151.3810  138.1192  156.5374 C   0  0  0  0  0  0  0  0  0  0  0  0
  151.2951  136.7997  156.7138 F   0  0  0  0  0  0  0  0  0  0  0  0
  152.4780  138.3335  155.8117 F   0  0  0  0  0  0  0  0  0  0  0  0
  151.5402  138.6612  157.7453 F   0  0  0  0  0  0  0  0  0  0  0  0
  149.1189  137.8480  155.4945 C   0  0  0  0  0  0  0  0  0  0  0  0
  147.9514  138.3726  154.8420 C   0  0  0  0  0  0  0  0  0  0  0  0
  147.8440  139.6941  154.5756 C   0  0  0  0  0  0  0  0  0  0  0  0
  146.6629  140.2804  153.9012 C   0  0  0  0  0  0  0  0  0  0  0  0
  145.7906  139.3777  153.4351 N   0  0  0  0  0  0  0  0  0  0  0  0
  146.4201  141.4760  153.7373 O   0  0  0  0  0  0  0  0  0  0  0  0
  148.9331  140.6314  154.9545 C   0  0  0  0  0  0  0  0  0  0  0  0
  148.8987  141.8471  154.7403 O   0  0  0  0  0  0  0  0  0  0  0  0
  153.9527  140.7684  161.2945 H   0  0  0  0  0  0  0  0  0  0  0  0
  153.9610  140.6738  159.5325 H   0  0  0  0  0  0  0  0  0  0  0  0
  152.5575  140.1000  160.4423 H   0  0  0  0  0  0  0  0  0  0  0  0
  153.4424  142.8803  162.2440 H   0  0  0  0  0  0  0  0  0  0  0  0
  152.4231  145.1362  162.1143 H   0  0  0  0  0  0  0  0  0  0  0  0
  151.1008  145.7897  160.1125 H   0  0  0  0  0  0  0  0  0  0  0  0
  150.7939  144.2195  158.2567 H   0  0  0  0  0  0  0  0  0  0  0  0
  149.8373  141.4436  157.6663 H   0  0  0  0  0  0  0  0  0  0  0  0
  150.6351  142.8545  156.9710 H   0  0  0  0  0  0  0  0  0  0  0  0
  151.4188  141.6585  155.1763 H   0  0  0  0  0  0  0  0  0  0  0  0
  152.0380  140.4209  156.1597 H   0  0  0  0  0  0  0  0  0  0  0  0
  149.1722  136.7870  155.6879 H   0  0  0  0  0  0  0  0  0  0  0  0
  147.1773  137.6678  154.5769 H   0  0  0  0  0  0  0  0  0  0  0  0
  144.9542  139.6812  152.9584 H   0  0  0  0  0  0  0  0  0  0  0  0
  145.9754  138.3930  153.5620 H   0  0  0  0  0  0  0  0  0  0  0  0
  1  2  1  0  0  0  0
  1 25  1  0  0  0  0
  1 26  1  0  0  0  0
  1 27  1  0  0  0  0
  2  7  1  0  0  0  0
  2  3  2  0  0  0  0
  3  4  1  0  0  0  0
  3 28  1  0  0  0  0
  4  5  2  0  0  0  0
  4 29  1  0  0  0  0
  5  6  1  0  0  0  0
  5 30  1  0  0  0  0
  6  7  2  0  0  0  0
  6 31  1  0  0  0  0
  7  8  1  0  0  0  0
  8  9  1  0  0  0  0
  9 10  1  0  0  0  0
  9 32  1  0  0  0  0
  9 33  1  0  0  0  0
 10 11  1  0  0  0  0
 10 34  1  0  0  0  0
 10 35  1  0  0  0  0
 11 23  1  0  0  0  0
 11 12  1  0  0  0  0
 12 13  1  0  0  0  0
 12 17  2  0  0  0  0
 13 14  1  0  0  0  0
 13 15  1  0  0  0  0
 13 16  1  0  0  0  0
 17 18  1  0  0  0  0
 17 36  1  0  0  0  0
 18 19  2  0  0  0  0
 18 37  1  0  0  0  0
 19 20  1  0  0  0  0
 19 23  1  0  0  0  0
 20 21  1  0  0  0  0
 20 22  2  0  0  0  0
 21 38  1  0  0  0  0
 21 39  1  0  0  0  0
 23 24  2  0  0  0  0
M  END
> <s_m_source_file>
AV-unprocessed.smi

> <i_m_source_file_index>
351

> <i_lp_mmshare_version>
43012

> <i_f3d_flags>
0

> <s_epik_input>
W0NIM11jMVtjSF1bY0hdW2NIXVtjSF1jMU9bQ0gyXVtDSDJdbjJjKEMoRikoRilGKVtjSF1bY0hdYyhjMj1PKUMoPU8pW05IMl0=

> <s_epik_cmdline>
J2VwaWtfcHl0aG9uJywgJy1waCcsICc3LjAnLCAnLXRuJywgJzgnLCAnLW1hJywgJzIwMCcsICctbWV0YWxfYmluZGluZycsICctaW1hZScsICc8aW5maWxlLm1hZT4nLCAnLW9tYWUnLCAnPG91dGZpbGUubWFlPic=

> <r_lp_tautomer_probability>
1

> <r_epik_Ionization_Penalty>
1.75286e-06

> <r_epik_Ionization_Penalty_Charging>
1.15608e-09

> <r_epik_Ionization_Penalty_Neutral>
1.7517e-06

> <r_epik_State_Penalty>
-0

> <r_epik_Charging_Adjusted_Penalty>
1.15608e-09

> <i_epik_Tot_Q>
0

> <i_epik_Tot_abs_Q>
0

> <r_epik_Metal_State_Penalty>
-0

> <b_epik_Metal_Only>
0

> <s_lp_Force_Field>
OPLS_2005

> <r_lp_Energy>
33.8975

> <b_lp_Chiralities_Consistent>
1

> <s_lp_Variant>
AV-unprocessed.smi:351-1

> <Gold.Version>
5.8.1

> <Gold.Id.Protein>
6NUR|6NUR_protein|mol2

> <Gold.PLP.Fitness>
47.4049

> <Gold.PLP.PLP>
-45.8146

> <Gold.PLP.part.hbond>
-2.3532

> <Gold.PLP.part.metal>
0.0000

> <Gold.PLP.part.buried>
-3.8751

> <Gold.PLP.part.nonpolar>
-39.1246

> <Gold.PLP.part.repulsive>
0.7609

> <Gold.PLP.ligand.clash>
3.7776

> <Gold.PLP.ligand.torsion>
0.9673

> <Gold.PLP.Chemscore.Hbond>
1.1550

> <Gold.PLP.Chemscore.CHOScore>
0.0000

> <Gold.PLP.Chemscore.Metal>
0.0000

> <Gold.Chemscore.Hbonds>
donor molecule, donor type, donor heavy atom, donor atom, acceptor molecule, acceptor atom, score
      L1  H    21    38       P1 10175  1.00

> <Gold.PLP.Chemscore.Internal.Correction>
3.8376

> <Gold.Rescore>
     Score         DG    S(hbond)    S(metal)    S(lipo)     H(rot)  DE(clash)    DE(int)     intcor
     11.51     -17.28       1.00        0.00     112.56       1.84       0.34       5.44       ----

> <Gold.Chemscore.Fitness>
11.5061

> <Gold.Chemscore.DG>
-17.2844

> <Gold.Chemscore.ZeroCoef>
-5.4800

> <Gold.Chemscore.Hbond>
1.0024

> <Gold.Chemscore.Metal>
0.0000

> <Gold.Chemscore.Lipo>
112.5622

> <Gold.Chemscore.Internal_Hbond>
0.0000

> <Gold.Chemscore.DEClash>
0.3353

> <Gold.Chemscore.DEInternal>
5.4430

> <Gold.Chemscore.Rot>
1.8412

> <Gold.Chemscore.Internal.Correction>
   9.000000E+99

> <Gold.Chemscore.Hbonds>
donor molecule, donor type, donor heavy atom, donor atom, acceptor molecule, acceptor atom, score
      L1  H    21    38       P1 10175  0.97

> <Gold.Chemscore.Hbond.Weighted>
-3.3480

> <Gold.Chemscore.Metal.Weighted>
-0.0000

> <Gold.Chemscore.Lipo.Weighted>
-13.1698

> <Gold.Chemscore.Internal_Hbond.Weighted>
0.0000

> <Gold.Chemscore.DEClash.Weighted>
0.3353

> <Gold.Chemscore.DEInternal.Weighted>
5.4430

> <Gold.Chemscore.Rot.Weighted>
4.7134

> <Gold.Chemscore.Internal.Correction.Weighted>
   9.000000E+99

> <Gold.Protein.RotatedTorsions>
[ 6907 6896 6895 6894 ] final  101.95 input  -60.11 | X-H torsion
[ 7974 7965 7964 7962 ] final  111.47 input  175.53 | X-H torsion
[ 8008 7997 7996 7995 ] final  -58.78 input   59.86 | X-H torsion
[ 10167 10162 10161 10158 ] final -176.48 input  -65.29 | X-H torsion
[ 10718 10713 10712 10709 ] final -155.73 input   66.30 | X-H torsion
[ 10763 10752 10751 10750 ] final   79.77 input  -60.55 | X-H torsion
[ 11005 11000 10999 10996 ] final  118.03 input  -57.11 | X-H torsion

> <Gold.Protein.ActiveResidues>
 VAL166  LYS551  ARG553  GLY616  TRP617  ASP618  TYR619  PRO620  LYS621  CYS622 
 ASP623  PHE694  ASN695  SER759  ASP760  ASP761  ALA762  ILE779  LEU786  VAL792 
 PHE793  MET794  SER795  GLU796  ALA797  LYS798  CYS799  TRP800  GLU811  SER814 

> <Gold.Protein.RotatedAtoms>
  152.5336  134.0048  159.7911 H   0  0  0  0  0  0  0  0  0  0  0  0  # atno 6907 bound_to 6896
  151.0261  133.5825  159.2673 H   0  0  0  0  0  0  0  0  0  0  0  0  # atno 6908 bound_to 6896
  151.2847  135.0731  159.9236 H   0  0  0  0  0  0  0  0  0  0  0  0  # atno 6909 bound_to 6896
  145.2418  139.2775  143.4114 H   0  0  0  0  0  0  0  0  0  0  0  0  # atno 7974 bound_to 7965
  154.4323  140.1076  156.6011 H   0  0  0  0  0  0  0  0  0  0  0  0  # atno 8008 bound_to 7997
  155.5910  140.3492  155.4547 H   0  0  0  0  0  0  0  0  0  0  0  0  # atno 8009 bound_to 7997
  156.0247  140.1247  157.0311 H   0  0  0  0  0  0  0  0  0  0  0  0  # atno 8010 bound_to 7997
  139.5527  144.2067  152.1106 H   0  0  0  0  0  0  0  0  0  0  0  0  # atno 10167 bound_to 10162
  156.5169  130.8460  151.2667 H   0  0  0  0  0  0  0  0  0  0  0  0  # atno 10718 bound_to 10713
  153.0979  135.4827  154.8813 H   0  0  0  0  0  0  0  0  0  0  0  0  # atno 10763 bound_to 10752
  154.7346  135.3068  154.8836 H   0  0  0  0  0  0  0  0  0  0  0  0  # atno 10764 bound_to 10752
  153.9462  135.6828  153.4797 H   0  0  0  0  0  0  0  0  0  0  0  0  # atno 10765 bound_to 10752
  139.9095  134.9616  156.7440 H   0  0  0  0  0  0  0  0  0  0  0  0  # atno 11005 bound_to 11000
  146.3326  140.2784  142.8609 LP  0  0  0  0  0  0  0  0  0  0  0  0  # atno 17320 bound_to 7965
  144.9582  140.8248  143.5530 LP  0  0  0  0  0  0  0  0  0  0  0  0  # atno 17321 bound_to 7965
  140.1566  144.5065  150.6657 LP  0  0  0  0  0  0  0  0  0  0  0  0  # atno 17342 bound_to 10162
  140.6794  143.2319  151.5424 LP  0  0  0  0  0  0  0  0  0  0  0  0  # atno 17343 bound_to 10162
  157.7442  130.9930  150.2658 LP  0  0  0  0  0  0  0  0  0  0  0  0  # atno 17370 bound_to 10713
  156.3187  130.3782  149.7595 LP  0  0  0  0  0  0  0  0  0  0  0  0  # atno 17371 bound_to 10713
  140.6826  133.9461  155.7919 LP  0  0  0  0  0  0  0  0  0  0  0  0  # atno 17394 bound_to 11000
  141.0499  134.0500  157.3797 LP  0  0  0  0  0  0  0  0  0  0  0  0  # atno 17395 bound_to 11000

$$$$
