#       Name:                AV-unprocessed.smi:3027
#       Creating user name   scv26
#       Creation time:       Fri Mar 27 16:45:18 2020


#       File generated by GOLD software.
#

@<TRIPOS>MOLECULE
AV-unprocessed.smi:3027
    38    39     1
SMALL
NO_CHARGES


@<TRIPOS>ATOM
      1 ****        -2.8245   4.6680   0.4662 C.3            1 S1                 0.0000
      2 ****        -2.5047   3.3755  -0.2279 C.2            1 S1                 0.0000
      3 ****        -2.8888   2.9677  -1.5370 C.2            1 S1                 0.0000
      4 ****        -2.4464   1.7606  -1.8501 N.2            1 S1                 0.0000
      5 ****        -1.7644   1.3577  -0.7572 N.pl3          1 S1                 0.0000
      6 ****        -1.1302   0.0522  -0.7382 C.3            1 S1                 0.0000
      7 ****         0.3948   0.1228  -0.9749 C.3            1 S1                 0.0000
      8 ****         0.7516   0.7749  -2.3211 C.3            1 S1                 0.0000
      9 ****         0.9926  -1.2309  -0.9150 N.4            1 S1                 1.0000
     10 ****         1.6151  -1.6072   0.3748 C.3            1 S1                 0.0000
     11 ****         2.3560  -2.9417   0.2868 C.3            1 S1                 0.0000
     12 ****         2.4924  -3.4080   1.7405 C.3            1 S1                 0.0000
     13 ****         1.3704  -2.7069   2.5231 C.3            1 S1                 0.0000
     14 ****         0.6130  -1.8445   1.5074 C.3            1 S1                 0.0000
     15 ****        -1.7854   2.3117   0.2378 C.2            1 S1                 0.0000
     16 ****        -3.0652   5.4600  -0.2432 H              1 S1                 0.0000
     17 ****        -1.9871   5.0208   1.0684 H              1 S1                 0.0000
     18 ****        -3.6800   4.5636   1.1336 H              1 S1                 0.0000
     19 ****        -3.4740   3.5107  -2.2645 H              1 S1                 0.0000
     20 ****        -1.3545  -0.4052   0.2244 H              1 S1                 0.0000
     21 ****        -1.6005  -0.5799  -1.4936 H              1 S1                 0.0000
     22 ****         0.8433   0.7382  -0.1933 H              1 S1                 0.0000
     23 ****         0.4113   1.8095  -2.3690 H              1 S1                 0.0000
     24 ****         0.2993   0.2372  -3.1549 H              1 S1                 0.0000
     25 ****         1.8306   0.7852  -2.4783 H              1 S1                 0.0000
     26 ****         0.2961  -1.9159  -1.1712 H              1 S1                 0.0000
     27 ****         2.3269  -0.8353   0.6730 H              1 S1                 0.0000
     28 ****         1.7572  -3.6656  -0.2684 H              1 S1                 0.0000
     29 ****         3.3203  -2.8559  -0.2157 H              1 S1                 0.0000
     30 ****         2.4271  -4.4938   1.8179 H              1 S1                 0.0000
     31 ****         3.4622  -3.1107   2.1417 H              1 S1                 0.0000
     32 ****         0.7059  -3.4202   3.0120 H              1 S1                 0.0000
     33 ****         1.8025  -2.0781   3.3025 H              1 S1                 0.0000
     34 ****         0.2470  -0.9164   1.9478 H              1 S1                 0.0000
     35 ****        -0.2485  -2.4012   1.1351 H              1 S1                 0.0000
     36 ****        -1.2915   2.1562   1.1858 H              1 S1                 0.0000
     37 ****         1.7287  -1.2565  -1.6065 H              1 S1                 0.0000
     38 ****        -2.5859   1.2596  -2.7042 LP             1 S1                 0.0000
@<TRIPOS>BOND
    1    1    2 1     
    2    1   16 1     
    3    1   17 1     
    4    1   18 1     
    5    2   15 2     
    6    2    3 1     
    7    3    4 2     
    8    3   19 1     
    9    4    5 1     
   10    5    6 1     
   11    5   15 1     
   12    6    7 1     
   13    6   20 1     
   14    6   21 1     
   15    7    8 1     
   16    7    9 1     
   17    7   22 1     
   18    8   23 1     
   19    8   24 1     
   20    8   25 1     
   21    9   10 1     
   22    9   26 1     
   23    9   37 1     
   24   10   14 1     
   25   10   11 1     
   26   10   27 1     
   27   11   12 1     
   28   11   28 1     
   29   11   29 1     
   30   12   13 1     
   31   12   30 1     
   32   12   31 1     
   33   13   14 1     
   34   13   32 1     
   35   13   33 1     
   36   14   34 1     
   37   14   35 1     
   38   15   36 1     
   39    4   38 1     
@<TRIPOS>SUBSTRUCTURE
      1 S1             1
@<TRIPOS>SET
LONE_PAIRS      STATIC     ATOMS    <user>   **** ""
1 38
DONOR_HYDROGENS      STATIC     ATOMS    <user>   **** ""
2 26 37
ATOM$BLUE        STATIC     ATOMS    COLORGROUP SYSTEM
1 38
ATOM$RED        STATIC     ATOMS    COLORGROUP SYSTEM
2 26 37
