AV-unprocessed.smi:1805|AV-procd|sdf|7298|dock1
  -GOLD-   22720 8553D 1   1.00000     0.00000
 Structure written by MMmdl.
 29 30  0  0  0  0  0  0  0  0  1 V2000
  149.9117  140.4797  156.3402 O   0  0  0  0  0  0  0  0  0  0  0  0
  149.6730  141.6859  156.2777 C   0  0  0  0  0  0  0  0  0  0  0  0
  150.3797  142.6186  156.9318 N   0  0  0  0  0  0  0  0  0  0  0  0
  151.5191  142.3591  157.8064 C   0  0  0  0  0  0  0  0  0  0  0  0
  152.0292  143.6456  158.4776 C   0  0  1  0  0  0  0  0  0  0  0  0
  150.9761  144.7362  158.6783 C   0  0  0  0  0  0  0  0  0  0  0  0
  151.5646  145.5161  159.8311 C   0  0  0  0  0  0  0  0  0  0  0  0
  152.1538  144.4008  160.6896 C   0  0  0  0  0  0  0  0  0  0  0  0
  152.5130  143.3574  159.7869 O   0  0  0  0  0  0  0  0  0  0  0  0
  148.6814  142.2402  155.5615 N   0  0  0  0  0  0  0  0  0  0  0  0
  147.7366  141.5744  154.7401 C   0  0  0  0  0  0  0  0  0  0  0  0
  148.0684  140.6853  153.6821 C   0  0  0  0  0  0  0  0  0  0  0  0
  146.9815  140.2106  153.0903 N   0  0  0  0  0  0  0  0  0  0  0  0
  145.9591  140.7867  153.7621 N   0  0  0  0  0  0  0  0  0  0  0  0
  146.3711  141.6244  154.7749 C   0  0  0  0  0  0  0  0  0  0  0  0
  144.9962  140.5994  153.5210 H   0  0  0  0  0  0  0  0  0  0  0  0
  150.1076  143.5843  156.8203 H   0  0  0  0  0  0  0  0  0  0  0  0
  151.2766  141.6058  158.5578 H   0  0  0  0  0  0  0  0  0  0  0  0
  152.3134  141.9317  157.1943 H   0  0  0  0  0  0  0  0  0  0  0  0
  152.8646  144.0559  157.9078 H   0  0  0  0  0  0  0  0  0  0  0  0
  150.8146  145.3442  157.7877 H   0  0  0  0  0  0  0  0  0  0  0  0
  150.0206  144.3005  158.9740 H   0  0  0  0  0  0  0  0  0  0  0  0
  152.3573  146.1740  159.4723 H   0  0  0  0  0  0  0  0  0  0  0  0
  150.8298  146.1214  160.3622 H   0  0  0  0  0  0  0  0  0  0  0  0
  153.0112  144.7353  161.2738 H   0  0  0  0  0  0  0  0  0  0  0  0
  151.4029  144.0153  161.3803 H   0  0  0  0  0  0  0  0  0  0  0  0
  148.5927  143.2447  155.6078 H   0  0  0  0  0  0  0  0  0  0  0  0
  149.0414  140.3750  153.3305 H   0  0  0  0  0  0  0  0  0  0  0  0
  145.6737  142.1576  155.4039 H   0  0  0  0  0  0  0  0  0  0  0  0
  1  2  2  0  0  0  0
  2  3  1  0  0  0  0
  2 10  1  0  0  0  0
  3  4  1  0  0  0  0
  3 17  1  0  0  0  0
  4  5  1  0  0  0  0
  4 18  1  0  0  0  0
  4 19  1  0  0  0  0
  5  9  1  0  0  0  0
  5  6  1  0  0  0  0
  5 20  1  0  0  0  0
  6  7  1  0  0  0  0
  6 21  1  0  0  0  0
  6 22  1  0  0  0  0
  7  8  1  0  0  0  0
  7 23  1  0  0  0  0
  7 24  1  0  0  0  0
  8  9  1  0  0  0  0
  8 25  1  0  0  0  0
  8 26  1  0  0  0  0
 10 11  1  0  0  0  0
 10 27  1  0  0  0  0
 11 15  2  0  0  0  0
 11 12  1  0  0  0  0
 12 13  2  0  0  0  0
 12 28  1  0  0  0  0
 13 14  1  0  0  0  0
 14 16  1  0  0  0  0
 14 15  1  0  0  0  0
 15 29  1  0  0  0  0
M  END
> <s_m_source_file>
AV-unprocessed.smi

> <i_m_source_file_index>
1805

> <i_lp_mmshare_version>
43012

> <i_f3d_flags>
0

> <s_epik_input>
W2NIXTFbbkhdbltjSF1jMVtOSF1DKD1PKVtOSF1bQ0gyXVtDQEBIXTJbQ0gyXVtDSDJdW0NIMl1PMg==

> <s_epik_cmdline>
J2VwaWtfcHl0aG9uJywgJy1waCcsICc3LjAnLCAnLXRuJywgJzgnLCAnLW1hJywgJzIwMCcsICctbWV0YWxfYmluZGluZycsICctaW1hZScsICc8aW5maWxlLm1hZT4nLCAnLW9tYWUnLCAnPG91dGZpbGUubWFlPic=

> <r_lp_tautomer_probability>
1

> <r_epik_Ionization_Penalty>
4.81496e-05

> <r_epik_Ionization_Penalty_Charging>
0

> <r_epik_Ionization_Penalty_Neutral>
4.81496e-05

> <r_epik_State_Penalty>
-0

> <r_epik_Charging_Adjusted_Penalty>
0

> <i_epik_Tot_Q>
0

> <i_epik_Tot_abs_Q>
0

> <r_epik_Metal_State_Penalty>
-0

> <b_epik_Metal_Only>
0

> <s_lp_Force_Field>
OPLS_2005

> <r_lp_Energy>
19.2876

> <b_lp_Chiralities_Consistent>
1

> <s_lp_Variant>
AV-unprocessed.smi:1805-2

> <Gold.Version>
5.8.1

> <Gold.Id.Protein>
6NUR|6NUR_protein|mol2

> <Gold.PLP.Fitness>
39.8435

> <Gold.PLP.PLP>
-30.4992

> <Gold.PLP.part.hbond>
-2.9228

> <Gold.PLP.part.metal>
0.0000

> <Gold.PLP.part.buried>
-4.7332

> <Gold.PLP.part.nonpolar>
-23.3254

> <Gold.PLP.part.repulsive>
0.3923

> <Gold.PLP.ligand.clash>
0.0000

> <Gold.PLP.ligand.torsion>
0.9449

> <Gold.PLP.Chemscore.Hbond>
2.8233

> <Gold.PLP.Chemscore.CHOScore>
0.9211

> <Gold.PLP.Chemscore.Metal>
0.0000

> <Gold.Chemscore.Hbonds>
donor molecule, donor type, donor heavy atom, donor atom, acceptor molecule, acceptor atom, score
      L1  H     3    17       P1  8028  0.82
      L1  H    10    27       P1  8028  0.91
      L1  H    14    16       P1 10175  1.00
      L1  C    12    28       P1  7957  0.90

> <Gold.PLP.Chemscore.Internal.Correction>
0.0011

> <Gold.Rescore>
     Score         DG    S(hbond)    S(metal)    S(lipo)     H(rot)  DE(clash)    DE(int)     intcor
     19.78     -20.52       2.90        0.00      74.80       1.33       0.05       0.69       ----

> <Gold.Chemscore.Fitness>
19.7786

> <Gold.Chemscore.DG>
-20.5192

> <Gold.Chemscore.ZeroCoef>
-5.4800

> <Gold.Chemscore.Hbond>
2.9024

> <Gold.Chemscore.Metal>
0.0000

> <Gold.Chemscore.Lipo>
74.7987

> <Gold.Chemscore.Internal_Hbond>
0.0000

> <Gold.Chemscore.DEClash>
0.0526

> <Gold.Chemscore.DEInternal>
0.6880

> <Gold.Chemscore.Rot>
1.3306

> <Gold.Chemscore.Internal.Correction>
   9.000000E+99

> <Gold.Chemscore.Hbonds>
donor molecule, donor type, donor heavy atom, donor atom, acceptor molecule, acceptor atom, score
      L1  H     3    17       P1  8028  0.75
      L1  H    10    27       P1  8028  0.87
      L1  H    14    16       P1 10175  0.96

> <Gold.Chemscore.Hbond.Weighted>
-9.6940

> <Gold.Chemscore.Metal.Weighted>
-0.0000

> <Gold.Chemscore.Lipo.Weighted>
-8.7514

> <Gold.Chemscore.Internal_Hbond.Weighted>
0.0000

> <Gold.Chemscore.DEClash.Weighted>
0.0526

> <Gold.Chemscore.DEInternal.Weighted>
0.6880

> <Gold.Chemscore.Rot.Weighted>
3.4063

> <Gold.Chemscore.Internal.Correction.Weighted>
   9.000000E+99

> <Gold.Protein.RotatedTorsions>
[ 6907 6896 6895 6894 ] final  146.97 input  -60.11 | X-H torsion
[ 7974 7965 7964 7962 ] final  -59.57 input  175.53 | X-H torsion
[ 8008 7997 7996 7995 ] final -118.92 input   59.86 | X-H torsion
[ 10167 10162 10161 10158 ] final   10.00 input  -65.29 | X-H torsion
[ 10718 10713 10712 10709 ] final  170.79 input   66.30 | X-H torsion
[ 10763 10752 10751 10750 ] final   64.97 input  -60.55 | X-H torsion
[ 11005 11000 10999 10996 ] final -152.16 input  -57.11 | X-H torsion

> <Gold.Protein.ActiveResidues>
 VAL166  LYS551  ARG553  GLY616  TRP617  ASP618  TYR619  PRO620  LYS621  CYS622 
 ASP623  PHE694  ASN695  SER759  ASP760  ASP761  ALA762  ILE779  LEU786  VAL792 
 PHE793  MET794  SER795  GLU796  ALA797  LYS798  CYS799  TRP800  GLU811  SER814 

> <Gold.Protein.RotatedAtoms>
  152.1610  133.4581  159.4860 H   0  0  0  0  0  0  0  0  0  0  0  0  # atno 6907 bound_to 6896
  150.6907  134.2072  159.4354 H   0  0  0  0  0  0  0  0  0  0  0  0  # atno 6908 bound_to 6896
  151.9974  134.9946  160.0614 H   0  0  0  0  0  0  0  0  0  0  0  0  # atno 6909 bound_to 6896
  145.8259  140.8511  143.0108 H   0  0  0  0  0  0  0  0  0  0  0  0  # atno 7974 bound_to 7965
  155.1074  140.0397  157.2714 H   0  0  0  0  0  0  0  0  0  0  0  0  # atno 8008 bound_to 7997
  154.6711  140.2612  155.6980 H   0  0  0  0  0  0  0  0  0  0  0  0  # atno 8009 bound_to 7997
  156.2658  140.2797  156.1221 H   0  0  0  0  0  0  0  0  0  0  0  0  # atno 8010 bound_to 7997
  140.6221  143.8182  150.7187 H   0  0  0  0  0  0  0  0  0  0  0  0  # atno 10167 bound_to 10162
  157.0030  131.0181  151.2825 H   0  0  0  0  0  0  0  0  0  0  0  0  # atno 10718 bound_to 10713
  153.0077  135.5374  154.6593 H   0  0  0  0  0  0  0  0  0  0  0  0  # atno 10763 bound_to 10752
  154.5806  135.2849  155.0739 H   0  0  0  0  0  0  0  0  0  0  0  0  # atno 10764 bound_to 10752
  154.1869  135.6507  153.5102 H   0  0  0  0  0  0  0  0  0  0  0  0  # atno 10765 bound_to 10752
  140.7218  134.3719  157.5182 H   0  0  0  0  0  0  0  0  0  0  0  0  # atno 11005 bound_to 11000
  144.6743  140.0601  143.7476 LP  0  0  0  0  0  0  0  0  0  0  0  0  # atno 17320 bound_to 7965
  145.9624  139.2810  143.1147 LP  0  0  0  0  0  0  0  0  0  0  0  0  # atno 17321 bound_to 7965
  140.1774  143.4143  152.1957 LP  0  0  0  0  0  0  0  0  0  0  0  0  # atno 17342 bound_to 10162
  139.5447  144.7288  151.4620 LP  0  0  0  0  0  0  0  0  0  0  0  0  # atno 17343 bound_to 10162
  157.5376  130.8099  149.7990 LP  0  0  0  0  0  0  0  0  0  0  0  0  # atno 17370 bound_to 10713
  156.0164  130.3812  150.2098 LP  0  0  0  0  0  0  0  0  0  0  0  0  # atno 17371 bound_to 10713
  139.8846  134.8960  156.2692 LP  0  0  0  0  0  0  0  0  0  0  0  0  # atno 17394 bound_to 11000
  140.9997  133.7159  156.0941 LP  0  0  0  0  0  0  0  0  0  0  0  0  # atno 17395 bound_to 11000

$$$$
