AV-unprocessed.smi:1576|AV-procd|sdf|6348|dock6
  -GOLD-   22720 6563D 1   1.00000     0.00000
 Structure written by MMmdl.
 45 47  0  0  0  0  0  0  0  0  3 V2000
  154.5572  137.1790  162.1114 O   0  0  0  0  0  0  0  0  0  0  0  0
  154.2112  136.5973  161.0770 C   0  0  0  0  0  0  0  0  0  0  0  0
  153.7581  137.2976  160.0219 N   0  0  0  0  0  0  0  0  0  0  0  0
  153.5381  138.6959  159.9026 C   0  0  0  0  0  0  0  0  0  0  0  0
  152.7434  139.1487  158.8281 C   0  0  0  0  0  0  0  0  0  0  0  0
  152.4807  140.5264  158.6850 C   0  0  0  0  0  0  0  0  0  0  0  0
  153.0104  141.4334  159.6309 C   0  0  0  0  0  0  0  0  0  0  0  0
  152.8022  142.8174  159.5719 N   0  0  0  0  0  0  0  0  0  0  0  0
  152.1461  143.2411  158.3376 C   0  0  0  0  0  0  0  0  0  0  0  0
  152.1115  144.7761  158.2345 C   0  0  0  0  0  0  0  0  0  0  0  0
  151.4686  145.3968  159.4854 C   0  0  0  0  0  0  0  0  0  0  0  0
  152.1785  144.8937  160.7527 C   0  0  0  0  0  0  0  0  0  0  0  0
  152.2069  143.3562  160.7918 C   0  0  0  0  0  0  0  0  0  0  0  0
  153.7526  140.9604  160.6555 N   0  3  0  0  0  0  0  0  0  0  0  0
  154.0281  139.6492  160.8276 C   0  0  0  0  0  0  0  0  0  0  0  0
  154.2479  135.2613  160.8249 N   0  5  0  0  0  0  0  0  0  0  0  0
  154.9724  134.2755  161.6323 C   0  0  1  0  0  0  0  0  0  0  0  0
  154.4888  134.3050  163.0958 C   0  0  0  0  0  0  0  0  0  0  0  0
  155.0022  133.0457  163.8080 C   0  0  0  0  0  0  0  0  0  0  0  0
  155.0430  131.7322  162.5278 S   0  0  0  0  0  0  0  0  0  0  0  0
  156.4025  131.1736  162.4582 O   0  0  0  0  0  0  0  0  0  0  0  0
  153.8753  130.8520  162.6905 O   0  0  0  0  0  0  0  0  0  0  0  0
  154.7567  132.8498  161.0993 C   0  0  0  0  0  0  0  0  0  0  0  0
  153.5966  136.7565  159.1850 H   0  0  0  0  0  0  0  0  0  0  0  0
  152.3405  138.4466  158.1126 H   0  0  0  0  0  0  0  0  0  0  0  0
  151.8787  140.8767  157.8597 H   0  0  0  0  0  0  0  0  0  0  0  0
  152.6734  142.8244  157.4782 H   0  0  0  0  0  0  0  0  0  0  0  0
  151.1291  142.8471  158.3108 H   0  0  0  0  0  0  0  0  0  0  0  0
  153.1268  145.1578  158.1187 H   0  0  0  0  0  0  0  0  0  0  0  0
  151.5636  145.0789  157.3419 H   0  0  0  0  0  0  0  0  0  0  0  0
  151.5142  146.4849  159.4335 H   0  0  0  0  0  0  0  0  0  0  0  0
  150.4119  145.1296  159.5261 H   0  0  0  0  0  0  0  0  0  0  0  0
  153.1990  145.2784  160.7763 H   0  0  0  0  0  0  0  0  0  0  0  0
  151.6805  145.2820  161.6414 H   0  0  0  0  0  0  0  0  0  0  0  0
  151.1924  142.9716  160.9049 H   0  0  0  0  0  0  0  0  0  0  0  0
  152.7756  143.0180  161.6592 H   0  0  0  0  0  0  0  0  0  0  0  0
  154.6156  139.4173  161.7034 H   0  0  0  0  0  0  0  0  0  0  0  0
  156.0461  134.4698  161.6452 H   0  0  0  0  0  0  0  0  0  0  0  0
  154.8101  135.2112  163.6102 H   0  0  0  0  0  0  0  0  0  0  0  0
  153.3979  134.2965  163.1187 H   0  0  0  0  0  0  0  0  0  0  0  0
  156.0170  133.1883  164.1825 H   0  0  0  0  0  0  0  0  0  0  0  0
  154.3661  132.7420  164.6390 H   0  0  0  0  0  0  0  0  0  0  0  0
  153.7299  132.7011  160.7633 H   0  0  0  0  0  0  0  0  0  0  0  0
  155.4314  132.5975  160.2813 H   0  0  0  0  0  0  0  0  0  0  0  0
  154.1206  141.6247  161.3364 H   0  0  0  0  0  0  0  0  0  0  0  0
  1  2  2  0  0  0  0
  2  3  1  0  0  0  0
  2 16  1  0  0  0  0
  3  4  1  0  0  0  0
  3 24  1  0  0  0  0
  4 15  1  0  0  0  0
  4  5  2  0  0  0  0
  5  6  1  0  0  0  0
  5 25  1  0  0  0  0
  6  7  2  0  0  0  0
  6 26  1  0  0  0  0
  7  8  1  0  0  0  0
  7 14  1  0  0  0  0
  8 13  1  0  0  0  0
  8  9  1  0  0  0  0
  9 10  1  0  0  0  0
  9 27  1  0  0  0  0
  9 28  1  0  0  0  0
 10 11  1  0  0  0  0
 10 29  1  0  0  0  0
 10 30  1  0  0  0  0
 11 12  1  0  0  0  0
 11 31  1  0  0  0  0
 11 32  1  0  0  0  0
 12 13  1  0  0  0  0
 12 33  1  0  0  0  0
 12 34  1  0  0  0  0
 13 35  1  0  0  0  0
 13 36  1  0  0  0  0
 14 15  2  0  0  0  0
 14 45  1  0  0  0  0
 15 37  1  0  0  0  0
 16 17  1  0  0  0  0
 17 23  1  0  0  0  0
 17 18  1  0  0  0  0
 17 38  1  0  0  0  0
 18 19  1  0  0  0  0
 18 39  1  0  0  0  0
 18 40  1  0  0  0  0
 19 20  1  0  0  0  0
 19 41  1  0  0  0  0
 19 42  1  0  0  0  0
 20 21  2  0  0  0  0
 20 22  2  0  0  0  0
 20 23  1  0  0  0  0
 23 43  1  0  0  0  0
 23 44  1  0  0  0  0
M  CHG  1  14   1
M  CHG  1  16  -1
M  END
> <s_m_source_file>
AV-unprocessed.smi

> <i_m_source_file_index>
1576

> <i_lp_mmshare_version>
43012

> <i_f3d_flags>
0

> <s_epik_input>
Tz1TMSg9TylbQ0gyXVtDSDJdW0NASF0oW0NIMl0xKVtOSF1DKD1PKVtOSF1jMltjSF1bY0hdYyhuW2NIXTIpTjNbQ0gyXVtDSDJdW0NIMl1bQ0gyXVtDSDJdMw==

> <s_epik_cmdline>
J2VwaWtfcHl0aG9uJywgJy1waCcsICc3LjAnLCAnLXRuJywgJzgnLCAnLW1hJywgJzIwMCcsICctbWV0YWxfYmluZGluZycsICctaW1hZScsICc8aW5maWxlLm1hZT4nLCAnLW9tYWUnLCAnPG91dGZpbGUubWFlPic=

> <r_lp_tautomer_probability>
0.999994

> <r_epik_Ionization_Penalty>
8.26491

> <r_epik_Ionization_Penalty_Charging>
8.26491

> <r_epik_Ionization_Penalty_Neutral>
3.15169e-06

> <r_epik_State_Penalty>
7.8977

> <r_epik_Charging_Adjusted_Penalty>
16.1626

> <i_epik_Tot_Q>
0

> <i_epik_Tot_abs_Q>
2

> <r_epik_Metal_State_Penalty>
3.88896

> <b_epik_Metal_Only>
1

> <s_lp_Force_Field>
OPLS_2005

> <r_lp_Energy>
27.2537

> <b_lp_Chiralities_Consistent>
1

> <s_lp_Variant>
AV-unprocessed.smi:1576-6

> <Gold.Version>
5.8.1

> <Gold.Id.Protein>
6NUR|6NUR_protein|mol2

> <Gold.PLP.Fitness>
45.0086

> <Gold.PLP.PLP>
-39.2715

> <Gold.PLP.part.hbond>
-1.0000

> <Gold.PLP.part.metal>
0.0000

> <Gold.PLP.part.buried>
-7.1313

> <Gold.PLP.part.nonpolar>
-30.9996

> <Gold.PLP.part.repulsive>
0.1080

> <Gold.PLP.ligand.clash>
0.0000

> <Gold.PLP.ligand.torsion>
0.1794

> <Gold.PLP.Chemscore.Hbond>
1.9825

> <Gold.PLP.Chemscore.CHOScore>
0.0000

> <Gold.PLP.Chemscore.Metal>
0.0000

> <Gold.Chemscore.Hbonds>
donor molecule, donor type, donor heavy atom, donor atom, acceptor molecule, acceptor atom, score
      P1  H  6896  6908       L1    16  1.95

> <Gold.PLP.Chemscore.Internal.Correction>
0.1484

> <Gold.Rescore>
     Score         DG    S(hbond)    S(metal)    S(lipo)     H(rot)  DE(clash)    DE(int)     intcor
     14.93     -16.43       0.80        0.00      97.81       1.24       0.01       1.48       ----

> <Gold.Chemscore.Fitness>
14.9308

> <Gold.Chemscore.DG>
-16.4258

> <Gold.Chemscore.ZeroCoef>
-5.4800

> <Gold.Chemscore.Hbond>
0.7988

> <Gold.Chemscore.Metal>
0.0000

> <Gold.Chemscore.Lipo>
97.8084

> <Gold.Chemscore.Internal_Hbond>
0.0000

> <Gold.Chemscore.DEClash>
0.0144

> <Gold.Chemscore.DEInternal>
1.4806

> <Gold.Chemscore.Rot>
1.2366

> <Gold.Chemscore.Internal.Correction>
   9.000000E+99

> <Gold.Chemscore.Hbonds>
donor molecule, donor type, donor heavy atom, donor atom, acceptor molecule, acceptor atom, score
      P1  H  6896  6908       L1    16  0.68

> <Gold.Chemscore.Hbond.Weighted>
-2.6680

> <Gold.Chemscore.Metal.Weighted>
-0.0000

> <Gold.Chemscore.Lipo.Weighted>
-11.4436

> <Gold.Chemscore.Internal_Hbond.Weighted>
0.0000

> <Gold.Chemscore.DEClash.Weighted>
0.0144

> <Gold.Chemscore.DEInternal.Weighted>
1.4806

> <Gold.Chemscore.Rot.Weighted>
3.1657

> <Gold.Chemscore.Internal.Correction.Weighted>
   9.000000E+99

> <Gold.Protein.RotatedTorsions>
[ 6907 6896 6895 6894 ] final  -53.55 input  -60.11 | X-H torsion
[ 7974 7965 7964 7962 ] final  -16.10 input  175.53 | X-H torsion
[ 8008 7997 7996 7995 ] final -168.23 input   59.86 | X-H torsion
[ 10167 10162 10161 10158 ] final  125.75 input  -65.29 | X-H torsion
[ 10718 10713 10712 10709 ] final  158.17 input   66.30 | X-H torsion
[ 10763 10752 10751 10750 ] final  -38.08 input  -60.55 | X-H torsion
[ 11005 11000 10999 10996 ] final -116.45 input  -57.11 | X-H torsion

> <Gold.Protein.ActiveResidues>
 VAL166  LYS551  ARG553  GLY616  TRP617  ASP618  TYR619  PRO620  LYS621  CYS622 
 ASP623  PHE694  ASN695  SER759  ASP760  ASP761  ALA762  ILE779  LEU786  VAL792 
 PHE793  MET794  SER795  GLU796  ALA797  LYS798  CYS799  TRP800  GLU811  SER814 

> <Gold.Protein.RotatedAtoms>
  150.8417  134.7711  159.6937 H   0  0  0  0  0  0  0  0  0  0  0  0  # atno 6907 bound_to 6896
  152.4503  134.5405  159.9847 H   0  0  0  0  0  0  0  0  0  0  0  0  # atno 6908 bound_to 6896
  151.5544  133.3375  159.2995 H   0  0  0  0  0  0  0  0  0  0  0  0  # atno 6909 bound_to 6896
  146.2002  140.3588  142.8426 H   0  0  0  0  0  0  0  0  0  0  0  0  # atno 7974 bound_to 7965
  155.8885  140.1021  157.1435 H   0  0  0  0  0  0  0  0  0  0  0  0  # atno 8008 bound_to 7997
  154.4012  140.1315  156.4350 H   0  0  0  0  0  0  0  0  0  0  0  0  # atno 8009 bound_to 7997
  155.7561  140.3464  155.5177 H   0  0  0  0  0  0  0  0  0  0  0  0  # atno 8010 bound_to 7997
  139.5668  144.6916  151.3887 H   0  0  0  0  0  0  0  0  0  0  0  0  # atno 10167 bound_to 10162
  157.1815  131.0633  151.2129 H   0  0  0  0  0  0  0  0  0  0  0  0  # atno 10718 bound_to 10713
  153.9070  135.6796  153.4752 H   0  0  0  0  0  0  0  0  0  0  0  0  # atno 10763 bound_to 10752
  153.1099  135.4788  154.9014 H   0  0  0  0  0  0  0  0  0  0  0  0  # atno 10764 bound_to 10752
  154.7546  135.3194  154.8448 H   0  0  0  0  0  0  0  0  0  0  0  0  # atno 10765 bound_to 10752
  141.0421  133.9819  157.2977 H   0  0  0  0  0  0  0  0  0  0  0  0  # atno 11005 bound_to 11000
  144.8668  140.7217  143.6072 LP  0  0  0  0  0  0  0  0  0  0  0  0  # atno 17320 bound_to 7965
  145.3508  139.1707  143.4436 LP  0  0  0  0  0  0  0  0  0  0  0  0  # atno 17321 bound_to 7965
  140.6952  143.7766  150.7316 LP  0  0  0  0  0  0  0  0  0  0  0  0  # atno 17342 bound_to 10162
  140.1260  143.4569  152.2284 LP  0  0  0  0  0  0  0  0  0  0  0  0  # atno 17343 bound_to 10162
  157.3948  130.7301  149.6724 LP  0  0  0  0  0  0  0  0  0  0  0  0  # atno 17370 bound_to 10713
  155.9724  130.4136  150.4093 LP  0  0  0  0  0  0  0  0  0  0  0  0  # atno 17371 bound_to 10713
  139.9284  135.0201  156.8314 LP  0  0  0  0  0  0  0  0  0  0  0  0  # atno 17394 bound_to 11000
  140.6215  133.9990  155.7620 LP  0  0  0  0  0  0  0  0  0  0  0  0  # atno 17395 bound_to 11000

$$$$
