AV-unprocessed.smi:249|AV-procd|sdf|1927|dock5
  -GOLD-   2262021 43D 1   1.00000     0.00000
 Structure written by MMmdl.
 64 67  0  0  0  0  0  0  0  0  2 V2000
  144.9762  136.6008  151.1799 C   0  0  0  0  0  0  0  0  0  0  0  0
  145.0998  137.1873  152.5960 C   0  0  0  0  0  0  0  0  0  0  0  0
  146.3808  137.9146  152.8329 N   0  3  1  0  0  0  0  0  0  0  0  0
  146.4210  139.2168  152.1062 C   0  0  0  0  0  0  0  0  0  0  0  0
  147.7665  139.9390  152.2780 C   0  0  0  0  0  0  0  0  0  0  0  0
  148.0792  140.2004  153.7606 C   0  0  1  0  0  0  0  0  0  0  0  0
  147.1592  141.1802  154.3616 N   0  0  0  0  0  0  0  0  0  0  0  0
  146.8207  142.3557  153.5653 C   0  0  0  0  0  0  0  0  0  0  0  0
  147.4423  141.5398  155.6334 C   0  0  0  0  0  0  0  0  0  0  0  0
  146.3979  141.6845  156.4854 N   0  0  0  0  0  0  0  0  0  0  0  0
  146.6196  142.0297  157.7576 C   0  0  0  0  0  0  0  0  0  0  0  0
  147.7824  142.2735  158.3665 N   0  0  0  0  0  0  0  0  0  0  0  0
  148.8324  142.1353  157.5065 C   0  0  0  0  0  0  0  0  0  0  0  0
  148.7535  141.7756  156.1326 C   0  0  0  0  0  0  0  0  0  0  0  0
  150.0259  141.7368  155.5759 N   0  0  0  0  0  0  0  0  0  0  0  0
  150.8141  142.0601  156.5651 C   0  0  0  0  0  0  0  0  0  0  0  0
  150.1804  142.3174  157.7597 N   0  0  0  0  0  0  0  0  0  0  0  0
  150.8114  142.6981  159.0102 C   0  0  0  0  0  0  0  0  0  0  0  0
  152.3173  143.0532  158.8642 C   0  0  1  0  0  0  0  0  0  0  0  0
  152.5637  144.4806  158.3157 C   0  0  0  0  0  0  0  0  0  0  0  0
  152.1127  145.4786  159.2087 O   0  0  0  0  0  0  0  0  0  0  0  0
  153.1289  142.8393  160.1698 C   0  0  1  0  0  0  0  0  0  0  0  0
  152.5545  143.4505  161.4469 C   0  0  0  0  0  0  0  0  0  0  0  0
  152.9448  142.4543  162.5440 C   0  0  0  0  0  0  0  0  0  0  0  0
  153.8307  141.5332  161.9216 O   0  0  0  0  0  0  0  0  0  0  0  0
  153.4119  141.3916  160.5751 C   0  0  0  0  0  0  0  0  0  0  0  0
  148.0639  138.8227  154.4580 C   0  0  0  0  0  0  0  0  0  0  0  0
  146.7210  138.0754  154.2845 C   0  0  2  0  0  0  0  0  0  0  0  0
  146.8062  136.7327  155.0396 C   0  0  0  0  0  0  0  0  0  0  0  0
  144.1091  135.9433  151.1166 H   0  0  0  0  0  0  0  0  0  0  0  0
  145.8547  136.0113  150.9161 H   0  0  0  0  0  0  0  0  0  0  0  0
  144.8405  137.3719  150.4221 H   0  0  0  0  0  0  0  0  0  0  0  0
  144.2550  137.8437  152.8099 H   0  0  0  0  0  0  0  0  0  0  0  0
  145.0154  136.3418  153.2748 H   0  0  0  0  0  0  0  0  0  0  0  0
  146.2689  139.0624  151.0393 H   0  0  0  0  0  0  0  0  0  0  0  0
  145.6035  139.8524  152.4503 H   0  0  0  0  0  0  0  0  0  0  0  0
  148.5578  139.3246  151.8461 H   0  0  0  0  0  0  0  0  0  0  0  0
  147.7737  140.8654  151.7037 H   0  0  0  0  0  0  0  0  0  0  0  0
  149.0871  140.6115  153.8261 H   0  0  0  0  0  0  0  0  0  0  0  0
  146.3780  143.1480  154.1718 H   0  0  0  0  0  0  0  0  0  0  0  0
  146.0938  142.0936  152.7966 H   0  0  0  0  0  0  0  0  0  0  0  0
  147.7077  142.7593  153.0754 H   0  0  0  0  0  0  0  0  0  0  0  0
  145.7396  142.1236  158.3767 H   0  0  0  0  0  0  0  0  0  0  0  0
  151.8861  142.1255  156.4498 H   0  0  0  0  0  0  0  0  0  0  0  0
  150.2521  143.5340  159.4283 H   0  0  0  0  0  0  0  0  0  0  0  0
  150.6759  141.8656  159.6989 H   0  0  0  0  0  0  0  0  0  0  0  0
  152.7412  142.3559  158.1396 H   0  0  0  0  0  0  0  0  0  0  0  0
  153.6207  144.6348  158.0959 H   0  0  0  0  0  0  0  0  0  0  0  0
  152.0235  144.6311  157.3805 H   0  0  0  0  0  0  0  0  0  0  0  0
  152.8027  145.6608  159.8285 H   0  0  0  0  0  0  0  0  0  0  0  0
  154.1092  143.2956  160.0207 H   0  0  0  0  0  0  0  0  0  0  0  0
  152.9858  144.4355  161.6297 H   0  0  0  0  0  0  0  0  0  0  0  0
  151.4722  143.5699  161.4166 H   0  0  0  0  0  0  0  0  0  0  0  0
  153.4194  142.9370  163.3985 H   0  0  0  0  0  0  0  0  0  0  0  0
  152.0651  141.9180  162.9027 H   0  0  0  0  0  0  0  0  0  0  0  0
  152.5226  140.7621  160.5515 H   0  0  0  0  0  0  0  0  0  0  0  0
  154.1829  140.9250  159.9614 H   0  0  0  0  0  0  0  0  0  0  0  0
  148.8651  138.2111  154.0399 H   0  0  0  0  0  0  0  0  0  0  0  0
  148.3092  138.9217  155.5159 H   0  0  0  0  0  0  0  0  0  0  0  0
  145.9319  138.6684  154.7489 H   0  0  0  0  0  0  0  0  0  0  0  0
  147.2059  136.8763  156.0441 H   0  0  0  0  0  0  0  0  0  0  0  0
  147.4589  136.0263  154.5257 H   0  0  0  0  0  0  0  0  0  0  0  0
  145.8307  136.2660  155.1712 H   0  0  0  0  0  0  0  0  0  0  0  0
  147.1124  137.3423  152.4360 H   0  0  0  0  0  0  0  0  0  0  0  0
  1  2  1  0  0  0  0
  1 30  1  0  0  0  0
  1 31  1  0  0  0  0
  1 32  1  0  0  0  0
  2  3  1  0  0  0  0
  2 33  1  0  0  0  0
  2 34  1  0  0  0  0
  3 28  1  0  0  0  0
  3  4  1  0  0  0  0
  3 64  1  0  0  0  0
  4  5  1  0  0  0  0
  4 35  1  0  0  0  0
  4 36  1  0  0  0  0
  5  6  1  0  0  0  0
  5 37  1  0  0  0  0
  5 38  1  0  0  0  0
  6  7  1  0  0  0  0
  6 27  1  0  0  0  0
  6 39  1  0  0  0  0
  7  8  1  0  0  0  0
  7  9  1  0  0  0  0
  8 40  1  0  0  0  0
  8 41  1  0  0  0  0
  8 42  1  0  0  0  0
  9 14  1  0  0  0  0
  9 10  2  0  0  0  0
 10 11  1  0  0  0  0
 11 12  2  0  0  0  0
 11 43  1  0  0  0  0
 12 13  1  0  0  0  0
 13 17  1  0  0  0  0
 13 14  2  0  0  0  0
 14 15  1  0  0  0  0
 15 16  2  0  0  0  0
 16 17  1  0  0  0  0
 16 44  1  0  0  0  0
 17 18  1  0  0  0  0
 18 19  1  0  0  0  0
 18 45  1  0  0  0  0
 18 46  1  0  0  0  0
 19 20  1  0  0  0  0
 19 22  1  0  0  0  0
 19 47  1  0  0  0  0
 20 21  1  0  0  0  0
 20 48  1  0  0  0  0
 20 49  1  0  0  0  0
 21 50  1  0  0  0  0
 22 26  1  0  0  0  0
 22 23  1  0  0  0  0
 22 51  1  0  0  0  0
 23 24  1  0  0  0  0
 23 52  1  0  0  0  0
 23 53  1  0  0  0  0
 24 25  1  0  0  0  0
 24 54  1  0  0  0  0
 24 55  1  0  0  0  0
 25 26  1  0  0  0  0
 26 56  1  0  0  0  0
 26 57  1  0  0  0  0
 27 28  1  0  0  0  0
 27 58  1  0  0  0  0
 27 59  1  0  0  0  0
 28 29  1  0  0  0  0
 28 60  1  0  0  0  0
 29 61  1  0  0  0  0
 29 62  1  0  0  0  0
 29 63  1  0  0  0  0
M  CHG  1   3   1
M  END
> <s_m_source_file>
AV-unprocessed.smi

> <i_m_source_file_index>
249

> <i_lp_mmshare_version>
43012

> <i_f3d_flags>
0

> <s_epik_input>
W0NIM11bQ0gyXU4xW0NIMl1bQ0gyXVtDQEhdKFtDSDJdW0NASF0xW0NIM10pTihbQ0gzXSljKG5bY0hdbjIpYyhjMjMpbltjSF1uM1tDSDJdW0NASF0oW0NIMl1bT0hdKVtDQEBIXTRbQ0gyXVtDSDJdT1tDSDJdNA==

> <s_epik_cmdline>
J2VwaWtfcHl0aG9uJywgJy1waCcsICc3LjAnLCAnLXRuJywgJzgnLCAnLW1hJywgJzIwMCcsICctbWV0YWxfYmluZGluZycsICctaW1hZScsICc8aW5maWxlLm1hZT4nLCAnLW9tYWUnLCAnPG91dGZpbGUubWFlPic=

> <r_lp_tautomer_probability>
1

> <r_epik_Ionization_Penalty>
0.00294688

> <r_epik_Ionization_Penalty_Charging>
0.00169971

> <r_epik_Ionization_Penalty_Neutral>
0.00124717

> <r_epik_State_Penalty>
-0

> <r_epik_Charging_Adjusted_Penalty>
0.00169971

> <i_epik_Tot_Q>
1

> <i_epik_Tot_abs_Q>
1

> <r_epik_Metal_State_Penalty>
-0

> <b_epik_Metal_Only>
0

> <s_lp_Force_Field>
OPLS_2005

> <r_lp_Energy>
57.5801

> <b_lp_Chiralities_Consistent>
1

> <s_lp_Variant>
AV-unprocessed.smi:249-30

> <Gold.Version>
5.8.1

> <Gold.Id.Protein>
6NUR|6NUR_protein|mol2

> <Gold.PLP.Fitness>
54.9837

> <Gold.PLP.PLP>
-51.2971

> <Gold.PLP.part.hbond>
-3.5175

> <Gold.PLP.part.metal>
0.0000

> <Gold.PLP.part.buried>
-1.2788

> <Gold.PLP.part.nonpolar>
-48.3958

> <Gold.PLP.part.repulsive>
0.3648

> <Gold.PLP.ligand.clash>
0.0000

> <Gold.PLP.ligand.torsion>
1.4990

> <Gold.PLP.Chemscore.Hbond>
2.0000

> <Gold.PLP.Chemscore.CHOScore>
0.0000

> <Gold.PLP.Chemscore.Metal>
0.0000

> <Gold.Chemscore.Hbonds>
donor molecule, donor type, donor heavy atom, donor atom, acceptor molecule, acceptor atom, score
      L1  H     3    64       P1  7948  1.07

> <Gold.PLP.Chemscore.Internal.Correction>
0.6846

> <Gold.Rescore>
     Score         DG    S(hbond)    S(metal)    S(lipo)     H(rot)  DE(clash)    DE(int)     intcor
     11.85     -16.06       1.00        0.00     125.33       2.90       1.82       2.39       ----

> <Gold.Chemscore.Fitness>
11.8539

> <Gold.Chemscore.DG>
-16.0571

> <Gold.Chemscore.ZeroCoef>
-5.4800

> <Gold.Chemscore.Hbond>
0.9998

> <Gold.Chemscore.Metal>
0.0000

> <Gold.Chemscore.Lipo>
125.3277

> <Gold.Chemscore.Internal_Hbond>
0.0000

> <Gold.Chemscore.DEClash>
1.8169

> <Gold.Chemscore.DEInternal>
2.3863

> <Gold.Chemscore.Rot>
2.9006

> <Gold.Chemscore.Internal.Correction>
   9.000000E+99

> <Gold.Chemscore.Hbonds>
donor molecule, donor type, donor heavy atom, donor atom, acceptor molecule, acceptor atom, score
      L1  H     3    64       P1  7948  0.54

> <Gold.Chemscore.Hbond.Weighted>
-3.3394

> <Gold.Chemscore.Metal.Weighted>
-0.0000

> <Gold.Chemscore.Lipo.Weighted>
-14.6633

> <Gold.Chemscore.Internal_Hbond.Weighted>
0.0000

> <Gold.Chemscore.DEClash.Weighted>
1.8169

> <Gold.Chemscore.DEInternal.Weighted>
2.3863

> <Gold.Chemscore.Rot.Weighted>
7.4256

> <Gold.Chemscore.Internal.Correction.Weighted>
   9.000000E+99

> <Gold.Protein.RotatedTorsions>
[ 6907 6896 6895 6894 ] final   17.02 input  -60.11 | X-H torsion
[ 7974 7965 7964 7962 ] final  152.50 input  175.53 | X-H torsion
[ 8008 7997 7996 7995 ] final   23.68 input   59.86 | X-H torsion
[ 10167 10162 10161 10158 ] final  125.75 input  -65.29 | X-H torsion
[ 10718 10713 10712 10709 ] final   -1.10 input   66.30 | X-H torsion
[ 10763 10752 10751 10750 ] final   55.32 input  -60.55 | X-H torsion
[ 11005 11000 10999 10996 ] final  122.26 input  -57.11 | X-H torsion

> <Gold.Protein.ActiveResidues>
 VAL166  LYS551  ARG553  GLY616  TRP617  ASP618  TYR619  PRO620  LYS621  CYS622 
 ASP623  PHE694  ASN695  SER759  ASP760  ASP761  ALA762  ILE779  LEU786  VAL792 
 PHE793  MET794  SER795  GLU796  ALA797  LYS798  CYS799  TRP800  GLU811  SER814 

> <Gold.Protein.RotatedAtoms>
  151.8431  135.0583  160.0450 H   0  0  0  0  0  0  0  0  0  0  0  0  # atno 6907 bound_to 6896
  152.2794  133.5451  159.5496 H   0  0  0  0  0  0  0  0  0  0  0  0  # atno 6908 bound_to 6896
  150.7183  134.0502  159.3838 H   0  0  0  0  0  0  0  0  0  0  0  0  # atno 6909 bound_to 6896
  144.8218  139.6676  143.6097 H   0  0  0  0  0  0  0  0  0  0  0  0  # atno 7974 bound_to 7965
  154.9847  140.3106  155.4931 H   0  0  0  0  0  0  0  0  0  0  0  0  # atno 8008 bound_to 7997
  156.2948  140.2260  156.4888 H   0  0  0  0  0  0  0  0  0  0  0  0  # atno 8009 bound_to 7997
  154.7758  140.0449  157.1076 H   0  0  0  0  0  0  0  0  0  0  0  0  # atno 8010 bound_to 7997
  139.5669  144.6916  151.3887 H   0  0  0  0  0  0  0  0  0  0  0  0  # atno 10167 bound_to 10162
  156.8106  130.5423  149.5709 H   0  0  0  0  0  0  0  0  0  0  0  0  # atno 10718 bound_to 10713
  152.9815  135.5715  154.5047 H   0  0  0  0  0  0  0  0  0  0  0  0  # atno 10763 bound_to 10752
  154.4561  135.2780  155.1748 H   0  0  0  0  0  0  0  0  0  0  0  0  # atno 10764 bound_to 10752
  154.3356  135.6240  153.5625 H   0  0  0  0  0  0  0  0  0  0  0  0  # atno 10765 bound_to 10752
  139.9261  134.9641  156.8082 H   0  0  0  0  0  0  0  0  0  0  0  0  # atno 11005 bound_to 11000
  146.2524  139.6228  142.9418 LP  0  0  0  0  0  0  0  0  0  0  0  0  # atno 17320 bound_to 7965
  145.5088  141.0436  143.2500 LP  0  0  0  0  0  0  0  0  0  0  0  0  # atno 17321 bound_to 7965
  140.6952  143.7765  150.7316 LP  0  0  0  0  0  0  0  0  0  0  0  0  # atno 17342 bound_to 10162
  140.1260  143.4569  152.2284 LP  0  0  0  0  0  0  0  0  0  0  0  0  # atno 17343 bound_to 10162
  156.1047  130.5995  150.9951 LP  0  0  0  0  0  0  0  0  0  0  0  0  # atno 17370 bound_to 10713
  157.6508  131.0897  150.8055 LP  0  0  0  0  0  0  0  0  0  0  0  0  # atno 17371 bound_to 10713
  140.6333  133.9885  155.7672 LP  0  0  0  0  0  0  0  0  0  0  0  0  # atno 17394 bound_to 11000
  141.0819  134.0050  157.3373 LP  0  0  0  0  0  0  0  0  0  0  0  0  # atno 17395 bound_to 11000

$$$$
