AV-unprocessed.smi:2184|AV-procd|sdf|8873|dock10
  -GOLD-   2272012 73D 1   1.00000     0.00000
 Structure written by MMmdl.
 47 48  0  0  0  0  0  0  0  0  1 V2000
  149.3418  132.7492  154.4784 C   0  0  0  0  0  0  0  0  0  0  0  0
  148.5996  134.4026  154.4060 S   0  0  0  0  0  0  0  0  0  0  0  0
  149.9474  135.4172  155.0838 C   0  0  2  0  0  0  0  0  0  0  0  0
  150.4611  134.8086  156.3984 C   0  0  0  0  0  0  0  0  0  0  0  0
  149.5217  136.8780  155.2771 C   0  0  0  0  0  0  0  0  0  0  0  0
  149.4689  137.3684  156.4053 O   0  0  0  0  0  0  0  0  0  0  0  0
  149.2096  137.5614  154.1665 N   0  0  0  0  0  0  0  0  0  0  0  0
  148.7661  138.9502  154.1490 C   0  0  0  0  0  0  0  0  0  0  0  0
  149.4863  139.8592  155.1354 C   0  0  0  0  0  0  0  0  0  0  0  0
  150.8931  139.9181  155.2434 C   0  0  0  0  0  0  0  0  0  0  0  0
  151.4709  140.7880  156.1878 C   0  0  0  0  0  0  0  0  0  0  0  0
  150.6303  141.5820  157.0032 C   0  0  0  0  0  0  0  0  0  0  0  0
  151.1891  142.4630  157.9545 N   0  0  0  0  0  0  0  0  0  0  0  0
  151.7603  143.7198  157.4744 C   0  0  0  0  0  0  0  0  0  0  0  0
  152.0417  144.6845  158.6432 C   0  0  1  0  0  0  0  0  0  0  0  0
  150.7734  145.3462  159.2113 C   0  0  0  0  0  0  0  0  0  0  0  0
  152.8056  144.0249  159.6550 O   0  0  0  0  0  0  0  0  0  0  0  0
  152.2176  142.8278  160.1621 C   0  0  2  0  0  0  0  0  0  0  0  0
  153.1583  142.2518  161.2257 C   0  0  0  0  0  0  0  0  0  0  0  0
  151.9834  141.8379  159.0072 C   0  0  0  0  0  0  0  0  0  0  0  0
  149.2800  141.5167  156.9019 N   0  0  0  0  0  0  0  0  0  0  0  0
  148.7312  140.6818  155.9948 C   0  0  0  0  0  0  0  0  0  0  0  0
  148.6254  132.0038  154.1333 H   0  0  0  0  0  0  0  0  0  0  0  0
  149.6295  132.5040  155.5006 H   0  0  0  0  0  0  0  0  0  0  0  0
  150.2256  132.6932  153.8432 H   0  0  0  0  0  0  0  0  0  0  0  0
  150.7682  135.3846  154.3654 H   0  0  0  0  0  0  0  0  0  0  0  0
  151.2648  135.4089  156.8271 H   0  0  0  0  0  0  0  0  0  0  0  0
  150.8558  133.8058  156.2331 H   0  0  0  0  0  0  0  0  0  0  0  0
  149.6676  134.7307  157.1428 H   0  0  0  0  0  0  0  0  0  0  0  0
  149.2756  137.0873  153.2777 H   0  0  0  0  0  0  0  0  0  0  0  0
  148.9036  139.3528  153.1444 H   0  0  0  0  0  0  0  0  0  0  0  0
  147.6971  138.9880  154.3643 H   0  0  0  0  0  0  0  0  0  0  0  0
  151.5342  139.3103  154.6228 H   0  0  0  0  0  0  0  0  0  0  0  0
  152.5455  140.8246  156.2852 H   0  0  0  0  0  0  0  0  0  0  0  0
  152.6909  143.5018  156.9484 H   0  0  0  0  0  0  0  0  0  0  0  0
  151.0906  144.1980  156.7584 H   0  0  0  0  0  0  0  0  0  0  0  0
  152.6722  145.4888  158.2636 H   0  0  0  0  0  0  0  0  0  0  0  0
  150.2852  145.9577  158.4522 H   0  0  0  0  0  0  0  0  0  0  0  0
  151.0174  145.9965  160.0513 H   0  0  0  0  0  0  0  0  0  0  0  0
  150.0426  144.6142  159.5542 H   0  0  0  0  0  0  0  0  0  0  0  0
  151.2673  143.0594  160.6440 H   0  0  0  0  0  0  0  0  0  0  0  0
  152.7504  141.3373  161.6570 H   0  0  0  0  0  0  0  0  0  0  0  0
  153.3098  142.9633  162.0375 H   0  0  0  0  0  0  0  0  0  0  0  0
  154.1352  142.0161  160.8026 H   0  0  0  0  0  0  0  0  0  0  0  0
  151.5036  140.9421  159.3988 H   0  0  0  0  0  0  0  0  0  0  0  0
  152.9381  141.5243  158.5824 H   0  0  0  0  0  0  0  0  0  0  0  0
  147.6520  140.6698  155.9552 H   0  0  0  0  0  0  0  0  0  0  0  0
  1  2  1  0  0  0  0
  1 23  1  0  0  0  0
  1 24  1  0  0  0  0
  1 25  1  0  0  0  0
  2  3  1  0  0  0  0
  3  4  1  0  0  0  0
  3  5  1  0  0  0  0
  3 26  1  0  0  0  0
  4 27  1  0  0  0  0
  4 28  1  0  0  0  0
  4 29  1  0  0  0  0
  5  6  2  0  0  0  0
  5  7  1  0  0  0  0
  7  8  1  0  0  0  0
  7 30  1  0  0  0  0
  8  9  1  0  0  0  0
  8 31  1  0  0  0  0
  8 32  1  0  0  0  0
  9 22  1  0  0  0  0
  9 10  2  0  0  0  0
 10 11  1  0  0  0  0
 10 33  1  0  0  0  0
 11 12  2  0  0  0  0
 11 34  1  0  0  0  0
 12 13  1  0  0  0  0
 12 21  1  0  0  0  0
 13 20  1  0  0  0  0
 13 14  1  0  0  0  0
 14 15  1  0  0  0  0
 14 35  1  0  0  0  0
 14 36  1  0  0  0  0
 15 16  1  0  0  0  0
 15 17  1  0  0  0  0
 15 37  1  0  0  0  0
 16 38  1  0  0  0  0
 16 39  1  0  0  0  0
 16 40  1  0  0  0  0
 17 18  1  0  0  0  0
 18 19  1  0  0  0  0
 18 20  1  0  0  0  0
 18 41  1  0  0  0  0
 19 42  1  0  0  0  0
 19 43  1  0  0  0  0
 19 44  1  0  0  0  0
 20 45  1  0  0  0  0
 20 46  1  0  0  0  0
 21 22  2  0  0  0  0
 22 47  1  0  0  0  0
M  END
> <s_m_source_file>
AV-unprocessed.smi

> <i_m_source_file_index>
2184

> <i_lp_mmshare_version>
43012

> <i_f3d_flags>
0

> <s_epik_input>
W0NIM11TW0NASF0oW0NIM10pQyg9TylbTkhdW0NIMl1jMVtjSF1bY0hdYyhuW2NIXTEpTjJbQ0gyXVtDQEBIXShbQ0gzXSlPW0NAQEhdKFtDSDNdKVtDSDJdMg==

> <s_epik_cmdline>
J2VwaWtfcHl0aG9uJywgJy1waCcsICc3LjAnLCAnLXRuJywgJzgnLCAnLW1hJywgJzIwMCcsICctbWV0YWxfYmluZGluZycsICctaW1hZScsICc8aW5maWxlLm1hZT4nLCAnLW9tYWUnLCAnPG91dGZpbGUubWFlPic=

> <r_lp_tautomer_probability>
1

> <r_epik_Ionization_Penalty>
0.00551702

> <r_epik_Ionization_Penalty_Charging>
0

> <r_epik_Ionization_Penalty_Neutral>
0.00551702

> <r_epik_State_Penalty>
0.00403758

> <r_epik_Charging_Adjusted_Penalty>
0.00403758

> <i_epik_Tot_Q>
0

> <i_epik_Tot_abs_Q>
0

> <r_epik_Metal_State_Penalty>
-0

> <b_epik_Metal_Only>
0

> <s_lp_Force_Field>
OPLS_2005

> <r_lp_Energy>
19.1656

> <b_lp_Chiralities_Consistent>
1

> <s_lp_Variant>
AV-unprocessed.smi:2184-5

> <Gold.Version>
5.8.1

> <Gold.Id.Protein>
6NUR|6NUR_protein|mol2

> <Gold.PLP.Fitness>
45.5196

> <Gold.PLP.PLP>
-43.3150

> <Gold.PLP.part.hbond>
-1.0000

> <Gold.PLP.part.metal>
0.0000

> <Gold.PLP.part.buried>
-4.9368

> <Gold.PLP.part.nonpolar>
-36.8387

> <Gold.PLP.part.repulsive>
0.1480

> <Gold.PLP.ligand.clash>
0.0000

> <Gold.PLP.ligand.torsion>
0.5789

> <Gold.PLP.Chemscore.Hbond>
1.0000

> <Gold.PLP.Chemscore.CHOScore>
0.0000

> <Gold.PLP.Chemscore.Metal>
0.0000

> <Gold.Chemscore.Hbonds>
donor molecule, donor type, donor heavy atom, donor atom, acceptor molecule, acceptor atom, score
      L1  H     7    30       P1  7948  1.00

> <Gold.PLP.Chemscore.Internal.Correction>
0.3625

> <Gold.Rescore>
     Score         DG    S(hbond)    S(metal)    S(lipo)     H(rot)  DE(clash)    DE(int)     intcor
     16.19     -18.04       0.98        0.00     114.20       1.59       0.07       1.78       ----

> <Gold.Chemscore.Fitness>
16.1901

> <Gold.Chemscore.DG>
-18.0398

> <Gold.Chemscore.ZeroCoef>
-5.4800

> <Gold.Chemscore.Hbond>
0.9824

> <Gold.Chemscore.Metal>
0.0000

> <Gold.Chemscore.Lipo>
114.1963

> <Gold.Chemscore.Internal_Hbond>
0.0000

> <Gold.Chemscore.DEClash>
0.0704

> <Gold.Chemscore.DEInternal>
1.7793

> <Gold.Chemscore.Rot>
1.5947

> <Gold.Chemscore.Internal.Correction>
   9.000000E+99

> <Gold.Chemscore.Hbonds>
donor molecule, donor type, donor heavy atom, donor atom, acceptor molecule, acceptor atom, score
      L1  H     7    30       P1  7948  0.98

> <Gold.Chemscore.Hbond.Weighted>
-3.2812

> <Gold.Chemscore.Metal.Weighted>
-0.0000

> <Gold.Chemscore.Lipo.Weighted>
-13.3610

> <Gold.Chemscore.Internal_Hbond.Weighted>
0.0000

> <Gold.Chemscore.DEClash.Weighted>
0.0704

> <Gold.Chemscore.DEInternal.Weighted>
1.7793

> <Gold.Chemscore.Rot.Weighted>
4.0824

> <Gold.Chemscore.Internal.Correction.Weighted>
   9.000000E+99

> <Gold.Protein.RotatedTorsions>
[ 6907 6896 6895 6894 ] final   28.87 input  -60.11 | X-H torsion
[ 7974 7965 7964 7962 ] final  174.62 input  175.53 | X-H torsion
[ 8008 7997 7996 7995 ] final  -53.90 input   59.86 | X-H torsion
[ 10167 10162 10161 10158 ] final  179.59 input  -65.29 | X-H torsion
[ 10718 10713 10712 10709 ] final   37.91 input   66.30 | X-H torsion
[ 10763 10752 10751 10750 ] final  -71.30 input  -60.55 | X-H torsion
[ 11005 11000 10999 10996 ] final  157.75 input  -57.11 | X-H torsion

> <Gold.Protein.ActiveResidues>
 VAL166  LYS551  ARG553  GLY616  TRP617  ASP618  TYR619  PRO620  LYS621  CYS622 
 ASP623  PHE694  ASN695  SER759  ASP760  ASP761  ALA762  ILE779  LEU786  VAL792 
 PHE793  MET794  SER795  GLU796  ALA797  LYS798  CYS799  TRP800  GLU811  SER814 

> <Gold.Protein.RotatedAtoms>
  152.0232  134.9810  160.0570 H   0  0  0  0  0  0  0  0  0  0  0  0  # atno 6907 bound_to 6896
  152.1316  133.4406  159.4732 H   0  0  0  0  0  0  0  0  0  0  0  0  # atno 6908 bound_to 6896
  150.6857  134.2332  159.4486 H   0  0  0  0  0  0  0  0  0  0  0  0  # atno 6909 bound_to 6896
  144.7218  139.9824  143.6439 H   0  0  0  0  0  0  0  0  0  0  0  0  # atno 7974 bound_to 7965
  154.4146  140.1189  156.5228 H   0  0  0  0  0  0  0  0  0  0  0  0  # atno 8008 bound_to 7997
  155.6685  140.3496  155.4790 H   0  0  0  0  0  0  0  0  0  0  0  0  # atno 8009 bound_to 7997
  155.9653  140.1131  157.0850 H   0  0  0  0  0  0  0  0  0  0  0  0  # atno 8010 bound_to 7997
  139.5343  144.2543  152.0759 H   0  0  0  0  0  0  0  0  0  0  0  0  # atno 10167 bound_to 10162
  157.3525  130.7606  149.6989 H   0  0  0  0  0  0  0  0  0  0  0  0  # atno 10718 bound_to 10713
  154.4298  135.5966  153.6061 H   0  0  0  0  0  0  0  0  0  0  0  0  # atno 10763 bound_to 10752
  152.9798  135.5972  154.3853 H   0  0  0  0  0  0  0  0  0  0  0  0  # atno 10764 bound_to 10752
  154.3689  135.2841  155.2256 H   0  0  0  0  0  0  0  0  0  0  0  0  # atno 10765 bound_to 10752
  140.1799  134.8483  157.2790 H   0  0  0  0  0  0  0  0  0  0  0  0  # atno 11005 bound_to 11000
  146.0477  139.3481  143.0659 LP  0  0  0  0  0  0  0  0  0  0  0  0  # atno 17320 bound_to 7965
  145.8255  140.9657  143.0876 LP  0  0  0  0  0  0  0  0  0  0  0  0  # atno 17321 bound_to 7965
  140.2011  144.4657  150.6431 LP  0  0  0  0  0  0  0  0  0  0  0  0  # atno 17342 bound_to 10162
  140.6540  143.2232  151.6011 LP  0  0  0  0  0  0  0  0  0  0  0  0  # atno 17343 bound_to 10162
  155.9724  130.4136  150.4092 LP  0  0  0  0  0  0  0  0  0  0  0  0  # atno 17370 bound_to 10713
  157.2157  131.0471  151.2574 LP  0  0  0  0  0  0  0  0  0  0  0  0  # atno 17371 bound_to 10713
  140.2279  134.3944  155.7535 LP  0  0  0  0  0  0  0  0  0  0  0  0  # atno 17394 bound_to 11000
  141.2222  133.7200  156.8595 LP  0  0  0  0  0  0  0  0  0  0  0  0  # atno 17395 bound_to 11000

$$$$
