#       Name:                AV-unprocessed.smi:1535
#       Creating user name   scv26
#       Creation time:       Fri Mar 27 06:32:42 2020


#       File generated by GOLD software.
#

@<TRIPOS>MOLECULE
AV-unprocessed.smi:1535
    51    52     1
SMALL
NO_CHARGES


@<TRIPOS>ATOM
      1 ****        -5.4499   2.9832   2.2261 C.3            1 S1                 0.0000
      2 ****        -4.1830   2.4654   1.5666 C.ar           1 S1                 0.0000
      3 ****        -4.2825   1.8675   0.2907 C.ar           1 S1                 0.0000
      4 ****        -3.1064   1.4043  -0.2867 C.ar           1 S1                 0.0000
      5 ****        -2.8801   0.7861  -1.5171 N.pl3          1 S1                 1.0000
      6 ****        -1.5531   0.5175  -1.6528 C.2            1 S1                 0.0000
      7 ****        -0.9274   0.9372  -0.5182 N.pl3          1 S1                 0.0000
      8 ****         0.5053   0.9091  -0.1745 C.3            1 S1                 0.0000
      9 ****         1.1632  -0.4559  -0.4559 C.3            1 S1                 0.0000
     10 ****         0.4945  -1.4462   0.3024 O.3            1 S1                 0.0000
     11 ****         2.6569  -0.4479  -0.0773 C.3            1 S1                 0.0000
     12 ****         3.4220  -1.6774  -0.3241 N.3            1 S1                 0.0000
     13 ****         4.7657  -1.5164   0.2186 C.3            1 S1                 0.0000
     14 ****         3.4879  -2.0488  -1.7419 C.3            1 S1                 0.0000
     15 ****         2.4040  -3.0434  -2.2033 C.3            1 S1                 0.0000
     16 ****         2.6690  -4.4589  -1.6724 C.3            1 S1                 0.0000
     17 ****         2.3022  -3.0534  -3.6708 C.1            1 S1                 0.0000
     18 ****         2.2213  -3.0599  -4.8249 N.1            1 S1                 0.0000
     19 ****        -1.8576   1.5144   0.3581 C.ar           1 S1                 0.0000
     20 ****        -1.7446   2.1054   1.6162 C.ar           1 S1                 0.0000
     21 ****        -2.9297   2.5827   2.2206 C.ar           1 S1                 0.0000
     22 ****        -2.8343   3.2246   3.5945 C.3            1 S1                 0.0000
     23 ****        -6.3249   2.8125   1.5985 H              1 S1                 0.0000
     24 ****        -5.3756   4.0555   2.4090 H              1 S1                 0.0000
     25 ****        -5.6191   2.4796   3.1781 H              1 S1                 0.0000
     26 ****        -5.2328   1.7761  -0.2150 H              1 S1                 0.0000
     27 ****        -1.0831   0.0517  -2.5070 H              1 S1                 0.0000
     28 ****         0.9911   1.6914  -0.7590 H              1 S1                 0.0000
     29 ****         0.6411   1.1669   0.8746 H              1 S1                 0.0000
     30 ****         1.0495  -0.6729  -1.5168 H              1 S1                 0.0000
     31 ****         0.6420  -1.2732   1.2197 H              1 S1                 0.0000
     32 ****         3.1401   0.3789  -0.6006 H              1 S1                 0.0000
     33 ****         2.7272  -0.2002   0.9830 H              1 S1                 0.0000
     34 ****         5.3397  -2.4377   0.1131 H              1 S1                 0.0000
     35 ****         4.7299  -1.2765   1.2818 H              1 S1                 0.0000
     36 ****         5.3058  -0.7181  -0.2927 H              1 S1                 0.0000
     37 ****         3.4520  -1.1478  -2.3565 H              1 S1                 0.0000
     38 ****         4.4543  -2.5033  -1.9668 H              1 S1                 0.0000
     39 ****         1.4224  -2.7371  -1.8518 H              1 S1                 0.0000
     40 ****         1.8973  -5.1519  -2.0087 H              1 S1                 0.0000
     41 ****         2.6745  -4.4759  -0.5821 H              1 S1                 0.0000
     42 ****         3.6309  -4.8388  -2.0180 H              1 S1                 0.0000
     43 ****        -0.7968   2.2003   2.1240 H              1 S1                 0.0000
     44 ****        -1.8034   3.2600   3.9485 H              1 S1                 0.0000
     45 ****        -3.4166   2.6582   4.3216 H              1 S1                 0.0000
     46 ****        -3.2118   4.2471   3.5683 H              1 S1                 0.0000
     47 ****        -3.5771   0.5676  -2.2174 H              1 S1                 0.0000
     48 ****         0.8532  -2.3498   0.0678 LP             1 S1                 0.0000
     49 ****        -0.4857  -1.4157   0.1069 LP             1 S1                 0.0000
     50 ****         2.9421  -2.4251   0.1348 LP             1 S1                 0.0000
     51 ****         2.1514  -3.0656  -5.8225 LP             1 S1                 0.0000
@<TRIPOS>BOND
    1    1    2 1     
    2    1   23 1     
    3    1   24 1     
    4    1   25 1     
    5    2   21 ar    
    6    2    3 ar    
    7    3    4 ar    
    8    3   26 1     
    9    4   19 ar    
   10    4    5 1     
   11    5    6 2     
   12    5   47 1     
   13    6    7 1     
   14    6   27 1     
   15    7    8 1     
   16    7   19 1     
   17    8    9 1     
   18    8   28 1     
   19    8   29 1     
   20    9   10 1     
   21    9   11 1     
   22    9   30 1     
   23   10   31 1     
   24   11   12 1     
   25   11   32 1     
   26   11   33 1     
   27   12   13 1     
   28   12   14 1     
   29   13   34 1     
   30   13   35 1     
   31   13   36 1     
   32   14   15 1     
   33   14   37 1     
   34   14   38 1     
   35   15   16 1     
   36   15   17 1     
   37   15   39 1     
   38   16   40 1     
   39   16   41 1     
   40   16   42 1     
   41   17   18 3     
   42   19   20 ar    
   43   20   21 ar    
   44   20   43 1     
   45   21   22 1     
   46   22   44 1     
   47   22   45 1     
   48   22   46 1     
   49   10   48 1     
   50   10   49 1     
   51   12   50 1     
   52   18   51 1     
@<TRIPOS>SUBSTRUCTURE
      1 S1             1
@<TRIPOS>SET
LONE_PAIRS      STATIC     ATOMS    <user>   **** ""
4 48 49 50 51
DONOR_HYDROGENS      STATIC     ATOMS    <user>   **** ""
2 47 31
ATOM$BLUE        STATIC     ATOMS    COLORGROUP SYSTEM
4 48 49 50 51
ATOM$RED        STATIC     ATOMS    COLORGROUP SYSTEM
2 47 31
