#       Name:                AV-unprocessed.smi:1252
#       Creating user name   scv26
#       Creation time:       Fri Mar 27 04:37:57 2020


#       File generated by GOLD software.
#

@<TRIPOS>MOLECULE
AV-unprocessed.smi:1252
    50    51     1
SMALL
NO_CHARGES


@<TRIPOS>ATOM
      1 ****        -3.2977   2.4485  -2.3931 C.3            1 S1                 0.0000
      2 ****        -2.4831   1.5630  -1.4276 C.3            1 S1                 0.0000
      3 ****        -0.9629   1.7523  -1.5717 C.2            1 S1                 0.0000
      4 ****        -0.4975   2.6352  -2.2930 O.2            1 S1                 0.0000
      5 ****        -0.1963   0.9046  -0.8707 N.am           1 S1                 0.0000
      6 ****         1.2605   0.9361  -0.8097 C.3            1 S1                 0.0000
      7 ****         1.8031   0.0849   0.3738 C.3            1 S1                 0.0000
      8 ****         3.3485   0.1412   0.3109 C.3            1 S1                 0.0000
      9 ****         1.3666   0.8175   1.6691 C.3            1 S1                 0.0000
     10 ****         1.2674  -1.3054   0.3394 N.3            1 S1                 0.0000
     11 ****         1.5639  -2.0499  -0.8903 C.3            1 S1                 0.0000
     12 ****         0.8763  -3.4253  -0.9130 C.3            1 S1                 0.0000
     13 ****         1.2704  -4.1755   0.2292 O.3            1 S1                 0.0000
     14 ****         0.9487  -3.5164   1.4480 C.3            1 S1                 0.0000
     15 ****         1.6319  -2.1388   1.4908 C.3            1 S1                 0.0000
     16 ****        -2.8876   1.7521  -0.0386 N.pl3          1 S1                 0.0000
     17 ****        -3.0955   0.8506   0.9239 C.2            1 S1                 0.0000
     18 ****        -3.3989   1.3790   2.1011 N.2            1 S1                 0.0000
     19 ****        -3.3493   2.7046   1.7751 C.2            1 S1                 0.0000
     20 ****        -3.0373   2.9838   0.5098 N.2            1 S1                 0.0000
     21 ****        -3.0507   2.2286  -3.4322 H              1 S1                 0.0000
     22 ****        -3.1138   3.5108  -2.2271 H              1 S1                 0.0000
     23 ****        -4.3672   2.2759  -2.2700 H              1 S1                 0.0000
     24 ****        -2.6966   0.5237  -1.6827 H              1 S1                 0.0000
     25 ****        -0.6538   0.1999  -0.3107 H              1 S1                 0.0000
     26 ****         1.6633   0.5998  -1.7654 H              1 S1                 0.0000
     27 ****         1.5922   1.9711  -0.7059 H              1 S1                 0.0000
     28 ****         3.7036   1.1716   0.3518 H              1 S1                 0.0000
     29 ****         3.7383  -0.2872  -0.6122 H              1 S1                 0.0000
     30 ****         3.8148  -0.3842   1.1438 H              1 S1                 0.0000
     31 ****         1.6042   1.8812   1.6273 H              1 S1                 0.0000
     32 ****         1.8724   0.4300   2.5534 H              1 S1                 0.0000
     33 ****         0.2925   0.7324   1.8399 H              1 S1                 0.0000
     34 ****         1.2325  -1.5000  -1.7689 H              1 S1                 0.0000
     35 ****         2.6394  -2.1945  -0.9938 H              1 S1                 0.0000
     36 ****        -0.2092  -3.3138  -0.9294 H              1 S1                 0.0000
     37 ****         1.1557  -3.9734  -1.8127 H              1 S1                 0.0000
     38 ****        -0.1336  -3.4133   1.5395 H              1 S1                 0.0000
     39 ****         1.2832  -4.1309   2.2839 H              1 S1                 0.0000
     40 ****         2.7117  -2.2833   1.5257 H              1 S1                 0.0000
     41 ****         1.3455  -1.6590   2.4250 H              1 S1                 0.0000
     42 ****        -3.0139  -0.2143   0.7620 H              1 S1                 0.0000
     43 ****        -3.5419   3.4877   2.4936 H              1 S1                 0.0000
     44 ****        -1.1103   3.2437  -2.7971 LP             1 S1                 0.0000
     45 ****         0.4933   2.7436  -2.3746 LP             1 S1                 0.0000
     46 ****         0.2832  -1.1325   0.3760 LP             1 S1                 0.0000
     47 ****         2.2593  -4.3196   0.1933 LP             1 S1                 0.0000
     48 ****         0.8038  -5.0598   0.2094 LP             1 S1                 0.0000
     49 ****        -3.6043   0.9361   2.9739 LP             1 S1                 0.0000
     50 ****        -2.9383   3.8781   0.0736 LP             1 S1                 0.0000
@<TRIPOS>BOND
    1    1    2 1     
    2    1   21 1     
    3    1   22 1     
    4    1   23 1     
    5    2    3 1     
    6    2   16 1     
    7    2   24 1     
    8    3    4 2     
    9    3    5 am    
   10    5    6 1     
   11    5   25 1     
   12    6    7 1     
   13    6   26 1     
   14    6   27 1     
   15    7    8 1     
   16    7    9 1     
   17    7   10 1     
   18    8   28 1     
   19    8   29 1     
   20    8   30 1     
   21    9   31 1     
   22    9   32 1     
   23    9   33 1     
   24   10   15 1     
   25   10   11 1     
   26   11   12 1     
   27   11   34 1     
   28   11   35 1     
   29   12   13 1     
   30   12   36 1     
   31   12   37 1     
   32   13   14 1     
   33   14   15 1     
   34   14   38 1     
   35   14   39 1     
   36   15   40 1     
   37   15   41 1     
   38   16   20 1     
   39   16   17 1     
   40   17   18 2     
   41   17   42 1     
   42   18   19 1     
   43   19   20 2     
   44   19   43 1     
   45    4   44 1     
   46    4   45 1     
   47   10   46 1     
   48   13   47 1     
   49   13   48 1     
   50   18   49 1     
   51   20   50 1     
@<TRIPOS>SUBSTRUCTURE
      1 S1             1
@<TRIPOS>SET
LONE_PAIRS      STATIC     ATOMS    <user>   **** ""
7 44 45 46 47 48 49 50
DONOR_HYDROGENS      STATIC     ATOMS    <user>   **** ""
1 25
ATOM$BLUE        STATIC     ATOMS    COLORGROUP SYSTEM
7 44 45 46 47 48 49 50
ATOM$RED        STATIC     ATOMS    COLORGROUP SYSTEM
1 25
