AV-unprocessed.smi:3018|AV-procd|sdf|11479|dock8
  -GOLD-   2272016413D 1   1.00000     0.00000
 Structure written by MMmdl.
 45 46  0  0  0  0  0  0  0  0  1 V2000
  150.9319  139.2448  154.7420 C   0  0  0  0  0  0  0  0  0  0  0  0
  150.7474  140.4939  155.6124 C   0  0  0  0  0  0  0  0  0  0  0  0
  149.8938  140.2259  156.8656 C   0  0  2  0  0  0  0  0  0  0  0  0
  149.9795  141.3760  157.7056 O   0  0  0  0  0  0  0  0  0  0  0  0
  151.2831  141.9042  157.9399 C   0  0  0  0  0  0  0  0  0  0  0  0
  151.9056  141.2698  159.2005 C   0  0  0  0  0  0  0  0  0  0  0  0
  153.2512  141.9270  159.5501 C   0  0  0  0  0  0  0  0  0  0  0  0
  153.1072  143.4491  159.7105 C   0  0  0  0  0  0  0  0  0  0  0  0
  152.4804  144.0831  158.4588 C   0  0  0  0  0  0  0  0  0  0  0  0
  151.1335  143.4245  158.1206 C   0  0  0  0  0  0  0  0  0  0  0  0
  150.4054  138.9910  157.6224 C   0  0  0  0  0  0  0  0  0  0  0  0
  151.5081  138.5135  157.3542 O   0  0  0  0  0  0  0  0  0  0  0  0
  149.5940  138.4915  158.5681 N   0  0  0  0  0  0  0  0  0  0  0  0
  149.8682  137.3128  159.3860 C   0  0  0  0  0  0  0  0  0  0  0  0
  148.6726  136.3375  159.4218 C   0  0  0  0  0  0  0  0  0  0  0  0
  147.9152  136.3162  160.7396 C   0  0  0  0  0  0  0  0  0  0  0  0
  147.3303  137.2929  161.3389 N   0  0  0  0  0  0  0  0  0  0  0  0
  146.8170  136.6642  162.4257 N   0  0  0  0  0  0  0  0  0  0  0  0
  147.0790  135.3531  162.4809 C   0  0  0  0  0  0  0  0  0  0  0  0
  146.7325  134.5515  163.3452 O   0  0  0  0  0  0  0  0  0  0  0  0
  147.7986  135.1143  161.3918 N   0  0  0  0  0  0  0  0  0  0  0  0
  146.2851  137.1975  163.0985 H   0  0  0  0  0  0  0  0  0  0  0  0
  148.1725  134.2285  161.0843 H   0  0  0  0  0  0  0  0  0  0  0  0
  151.5433  139.4689  153.8678 H   0  0  0  0  0  0  0  0  0  0  0  0
  149.9734  138.8646  154.3877 H   0  0  0  0  0  0  0  0  0  0  0  0
  151.4250  138.4466  155.2974 H   0  0  0  0  0  0  0  0  0  0  0  0
  151.7320  140.8596  155.9086 H   0  0  0  0  0  0  0  0  0  0  0  0
  150.2944  141.2857  155.0140 H   0  0  0  0  0  0  0  0  0  0  0  0
  148.8622  140.0595  156.5524 H   0  0  0  0  0  0  0  0  0  0  0  0
  151.9371  141.7299  157.0848 H   0  0  0  0  0  0  0  0  0  0  0  0
  151.2186  141.3771  160.0408 H   0  0  0  0  0  0  0  0  0  0  0  0
  152.0549  140.1997  159.0598 H   0  0  0  0  0  0  0  0  0  0  0  0
  153.6489  141.4936  160.4682 H   0  0  0  0  0  0  0  0  0  0  0  0
  153.9774  141.7100  158.7657 H   0  0  0  0  0  0  0  0  0  0  0  0
  152.4857  143.6677  160.5797 H   0  0  0  0  0  0  0  0  0  0  0  0
  154.0816  143.8972  159.9069 H   0  0  0  0  0  0  0  0  0  0  0  0
  152.3428  145.1537  158.6128 H   0  0  0  0  0  0  0  0  0  0  0  0
  153.1619  143.9769  157.6138 H   0  0  0  0  0  0  0  0  0  0  0  0
  150.7224  143.8667  157.2128 H   0  0  0  0  0  0  0  0  0  0  0  0
  150.4175  143.6311  158.9170 H   0  0  0  0  0  0  0  0  0  0  0  0
  148.7114  138.9570  158.7234 H   0  0  0  0  0  0  0  0  0  0  0  0
  150.7812  136.8083  159.0645 H   0  0  0  0  0  0  0  0  0  0  0  0
  150.0658  137.6655  160.3984 H   0  0  0  0  0  0  0  0  0  0  0  0
  147.9692  136.6037  158.6322 H   0  0  0  0  0  0  0  0  0  0  0  0
  149.0146  135.3276  159.1912 H   0  0  0  0  0  0  0  0  0  0  0  0
  1  2  1  0  0  0  0
  1 24  1  0  0  0  0
  1 25  1  0  0  0  0
  1 26  1  0  0  0  0
  2  3  1  0  0  0  0
  2 27  1  0  0  0  0
  2 28  1  0  0  0  0
  3  4  1  0  0  0  0
  3 11  1  0  0  0  0
  3 29  1  0  0  0  0
  4  5  1  0  0  0  0
  5 10  1  0  0  0  0
  5  6  1  0  0  0  0
  5 30  1  0  0  0  0
  6  7  1  0  0  0  0
  6 31  1  0  0  0  0
  6 32  1  0  0  0  0
  7  8  1  0  0  0  0
  7 33  1  0  0  0  0
  7 34  1  0  0  0  0
  8  9  1  0  0  0  0
  8 35  1  0  0  0  0
  8 36  1  0  0  0  0
  9 10  1  0  0  0  0
  9 37  1  0  0  0  0
  9 38  1  0  0  0  0
 10 39  1  0  0  0  0
 10 40  1  0  0  0  0
 11 12  2  0  0  0  0
 11 13  1  0  0  0  0
 13 14  1  0  0  0  0
 13 41  1  0  0  0  0
 14 15  1  0  0  0  0
 14 42  1  0  0  0  0
 14 43  1  0  0  0  0
 15 16  1  0  0  0  0
 15 44  1  0  0  0  0
 15 45  1  0  0  0  0
 16 21  1  0  0  0  0
 16 17  2  0  0  0  0
 17 18  1  0  0  0  0
 18 22  1  0  0  0  0
 18 19  1  0  0  0  0
 19 20  2  0  0  0  0
 19 21  1  0  0  0  0
 21 23  1  0  0  0  0
M  END
> <s_m_source_file>
AV-unprocessed.smi

> <i_m_source_file_index>
3018

> <i_lp_mmshare_version>
43012

> <i_f3d_flags>
0

> <s_epik_input>
W0NIMl0xW0NIMl1bQ0gyXVtDSDJdW0NIMl1bQ0hdMU9bQ0BASF0oW0NIMl1bQ0gzXSlDKD1PKVtOSF1bQ0gyXVtDSDJdYzJuW25IXWMoPU8pW25IXTI=

> <s_epik_cmdline>
J2VwaWtfcHl0aG9uJywgJy1waCcsICc3LjAnLCAnLXRuJywgJzgnLCAnLW1hJywgJzIwMCcsICctbWV0YWxfYmluZGluZycsICctaW1hZScsICc8aW5maWxlLm1hZT4nLCAnLW9tYWUnLCAnPG91dGZpbGUubWFlPic=

> <r_lp_tautomer_probability>
1

> <r_epik_Ionization_Penalty>
0.000773817

> <r_epik_Ionization_Penalty_Charging>
0.000773741

> <r_epik_Ionization_Penalty_Neutral>
7.58514e-08

> <r_epik_State_Penalty>
-0

> <r_epik_Charging_Adjusted_Penalty>
0.000773741

> <i_epik_Tot_Q>
0

> <i_epik_Tot_abs_Q>
0

> <r_epik_Metal_State_Penalty>
0.495152

> <b_epik_Metal_Only>
0

> <s_lp_Force_Field>
OPLS_2005

> <r_lp_Energy>
32.5004

> <b_lp_Chiralities_Consistent>
1

> <s_lp_Variant>
AV-unprocessed.smi:3018-1

> <Gold.Version>
5.8.1

> <Gold.Id.Protein>
6NUR|6NUR_protein|mol2

> <Gold.PLP.Fitness>
43.5884

> <Gold.PLP.PLP>
-40.5177

> <Gold.PLP.part.hbond>
-3.0000

> <Gold.PLP.part.metal>
0.0000

> <Gold.PLP.part.buried>
-4.6924

> <Gold.PLP.part.nonpolar>
-33.1562

> <Gold.PLP.part.repulsive>
0.4684

> <Gold.PLP.ligand.clash>
0.0000

> <Gold.PLP.ligand.torsion>
1.2631

> <Gold.PLP.Chemscore.Hbond>
1.8483

> <Gold.PLP.Chemscore.CHOScore>
0.0000

> <Gold.PLP.Chemscore.Metal>
0.0000

> <Gold.Chemscore.Hbonds>
donor molecule, donor type, donor heavy atom, donor atom, acceptor molecule, acceptor atom, score
      P1  H  6931  6943       L1    17  0.71
      P1  H  6934  6947       L1    17  0.98

> <Gold.PLP.Chemscore.Internal.Correction>
0.0520

> <Gold.Rescore>
     Score         DG    S(hbond)    S(metal)    S(lipo)     H(rot)  DE(clash)    DE(int)     intcor
      9.90     -12.78       1.42        0.00      88.36       3.04       0.06       2.82       ----

> <Gold.Chemscore.Fitness>
9.9011

> <Gold.Chemscore.DG>
-12.7785

> <Gold.Chemscore.ZeroCoef>
-5.4800

> <Gold.Chemscore.Hbond>
1.4173

> <Gold.Chemscore.Metal>
0.0000

> <Gold.Chemscore.Lipo>
88.3641

> <Gold.Chemscore.Internal_Hbond>
0.0000

> <Gold.Chemscore.DEClash>
0.0593

> <Gold.Chemscore.DEInternal>
2.8181

> <Gold.Chemscore.Rot>
3.0367

> <Gold.Chemscore.Internal.Correction>
   9.000000E+99

> <Gold.Chemscore.Hbonds>
donor molecule, donor type, donor heavy atom, donor atom, acceptor molecule, acceptor atom, score
      P1  H  6931  6943       L1    17  0.07
      P1  H  6934  6947       L1    17  0.93

> <Gold.Chemscore.Hbond.Weighted>
-4.7339

> <Gold.Chemscore.Metal.Weighted>
-0.0000

> <Gold.Chemscore.Lipo.Weighted>
-10.3386

> <Gold.Chemscore.Internal_Hbond.Weighted>
0.0000

> <Gold.Chemscore.DEClash.Weighted>
0.0593

> <Gold.Chemscore.DEInternal.Weighted>
2.8181

> <Gold.Chemscore.Rot.Weighted>
7.7739

> <Gold.Chemscore.Internal.Correction.Weighted>
   9.000000E+99

> <Gold.Protein.RotatedTorsions>
[ 6907 6896 6895 6894 ] final  116.04 input  -60.11 | X-H torsion
[ 7974 7965 7964 7962 ] final  -47.02 input  175.53 | X-H torsion
[ 8008 7997 7996 7995 ] final   87.90 input   59.86 | X-H torsion
[ 10167 10162 10161 10158 ] final   49.78 input  -65.29 | X-H torsion
[ 10718 10713 10712 10709 ] final   36.05 input   66.30 | X-H torsion
[ 10763 10752 10751 10750 ] final -125.59 input  -60.55 | X-H torsion
[ 11005 11000 10999 10996 ] final   84.45 input  -57.11 | X-H torsion

> <Gold.Protein.ActiveResidues>
 VAL166  LYS551  ARG553  GLY616  TRP617  ASP618  TYR619  PRO620  LYS621  CYS622 
 ASP623  PHE694  ASN695  SER759  ASP760  ASP761  ALA762  ILE779  LEU786  VAL792 
 PHE793  MET794  SER795  GLU796  ALA797  LYS798  CYS799  TRP800  GLU811  SER814 

> <Gold.Protein.RotatedAtoms>
  152.4703  133.8015  159.6954 H   0  0  0  0  0  0  0  0  0  0  0  0  # atno 6907 bound_to 6896
  150.8689  133.7525  159.2974 H   0  0  0  0  0  0  0  0  0  0  0  0  # atno 6908 bound_to 6896
  151.5066  135.1067  159.9895 H   0  0  0  0  0  0  0  0  0  0  0  0  # atno 6909 bound_to 6896
  145.9659  140.7432  142.9434 H   0  0  0  0  0  0  0  0  0  0  0  0  # atno 7974 bound_to 7965
  155.9811  140.3377  155.6664 H   0  0  0  0  0  0  0  0  0  0  0  0  # atno 8008 bound_to 7997
  155.6548  140.0709  157.2592 H   0  0  0  0  0  0  0  0  0  0  0  0  # atno 8009 bound_to 7997
  154.4192  140.1719  156.1700 H   0  0  0  0  0  0  0  0  0  0  0  0  # atno 8010 bound_to 7997
  140.2793  144.3175  150.6268 H   0  0  0  0  0  0  0  0  0  0  0  0  # atno 10167 bound_to 10162
  157.3302  130.7493  149.6842 H   0  0  0  0  0  0  0  0  0  0  0  0  # atno 10718 bound_to 10713
  154.8737  135.4024  154.3293 H   0  0  0  0  0  0  0  0  0  0  0  0  # atno 10763 bound_to 10752
  153.4109  135.7020  153.6365 H   0  0  0  0  0  0  0  0  0  0  0  0  # atno 10764 bound_to 10752
  153.5068  135.3716  155.2537 H   0  0  0  0  0  0  0  0  0  0  0  0  # atno 10765 bound_to 10752
  139.9000  134.8217  156.2447 H   0  0  0  0  0  0  0  0  0  0  0  0  # atno 11005 bound_to 11000
  144.6825  140.2668  143.7311 LP  0  0  0  0  0  0  0  0  0  0  0  0  # atno 17320 bound_to 7965
  145.7974  139.1951  143.2068 LP  0  0  0  0  0  0  0  0  0  0  0  0  # atno 17321 bound_to 7965
  140.5825  143.2172  151.7402 LP  0  0  0  0  0  0  0  0  0  0  0  0  # atno 17342 bound_to 10162
  139.4967  144.4059  152.0132 LP  0  0  0  0  0  0  0  0  0  0  0  0  # atno 17343 bound_to 10162
  155.9695  130.4197  150.4390 LP  0  0  0  0  0  0  0  0  0  0  0  0  # atno 17370 bound_to 10713
  157.2420  131.0527  151.2430 LP  0  0  0  0  0  0  0  0  0  0  0  0  # atno 17371 bound_to 10713
  141.0262  133.7014  156.1352 LP  0  0  0  0  0  0  0  0  0  0  0  0  # atno 17394 bound_to 11000
  140.7162  134.4407  157.5578 LP  0  0  0  0  0  0  0  0  0  0  0  0  # atno 17395 bound_to 11000

$$$$
