AV-unprocessed.smi:234|AV-procd|sdf|1795|dock4
  -GOLD-   2262020363D 1   1.00000     0.00000
 Structure written by MMmdl.
 59 62  0  0  0  0  0  0  0  0  1 V2000
  152.6605  143.0267  162.2241 C   0  0  0  0  0  0  0  0  0  0  0  0
  153.2570  142.6494  160.8619 C   0  0  0  0  0  0  0  0  0  0  0  0
  152.4668  143.1125  159.7750 O   0  0  0  0  0  0  0  0  0  0  0  0
  151.4637  142.2066  159.3332 C   0  0  2  0  0  0  0  0  0  0  0  0
  151.9665  141.0429  158.4738 C   0  0  0  0  0  0  0  0  0  0  0  0
  150.6852  141.2375  157.6597 C   0  0  2  0  0  0  0  0  0  0  0  0
  150.8603  140.9980  156.2252 N   0  0  0  0  0  0  0  0  0  0  0  0
  151.7195  139.8815  155.8534 C   0  0  0  0  0  0  0  0  0  0  0  0
  149.7238  140.9891  155.4904 C   0  0  0  0  0  0  0  0  0  0  0  0
  149.7843  141.0300  154.1327 N   0  0  0  0  0  0  0  0  0  0  0  0
  148.6586  141.0089  153.4131 C   0  0  0  0  0  0  0  0  0  0  0  0
  147.3954  140.9509  153.8407 N   0  0  0  0  0  0  0  0  0  0  0  0
  147.3336  140.9202  155.2032 C   0  0  0  0  0  0  0  0  0  0  0  0
  148.4404  140.9471  156.0958 C   0  0  0  0  0  0  0  0  0  0  0  0
  147.9965  140.9070  157.4109 N   0  0  0  0  0  0  0  0  0  0  0  0
  146.6970  140.8520  157.3023 C   0  0  0  0  0  0  0  0  0  0  0  0
  146.2138  140.8387  156.0124 N   0  0  0  0  0  0  0  0  0  0  0  0
  144.8197  140.7555  155.6056 C   0  0  0  0  0  0  0  0  0  0  0  0
  144.1049  142.1291  155.5780 C   0  0  1  0  0  0  0  0  0  0  0  0
  142.9642  142.0193  154.7429 O   0  0  0  0  0  0  0  0  0  0  0  0
  143.6363  142.5644  156.9705 C   0  0  0  0  0  0  0  0  0  0  0  0
  144.5071  143.7726  157.2949 C   0  0  0  0  0  0  0  0  0  0  0  0
  144.7282  144.3558  156.0237 O   0  0  0  0  0  0  0  0  0  0  0  0
  145.0246  143.2949  155.1281 C   0  0  2  0  0  0  0  0  0  0  0  0
  144.9014  143.7671  153.6694 C   0  0  0  0  0  0  0  0  0  0  0  0
  150.6911  142.7320  158.0959 C   0  0  0  0  0  0  0  0  0  0  0  0
  149.3290  143.3575  158.3975 C   0  0  0  0  0  0  0  0  0  0  0  0
  151.4596  143.7328  157.2120 C   0  0  0  0  0  0  0  0  0  0  0  0
  153.2160  142.5495  163.0313 H   0  0  0  0  0  0  0  0  0  0  0  0
  151.6217  142.7047  162.2993 H   0  0  0  0  0  0  0  0  0  0  0  0
  152.6963  144.1009  162.3987 H   0  0  0  0  0  0  0  0  0  0  0  0
  154.2867  142.9987  160.7736 H   0  0  0  0  0  0  0  0  0  0  0  0
  153.2957  141.5623  160.7896 H   0  0  0  0  0  0  0  0  0  0  0  0
  150.7854  141.8857  160.1278 H   0  0  0  0  0  0  0  0  0  0  0  0
  152.8827  141.2716  157.9266 H   0  0  0  0  0  0  0  0  0  0  0  0
  152.0290  140.0847  158.9895 H   0  0  0  0  0  0  0  0  0  0  0  0
  149.8541  140.6818  158.0999 H   0  0  0  0  0  0  0  0  0  0  0  0
  151.3160  138.9425  156.2340 H   0  0  0  0  0  0  0  0  0  0  0  0
  152.7196  140.0139  156.2658 H   0  0  0  0  0  0  0  0  0  0  0  0
  151.8188  139.7985  154.7702 H   0  0  0  0  0  0  0  0  0  0  0  0
  148.7891  141.0393  152.3415 H   0  0  0  0  0  0  0  0  0  0  0  0
  146.0505  140.8043  158.1665 H   0  0  0  0  0  0  0  0  0  0  0  0
  144.7778  140.2845  154.6226 H   0  0  0  0  0  0  0  0  0  0  0  0
  144.3043  140.0793  156.2889 H   0  0  0  0  0  0  0  0  0  0  0  0
  143.2559  141.9826  153.8448 H   0  0  0  0  0  0  0  0  0  0  0  0
  142.5904  142.8758  156.9556 H   0  0  0  0  0  0  0  0  0  0  0  0
  143.7293  141.7818  157.7241 H   0  0  0  0  0  0  0  0  0  0  0  0
  144.0240  144.4689  157.9807 H   0  0  0  0  0  0  0  0  0  0  0  0
  145.4592  143.4631  157.7287 H   0  0  0  0  0  0  0  0  0  0  0  0
  146.0645  143.0258  155.3171 H   0  0  0  0  0  0  0  0  0  0  0  0
  145.1088  142.9558  152.9714 H   0  0  0  0  0  0  0  0  0  0  0  0
  145.6125  144.5669  153.4634 H   0  0  0  0  0  0  0  0  0  0  0  0
  143.9049  144.1525  153.4536 H   0  0  0  0  0  0  0  0  0  0  0  0
  148.7973  143.6287  157.4850 H   0  0  0  0  0  0  0  0  0  0  0  0
  149.4319  144.2618  158.9979 H   0  0  0  0  0  0  0  0  0  0  0  0
  148.6883  142.6713  158.9516 H   0  0  0  0  0  0  0  0  0  0  0  0
  150.9047  143.9854  156.3085 H   0  0  0  0  0  0  0  0  0  0  0  0
  152.4279  143.3452  156.8953 H   0  0  0  0  0  0  0  0  0  0  0  0
  151.6468  144.6674  157.7412 H   0  0  0  0  0  0  0  0  0  0  0  0
  1  2  1  0  0  0  0
  1 29  1  0  0  0  0
  1 30  1  0  0  0  0
  1 31  1  0  0  0  0
  2  3  1  0  0  0  0
  2 32  1  0  0  0  0
  2 33  1  0  0  0  0
  3  4  1  0  0  0  0
  4 26  1  0  0  0  0
  4  5  1  0  0  0  0
  4 34  1  0  0  0  0
  5  6  1  0  0  0  0
  5 35  1  0  0  0  0
  5 36  1  0  0  0  0
  6  7  1  0  0  0  0
  6 26  1  0  0  0  0
  6 37  1  0  0  0  0
  7  8  1  0  0  0  0
  7  9  1  0  0  0  0
  8 38  1  0  0  0  0
  8 39  1  0  0  0  0
  8 40  1  0  0  0  0
  9 14  1  0  0  0  0
  9 10  2  0  0  0  0
 10 11  1  0  0  0  0
 11 12  2  0  0  0  0
 11 41  1  0  0  0  0
 12 13  1  0  0  0  0
 13 17  1  0  0  0  0
 13 14  2  0  0  0  0
 14 15  1  0  0  0  0
 15 16  2  0  0  0  0
 16 17  1  0  0  0  0
 16 42  1  0  0  0  0
 17 18  1  0  0  0  0
 18 19  1  0  0  0  0
 18 43  1  0  0  0  0
 18 44  1  0  0  0  0
 19 24  1  0  0  0  0
 19 20  1  0  0  0  0
 19 21  1  0  0  0  0
 20 45  1  0  0  0  0
 21 22  1  0  0  0  0
 21 46  1  0  0  0  0
 21 47  1  0  0  0  0
 22 23  1  0  0  0  0
 22 48  1  0  0  0  0
 22 49  1  0  0  0  0
 23 24  1  0  0  0  0
 24 25  1  0  0  0  0
 24 50  1  0  0  0  0
 25 51  1  0  0  0  0
 25 52  1  0  0  0  0
 25 53  1  0  0  0  0
 26 27  1  0  0  0  0
 26 28  1  0  0  0  0
 27 54  1  0  0  0  0
 27 55  1  0  0  0  0
 27 56  1  0  0  0  0
 28 57  1  0  0  0  0
 28 58  1  0  0  0  0
 28 59  1  0  0  0  0
M  END
> <s_m_source_file>
AV-unprocessed.smi

> <i_m_source_file_index>
234

> <i_lp_mmshare_version>
43012

> <i_f3d_flags>
0

> <s_epik_input>
W0NIM11bQ0gyXU9bQ0BASF0oQzEoW0NIM10pW0NIM10pW0NIMl1bQ0BIXTFOKFtDSDNdKWMobltjSF1uMiljKGMyMyluW2NIXW4zW0NIMl1bQ0BAXTQoW09IXSlbQ0gyXVtDSDJdT1tDQEhdNFtDSDNd

> <s_epik_cmdline>
J2VwaWtfcHl0aG9uJywgJy1waCcsICc3LjAnLCAnLXRuJywgJzgnLCAnLW1hJywgJzIwMCcsICctbWV0YWxfYmluZGluZycsICctaW1hZScsICc8aW5maWxlLm1hZT4nLCAnLW9tYWUnLCAnPG91dGZpbGUubWFlPic=

> <r_lp_tautomer_probability>
1

> <r_epik_Ionization_Penalty>
0.00349132

> <r_epik_Ionization_Penalty_Charging>
0

> <r_epik_Ionization_Penalty_Neutral>
0.00349132

> <r_epik_State_Penalty>
0.00242418

> <r_epik_Charging_Adjusted_Penalty>
0.00242418

> <i_epik_Tot_Q>
0

> <i_epik_Tot_abs_Q>
0

> <r_epik_Metal_State_Penalty>
-0

> <b_epik_Metal_Only>
0

> <s_lp_Force_Field>
OPLS_2005

> <r_lp_Energy>
47.8509

> <b_lp_Chiralities_Consistent>
1

> <s_lp_Variant>
AV-unprocessed.smi:234-11

> <Gold.Version>
5.8.1

> <Gold.Id.Protein>
6NUR|6NUR_protein|mol2

> <Gold.PLP.Fitness>
41.1573

> <Gold.PLP.PLP>
-38.3724

> <Gold.PLP.part.hbond>
-3.1922

> <Gold.PLP.part.metal>
0.0000

> <Gold.PLP.part.buried>
-1.8606

> <Gold.PLP.part.nonpolar>
-33.3885

> <Gold.PLP.part.repulsive>
0.5557

> <Gold.PLP.ligand.clash>
1.0734

> <Gold.PLP.ligand.torsion>
1.6596

> <Gold.PLP.Chemscore.Hbond>
1.1696

> <Gold.PLP.Chemscore.CHOScore>
0.9744

> <Gold.PLP.Chemscore.Metal>
0.0000

> <Gold.Chemscore.Hbonds>
donor molecule, donor type, donor heavy atom, donor atom, acceptor molecule, acceptor atom, score
      L1  H    20    45       P1 10174  0.16
      P1  H  7989  7998       L1    10  0.48
      L1  C    11    41       P1  7957  0.26

> <Gold.PLP.Chemscore.Internal.Correction>
0.7455

> <Gold.Rescore>
     Score         DG    S(hbond)    S(metal)    S(lipo)     H(rot)  DE(clash)    DE(int)     intcor
      7.61     -11.31       0.45        0.00      94.42       2.62       0.78       2.92       ----

> <Gold.Chemscore.Fitness>
7.6069

> <Gold.Chemscore.DG>
-11.3074

> <Gold.Chemscore.ZeroCoef>
-5.4800

> <Gold.Chemscore.Hbond>
0.4469

> <Gold.Chemscore.Metal>
0.0000

> <Gold.Chemscore.Lipo>
94.4188

> <Gold.Chemscore.Internal_Hbond>
0.0000

> <Gold.Chemscore.DEClash>
0.7778

> <Gold.Chemscore.DEInternal>
2.9228

> <Gold.Chemscore.Rot>
2.6219

> <Gold.Chemscore.Internal.Correction>
   9.000000E+99

> <Gold.Chemscore.Hbonds>
donor molecule, donor type, donor heavy atom, donor atom, acceptor molecule, acceptor atom, score
      P1  H  7989  7998       L1    10  0.39

> <Gold.Chemscore.Hbond.Weighted>
-1.4925

> <Gold.Chemscore.Metal.Weighted>
-0.0000

> <Gold.Chemscore.Lipo.Weighted>
-11.0470

> <Gold.Chemscore.Internal_Hbond.Weighted>
0.0000

> <Gold.Chemscore.DEClash.Weighted>
0.7778

> <Gold.Chemscore.DEInternal.Weighted>
2.9228

> <Gold.Chemscore.Rot.Weighted>
6.7121

> <Gold.Chemscore.Internal.Correction.Weighted>
   9.000000E+99

> <Gold.Protein.RotatedTorsions>
[ 6907 6896 6895 6894 ] final    6.05 input  -60.11 | X-H torsion
[ 7974 7965 7964 7962 ] final  -94.22 input  175.53 | X-H torsion
[ 8008 7997 7996 7995 ] final  142.06 input   59.86 | X-H torsion
[ 10167 10162 10161 10158 ] final   59.74 input  -65.29 | X-H torsion
[ 10718 10713 10712 10709 ] final  -36.20 input   66.30 | X-H torsion
[ 10763 10752 10751 10750 ] final -177.76 input  -60.55 | X-H torsion
[ 11005 11000 10999 10996 ] final  -12.61 input  -57.11 | X-H torsion

> <Gold.Protein.ActiveResidues>
 VAL166  LYS551  ARG553  GLY616  TRP617  ASP618  TYR619  PRO620  LYS621  CYS622 
 ASP623  PHE694  ASN695  SER759  ASP760  ASP761  ALA762  ILE779  LEU786  VAL792 
 PHE793  MET794  SER795  GLU796  ALA797  LYS798  CYS799  TRP800  GLU811  SER814 

> <Gold.Protein.RotatedAtoms>
  151.6674  135.0981  160.0191 H   0  0  0  0  0  0  0  0  0  0  0  0  # atno 6907 bound_to 6896
  152.3911  133.6676  159.6247 H   0  0  0  0  0  0  0  0  0  0  0  0  # atno 6908 bound_to 6896
  150.7827  133.8869  159.3343 H   0  0  0  0  0  0  0  0  0  0  0  0  # atno 6909 bound_to 6896
  145.3762  140.9512  143.2419 H   0  0  0  0  0  0  0  0  0  0  0  0  # atno 7974 bound_to 7965
  156.2956  140.2299  156.4666 H   0  0  0  0  0  0  0  0  0  0  0  0  # atno 8008 bound_to 7997
  154.7972  140.0450  157.1266 H   0  0  0  0  0  0  0  0  0  0  0  0  # atno 8009 bound_to 7997
  154.9576  140.3050  155.5049 H   0  0  0  0  0  0  0  0  0  0  0  0  # atno 8010 bound_to 7997
  140.1731  144.4257  150.6651 H   0  0  0  0  0  0  0  0  0  0  0  0  # atno 10167 bound_to 10162
  156.3296  130.4277  149.7884 H   0  0  0  0  0  0  0  0  0  0  0  0  # atno 10718 bound_to 10713
  154.5561  135.2816  155.0963 H   0  0  0  0  0  0  0  0  0  0  0  0  # atno 10763 bound_to 10752
  154.2390  135.6360  153.5204 H   0  0  0  0  0  0  0  0  0  0  0  0  # atno 10764 bound_to 10752
  153.0016  135.5555  154.6141 H   0  0  0  0  0  0  0  0  0  0  0  0  # atno 10765 bound_to 10752
  140.7675  133.8465  155.9178 H   0  0  0  0  0  0  0  0  0  0  0  0  # atno 11005 bound_to 11000
  144.8540  139.5277  143.6843 LP  0  0  0  0  0  0  0  0  0  0  0  0  # atno 17320 bound_to 7965
  146.2863  139.7013  142.9193 LP  0  0  0  0  0  0  0  0  0  0  0  0  # atno 17321 bound_to 7965
  140.6569  143.2240  151.5948 LP  0  0  0  0  0  0  0  0  0  0  0  0  # atno 17342 bound_to 10162
  139.5329  144.2864  152.1187 LP  0  0  0  0  0  0  0  0  0  0  0  0  # atno 17343 bound_to 10162
  156.5162  130.8194  151.3187 LP  0  0  0  0  0  0  0  0  0  0  0  0  # atno 17370 bound_to 10713
  157.7428  130.9898  150.2542 LP  0  0  0  0  0  0  0  0  0  0  0  0  # atno 17371 bound_to 10713
  140.9605  134.1662  157.4658 LP  0  0  0  0  0  0  0  0  0  0  0  0  # atno 17394 bound_to 11000
  139.8761  134.9943  156.5686 LP  0  0  0  0  0  0  0  0  0  0  0  0  # atno 17395 bound_to 11000

$$$$
