#       Name:                AV-unprocessed.smi:3252
#       Creating user name   scv26
#       Creation time:       Fri Mar 27 18:33:35 2020


#       File generated by GOLD software.
#

@<TRIPOS>MOLECULE
AV-unprocessed.smi:3252
    41    42     1
SMALL
NO_CHARGES


@<TRIPOS>ATOM
      1 ****        -2.8790  -3.4132  -2.1325 C.3            1 S1                 0.0000
      2 ****        -3.2931  -1.9349  -2.1528 C.3            1 S1                 0.0000
      3 ****        -2.7414  -1.1714  -1.0059 N.4            1 S1                 1.0000
      4 ****        -3.4751   0.0944  -0.7694 C.3            1 S1                 0.0000
      5 ****        -2.9001   0.8317   0.4504 C.3            1 S1                 0.0000
      6 ****        -1.5114   1.0613   0.2529 O.3            1 S1                 0.0000
      7 ****        -0.7754  -0.1518   0.1304 C.3            1 S1                 0.0000
      8 ****         0.7132   0.2023   0.0096 C.3            1 S1                 0.0000
      9 ****         1.2360   0.7571   1.2506 N.pl3          1 S1                 0.0000
     10 ****         2.5732   1.1654   1.3440 C.ar           1 S1                 0.0000
     11 ****         3.0060   1.7961   2.5296 C.ar           1 S1                 0.0000
     12 ****         4.3506   2.2043   2.6306 C.ar           1 S1                 0.0000
     13 ****         5.2145   1.9670   1.5433 C.ar           1 S1                 0.0000
     14 ****         6.6103   2.3662   1.5998 C.1            1 S1                 0.0000
     15 ****         7.7219   2.6838   1.6450 N.1            1 S1                 0.0000
     16 ****         4.6903   1.3310   0.3996 C.ar           1 S1                 0.0000
     17 ****         3.4022   0.9370   0.2974 N.ar           1 S1                 0.0000
     18 ****        -1.2839  -0.9116  -1.1108 C.3            1 S1                 0.0000
     19 ****        -3.3778  -3.9604  -2.9326 H              1 S1                 0.0000
     20 ****        -3.1533  -3.8871  -1.1896 H              1 S1                 0.0000
     21 ****        -1.8063  -3.5407  -2.2758 H              1 S1                 0.0000
     22 ****        -2.9984  -1.4652  -3.0923 H              1 S1                 0.0000
     23 ****        -4.3826  -1.8934  -2.1145 H              1 S1                 0.0000
     24 ****        -3.4060   0.7280  -1.6551 H              1 S1                 0.0000
     25 ****        -4.5331  -0.1136  -0.6049 H              1 S1                 0.0000
     26 ****        -3.4012   1.7910   0.5806 H              1 S1                 0.0000
     27 ****        -3.0623   0.2608   1.3658 H              1 S1                 0.0000
     28 ****        -0.9265  -0.7677   1.0194 H              1 S1                 0.0000
     29 ****         1.2829  -0.6958  -0.2327 H              1 S1                 0.0000
     30 ****         0.8670   0.9113  -0.8051 H              1 S1                 0.0000
     31 ****         0.5959   0.9624   2.0041 H              1 S1                 0.0000
     32 ****         2.3237   1.9658   3.3500 H              1 S1                 0.0000
     33 ****         4.7062   2.6893   3.5284 H              1 S1                 0.0000
     34 ****         5.3158   1.1295  -0.4580 H              1 S1                 0.0000
     35 ****        -0.7406  -1.8517  -1.2020 H              1 S1                 0.0000
     36 ****        -1.0800  -0.3357  -2.0153 H              1 S1                 0.0000
     37 ****        -2.8830  -1.7405  -0.1834 H              1 S1                 0.0000
     38 ****        -1.1562   1.5756   1.0335 LP             1 S1                 0.0000
     39 ****        -1.3896   1.5971  -0.5825 LP             1 S1                 0.0000
     40 ****         8.6827   2.9583   1.6841 LP             1 S1                 0.0000
     41 ****         3.0686   0.4874  -0.5312 LP             1 S1                 0.0000
@<TRIPOS>BOND
    1    1    2 1     
    2    1   19 1     
    3    1   20 1     
    4    1   21 1     
    5    2    3 1     
    6    2   22 1     
    7    2   23 1     
    8    3   18 1     
    9    3    4 1     
   10    3   37 1     
   11    4    5 1     
   12    4   24 1     
   13    4   25 1     
   14    5    6 1     
   15    5   26 1     
   16    5   27 1     
   17    6    7 1     
   18    7    8 1     
   19    7   18 1     
   20    7   28 1     
   21    8    9 1     
   22    8   29 1     
   23    8   30 1     
   24    9   10 1     
   25    9   31 1     
   26   10   17 ar    
   27   10   11 ar    
   28   11   12 ar    
   29   11   32 1     
   30   12   13 ar    
   31   12   33 1     
   32   13   14 1     
   33   13   16 ar    
   34   14   15 3     
   35   16   17 ar    
   36   16   34 1     
   37   18   35 1     
   38   18   36 1     
   39    6   38 1     
   40    6   39 1     
   41   15   40 1     
   42   17   41 1     
@<TRIPOS>SUBSTRUCTURE
      1 S1             1
@<TRIPOS>SET
LONE_PAIRS      STATIC     ATOMS    <user>   **** ""
4 38 39 40 41
DONOR_HYDROGENS      STATIC     ATOMS    <user>   **** ""
2 37 31
ATOM$BLUE        STATIC     ATOMS    COLORGROUP SYSTEM
4 38 39 40 41
ATOM$RED        STATIC     ATOMS    COLORGROUP SYSTEM
2 37 31
