AV-unprocessed.smi:3158|AV-procd|sdf|12042|dock5
  -GOLD-   2272017463D 1   1.00000     0.00000
 Structure written by MMmdl.
 40 40  0  0  0  0  0  0  0  0  2 V2000
  140.8471  136.5112  153.6149 C   0  0  0  0  0  0  0  0  0  0  0  0
  142.0003  137.4633  153.2652 C   0  0  0  0  0  0  0  0  0  0  0  0
  143.3775  136.7755  153.2277 C   0  0  1  0  0  0  0  0  0  0  0  0
  143.4266  135.6512  152.1826 C   0  0  0  0  0  0  0  0  0  0  0  0
  144.4220  137.7572  152.9438 N   0  0  0  0  0  0  0  0  0  0  0  0
  145.7402  137.5087  152.9097 C   0  0  0  0  0  0  0  0  0  0  0  0
  146.2273  136.3933  153.0972 O   0  0  0  0  0  0  0  0  0  0  0  0
  146.6521  138.7056  152.6096 C   0  0  2  0  0  0  0  0  0  0  0  0
  146.4860  139.1381  151.1451 C   0  0  0  0  0  0  0  0  0  0  0  0
  148.0696  138.3781  152.8781 N   0  3  0  0  0  0  0  0  0  0  0  0
  148.5185  138.6350  154.2644 C   0  0  0  0  0  0  0  0  0  0  0  0
  150.0522  138.7184  154.3500 C   0  0  0  0  0  0  0  0  0  0  0  0
  150.5129  139.7888  155.2197 N   0  0  0  0  0  0  0  0  0  0  0  0
  151.3367  139.6987  156.3224 C   0  0  0  0  0  0  0  0  0  0  0  0
  151.5106  140.9640  156.8054 C   0  0  0  0  0  0  0  0  0  0  0  0
  150.7556  141.7743  155.9123 C   0  0  0  0  0  0  0  0  0  0  0  0
  150.1673  141.0690  154.9599 N   0  0  0  0  0  0  0  0  0  0  0  0
  139.8911  137.0339  153.5816 H   0  0  0  0  0  0  0  0  0  0  0  0
  140.9583  136.0938  154.6160 H   0  0  0  0  0  0  0  0  0  0  0  0
  140.7959  135.6811  152.9096 H   0  0  0  0  0  0  0  0  0  0  0  0
  141.7973  137.9104  152.2912 H   0  0  0  0  0  0  0  0  0  0  0  0
  142.0165  138.2884  153.9785 H   0  0  0  0  0  0  0  0  0  0  0  0
  143.5480  136.3286  154.2090 H   0  0  0  0  0  0  0  0  0  0  0  0
  142.6688  134.8941  152.3853 H   0  0  0  0  0  0  0  0  0  0  0  0
  144.3964  135.1523  152.1864 H   0  0  0  0  0  0  0  0  0  0  0  0
  143.2528  136.0351  151.1768 H   0  0  0  0  0  0  0  0  0  0  0  0
  144.1139  138.7032  152.7699 H   0  0  0  0  0  0  0  0  0  0  0  0
  146.3684  139.5461  153.2457 H   0  0  0  0  0  0  0  0  0  0  0  0
  145.4514  139.4051  150.9254 H   0  0  0  0  0  0  0  0  0  0  0  0
  146.7775  138.3440  150.4560 H   0  0  0  0  0  0  0  0  0  0  0  0
  147.1012  140.0105  150.9229 H   0  0  0  0  0  0  0  0  0  0  0  0
  148.2071  137.3992  152.6682 H   0  0  0  0  0  0  0  0  0  0  0  0
  148.0781  139.5711  154.6089 H   0  0  0  0  0  0  0  0  0  0  0  0
  148.1511  137.8549  154.9327 H   0  0  0  0  0  0  0  0  0  0  0  0
  150.4613  137.7735  154.7104 H   0  0  0  0  0  0  0  0  0  0  0  0
  150.4726  138.8847  153.3577 H   0  0  0  0  0  0  0  0  0  0  0  0
  151.7257  138.7527  156.6701 H   0  0  0  0  0  0  0  0  0  0  0  0
  152.0930  141.2663  157.6632 H   0  0  0  0  0  0  0  0  0  0  0  0
  150.6217  142.8460  155.9257 H   0  0  0  0  0  0  0  0  0  0  0  0
  148.6486  138.9267  152.2590 H   0  0  0  0  0  0  0  0  0  0  0  0
  1  2  1  0  0  0  0
  1 18  1  0  0  0  0
  1 19  1  0  0  0  0
  1 20  1  0  0  0  0
  2  3  1  0  0  0  0
  2 21  1  0  0  0  0
  2 22  1  0  0  0  0
  3  4  1  0  0  0  0
  3  5  1  0  0  0  0
  3 23  1  0  0  0  0
  4 24  1  0  0  0  0
  4 25  1  0  0  0  0
  4 26  1  0  0  0  0
  5  6  1  0  0  0  0
  5 27  1  0  0  0  0
  6  7  2  0  0  0  0
  6  8  1  0  0  0  0
  8  9  1  0  0  0  0
  8 10  1  0  0  0  0
  8 28  1  0  0  0  0
  9 29  1  0  0  0  0
  9 30  1  0  0  0  0
  9 31  1  0  0  0  0
 10 11  1  0  0  0  0
 10 32  1  0  0  0  0
 10 40  1  0  0  0  0
 11 12  1  0  0  0  0
 11 33  1  0  0  0  0
 11 34  1  0  0  0  0
 12 13  1  0  0  0  0
 12 35  1  0  0  0  0
 12 36  1  0  0  0  0
 13 17  1  0  0  0  0
 13 14  1  0  0  0  0
 14 15  2  0  0  0  0
 14 37  1  0  0  0  0
 15 16  1  0  0  0  0
 15 38  1  0  0  0  0
 16 17  2  0  0  0  0
 16 39  1  0  0  0  0
M  CHG  1  10   1
M  END
> <s_m_source_file>
AV-unprocessed.smi

> <i_m_source_file_index>
3158

> <i_lp_mmshare_version>
43012

> <i_f3d_flags>
0

> <s_epik_input>
W0NIM11bQ0gyXVtDQEhdKFtDSDNdKVtOSF1DKD1PKVtDQEhdKFtDSDNdKVtOSF1bQ0gyXVtDSDJdbjFbY0hdW2NIXVtjSF1uMQ==

> <s_epik_cmdline>
J2VwaWtfcHl0aG9uJywgJy1waCcsICc3LjAnLCAnLXRuJywgJzgnLCAnLW1hJywgJzIwMCcsICctbWV0YWxfYmluZGluZycsICctaW1hZScsICc8aW5maWxlLm1hZT4nLCAnLW9tYWUnLCAnPG91dGZpbGUubWFlPic=

> <r_lp_tautomer_probability>
1

> <r_epik_Ionization_Penalty>
0.20724

> <r_epik_Ionization_Penalty_Charging>
0.207237

> <r_epik_Ionization_Penalty_Neutral>
3.33806e-06

> <r_epik_State_Penalty>
0.197234

> <r_epik_Charging_Adjusted_Penalty>
0.404471

> <i_epik_Tot_Q>
1

> <i_epik_Tot_abs_Q>
1

> <r_epik_Metal_State_Penalty>
0.197524

> <b_epik_Metal_Only>
0

> <s_lp_Force_Field>
OPLS_2005

> <r_lp_Energy>
6.13047

> <b_lp_Chiralities_Consistent>
1

> <s_lp_Variant>
AV-unprocessed.smi:3158-2

> <Gold.Version>
5.8.1

> <Gold.Id.Protein>
6NUR|6NUR_protein|mol2

> <Gold.PLP.Fitness>
46.0667

> <Gold.PLP.PLP>
-32.7259

> <Gold.PLP.part.hbond>
-4.2613

> <Gold.PLP.part.metal>
0.0000

> <Gold.PLP.part.buried>
-2.9353

> <Gold.PLP.part.nonpolar>
-26.8183

> <Gold.PLP.part.repulsive>
1.2532

> <Gold.PLP.ligand.clash>
0.0000

> <Gold.PLP.ligand.torsion>
0.9890

> <Gold.PLP.Chemscore.Hbond>
4.0752

> <Gold.PLP.Chemscore.CHOScore>
1.0000

> <Gold.PLP.Chemscore.Metal>
0.0000

> <Gold.Chemscore.Hbonds>
donor molecule, donor type, donor heavy atom, donor atom, acceptor molecule, acceptor atom, score
      L1  H     5    27       P1 10175  1.00
      L1  H    10    32       P1  7948  1.98
      L1  H    10    40       P1  7957  1.00
      P1  H  7989  7998       L1    17  0.09
      L1  C    16    39       P1  8028  0.92

> <Gold.PLP.Chemscore.Internal.Correction>
0.0934

> <Gold.Rescore>
     Score         DG    S(hbond)    S(metal)    S(lipo)     H(rot)  DE(clash)    DE(int)     intcor
     16.04     -17.80       2.99        0.00      68.46       2.21       0.72       1.04       ----

> <Gold.Chemscore.Fitness>
16.0374

> <Gold.Chemscore.DG>
-17.7995

> <Gold.Chemscore.ZeroCoef>
-5.4800

> <Gold.Chemscore.Hbond>
2.9867

> <Gold.Chemscore.Metal>
0.0000

> <Gold.Chemscore.Lipo>
68.4595

> <Gold.Chemscore.Internal_Hbond>
0.0000

> <Gold.Chemscore.DEClash>
0.7177

> <Gold.Chemscore.DEInternal>
1.0444

> <Gold.Chemscore.Rot>
2.2132

> <Gold.Chemscore.Internal.Correction>
   9.000000E+99

> <Gold.Chemscore.Hbonds>
donor molecule, donor type, donor heavy atom, donor atom, acceptor molecule, acceptor atom, score
      L1  H     5    27       P1 10175  1.00
      L1  H    10    32       P1  7948  0.93
      L1  H    10    40       P1  7957  0.98

> <Gold.Chemscore.Hbond.Weighted>
-9.9756

> <Gold.Chemscore.Metal.Weighted>
-0.0000

> <Gold.Chemscore.Lipo.Weighted>
-8.0098

> <Gold.Chemscore.Internal_Hbond.Weighted>
0.0000

> <Gold.Chemscore.DEClash.Weighted>
0.7177

> <Gold.Chemscore.DEInternal.Weighted>
1.0444

> <Gold.Chemscore.Rot.Weighted>
5.6658

> <Gold.Chemscore.Internal.Correction.Weighted>
   9.000000E+99

> <Gold.Protein.RotatedTorsions>
[ 6907 6896 6895 6894 ] final  -30.14 input  -60.11 | X-H torsion
[ 7974 7965 7964 7962 ] final   19.73 input  175.53 | X-H torsion
[ 8008 7997 7996 7995 ] final  -14.95 input   59.86 | X-H torsion
[ 10167 10162 10161 10158 ] final  -54.20 input  -65.29 | X-H torsion
[ 10718 10713 10712 10709 ] final -160.18 input   66.30 | X-H torsion
[ 10763 10752 10751 10750 ] final   92.65 input  -60.55 | X-H torsion
[ 11005 11000 10999 10996 ] final  -23.48 input  -57.11 | X-H torsion

> <Gold.Protein.ActiveResidues>
 VAL166  LYS551  ARG553  GLY616  TRP617  ASP618  TYR619  PRO620  LYS621  CYS622 
 ASP623  PHE694  ASN695  SER759  ASP760  ASP761  ALA762  ILE779  LEU786  VAL792 
 PHE793  MET794  SER795  GLU796  ALA797  LYS798  CYS799  TRP800  GLU811  SER814 

> <Gold.Protein.RotatedAtoms>
  151.1096  135.0019  159.8487 H   0  0  0  0  0  0  0  0  0  0  0  0  # atno 6907 bound_to 6896
  152.5442  134.1852  159.8661 H   0  0  0  0  0  0  0  0  0  0  0  0  # atno 6908 bound_to 6896
  151.1901  133.4628  159.2628 H   0  0  0  0  0  0  0  0  0  0  0  0  # atno 6909 bound_to 6896
  146.2138  139.8271  142.8668 H   0  0  0  0  0  0  0  0  0  0  0  0  # atno 7974 bound_to 7965
  154.5169  140.2209  155.9048 H   0  0  0  0  0  0  0  0  0  0  0  0  # atno 8008 bound_to 7997
  156.1618  140.3140  155.8785 H   0  0  0  0  0  0  0  0  0  0  0  0  # atno 8009 bound_to 7997
  155.3736  140.0468  157.3036 H   0  0  0  0  0  0  0  0  0  0  0  0  # atno 8010 bound_to 7997
  140.6444  143.2526  151.4902 H   0  0  0  0  0  0  0  0  0  0  0  0  # atno 10167 bound_to 10162
  156.5784  130.8719  151.2858 H   0  0  0  0  0  0  0  0  0  0  0  0  # atno 10718 bound_to 10713
  153.2216  135.4353  155.0495 H   0  0  0  0  0  0  0  0  0  0  0  0  # atno 10763 bound_to 10752
  154.8252  135.3357  154.6919 H   0  0  0  0  0  0  0  0  0  0  0  0  # atno 10764 bound_to 10752
  153.7351  135.7008  153.5036 H   0  0  0  0  0  0  0  0  0  0  0  0  # atno 10765 bound_to 10752
  140.8756  133.7690  156.0239 H   0  0  0  0  0  0  0  0  0  0  0  0  # atno 11005 bound_to 11000
  145.3036  141.0201  143.3594 LP  0  0  0  0  0  0  0  0  0  0  0  0  # atno 17320 bound_to 7965
  144.8988  139.4677  143.6643 LP  0  0  0  0  0  0  0  0  0  0  0  0  # atno 17321 bound_to 7965
  139.5653  144.2056  152.1756 LP  0  0  0  0  0  0  0  0  0  0  0  0  # atno 17342 bound_to 10162
  140.1336  144.5266  150.6787 LP  0  0  0  0  0  0  0  0  0  0  0  0  # atno 17343 bound_to 10162
  157.7332  130.9727  150.1966 LP  0  0  0  0  0  0  0  0  0  0  0  0  # atno 17370 bound_to 10713
  156.2653  130.3715  149.8088 LP  0  0  0  0  0  0  0  0  0  0  0  0  # atno 17371 bound_to 10713
  140.8522  134.2940  157.5270 LP  0  0  0  0  0  0  0  0  0  0  0  0  # atno 17394 bound_to 11000
  139.8715  134.9474  156.3965 LP  0  0  0  0  0  0  0  0  0  0  0  0  # atno 17395 bound_to 11000

$$$$
