AV-unprocessed.smi:2613|AV-procd|sdf|10212|dock2
  -GOLD-   2272014223D 1   1.00000     0.00000
 Structure written by MMmdl.
 27 28  0  0  0  0  0  0  0  0  2 V2000
  152.6160  143.6396  162.2077 C   0  0  0  0  0  0  0  0  0  0  0  0
  152.2936  143.1002  160.8508 C   0  0  0  0  0  0  0  0  0  0  0  0
  152.7360  141.9149  160.4316 N   0  0  0  0  0  0  0  0  0  0  0  0
  152.2154  141.8322  159.1536 C   0  0  0  0  0  0  0  0  0  0  0  0
  152.3298  140.8154  158.1799 C   0  0  0  0  0  0  0  0  0  0  0  0
  151.7076  140.9451  156.9141 C   0  0  0  0  0  0  0  0  0  0  0  0
  151.8424  139.8537  155.8863 C   0  0  0  0  0  0  0  0  0  0  0  0
  151.0465  139.8303  154.9210 O   0  0  0  0  0  0  0  0  0  0  0  0
  152.7471  139.0009  156.0266 O   0  5  0  0  0  0  0  0  0  0  0  0
  150.9592  142.1125  156.6265 C   0  0  0  0  0  0  0  0  0  0  0  0
  150.8321  143.1380  157.5830 C   0  0  0  0  0  0  0  0  0  0  0  0
  151.4573  142.9926  158.8337 C   0  0  0  0  0  0  0  0  0  0  0  0
  151.5328  143.7928  159.9689 N   0  0  0  0  0  0  0  0  0  0  0  0
  150.9236  145.1012  160.1427 C   0  0  0  0  0  0  0  0  0  0  0  0
  149.4426  144.9827  160.5261 C   0  0  0  0  0  0  0  0  0  0  0  0
  148.7415  144.2935  159.5142 O   0  0  0  0  0  0  0  0  0  0  0  0
  153.3166  142.9825  162.7241 H   0  0  0  0  0  0  0  0  0  0  0  0
  151.7087  143.7153  162.8072 H   0  0  0  0  0  0  0  0  0  0  0  0
  153.0700  144.6273  162.1253 H   0  0  0  0  0  0  0  0  0  0  0  0
  152.9050  139.9324  158.4173 H   0  0  0  0  0  0  0  0  0  0  0  0
  150.4759  142.2313  155.6675 H   0  0  0  0  0  0  0  0  0  0  0  0
  150.2613  144.0260  157.3554 H   0  0  0  0  0  0  0  0  0  0  0  0
  151.4731  145.6376  160.9175 H   0  0  0  0  0  0  0  0  0  0  0  0
  151.0406  145.6802  159.2263 H   0  0  0  0  0  0  0  0  0  0  0  0
  149.3274  144.4449  161.4674 H   0  0  0  0  0  0  0  0  0  0  0  0
  148.9984  145.9700  160.6576 H   0  0  0  0  0  0  0  0  0  0  0  0
  148.7675  144.8117  158.7244 H   0  0  0  0  0  0  0  0  0  0  0  0
  1  2  1  0  0  0  0
  1 17  1  0  0  0  0
  1 18  1  0  0  0  0
  1 19  1  0  0  0  0
  2 13  1  0  0  0  0
  2  3  2  0  0  0  0
  3  4  1  0  0  0  0
  4 12  2  0  0  0  0
  4  5  1  0  0  0  0
  5  6  2  0  0  0  0
  5 20  1  0  0  0  0
  6  7  1  0  0  0  0
  6 10  1  0  0  0  0
  7  8  2  0  0  0  0
  7  9  1  0  0  0  0
 10 11  2  0  0  0  0
 10 21  1  0  0  0  0
 11 12  1  0  0  0  0
 11 22  1  0  0  0  0
 12 13  1  0  0  0  0
 13 14  1  0  0  0  0
 14 15  1  0  0  0  0
 14 23  1  0  0  0  0
 14 24  1  0  0  0  0
 15 16  1  0  0  0  0
 15 25  1  0  0  0  0
 15 26  1  0  0  0  0
 16 27  1  0  0  0  0
M  CHG  1   9  -1
M  END
> <s_m_source_file>
AV-unprocessed.smi

> <i_m_source_file_index>
2613

> <i_lp_mmshare_version>
43012

> <i_f3d_flags>
0

> <s_epik_input>
W09IXVtDSDJdW0NIMl1uKGMobjEpW0NIM10pYyhjMTIpW2NIXVtjSF1jKFtjSF0yKUMoPU8pW09IXQ==

> <s_epik_cmdline>
J2VwaWtfcHl0aG9uJywgJy1waCcsICc3LjAnLCAnLXRuJywgJzgnLCAnLW1hJywgJzIwMCcsICctbWV0YWxfYmluZGluZycsICctaW1hZScsICc8aW5maWxlLm1hZT4nLCAnLW9tYWUnLCAnPG91dGZpbGUubWFlPic=

> <r_epik_Ionization_Penalty>
0.138858

> <r_epik_Ionization_Penalty_Charging>
0.000449576

> <r_epik_Ionization_Penalty_Neutral>
0.138408

> <r_epik_State_Penalty>
0.127739

> <r_epik_Charging_Adjusted_Penalty>
0.128189

> <i_epik_Tot_Q>
-1

> <i_epik_Tot_abs_Q>
1

> <r_epik_Metal_State_Penalty>
0.000142538

> <b_epik_Metal_Only>
0

> <s_lp_Force_Field>
OPLS_2005

> <r_lp_Energy>
7.17367

> <b_lp_Chiralities_Consistent>
1

> <s_lp_Variant>
AV-unprocessed.smi:2613-1

> <Gold.Version>
5.8.1

> <Gold.Id.Protein>
6NUR|6NUR_protein|mol2

> <Gold.PLP.Fitness>
47.2819

> <Gold.PLP.PLP>
-36.1383

> <Gold.PLP.part.hbond>
-3.0000

> <Gold.PLP.part.metal>
0.0000

> <Gold.PLP.part.buried>
-6.2662

> <Gold.PLP.part.nonpolar>
-26.9201

> <Gold.PLP.part.repulsive>
0.0590

> <Gold.PLP.ligand.clash>
0.0000

> <Gold.PLP.ligand.torsion>
0.4298

> <Gold.PLP.Chemscore.Hbond>
4.0000

> <Gold.PLP.Chemscore.CHOScore>
0.0000

> <Gold.PLP.Chemscore.Metal>
0.0000

> <Gold.Chemscore.Hbonds>
donor molecule, donor type, donor heavy atom, donor atom, acceptor molecule, acceptor atom, score
      L1  H    16    27       P1  8029  0.99
      P1  H  7989  7998       L1     8  1.00
      P1  H  7997  8010       L1     9  2.00

> <Gold.PLP.Chemscore.Internal.Correction>
0.0032

> <Gold.Rescore>
     Score         DG    S(hbond)    S(metal)    S(lipo)     H(rot)  DE(clash)    DE(int)     intcor
     18.03     -18.98       2.67        0.00      79.16       1.83       0.33       0.63       ----

> <Gold.Chemscore.Fitness>
18.0266

> <Gold.Chemscore.DG>
-18.9839

> <Gold.Chemscore.ZeroCoef>
-5.4800

> <Gold.Chemscore.Hbond>
2.6697

> <Gold.Chemscore.Metal>
0.0000

> <Gold.Chemscore.Lipo>
79.1619

> <Gold.Chemscore.Internal_Hbond>
0.0000

> <Gold.Chemscore.DEClash>
0.3312

> <Gold.Chemscore.DEInternal>
0.6261

> <Gold.Chemscore.Rot>
1.8262

> <Gold.Chemscore.Internal.Correction>
   9.000000E+99

> <Gold.Chemscore.Hbonds>
donor molecule, donor type, donor heavy atom, donor atom, acceptor molecule, acceptor atom, score
      L1  H    16    27       P1  8029  0.86
      P1  H  7989  7998       L1     8  0.82
      P1  H  7997  8010       L1     9  0.39

> <Gold.Chemscore.Hbond.Weighted>
-8.9169

> <Gold.Chemscore.Metal.Weighted>
-0.0000

> <Gold.Chemscore.Lipo.Weighted>
-9.2619

> <Gold.Chemscore.Internal_Hbond.Weighted>
0.0000

> <Gold.Chemscore.DEClash.Weighted>
0.3312

> <Gold.Chemscore.DEInternal.Weighted>
0.6261

> <Gold.Chemscore.Rot.Weighted>
4.6750

> <Gold.Chemscore.Internal.Correction.Weighted>
   9.000000E+99

> <Gold.Protein.RotatedTorsions>
[ 6907 6896 6895 6894 ] final   50.90 input  -60.11 | X-H torsion
[ 7974 7965 7964 7962 ] final  130.28 input  175.53 | X-H torsion
[ 8008 7997 7996 7995 ] final   74.28 input   59.86 | X-H torsion
[ 10167 10162 10161 10158 ] final   84.67 input  -65.29 | X-H torsion
[ 10718 10713 10712 10709 ] final  168.68 input   66.30 | X-H torsion
[ 10763 10752 10751 10750 ] final -132.04 input  -60.55 | X-H torsion
[ 11005 11000 10999 10996 ] final  115.64 input  -57.11 | X-H torsion

> <Gold.Protein.ActiveResidues>
 VAL166  LYS551  ARG553  GLY616  TRP617  ASP618  TYR619  PRO620  LYS621  CYS622 
 ASP623  PHE694  ASN695  SER759  ASP760  ASP761  ALA762  ILE779  LEU786  VAL792 
 PHE793  MET794  SER795  GLU796  ALA797  LYS798  CYS799  TRP800  GLU811  SER814 

> <Gold.Protein.RotatedAtoms>
  152.3068  134.7545  160.0345 H   0  0  0  0  0  0  0  0  0  0  0  0  # atno 6907 bound_to 6896
  151.8040  133.3368  159.3543 H   0  0  0  0  0  0  0  0  0  0  0  0  # atno 6908 bound_to 6896
  150.7300  134.5657  159.5909 H   0  0  0  0  0  0  0  0  0  0  0  0  # atno 6909 bound_to 6896
  145.0196  139.4144  143.5204 H   0  0  0  0  0  0  0  0  0  0  0  0  # atno 7974 bound_to 7965
  155.7961  140.3478  155.5376 H   0  0  0  0  0  0  0  0  0  0  0  0  # atno 8008 bound_to 7997
  155.8585  140.0967  157.1649 H   0  0  0  0  0  0  0  0  0  0  0  0  # atno 8009 bound_to 7997
  154.4011  140.1363  156.3919 H   0  0  0  0  0  0  0  0  0  0  0  0  # atno 8010 bound_to 7997
  139.9056  144.6303  150.8591 H   0  0  0  0  0  0  0  0  0  0  0  0  # atno 10167 bound_to 10162
  157.0336  131.0266  151.2736 H   0  0  0  0  0  0  0  0  0  0  0  0  # atno 10718 bound_to 10713
  154.8746  135.3811  154.4344 H   0  0  0  0  0  0  0  0  0  0  0  0  # atno 10763 bound_to 10752
  153.5035  135.7030  153.5824 H   0  0  0  0  0  0  0  0  0  0  0  0  # atno 10764 bound_to 10752
  153.4145  135.3916  155.2038 H   0  0  0  0  0  0  0  0  0  0  0  0  # atno 10765 bound_to 10752
  139.9016  134.9587  156.7076 H   0  0  0  0  0  0  0  0  0  0  0  0  # atno 11005 bound_to 11000
  146.3483  139.9687  142.8709 LP  0  0  0  0  0  0  0  0  0  0  0  0  # atno 17320 bound_to 7965
  145.1913  140.9813  143.4209 LP  0  0  0  0  0  0  0  0  0  0  0  0  # atno 17321 bound_to 7965
  140.7697  143.3404  151.2220 LP  0  0  0  0  0  0  0  0  0  0  0  0  # atno 17342 bound_to 10162
  139.6987  143.9569  152.2895 LP  0  0  0  0  0  0  0  0  0  0  0  0  # atno 17343 bound_to 10162
  157.5159  130.7967  149.7755 LP  0  0  0  0  0  0  0  0  0  0  0  0  # atno 17370 bound_to 10713
  156.0061  130.3855  150.2426 LP  0  0  0  0  0  0  0  0  0  0  0  0  # atno 17371 bound_to 10713
  140.7101  133.9230  155.8079 LP  0  0  0  0  0  0  0  0  0  0  0  0  # atno 17394 bound_to 11000
  141.0306  134.0761  157.4018 LP  0  0  0  0  0  0  0  0  0  0  0  0  # atno 17395 bound_to 11000

$$$$
