AV-unprocessed.smi:2679|AV-procd|sdf|10370|dock9
  -GOLD-   2272014403D 1   1.00000     0.00000
 Structure written by MMmdl.
 39 40  0  0  0  0  0  0  0  0  1 V2000
  152.0742  138.1128  154.0203 C   0  0  0  0  0  0  0  0  0  0  0  0
  152.1952  138.6378  155.4145 C   0  0  0  0  0  0  0  0  0  0  0  0
  153.3300  138.6081  156.1169 N   0  0  0  0  0  0  0  0  0  0  0  0
  153.0214  139.1746  157.3338 N   0  0  0  0  0  0  0  0  0  0  0  0
  151.7282  139.4970  157.2599 C   0  0  0  0  0  0  0  0  0  0  0  0
  150.8383  140.2564  158.5754 S   0  0  0  0  0  0  0  0  0  0  0  0
  152.1924  141.2733  159.2352 C   0  0  2  0  0  0  0  0  0  0  0  0
  152.9943  140.4383  160.1454 C   0  0  0  0  0  0  0  0  0  0  0  0
  153.6247  139.7824  160.8605 N   0  0  0  0  0  0  0  0  0  0  0  0
  151.6638  142.5633  159.9026 C   0  0  0  0  0  0  0  0  0  0  0  0
  151.6283  143.7464  158.9072 C   0  0  0  0  0  0  0  0  0  0  0  0
  151.1067  145.0354  159.5622 C   0  0  0  0  0  0  0  0  0  0  0  0
  151.9361  145.4068  160.7992 C   0  0  0  0  0  0  0  0  0  0  0  0
  151.9726  144.2458  161.8025 C   0  0  0  0  0  0  0  0  0  0  0  0
  152.4927  142.9559  161.1471 C   0  0  0  0  0  0  0  0  0  0  0  0
  151.1571  139.1885  156.0775 N   0  0  0  0  0  0  0  0  0  0  0  0
  149.7828  139.3926  155.6381 C   0  0  0  0  0  0  0  0  0  0  0  0
  149.5479  140.8430  155.2117 C   0  0  0  0  0  0  0  0  0  0  0  0
  149.3930  141.7469  156.1825 N   0  0  0  0  0  0  0  0  0  0  0  0
  149.5025  141.1433  154.0208 O   0  0  0  0  0  0  0  0  0  0  0  0
  153.0162  137.6682  153.6974 H   0  0  0  0  0  0  0  0  0  0  0  0
  151.8205  138.9207  153.3338 H   0  0  0  0  0  0  0  0  0  0  0  0
  151.2983  137.3489  153.9698 H   0  0  0  0  0  0  0  0  0  0  0  0
  152.8494  141.5502  158.4100 H   0  0  0  0  0  0  0  0  0  0  0  0
  150.6435  142.3700  160.2378 H   0  0  0  0  0  0  0  0  0  0  0  0
  152.6293  143.9201  158.5101 H   0  0  0  0  0  0  0  0  0  0  0  0
  150.9978  143.5100  158.0504 H   0  0  0  0  0  0  0  0  0  0  0  0
  151.1288  145.8533  158.8415 H   0  0  0  0  0  0  0  0  0  0  0  0
  150.0623  144.9031  159.8477 H   0  0  0  0  0  0  0  0  0  0  0  0
  152.9528  145.6616  160.4968 H   0  0  0  0  0  0  0  0  0  0  0  0
  151.5210  146.2966  161.2736 H   0  0  0  0  0  0  0  0  0  0  0  0
  152.6020  144.5098  162.6527 H   0  0  0  0  0  0  0  0  0  0  0  0
  150.9717  144.0748  162.2007 H   0  0  0  0  0  0  0  0  0  0  0  0
  152.4721  142.1570  161.8882 H   0  0  0  0  0  0  0  0  0  0  0  0
  153.5381  143.0860  160.8641 H   0  0  0  0  0  0  0  0  0  0  0  0
  149.5618  138.7048  154.8206 H   0  0  0  0  0  0  0  0  0  0  0  0
  149.0993  139.1382  156.4482 H   0  0  0  0  0  0  0  0  0  0  0  0
  149.2397  142.7176  155.9514 H   0  0  0  0  0  0  0  0  0  0  0  0
  149.4342  141.4552  157.1485 H   0  0  0  0  0  0  0  0  0  0  0  0
  1  2  1  0  0  0  0
  1 21  1  0  0  0  0
  1 22  1  0  0  0  0
  1 23  1  0  0  0  0
  2 16  1  0  0  0  0
  2  3  2  0  0  0  0
  3  4  1  0  0  0  0
  4  5  2  0  0  0  0
  5  6  1  0  0  0  0
  5 16  1  0  0  0  0
  6  7  1  0  0  0  0
  7  8  1  0  0  0  0
  7 10  1  0  0  0  0
  7 24  1  0  0  0  0
  8  9  3  0  0  0  0
 10 15  1  0  0  0  0
 10 11  1  0  0  0  0
 10 25  1  0  0  0  0
 11 12  1  0  0  0  0
 11 26  1  0  0  0  0
 11 27  1  0  0  0  0
 12 13  1  0  0  0  0
 12 28  1  0  0  0  0
 12 29  1  0  0  0  0
 13 14  1  0  0  0  0
 13 30  1  0  0  0  0
 13 31  1  0  0  0  0
 14 15  1  0  0  0  0
 14 32  1  0  0  0  0
 14 33  1  0  0  0  0
 15 34  1  0  0  0  0
 15 35  1  0  0  0  0
 16 17  1  0  0  0  0
 17 18  1  0  0  0  0
 17 36  1  0  0  0  0
 17 37  1  0  0  0  0
 18 19  1  0  0  0  0
 18 20  2  0  0  0  0
 19 38  1  0  0  0  0
 19 39  1  0  0  0  0
M  END
> <s_m_source_file>
AV-unprocessed.smi

> <i_m_source_file_index>
2679

> <i_lp_mmshare_version>
43012

> <i_f3d_flags>
0

> <s_epik_input>
W0NIM11jMW5uYyhuMVtDSDJdQyg9TylbTkgyXSlTW0NASF0oQyNOKVtDSF0yW0NIMl1bQ0gyXVtDSDJdW0NIMl1bQ0gyXTI=

> <s_epik_cmdline>
J2VwaWtfcHl0aG9uJywgJy1waCcsICc3LjAnLCAnLXRuJywgJzgnLCAnLW1hJywgJzIwMCcsICctbWV0YWxfYmluZGluZycsICctaW1hZScsICc8aW5maWxlLm1hZT4nLCAnLW9tYWUnLCAnPG91dGZpbGUubWFlPic=

> <r_lp_tautomer_probability>
1

> <r_epik_Ionization_Penalty>
1.94949e-07

> <r_epik_Ionization_Penalty_Charging>
0

> <r_epik_Ionization_Penalty_Neutral>
1.94949e-07

> <r_epik_State_Penalty>
-0

> <r_epik_Charging_Adjusted_Penalty>
0

> <i_epik_Tot_Q>
0

> <i_epik_Tot_abs_Q>
0

> <r_epik_Metal_State_Penalty>
-0

> <b_epik_Metal_Only>
0

> <s_lp_Force_Field>
OPLS_2005

> <r_lp_Energy>
7.74931

> <b_lp_Chiralities_Consistent>
1

> <s_lp_Variant>
AV-unprocessed.smi:2679-1

> <Gold.Version>
5.8.1

> <Gold.Id.Protein>
6NUR|6NUR_protein|mol2

> <Gold.PLP.Fitness>
45.3677

> <Gold.PLP.PLP>
-41.7411

> <Gold.PLP.part.hbond>
-4.8602

> <Gold.PLP.part.metal>
0.0000

> <Gold.PLP.part.buried>
-6.6407

> <Gold.PLP.part.nonpolar>
-31.3024

> <Gold.PLP.part.repulsive>
2.0601

> <Gold.PLP.ligand.clash>
0.0000

> <Gold.PLP.ligand.torsion>
2.1278

> <Gold.PLP.Chemscore.Hbond>
2.6054

> <Gold.PLP.Chemscore.CHOScore>
0.0000

> <Gold.PLP.Chemscore.Metal>
0.0000

> <Gold.Chemscore.Hbonds>
donor molecule, donor type, donor heavy atom, donor atom, acceptor molecule, acceptor atom, score
      L1  H    19    38       P1  8028  0.94
      P1  H  7989  7998       L1    20  0.24
      P1  H  7997  8008       L1     4  0.05
      P1  H  8011  8017       L1    20  0.62

> <Gold.PLP.Chemscore.Internal.Correction>
0.0659

> <Gold.Rescore>
     Score         DG    S(hbond)    S(metal)    S(lipo)     H(rot)  DE(clash)    DE(int)     intcor
     11.15     -16.60       1.87        0.00      98.11       2.57       2.24       3.21       ----

> <Gold.Chemscore.Fitness>
11.1540

> <Gold.Chemscore.DG>
-16.6035

> <Gold.Chemscore.ZeroCoef>
-5.4800

> <Gold.Chemscore.Hbond>
1.8655

> <Gold.Chemscore.Metal>
0.0000

> <Gold.Chemscore.Lipo>
98.1123

> <Gold.Chemscore.Internal_Hbond>
0.0000

> <Gold.Chemscore.DEClash>
2.2431

> <Gold.Chemscore.DEInternal>
3.2064

> <Gold.Chemscore.Rot>
2.5728

> <Gold.Chemscore.Internal.Correction>
   9.000000E+99

> <Gold.Chemscore.Hbonds>
donor molecule, donor type, donor heavy atom, donor atom, acceptor molecule, acceptor atom, score
      L1  H    19    38       P1  8028  0.90
      P1  H  7989  7998       L1    20  0.07
      P1  H  8011  8017       L1    20  0.61

> <Gold.Chemscore.Hbond.Weighted>
-6.2308

> <Gold.Chemscore.Metal.Weighted>
-0.0000

> <Gold.Chemscore.Lipo.Weighted>
-11.4791

> <Gold.Chemscore.Internal_Hbond.Weighted>
0.0000

> <Gold.Chemscore.DEClash.Weighted>
2.2431

> <Gold.Chemscore.DEInternal.Weighted>
3.2064

> <Gold.Chemscore.Rot.Weighted>
6.5865

> <Gold.Chemscore.Internal.Correction.Weighted>
   9.000000E+99

> <Gold.Protein.RotatedTorsions>
[ 6907 6896 6895 6894 ] final    4.93 input  -60.11 | X-H torsion
[ 7974 7965 7964 7962 ] final -147.89 input  175.53 | X-H torsion
[ 8008 7997 7996 7995 ] final  -86.23 input   59.86 | X-H torsion
[ 10167 10162 10161 10158 ] final   99.44 input  -65.29 | X-H torsion
[ 10718 10713 10712 10709 ] final   -5.32 input   66.30 | X-H torsion
[ 10763 10752 10751 10750 ] final -162.28 input  -60.55 | X-H torsion
[ 11005 11000 10999 10996 ] final  137.04 input  -57.11 | X-H torsion

> <Gold.Protein.ActiveResidues>
 VAL166  LYS551  ARG553  GLY616  TRP617  ASP618  TYR619  PRO620  LYS621  CYS622 
 ASP623  PHE694  ASN695  SER759  ASP760  ASP761  ALA762  ILE779  LEU786  VAL792 
 PHE793  MET794  SER795  GLU796  ALA797  LYS798  CYS799  TRP800  GLU811  SER814 

> <Gold.Protein.RotatedAtoms>
  151.6493  135.1003  160.0157 H   0  0  0  0  0  0  0  0  0  0  0  0  # atno 6907 bound_to 6896
  152.4010  133.6813  159.6324 H   0  0  0  0  0  0  0  0  0  0  0  0  # atno 6908 bound_to 6896
  150.7910  133.8709  159.3299 H   0  0  0  0  0  0  0  0  0  0  0  0  # atno 6909 bound_to 6896
  144.8064  140.5268  143.5672 H   0  0  0  0  0  0  0  0  0  0  0  0  # atno 7974 bound_to 7965
  154.6496  140.0581  156.9940 H   0  0  0  0  0  0  0  0  0  0  0  0  # atno 8008 bound_to 7997
  155.1392  140.3264  155.4437 H   0  0  0  0  0  0  0  0  0  0  0  0  # atno 8009 bound_to 7997
  156.2569  140.1967  156.6508 H   0  0  0  0  0  0  0  0  0  0  0  0  # atno 8010 bound_to 7997
  139.7617  144.6952  151.0282 H   0  0  0  0  0  0  0  0  0  0  0  0  # atno 10167 bound_to 10162
  156.7483  130.5231  149.5809 H   0  0  0  0  0  0  0  0  0  0  0  0  # atno 10718 bound_to 10713
  154.7228  135.3029  154.9019 H   0  0  0  0  0  0  0  0  0  0  0  0  # atno 10763 bound_to 10752
  153.9886  135.6721  153.4757 H   0  0  0  0  0  0  0  0  0  0  0  0  # atno 10764 bound_to 10752
  153.0849  135.4989  154.8494 H   0  0  0  0  0  0  0  0  0  0  0  0  # atno 10765 bound_to 10752
  140.0087  134.9448  157.0230 H   0  0  0  0  0  0  0  0  0  0  0  0  # atno 11005 bound_to 11000
  145.5428  139.1475  143.3437 LP  0  0  0  0  0  0  0  0  0  0  0  0  # atno 17320 bound_to 7965
  146.2356  140.5567  142.8956 LP  0  0  0  0  0  0  0  0  0  0  0  0  # atno 17321 bound_to 7965
  140.7807  143.4689  151.0173 LP  0  0  0  0  0  0  0  0  0  0  0  0  # atno 17342 bound_to 10162
  139.8375  143.7608  152.3180 LP  0  0  0  0  0  0  0  0  0  0  0  0  # atno 17343 bound_to 10162
  156.1418  130.6250  151.0478 LP  0  0  0  0  0  0  0  0  0  0  0  0  # atno 17370 bound_to 10713
  157.6788  131.0843  150.7423 LP  0  0  0  0  0  0  0  0  0  0  0  0  # atno 17371 bound_to 10713
  140.4595  134.1499  155.7190 LP  0  0  0  0  0  0  0  0  0  0  0  0  # atno 17394 bound_to 11000
  141.1695  133.8637  157.1614 LP  0  0  0  0  0  0  0  0  0  0  0  0  # atno 17395 bound_to 11000

$$$$
