AV-unprocessed.smi:139|AV-procd|sdf|1181|dock4
  -GOLD-   2262018333D 1   1.00000     0.00000
 Structure written by MMmdl.
 50 53  0  0  0  0  0  0  0  0  1 V2000
  151.1303  135.9797  154.7061 O   0  0  0  0  0  0  0  0  0  0  0  0
  150.0789  136.2986  155.2631 C   0  0  0  0  0  0  0  0  0  0  0  0
  149.2582  135.2661  156.0505 C   0  0  0  0  0  0  0  0  0  0  0  0
  148.2388  135.8769  156.9310 N   0  0  0  0  0  0  0  0  0  0  0  0
  147.0471  136.3805  156.3532 C   0  0  0  0  0  0  0  0  0  0  0  0
  146.8443  136.3079  155.1403 O   0  0  0  0  0  0  0  0  0  0  0  0
  146.1031  136.9865  157.2854 C   0  0  0  0  0  0  0  0  0  0  0  0
  144.9453  137.4907  156.8259 F   0  0  0  0  0  0  0  0  0  0  0  0
  146.3736  137.0525  158.6053 C   0  0  0  0  0  0  0  0  0  0  0  0
  147.5423  136.5569  159.1562 N   0  0  0  0  0  0  0  0  0  0  0  0
  147.8403  136.6557  160.6379 C   0  0  2  0  0  0  0  0  0  0  0  0
  147.7817  135.2648  161.2984 C   0  0  0  0  0  0  0  0  0  0  0  0
  146.8430  135.4876  162.4677 C   0  0  0  0  0  0  0  0  0  0  0  0
  145.9514  136.6046  161.9472 C   0  0  0  0  0  0  0  0  0  0  0  0
  146.8724  137.4468  161.2668 O   0  0  0  0  0  0  0  0  0  0  0  0
  148.5105  135.9638  158.3173 C   0  0  0  0  0  0  0  0  0  0  0  0
  149.5683  135.5355  158.7849 O   0  0  0  0  0  0  0  0  0  0  0  0
  149.5766  137.5422  155.2385 N   0  0  0  0  0  0  0  0  0  0  0  0
  150.1458  138.6883  154.5324 C   0  0  2  0  0  0  0  0  0  0  0  0
  151.4290  139.1602  155.2421 C   0  0  0  0  0  0  0  0  0  0  0  0
  151.1283  140.0920  156.4196 C   0  0  0  0  0  0  0  0  0  0  0  0
  150.3698  141.3403  155.9540 C   0  0  0  0  0  0  0  0  0  0  0  0
  149.1935  141.0242  155.0433 C   0  0  0  0  0  0  0  0  0  0  0  0
  148.1887  141.9986  154.8669 C   0  0  0  0  0  0  0  0  0  0  0  0
  147.0880  141.7447  154.0271 C   0  0  0  0  0  0  0  0  0  0  0  0
  146.9866  140.5125  153.3564 C   0  0  0  0  0  0  0  0  0  0  0  0
  147.9865  139.5365  153.5251 C   0  0  0  0  0  0  0  0  0  0  0  0
  149.0959  139.7827  154.3633 C   0  0  0  0  0  0  0  0  0  0  0  0
  148.8099  134.5727  155.3376 H   0  0  0  0  0  0  0  0  0  0  0  0
  149.9378  134.6419  156.6337 H   0  0  0  0  0  0  0  0  0  0  0  0
  145.6343  137.5179  159.2389 H   0  0  0  0  0  0  0  0  0  0  0  0
  148.8130  137.1455  160.7104 H   0  0  0  0  0  0  0  0  0  0  0  0
  147.3603  134.5340  160.6062 H   0  0  0  0  0  0  0  0  0  0  0  0
  148.7750  134.9336  161.6025 H   0  0  0  0  0  0  0  0  0  0  0  0
  146.2871  134.5925  162.7475 H   0  0  0  0  0  0  0  0  0  0  0  0
  147.4024  135.8311  163.3388 H   0  0  0  0  0  0  0  0  0  0  0  0
  145.2091  136.2156  161.2487 H   0  0  0  0  0  0  0  0  0  0  0  0
  145.4318  137.1371  162.7437 H   0  0  0  0  0  0  0  0  0  0  0  0
  148.7094  137.7054  155.7296 H   0  0  0  0  0  0  0  0  0  0  0  0
  150.4301  138.3840  153.5236 H   0  0  0  0  0  0  0  0  0  0  0  0
  152.0315  138.3089  155.5617 H   0  0  0  0  0  0  0  0  0  0  0  0
  152.0436  139.7092  154.5272 H   0  0  0  0  0  0  0  0  0  0  0  0
  150.5290  139.5547  157.1556 H   0  0  0  0  0  0  0  0  0  0  0  0
  152.0507  140.3817  156.9239 H   0  0  0  0  0  0  0  0  0  0  0  0
  150.0220  141.9043  156.8205 H   0  0  0  0  0  0  0  0  0  0  0  0
  151.0474  141.9960  155.4060 H   0  0  0  0  0  0  0  0  0  0  0  0
  148.2597  142.9478  155.3777 H   0  0  0  0  0  0  0  0  0  0  0  0
  146.3222  142.4954  153.8985 H   0  0  0  0  0  0  0  0  0  0  0  0
  146.1421  140.3146  152.7128 H   0  0  0  0  0  0  0  0  0  0  0  0
  147.9000  138.5915  153.0085 H   0  0  0  0  0  0  0  0  0  0  0  0
  1  2  2  0  0  0  0
  2  3  1  0  0  0  0
  2 18  1  0  0  0  0
  3  4  1  0  0  0  0
  3 29  1  0  0  0  0
  3 30  1  0  0  0  0
  4 16  1  0  0  0  0
  4  5  1  0  0  0  0
  5  6  2  0  0  0  0
  5  7  1  0  0  0  0
  7  8  1  0  0  0  0
  7  9  2  0  0  0  0
  9 10  1  0  0  0  0
  9 31  1  0  0  0  0
 10 11  1  0  0  0  0
 10 16  1  0  0  0  0
 11 15  1  0  0  0  0
 11 12  1  0  0  0  0
 11 32  1  0  0  0  0
 12 13  1  0  0  0  0
 12 33  1  0  0  0  0
 12 34  1  0  0  0  0
 13 14  1  0  0  0  0
 13 35  1  0  0  0  0
 13 36  1  0  0  0  0
 14 15  1  0  0  0  0
 14 37  1  0  0  0  0
 14 38  1  0  0  0  0
 16 17  2  0  0  0  0
 18 19  1  0  0  0  0
 18 39  1  0  0  0  0
 19 28  1  0  0  0  0
 19 20  1  0  0  0  0
 19 40  1  0  0  0  0
 20 21  1  0  0  0  0
 20 41  1  0  0  0  0
 20 42  1  0  0  0  0
 21 22  1  0  0  0  0
 21 43  1  0  0  0  0
 21 44  1  0  0  0  0
 22 23  1  0  0  0  0
 22 45  1  0  0  0  0
 22 46  1  0  0  0  0
 23 28  2  0  0  0  0
 23 24  1  0  0  0  0
 24 25  2  0  0  0  0
 24 47  1  0  0  0  0
 25 26  1  0  0  0  0
 25 48  1  0  0  0  0
 26 27  2  0  0  0  0
 26 49  1  0  0  0  0
 27 28  1  0  0  0  0
 27 50  1  0  0  0  0
M  END
> <s_m_source_file>
AV-unprocessed.smi

> <i_m_source_file_index>
139

> <i_lp_mmshare_version>
43012

> <i_f3d_flags>
0

> <s_epik_input>
W2NIXTFbY0hdW2NIXVtjSF1jKGMxMilbQ0BASF0oW0NIMl1bQ0gyXVtDSDJdMilbTkhdQyg9TylbQ0gyXW4zYyg9TyljKEYpW2NIXW4oYzM9TylbQ0BASF00W0NIMl1bQ0gyXVtDSDJdTzQ=

> <s_epik_cmdline>
J2VwaWtfcHl0aG9uJywgJy1waCcsICc3LjAnLCAnLXRuJywgJzgnLCAnLW1hJywgJzIwMCcsICctbWV0YWxfYmluZGluZycsICctaW1hZScsICc8aW5maWxlLm1hZT4nLCAnLW9tYWUnLCAnPG91dGZpbGUubWFlPic=

> <r_lp_tautomer_probability>
1

> <r_epik_Ionization_Penalty>
3.261e-08

> <r_epik_Ionization_Penalty_Charging>
3.6725e-09

> <r_epik_Ionization_Penalty_Neutral>
2.89375e-08

> <r_epik_State_Penalty>
-0

> <r_epik_Charging_Adjusted_Penalty>
3.6725e-09

> <i_epik_Tot_Q>
0

> <i_epik_Tot_abs_Q>
0

> <r_epik_Metal_State_Penalty>
-0

> <b_epik_Metal_Only>
0

> <s_epik_Chemistry_Notes>
This compound contains an acetal/aminal-like group ( X-CH(R)-Y where X, Y are N, S, or O) that may be acid/base labile, releasing an aldehyde.

> <s_lp_Force_Field>
OPLS_2005

> <r_lp_Energy>
30.3029

> <b_lp_Chiralities_Consistent>
1

> <s_lp_Variant>
AV-unprocessed.smi:139-1

> <Gold.Version>
5.8.1

> <Gold.Id.Protein>
6NUR|6NUR_protein|mol2

> <Gold.PLP.Fitness>
48.5652

> <Gold.PLP.PLP>
-41.1237

> <Gold.PLP.part.hbond>
-3.9305

> <Gold.PLP.part.metal>
0.0000

> <Gold.PLP.part.buried>
0.8594

> <Gold.PLP.part.nonpolar>
-38.5116

> <Gold.PLP.part.repulsive>
0.2335

> <Gold.PLP.ligand.clash>
0.0534

> <Gold.PLP.ligand.torsion>
0.7680

> <Gold.PLP.Chemscore.Hbond>
3.0000

> <Gold.PLP.Chemscore.CHOScore>
0.0000

> <Gold.PLP.Chemscore.Metal>
0.0000

> <Gold.Chemscore.Hbonds>
donor molecule, donor type, donor heavy atom, donor atom, acceptor molecule, acceptor atom, score
      P1  H  6896  6909       L1    17  1.00
      P1  H  6934  6947       L1    15  1.00
      P1  H 10752 10764       L1     1  1.00

> <Gold.PLP.Chemscore.Internal.Correction>
0.0307

> <Gold.Rescore>
     Score         DG    S(hbond)    S(metal)    S(lipo)     H(rot)  DE(clash)    DE(int)     intcor
     17.84     -21.71       2.93        0.00      94.96       1.82       1.95       1.93       ----

> <Gold.Chemscore.Fitness>
17.8357

> <Gold.Chemscore.DG>
-21.7125

> <Gold.Chemscore.ZeroCoef>
-5.4800

> <Gold.Chemscore.Hbond>
2.9266

> <Gold.Chemscore.Metal>
0.0000

> <Gold.Chemscore.Lipo>
94.9582

> <Gold.Chemscore.Internal_Hbond>
0.0000

> <Gold.Chemscore.DEClash>
1.9470

> <Gold.Chemscore.DEInternal>
1.9298

> <Gold.Chemscore.Rot>
1.8174

> <Gold.Chemscore.Internal.Correction>
   9.000000E+99

> <Gold.Chemscore.Hbonds>
donor molecule, donor type, donor heavy atom, donor atom, acceptor molecule, acceptor atom, score
      P1  H  6896  6909       L1    17  1.00
      P1  H  6934  6947       L1    15  0.69
      P1  H 10752 10764       L1     1  1.00

> <Gold.Chemscore.Hbond.Weighted>
-9.7748

> <Gold.Chemscore.Metal.Weighted>
-0.0000

> <Gold.Chemscore.Lipo.Weighted>
-11.1101

> <Gold.Chemscore.Internal_Hbond.Weighted>
0.0000

> <Gold.Chemscore.DEClash.Weighted>
1.9470

> <Gold.Chemscore.DEInternal.Weighted>
1.9298

> <Gold.Chemscore.Rot.Weighted>
4.6524

> <Gold.Chemscore.Internal.Correction.Weighted>
   9.000000E+99

> <Gold.Protein.RotatedTorsions>
[ 6907 6896 6895 6894 ] final   62.10 input  -60.11 | X-H torsion
[ 7974 7965 7964 7962 ] final -176.81 input  175.53 | X-H torsion
[ 8008 7997 7996 7995 ] final  168.85 input   59.86 | X-H torsion
[ 10167 10162 10161 10158 ] final -131.93 input  -65.29 | X-H torsion
[ 10718 10713 10712 10709 ] final  170.44 input   66.30 | X-H torsion
[ 10763 10752 10751 10750 ] final  -72.29 input  -60.55 | X-H torsion
[ 11005 11000 10999 10996 ] final  162.98 input  -57.11 | X-H torsion

> <Gold.Protein.ActiveResidues>
 VAL166  LYS551  ARG553  GLY616  TRP617  ASP618  TYR619  PRO620  LYS621  CYS622 
 ASP623  PHE694  ASN695  SER759  ASP760  ASP761  ALA762  ILE779  LEU786  VAL792 
 PHE793  MET794  SER795  GLU796  ALA797  LYS798  CYS799  TRP800  GLU811  SER814 

> <Gold.Protein.RotatedAtoms>
  152.4144  134.6068  160.0014 H   0  0  0  0  0  0  0  0  0  0  0  0  # atno 6907 bound_to 6896
  151.6236  133.3331  159.3101 H   0  0  0  0  0  0  0  0  0  0  0  0  # atno 6908 bound_to 6896
  150.8033  134.7181  159.6687 H   0  0  0  0  0  0  0  0  0  0  0  0  # atno 6909 bound_to 6896
  144.7127  140.1113  143.6411 H   0  0  0  0  0  0  0  0  0  0  0  0  # atno 7974 bound_to 7965
  156.1510  140.1579  156.8769 H   0  0  0  0  0  0  0  0  0  0  0  0  # atno 8008 bound_to 7997
  154.5071  140.0810  156.7954 H   0  0  0  0  0  0  0  0  0  0  0  0  # atno 8009 bound_to 7997
  155.3895  140.3409  155.4253 H   0  0  0  0  0  0  0  0  0  0  0  0  # atno 8010 bound_to 7997
  139.9138  143.6462  152.2569 H   0  0  0  0  0  0  0  0  0  0  0  0  # atno 10167 bound_to 10162
  157.0080  131.0196  151.2811 H   0  0  0  0  0  0  0  0  0  0  0  0  # atno 10718 bound_to 10713
  154.4437  135.5934  153.6146 H   0  0  0  0  0  0  0  0  0  0  0  0  # atno 10763 bound_to 10752
  152.9807  135.6004  154.3691 H   0  0  0  0  0  0  0  0  0  0  0  0  # atno 10764 bound_to 10752
  154.3544  135.2841  155.2333 H   0  0  0  0  0  0  0  0  0  0  0  0  # atno 10765 bound_to 10752
  140.2312  134.8122  157.3319 H   0  0  0  0  0  0  0  0  0  0  0  0  # atno 11005 bound_to 11000
  145.9452  139.2696  143.1245 LP  0  0  0  0  0  0  0  0  0  0  0  0  # atno 17320 bound_to 7965
  145.9382  140.8999  143.0321 LP  0  0  0  0  0  0  0  0  0  0  0  0  # atno 17321 bound_to 7965
  139.6920  144.7646  151.1423 LP  0  0  0  0  0  0  0  0  0  0  0  0  # atno 17342 bound_to 10162
  140.7679  143.5576  150.9134 LP  0  0  0  0  0  0  0  0  0  0  0  0  # atno 17343 bound_to 10162
  157.5341  130.8077  149.7951 LP  0  0  0  0  0  0  0  0  0  0  0  0  # atno 17370 bound_to 10713
  156.0146  130.3819  150.2151 LP  0  0  0  0  0  0  0  0  0  0  0  0  # atno 17371 bound_to 10713
  140.1749  134.4562  155.7808 LP  0  0  0  0  0  0  0  0  0  0  0  0  # atno 17394 bound_to 11000
  141.2217  133.6958  156.7770 LP  0  0  0  0  0  0  0  0  0  0  0  0  # atno 17395 bound_to 11000

$$$$
