#       Name:                AV-unprocessed.smi:571
#       Creating user name   scv26
#       Creation time:       Thu Mar 26 23:46:49 2020


#       File generated by GOLD software.
#

@<TRIPOS>MOLECULE
AV-unprocessed.smi:571
    48    49     1
SMALL
NO_CHARGES


@<TRIPOS>ATOM
      1 ****        -2.1247  -0.5250   3.4447 C.3            1 S1                 0.0000
      2 ****        -1.6794   0.3241   2.2428 C.3            1 S1                 0.0000
      3 ****        -2.3377  -0.1393   0.9171 C.3            1 S1                 0.0000
      4 ****        -1.7081   0.4546  -0.2911 N.4            1 S1                 1.0000
      5 ****        -1.9511  -0.3449  -1.5188 C.3            1 S1                 0.0000
      6 ****        -1.1340   0.2033  -2.7006 C.3            1 S1                 0.0000
      7 ****        -1.4465   1.6860  -2.9428 C.3            1 S1                 0.0000
      8 ****        -1.2292   2.4860  -1.6514 C.3            1 S1                 0.0000
      9 ****        -2.0409   1.8896  -0.4890 C.3            1 S1                 0.0000
     10 ****        -0.2174   0.4173   2.1663 N.am           1 S1                 0.0000
     11 ****         0.6379  -0.5543   1.8056 C.2            1 S1                 0.0000
     12 ****         0.2819  -1.6999   1.5288 O.2            1 S1                 0.0000
     13 ****         2.1177  -0.1561   1.7380 C.3            1 S1                 0.0000
     14 ****         2.8303  -0.8388   0.6464 N.am           1 S1                 0.0000
     15 ****         2.7533  -0.2406  -0.6278 C.2            1 S1                 0.0000
     16 ****         3.3485  -0.7803  -1.7029 C.2            1 S1                 0.0000
     17 ****         4.0859  -2.0094  -1.5289 C.2            1 S1                 0.0000
     18 ****         4.1615  -2.5924  -0.3159 C.2            1 S1                 0.0000
     19 ****         3.5064  -2.0097   0.8610 C.2            1 S1                 0.0000
     20 ****         3.5590  -2.5436   1.9690 O.2            1 S1                 0.0000
     21 ****        -3.2090  -0.5029   3.5568 H              1 S1                 0.0000
     22 ****        -1.6908  -0.1509   4.3726 H              1 S1                 0.0000
     23 ****        -1.8266  -1.5681   3.3354 H              1 S1                 0.0000
     24 ****        -2.0161   1.3425   2.4370 H              1 S1                 0.0000
     25 ****        -2.2529  -1.2252   0.8554 H              1 S1                 0.0000
     26 ****        -3.4078   0.0738   0.9234 H              1 S1                 0.0000
     27 ****        -1.6689  -1.3840  -1.3449 H              1 S1                 0.0000
     28 ****        -3.0162  -0.3385  -1.7555 H              1 S1                 0.0000
     29 ****        -0.0692   0.0809  -2.4966 H              1 S1                 0.0000
     30 ****        -1.3446  -0.3749  -3.6008 H              1 S1                 0.0000
     31 ****        -0.8173   2.0798  -3.7417 H              1 S1                 0.0000
     32 ****        -2.4796   1.7957  -3.2752 H              1 S1                 0.0000
     33 ****        -0.1687   2.4856  -1.3949 H              1 S1                 0.0000
     34 ****        -1.5097   3.5284  -1.8065 H              1 S1                 0.0000
     35 ****        -3.1097   1.9950  -0.6813 H              1 S1                 0.0000
     36 ****        -1.8254   2.4542   0.4177 H              1 S1                 0.0000
     37 ****         0.1812   1.3173   2.3937 H              1 S1                 0.0000
     38 ****         2.2004   0.9238   1.6026 H              1 S1                 0.0000
     39 ****         2.5772  -0.3568   2.7069 H              1 S1                 0.0000
     40 ****         2.1779   0.6730  -0.6718 H              1 S1                 0.0000
     41 ****         3.2759  -0.3097  -2.6724 H              1 S1                 0.0000
     42 ****         4.5795  -2.4638  -2.3753 H              1 S1                 0.0000
     43 ****         4.7174  -3.5120  -0.2051 H              1 S1                 0.0000
     44 ****        -0.7122   0.4084  -0.1292 H              1 S1                 0.0000
     45 ****        -0.6867  -1.9453   1.5666 LP             1 S1                 0.0000
     46 ****         0.9615  -2.3849   1.2661 LP             1 S1                 0.0000
     47 ****         3.0982  -2.1216   2.7497 LP             1 S1                 0.0000
     48 ****         4.0626  -3.3992   2.0883 LP             1 S1                 0.0000
@<TRIPOS>BOND
    1    1    2 1     
    2    1   21 1     
    3    1   22 1     
    4    1   23 1     
    5    2    3 1     
    6    2   10 1     
    7    2   24 1     
    8    3    4 1     
    9    3   25 1     
   10    3   26 1     
   11    4    9 1     
   12    4    5 1     
   13    4   44 1     
   14    5    6 1     
   15    5   27 1     
   16    5   28 1     
   17    6    7 1     
   18    6   29 1     
   19    6   30 1     
   20    7    8 1     
   21    7   31 1     
   22    7   32 1     
   23    8    9 1     
   24    8   33 1     
   25    8   34 1     
   26    9   35 1     
   27    9   36 1     
   28   10   11 am    
   29   10   37 1     
   30   11   12 2     
   31   11   13 1     
   32   13   14 1     
   33   13   38 1     
   34   13   39 1     
   35   14   19 am    
   36   14   15 1     
   37   15   16 2     
   38   15   40 1     
   39   16   17 1     
   40   16   41 1     
   41   17   18 2     
   42   17   42 1     
   43   18   19 1     
   44   18   43 1     
   45   19   20 2     
   46   12   45 1     
   47   12   46 1     
   48   20   47 1     
   49   20   48 1     
@<TRIPOS>SUBSTRUCTURE
      1 S1             1
@<TRIPOS>SET
LONE_PAIRS      STATIC     ATOMS    <user>   **** ""
4 45 46 47 48
DONOR_HYDROGENS      STATIC     ATOMS    <user>   **** ""
2 44 37
ATOM$BLUE        STATIC     ATOMS    COLORGROUP SYSTEM
4 45 46 47 48
ATOM$RED        STATIC     ATOMS    COLORGROUP SYSTEM
2 44 37
