AV-unprocessed.smi:3349|AV-procd|sdf|12931|dock7
  -GOLD-   2272019363D 1   1.00000     0.00000
 Structure written by MMmdl.
 40 41  0  0  0  0  0  0  0  0  1 V2000
  151.6384  144.5801  157.9996 C   0  0  0  0  0  0  0  0  0  0  0  0
  152.0797  143.0963  158.0852 C   0  0  2  0  0  0  0  0  0  0  0  0
  150.8161  142.1937  158.0361 C   0  0  0  0  0  0  0  0  0  0  0  0
  150.4888  141.7686  156.6797 N   0  0  0  0  0  0  0  0  0  0  0  0
  149.2499  141.4987  156.2428 C   0  0  0  0  0  0  0  0  0  0  0  0
  148.2525  141.5712  156.9616 O   0  0  0  0  0  0  0  0  0  0  0  0
  149.1183  141.0697  154.7718 C   0  0  2  0  0  0  0  0  0  0  0  0
  147.6364  140.8152  154.4199 C   0  0  0  0  0  0  0  0  0  0  0  0
  149.9798  139.9221  154.4718 N   0  0  0  0  0  0  0  0  0  0  0  0
  149.7058  138.7483  153.8888 C   0  0  0  0  0  0  0  0  0  0  0  0
  150.7250  137.9013  153.8639 N   0  0  0  0  0  0  0  0  0  0  0  0
  151.6584  138.6520  154.5179 C   0  0  0  0  0  0  0  0  0  0  0  0
  151.2576  139.8557  154.9254 N   0  0  0  0  0  0  0  0  0  0  0  0
  152.9491  142.8262  159.2544 N   0  0  0  0  0  0  0  0  0  0  0  0
  152.3500  143.2585  160.5224 C   0  0  0  0  0  0  0  0  0  0  0  0
  153.2392  142.9502  161.7398 C   0  0  0  0  0  0  0  0  0  0  0  0
  153.5270  141.5595  161.7846 O   0  0  0  0  0  0  0  0  0  0  0  0
  154.1806  141.1122  160.6051 C   0  0  0  0  0  0  0  0  0  0  0  0
  153.2969  141.4056  159.3806 C   0  0  0  0  0  0  0  0  0  0  0  0
  150.9567  144.7677  157.1710 H   0  0  0  0  0  0  0  0  0  0  0  0
  152.4786  145.2519  157.8309 H   0  0  0  0  0  0  0  0  0  0  0  0
  151.1337  144.8937  158.9140 H   0  0  0  0  0  0  0  0  0  0  0  0
  152.6562  142.8828  157.1836 H   0  0  0  0  0  0  0  0  0  0  0  0
  150.9561  141.2759  158.6052 H   0  0  0  0  0  0  0  0  0  0  0  0
  149.9672  142.7196  158.4768 H   0  0  0  0  0  0  0  0  0  0  0  0
  151.2561  141.6827  156.0289 H   0  0  0  0  0  0  0  0  0  0  0  0
  149.4683  141.8934  154.1472 H   0  0  0  0  0  0  0  0  0  0  0  0
  147.0054  141.6469  154.7360 H   0  0  0  0  0  0  0  0  0  0  0  0
  147.2589  139.9118  154.9010 H   0  0  0  0  0  0  0  0  0  0  0  0
  147.4979  140.7027  153.3443 H   0  0  0  0  0  0  0  0  0  0  0  0
  148.7387  138.5007  153.4756 H   0  0  0  0  0  0  0  0  0  0  0  0
  152.6588  138.2949  154.7136 H   0  0  0  0  0  0  0  0  0  0  0  0
  152.1795  144.3332  160.5227 H   0  0  0  0  0  0  0  0  0  0  0  0
  151.3774  142.7818  160.6539 H   0  0  0  0  0  0  0  0  0  0  0  0
  154.1680  143.5214  161.6946 H   0  0  0  0  0  0  0  0  0  0  0  0
  152.7318  143.2374  162.6607 H   0  0  0  0  0  0  0  0  0  0  0  0
  155.1515  141.6007  160.5079 H   0  0  0  0  0  0  0  0  0  0  0  0
  154.3681  140.0416  160.6879 H   0  0  0  0  0  0  0  0  0  0  0  0
  152.3873  140.8059  159.4396 H   0  0  0  0  0  0  0  0  0  0  0  0
  153.8453  141.0643  158.5046 H   0  0  0  0  0  0  0  0  0  0  0  0
  1  2  1  0  0  0  0
  1 20  1  0  0  0  0
  1 21  1  0  0  0  0
  1 22  1  0  0  0  0
  2  3  1  0  0  0  0
  2 14  1  0  0  0  0
  2 23  1  0  0  0  0
  3  4  1  0  0  0  0
  3 24  1  0  0  0  0
  3 25  1  0  0  0  0
  4  5  1  0  0  0  0
  4 26  1  0  0  0  0
  5  6  2  0  0  0  0
  5  7  1  0  0  0  0
  7  8  1  0  0  0  0
  7  9  1  0  0  0  0
  7 27  1  0  0  0  0
  8 28  1  0  0  0  0
  8 29  1  0  0  0  0
  8 30  1  0  0  0  0
  9 13  1  0  0  0  0
  9 10  1  0  0  0  0
 10 11  2  0  0  0  0
 10 31  1  0  0  0  0
 11 12  1  0  0  0  0
 12 13  2  0  0  0  0
 12 32  1  0  0  0  0
 14 19  1  0  0  0  0
 14 15  1  0  0  0  0
 15 16  1  0  0  0  0
 15 33  1  0  0  0  0
 15 34  1  0  0  0  0
 16 17  1  0  0  0  0
 16 35  1  0  0  0  0
 16 36  1  0  0  0  0
 17 18  1  0  0  0  0
 18 19  1  0  0  0  0
 18 37  1  0  0  0  0
 18 38  1  0  0  0  0
 19 39  1  0  0  0  0
 19 40  1  0  0  0  0
M  END
> <s_m_source_file>
AV-unprocessed.smi

> <i_m_source_file_index>
3349

> <i_lp_mmshare_version>
43012

> <i_f3d_flags>
0

> <s_epik_input>
W0NIMl0xW0NIMl1PW0NIMl1bQ0gyXU4xW0NASF0oW0NIM10pW0NIMl1bTkhdQyg9TylbQ0BIXShbQ0gzXSluMltjSF1uW2NIXW4y

> <s_epik_cmdline>
J2VwaWtfcHl0aG9uJywgJy1waCcsICc3LjAnLCAnLXRuJywgJzgnLCAnLW1hJywgJzIwMCcsICctbWV0YWxfYmluZGluZycsICctaW1hZScsICc8aW5maWxlLm1hZT4nLCAnLW9tYWUnLCAnPG91dGZpbGUubWFlPic=

> <r_lp_tautomer_probability>
1

> <r_epik_Ionization_Penalty>
0.211373

> <r_epik_Ionization_Penalty_Charging>
0

> <r_epik_Ionization_Penalty_Neutral>
0.211373

> <r_epik_State_Penalty>
0.201459

> <r_epik_Charging_Adjusted_Penalty>
0.201459

> <i_epik_Tot_Q>
0

> <i_epik_Tot_abs_Q>
0

> <r_epik_Metal_State_Penalty>
0.201458

> <b_epik_Metal_Only>
0

> <s_lp_Force_Field>
OPLS_2005

> <r_lp_Energy>
36.462

> <b_lp_Chiralities_Consistent>
1

> <s_lp_Variant>
AV-unprocessed.smi:3349-1

> <Gold.Version>
5.8.1

> <Gold.Id.Protein>
6NUR|6NUR_protein|mol2

> <Gold.PLP.Fitness>
45.7964

> <Gold.PLP.PLP>
-41.5831

> <Gold.PLP.part.hbond>
-1.0000

> <Gold.PLP.part.metal>
0.0000

> <Gold.PLP.part.buried>
-5.0110

> <Gold.PLP.part.nonpolar>
-35.3203

> <Gold.PLP.part.repulsive>
0.3651

> <Gold.PLP.ligand.clash>
0.0000

> <Gold.PLP.ligand.torsion>
0.9713

> <Gold.PLP.Chemscore.Hbond>
1.0000

> <Gold.PLP.Chemscore.CHOScore>
0.9903

> <Gold.PLP.Chemscore.Metal>
0.0000

> <Gold.Chemscore.Hbonds>
donor molecule, donor type, donor heavy atom, donor atom, acceptor molecule, acceptor atom, score
      P1  H  7989  7998       L1    13  0.25
      L1  C    10    31       P1  7948  0.23
      L1  C    10    31       P1  7957  0.01

> <Gold.PLP.Chemscore.Internal.Correction>
0.1851

> <Gold.Rescore>
     Score         DG    S(hbond)    S(metal)    S(lipo)     H(rot)  DE(clash)    DE(int)     intcor
      9.49     -12.39       0.93        0.00      88.48       2.56       0.01       2.89       ----

> <Gold.Chemscore.Fitness>
9.4914

> <Gold.Chemscore.DG>
-12.3928

> <Gold.Chemscore.ZeroCoef>
-5.4800

> <Gold.Chemscore.Hbond>
0.9301

> <Gold.Chemscore.Metal>
0.0000

> <Gold.Chemscore.Lipo>
88.4798

> <Gold.Chemscore.Internal_Hbond>
0.0000

> <Gold.Chemscore.DEClash>
0.0073

> <Gold.Chemscore.DEInternal>
2.8941

> <Gold.Chemscore.Rot>
2.5570

> <Gold.Chemscore.Internal.Correction>
   9.000000E+99

> <Gold.Chemscore.Hbond.Weighted>
-3.1066

> <Gold.Chemscore.Metal.Weighted>
-0.0000

> <Gold.Chemscore.Lipo.Weighted>
-10.3521

> <Gold.Chemscore.Internal_Hbond.Weighted>
0.0000

> <Gold.Chemscore.DEClash.Weighted>
0.0073

> <Gold.Chemscore.DEInternal.Weighted>
2.8941

> <Gold.Chemscore.Rot.Weighted>
6.5459

> <Gold.Chemscore.Internal.Correction.Weighted>
   9.000000E+99

> <Gold.Protein.RotatedTorsions>
[ 6907 6896 6895 6894 ] final    6.56 input  -60.11 | X-H torsion
[ 7974 7965 7964 7962 ] final  173.43 input  175.53 | X-H torsion
[ 8008 7997 7996 7995 ] final  150.89 input   59.86 | X-H torsion
[ 10167 10162 10161 10158 ] final  -18.20 input  -65.29 | X-H torsion
[ 10718 10713 10712 10709 ] final  133.94 input   66.30 | X-H torsion
[ 10763 10752 10751 10750 ] final  170.97 input  -60.55 | X-H torsion
[ 11005 11000 10999 10996 ] final  -64.90 input  -57.11 | X-H torsion

> <Gold.Protein.ActiveResidues>
 VAL166  LYS551  ARG553  GLY616  TRP617  ASP618  TYR619  PRO620  LYS621  CYS622 
 ASP623  PHE694  ASN695  SER759  ASP760  ASP761  ALA762  ILE779  LEU786  VAL792 
 PHE793  MET794  SER795  GLU796  ALA797  LYS798  CYS799  TRP800  GLU811  SER814 

> <Gold.Protein.RotatedAtoms>
  151.6756  135.0969  160.0206 H   0  0  0  0  0  0  0  0  0  0  0  0  # atno 6907 bound_to 6896
  152.3866  133.6615  159.6212 H   0  0  0  0  0  0  0  0  0  0  0  0  # atno 6908 bound_to 6896
  150.7790  133.8942  159.3363 H   0  0  0  0  0  0  0  0  0  0  0  0  # atno 6909 bound_to 6896
  144.7244  139.9646  143.6435 H   0  0  0  0  0  0  0  0  0  0  0  0  # atno 7974 bound_to 7965
  156.2697  140.2062  156.6090 H   0  0  0  0  0  0  0  0  0  0  0  0  # atno 8008 bound_to 7997
  154.6847  140.0536  157.0325 H   0  0  0  0  0  0  0  0  0  0  0  0  # atno 8009 bound_to 7997
  155.0951  140.3200  155.4565 H   0  0  0  0  0  0  0  0  0  0  0  0  # atno 8010 bound_to 7997
  140.7256  143.4940  150.9955 H   0  0  0  0  0  0  0  0  0  0  0  0  # atno 10167 bound_to 10162
  157.4723  131.1081  150.9787 H   0  0  0  0  0  0  0  0  0  0  0  0  # atno 10718 bound_to 10713
  154.4052  135.2755  155.2071 H   0  0  0  0  0  0  0  0  0  0  0  0  # atno 10763 bound_to 10752
  154.4080  135.6029  153.5939 H   0  0  0  0  0  0  0  0  0  0  0  0  # atno 10764 bound_to 10752
  152.9831  135.5942  154.4326 H   0  0  0  0  0  0  0  0  0  0  0  0  # atno 10765 bound_to 10752
  141.1438  133.6673  156.5903 H   0  0  0  0  0  0  0  0  0  0  0  0  # atno 11005 bound_to 11000
  146.0610  139.3604  143.0581 LP  0  0  0  0  0  0  0  0  0  0  0  0  # atno 17320 bound_to 7965
  145.8092  140.9734  143.0957 LP  0  0  0  0  0  0  0  0  0  0  0  0  # atno 17321 bound_to 7965
  139.8646  143.7271  152.3171 LP  0  0  0  0  0  0  0  0  0  0  0  0  # atno 17342 bound_to 10162
  139.7498  144.7537  151.0524 LP  0  0  0  0  0  0  0  0  0  0  0  0  # atno 17343 bound_to 10162
  157.0548  130.5801  149.5376 LP  0  0  0  0  0  0  0  0  0  0  0  0  # atno 17370 bound_to 10713
  156.0079  130.5168  150.7893 LP  0  0  0  0  0  0  0  0  0  0  0  0  # atno 17371 bound_to 10713
  140.3768  134.7558  157.4635 LP  0  0  0  0  0  0  0  0  0  0  0  0  # atno 17394 bound_to 11000
  140.0668  134.5918  155.8686 LP  0  0  0  0  0  0  0  0  0  0  0  0  # atno 17395 bound_to 11000

$$$$
