#       Name:                AV-unprocessed.smi:2525
#       Creating user name   scv26
#       Creation time:       Fri Mar 27 13:57:17 2020


#       File generated by GOLD software.
#

@<TRIPOS>MOLECULE
AV-unprocessed.smi:2525
    50    51     1
SMALL
NO_CHARGES


@<TRIPOS>ATOM
      1 ****         0.6231  -1.8640   1.9984 C.3            1 S1                 0.0000
      2 ****        -0.4989  -0.8392   2.2440 C.3            1 S1                 0.0000
      3 ****        -1.3142  -0.3655   1.0071 C.3            1 S1                 0.0000
      4 ****        -2.7307  -0.0154   1.5257 C.3            1 S1                 0.0000
      5 ****        -2.7853   1.1482   2.5315 C.3            1 S1                 0.0000
      6 ****        -0.7014   0.7338   0.0880 C.3            1 S1                 0.0000
      7 ****         0.7599   0.7604   0.0857 N.am           1 S1                 0.0000
      8 ****         1.5208   1.6847   0.6905 C.2            1 S1                 0.0000
      9 ****         1.0591   2.6183   1.3455 O.2            1 S1                 0.0000
     10 ****         3.0374   1.5227   0.5534 C.3            1 S1                 0.0000
     11 ****         3.4386   1.3313  -0.8308 N.pl3          1 S1                 0.0000
     12 ****         3.6256   2.2840  -1.8112 C.2            1 S1                 0.0000
     13 ****         3.9735   1.5479  -2.9074 C.2            1 S1                 0.0000
     14 ****         3.9832   0.1992  -2.5555 N.2            1 S1                 0.0000
     15 ****         3.6637   0.0816  -1.3051 N.2            1 S1                 0.0000
     16 ****        -1.2572  -0.0010  -1.1456 C.3            1 S1                 0.0000
     17 ****        -0.4763  -0.0049  -2.4588 C.3            1 S1                 0.0000
     18 ****        -1.2893  -1.2596  -0.2659 C.3            1 S1                 0.0000
     19 ****        -2.4553  -2.0604  -0.3937 O.3            1 S1                 0.0000
     20 ****        -2.4659  -2.8523  -1.5684 C.3            1 S1                 0.0000
     21 ****         1.1463  -2.0818   2.9297 H              1 S1                 0.0000
     22 ****         1.3678  -1.5076   1.2881 H              1 S1                 0.0000
     23 ****         0.2235  -2.8082   1.6283 H              1 S1                 0.0000
     24 ****        -1.1605  -1.2870   2.9866 H              1 S1                 0.0000
     25 ****        -0.0635   0.0270   2.7432 H              1 S1                 0.0000
     26 ****        -3.3855   0.2417   0.6929 H              1 S1                 0.0000
     27 ****        -3.1923  -0.8933   1.9795 H              1 S1                 0.0000
     28 ****        -3.8167   1.3578   2.8147 H              1 S1                 0.0000
     29 ****        -2.3701   2.0652   2.1145 H              1 S1                 0.0000
     30 ****        -2.2400   0.9210   3.4472 H              1 S1                 0.0000
     31 ****        -1.1540   1.7193   0.2041 H              1 S1                 0.0000
     32 ****         1.2267   0.0258  -0.4263 H              1 S1                 0.0000
     33 ****         3.5432   2.4074   0.9422 H              1 S1                 0.0000
     34 ****         3.3687   0.6731   1.1523 H              1 S1                 0.0000
     35 ****         3.4967   3.3444  -1.6502 H              1 S1                 0.0000
     36 ****         4.2131   1.8720  -3.9095 H              1 S1                 0.0000
     37 ****        -2.2775   0.3445  -1.3205 H              1 S1                 0.0000
     38 ****         0.4865  -0.5069  -2.3569 H              1 S1                 0.0000
     39 ****        -0.2826   1.0108  -2.8035 H              1 S1                 0.0000
     40 ****        -1.0279  -0.5169  -3.2468 H              1 S1                 0.0000
     41 ****        -0.3729  -1.8390  -0.3823 H              1 S1                 0.0000
     42 ****        -3.3559  -3.4812  -1.5749 H              1 S1                 0.0000
     43 ****        -1.5933  -3.5048  -1.6145 H              1 S1                 0.0000
     44 ****        -2.4902  -2.2332  -2.4646 H              1 S1                 0.0000
     45 ****         0.0691   2.7159   1.4477 LP             1 S1                 0.0000
     46 ****         1.6738   3.2795   1.7756 LP             1 S1                 0.0000
     47 ****         4.2021  -0.5581  -3.1708 LP             1 S1                 0.0000
     48 ****         3.5959  -0.7712  -0.7873 LP             1 S1                 0.0000
     49 ****        -3.2536  -1.4583  -0.4097 LP             1 S1                 0.0000
     50 ****        -2.5116  -2.6676   0.3988 LP             1 S1                 0.0000
@<TRIPOS>BOND
    1    1    2 1     
    2    1   21 1     
    3    1   22 1     
    4    1   23 1     
    5    2    3 1     
    6    2   24 1     
    7    2   25 1     
    8    3   18 1     
    9    3    4 1     
   10    3    6 1     
   11    4    5 1     
   12    4   26 1     
   13    4   27 1     
   14    5   28 1     
   15    5   29 1     
   16    5   30 1     
   17    6    7 1     
   18    6   16 1     
   19    6   31 1     
   20    7    8 am    
   21    7   32 1     
   22    8    9 2     
   23    8   10 1     
   24   10   11 1     
   25   10   33 1     
   26   10   34 1     
   27   11   15 1     
   28   11   12 1     
   29   12   13 2     
   30   12   35 1     
   31   13   14 1     
   32   13   36 1     
   33   14   15 2     
   34   16   17 1     
   35   16   18 1     
   36   16   37 1     
   37   17   38 1     
   38   17   39 1     
   39   17   40 1     
   40   18   19 1     
   41   18   41 1     
   42   19   20 1     
   43   20   42 1     
   44   20   43 1     
   45   20   44 1     
   46    9   45 1     
   47    9   46 1     
   48   14   47 1     
   49   15   48 1     
   50   19   49 1     
   51   19   50 1     
@<TRIPOS>SUBSTRUCTURE
      1 S1             1
@<TRIPOS>SET
LONE_PAIRS      STATIC     ATOMS    <user>   **** ""
6 45 46 47 48 49 50
DONOR_HYDROGENS      STATIC     ATOMS    <user>   **** ""
1 32
ATOM$BLUE        STATIC     ATOMS    COLORGROUP SYSTEM
6 45 46 47 48 49 50
ATOM$RED        STATIC     ATOMS    COLORGROUP SYSTEM
1 32
