AV-unprocessed.smi:102|AV-procd|sdf|957|dock9
  -GOLD-   2262017493D 1   1.00000     0.00000
 Structure written by MMmdl.
 44 45  0  0  0  0  0  0  0  0  1 V2000
  146.0279  135.3339  160.8256 C   0  0  0  0  0  0  0  0  0  0  0  0
  146.9582  136.4581  160.3877 C   0  0  0  0  0  0  0  0  0  0  0  0
  147.4313  137.2517  161.2014 O   0  0  0  0  0  0  0  0  0  0  0  0
  147.1758  136.4627  159.0637 O   0  0  0  0  0  0  0  0  0  0  0  0
  148.0668  137.4129  158.5048 C   0  0  0  0  0  0  0  0  0  0  0  0
  149.5178  136.9577  158.7535 C   0  0  2  0  0  0  0  0  0  0  0  0
  150.2235  137.9892  159.4358 O   0  0  0  0  0  0  0  0  0  0  0  0
  150.7157  138.9060  158.5061 C   0  0  1  0  0  0  0  0  0  0  0  0
  152.0373  139.4445  159.0030 N   0  0  0  0  0  0  0  0  0  0  0  0
  152.1414  140.7654  159.4179 C   0  0  0  0  0  0  0  0  0  0  0  0
  153.2872  141.2989  159.9037 C   0  0  0  0  0  0  0  0  0  0  0  0
  153.3115  142.5888  160.2803 F   0  0  0  0  0  0  0  0  0  0  0  0
  154.4933  140.4857  160.0271 C   0  0  0  0  0  0  0  0  0  0  0  0
  155.5783  140.8787  160.4510 O   0  0  0  0  0  0  0  0  0  0  0  0
  154.3369  139.1579  159.6192 N   0  0  0  0  0  0  0  0  0  0  0  0
  153.1609  138.5944  159.1209 C   0  0  0  0  0  0  0  0  0  0  0  0
  153.1367  137.4045  158.8124 O   0  0  0  0  0  0  0  0  0  0  0  0
  150.8325  138.1871  157.1452 C   0  0  2  0  0  0  0  0  0  0  0  0
  149.9811  138.8134  156.1901 O   0  0  0  0  0  0  0  0  0  0  0  0
  150.4925  139.6727  155.2916 C   0  0  0  0  0  0  0  0  0  0  0  0
  149.4218  140.5253  154.6238 C   0  0  0  0  0  0  0  0  0  0  0  0
  151.6842  139.8029  155.0120 O   0  0  0  0  0  0  0  0  0  0  0  0
  150.3525  136.7750  157.4816 C   0  0  2  0  0  0  0  0  0  0  0  0
  149.6344  136.1333  156.4319 O   0  0  0  0  0  0  0  0  0  0  0  0
  150.2587  135.7940  155.2908 C   0  0  0  0  0  0  0  0  0  0  0  0
  149.5951  134.6127  154.5958 C   0  0  0  0  0  0  0  0  0  0  0  0
  151.2522  136.3450  154.8167 O   0  0  0  0  0  0  0  0  0  0  0  0
  155.1414  138.5531  159.6984 H   0  0  0  0  0  0  0  0  0  0  0  0
  145.7379  134.7132  159.9774 H   0  0  0  0  0  0  0  0  0  0  0  0
  145.1247  135.7476  161.2743 H   0  0  0  0  0  0  0  0  0  0  0  0
  146.5216  134.7014  161.5633 H   0  0  0  0  0  0  0  0  0  0  0  0
  147.8718  137.4741  157.4334 H   0  0  0  0  0  0  0  0  0  0  0  0
  147.8855  138.4028  158.9254 H   0  0  0  0  0  0  0  0  0  0  0  0
  149.5197  136.0398  159.3425 H   0  0  0  0  0  0  0  0  0  0  0  0
  150.0349  139.7584  158.4727 H   0  0  0  0  0  0  0  0  0  0  0  0
  151.2781  141.4121  159.3505 H   0  0  0  0  0  0  0  0  0  0  0  0
  151.8639  138.1663  156.7900 H   0  0  0  0  0  0  0  0  0  0  0  0
  149.3718  141.5055  155.0981 H   0  0  0  0  0  0  0  0  0  0  0  0
  148.4430  140.0515  154.7028 H   0  0  0  0  0  0  0  0  0  0  0  0
  149.6521  140.6638  153.5674 H   0  0  0  0  0  0  0  0  0  0  0  0
  151.2175  136.1673  157.7499 H   0  0  0  0  0  0  0  0  0  0  0  0
  148.5114  134.7315  154.5938 H   0  0  0  0  0  0  0  0  0  0  0  0
  149.8417  133.6843  155.1112 H   0  0  0  0  0  0  0  0  0  0  0  0
  149.9354  134.5361  153.5630 H   0  0  0  0  0  0  0  0  0  0  0  0
  1  2  1  0  0  0  0
  1 29  1  0  0  0  0
  1 30  1  0  0  0  0
  1 31  1  0  0  0  0
  2  3  2  0  0  0  0
  2  4  1  0  0  0  0
  4  5  1  0  0  0  0
  5  6  1  0  0  0  0
  5 32  1  0  0  0  0
  5 33  1  0  0  0  0
  6 23  1  0  0  0  0
  6  7  1  0  0  0  0
  6 34  1  0  0  0  0
  7  8  1  0  0  0  0
  8  9  1  0  0  0  0
  8 18  1  0  0  0  0
  8 35  1  0  0  0  0
  9 16  1  0  0  0  0
  9 10  1  0  0  0  0
 10 11  2  0  0  0  0
 10 36  1  0  0  0  0
 11 12  1  0  0  0  0
 11 13  1  0  0  0  0
 13 14  2  0  0  0  0
 13 15  1  0  0  0  0
 15 28  1  0  0  0  0
 15 16  1  0  0  0  0
 16 17  2  0  0  0  0
 18 19  1  0  0  0  0
 18 23  1  0  0  0  0
 18 37  1  0  0  0  0
 19 20  1  0  0  0  0
 20 21  1  0  0  0  0
 20 22  2  0  0  0  0
 21 38  1  0  0  0  0
 21 39  1  0  0  0  0
 21 40  1  0  0  0  0
 23 24  1  0  0  0  0
 23 41  1  0  0  0  0
 24 25  1  0  0  0  0
 25 26  1  0  0  0  0
 25 27  2  0  0  0  0
 26 42  1  0  0  0  0
 26 43  1  0  0  0  0
 26 44  1  0  0  0  0
M  END
> <s_m_source_file>
AV-unprocessed.smi

> <i_m_source_file_index>
102

> <i_lp_mmshare_version>
43012

> <i_f3d_flags>
0

> <s_epik_input>
W0NIM11DKD1PKU9bQ0gyXVtDQEBIXTFPW0NASF0oW0NAQEhdKE9DKD1PKVtDSDNdKVtDQEhdMU9DKD1PKVtDSDNdKW4yW2NIXWMoRiljKD1PKVtuSF1jMj1P

> <s_epik_cmdline>
J2VwaWtfcHl0aG9uJywgJy1waCcsICc3LjAnLCAnLXRuJywgJzgnLCAnLW1hJywgJzIwMCcsICctbWV0YWxfYmluZGluZycsICctaW1hZScsICc8aW5maWxlLm1hZT4nLCAnLW9tYWUnLCAnPG91dGZpbGUubWFlPic=

> <r_lp_tautomer_probability>
0.999537

> <r_epik_Ionization_Penalty>
0.058267

> <r_epik_Ionization_Penalty_Charging>
0.058267

> <r_epik_Ionization_Penalty_Neutral>
6.57791e-16

> <r_epik_State_Penalty>
0.0503774

> <r_epik_Charging_Adjusted_Penalty>
0.108644

> <i_epik_Tot_Q>
0

> <i_epik_Tot_abs_Q>
0

> <r_epik_Metal_State_Penalty>
2.6644

> <b_epik_Metal_Only>
0

> <s_epik_Chemistry_Notes>
This compound has an ester and may undergo hydrolysis at high or low pH. This compound contains an acetal/aminal-like group ( X-CH(R)-Y where X, Y are N, S, or O) that may be acid/base labile, releasing an aldehyde.

> <s_lp_Force_Field>
OPLS_2005

> <r_lp_Energy>
12.818

> <b_lp_Chiralities_Consistent>
1

> <s_lp_Variant>
AV-unprocessed.smi:102-13

> <Gold.Version>
5.8.1

> <Gold.Id.Protein>
6NUR|6NUR_protein|mol2

> <Gold.PLP.Fitness>
45.8473

> <Gold.PLP.PLP>
-38.3692

> <Gold.PLP.part.hbond>
-6.0000

> <Gold.PLP.part.metal>
0.0000

> <Gold.PLP.part.buried>
-5.2891

> <Gold.PLP.part.nonpolar>
-26.8114

> <Gold.PLP.part.repulsive>
0.2787

> <Gold.PLP.ligand.clash>
0.0000

> <Gold.PLP.ligand.torsion>
2.0371

> <Gold.PLP.Chemscore.Hbond>
3.8240

> <Gold.PLP.Chemscore.CHOScore>
0.0000

> <Gold.PLP.Chemscore.Metal>
0.0000

> <Gold.Chemscore.Hbonds>
donor molecule, donor type, donor heavy atom, donor atom, acceptor molecule, acceptor atom, score
      P1  H  6931  6943       L1     3  0.85
      P1  H  6934  6947       L1     3  0.98
      P1  H  7989  7998       L1    22  1.00
      P1  H 10752 10763       L1    27  1.00

> <Gold.PLP.Chemscore.Internal.Correction>
0.0804

> <Gold.Rescore>
     Score         DG    S(hbond)    S(metal)    S(lipo)     H(rot)  DE(clash)    DE(int)     intcor
      9.01     -13.07       3.72        0.00      47.39       4.05       0.17       3.89       ----

> <Gold.Chemscore.Fitness>
9.0080

> <Gold.Chemscore.DG>
-13.0680

> <Gold.Chemscore.ZeroCoef>
-5.4800

> <Gold.Chemscore.Hbond>
3.7175

> <Gold.Chemscore.Metal>
0.0000

> <Gold.Chemscore.Lipo>
47.3913

> <Gold.Chemscore.Internal_Hbond>
0.0000

> <Gold.Chemscore.DEClash>
0.1682

> <Gold.Chemscore.DEInternal>
3.8918

> <Gold.Chemscore.Rot>
4.0520

> <Gold.Chemscore.Internal.Correction>
   9.000000E+99

> <Gold.Chemscore.Hbonds>
donor molecule, donor type, donor heavy atom, donor atom, acceptor molecule, acceptor atom, score
      P1  H  6931  6943       L1     3  0.81
      P1  H  6934  6947       L1     3  0.90
      P1  H  7989  7998       L1    22  0.43
      P1  H 10752 10763       L1    27  1.00

> <Gold.Chemscore.Hbond.Weighted>
-12.4164

> <Gold.Chemscore.Metal.Weighted>
-0.0000

> <Gold.Chemscore.Lipo.Weighted>
-5.5448

> <Gold.Chemscore.Internal_Hbond.Weighted>
0.0000

> <Gold.Chemscore.DEClash.Weighted>
0.1682

> <Gold.Chemscore.DEInternal.Weighted>
3.8918

> <Gold.Chemscore.Rot.Weighted>
10.3732

> <Gold.Chemscore.Internal.Correction.Weighted>
   9.000000E+99

> <Gold.Protein.RotatedTorsions>
[ 6907 6896 6895 6894 ] final  102.74 input  -60.11 | X-H torsion
[ 7974 7965 7964 7962 ] final  102.86 input  175.53 | X-H torsion
[ 8008 7997 7996 7995 ] final   76.49 input   59.86 | X-H torsion
[ 10167 10162 10161 10158 ] final   80.04 input  -65.29 | X-H torsion
[ 10718 10713 10712 10709 ] final -136.94 input   66.30 | X-H torsion
[ 10763 10752 10751 10750 ] final   65.37 input  -60.55 | X-H torsion
[ 11005 11000 10999 10996 ] final   41.49 input  -57.11 | X-H torsion

> <Gold.Protein.ActiveResidues>
 VAL166  LYS551  ARG553  GLY616  TRP617  ASP618  TYR619  PRO620  LYS621  CYS622 
 ASP623  PHE694  ASN695  SER759  ASP760  ASP761  ALA762  ILE779  LEU786  VAL792 
 PHE793  MET794  SER795  GLU796  ALA797  LYS798  CYS799  TRP800  GLU811  SER814 

> <Gold.Protein.RotatedAtoms>
  152.5315  133.9931  159.7859 H   0  0  0  0  0  0  0  0  0  0  0  0  # atno 6907 bound_to 6896
  151.0163  133.5910  159.2683 H   0  0  0  0  0  0  0  0  0  0  0  0  # atno 6908 bound_to 6896
  151.2966  135.0764  159.9277 H   0  0  0  0  0  0  0  0  0  0  0  0  # atno 6909 bound_to 6896
  145.3535  139.2434  143.3545 H   0  0  0  0  0  0  0  0  0  0  0  0  # atno 7974 bound_to 7965
  155.8281  140.3467  155.5555 H   0  0  0  0  0  0  0  0  0  0  0  0  # atno 8008 bound_to 7997
  155.8271  140.0921  157.1834 H   0  0  0  0  0  0  0  0  0  0  0  0  # atno 8009 bound_to 7997
  154.4004  140.1419  156.3557 H   0  0  0  0  0  0  0  0  0  0  0  0  # atno 8010 bound_to 7997
  139.9539  144.6007  150.8135 H   0  0  0  0  0  0  0  0  0  0  0  0  # atno 10167 bound_to 10162
  156.2825  130.7329  151.1331 H   0  0  0  0  0  0  0  0  0  0  0  0  # atno 10718 bound_to 10713
  153.0094  135.5359  154.6657 H   0  0  0  0  0  0  0  0  0  0  0  0  # atno 10763 bound_to 10752
  154.5854  135.2854  155.0692 H   0  0  0  0  0  0  0  0  0  0  0  0  # atno 10764 bound_to 10752
  154.1805  135.6517  153.5085 H   0  0  0  0  0  0  0  0  0  0  0  0  # atno 10765 bound_to 10752
  140.1830  134.4081  155.8189 H   0  0  0  0  0  0  0  0  0  0  0  0  # atno 11005 bound_to 11000
  146.2958  140.4156  142.8722 LP  0  0  0  0  0  0  0  0  0  0  0  0  # atno 17320 bound_to 7965
  144.8700  140.7259  143.6053 LP  0  0  0  0  0  0  0  0  0  0  0  0  # atno 17321 bound_to 7965
  140.7574  143.3086  151.2901 LP  0  0  0  0  0  0  0  0  0  0  0  0  # atno 17342 bound_to 10162
  139.6606  144.0195  152.2690 LP  0  0  0  0  0  0  0  0  0  0  0  0  # atno 17343 bound_to 10162
  157.7319  131.0604  150.5656 LP  0  0  0  0  0  0  0  0  0  0  0  0  # atno 17370 bound_to 10713
  156.5763  130.4293  149.5997 LP  0  0  0  0  0  0  0  0  0  0  0  0  # atno 17371 bound_to 10713
  141.2224  133.7009  156.7963 LP  0  0  0  0  0  0  0  0  0  0  0  0  # atno 17394 bound_to 11000
  140.2246  134.8731  157.3413 LP  0  0  0  0  0  0  0  0  0  0  0  0  # atno 17395 bound_to 11000

$$$$
