AV-unprocessed.smi:702|AV-procd|sdf|3419|dock3
  -GOLD-   22720 0403D 1   1.00000     0.00000
 Structure written by MMmdl.
 49 51  0  0  0  0  0  0  0  0  1 V2000
  145.5382  138.2334  154.3916 C   0  0  0  0  0  0  0  0  0  0  0  0
  146.9398  137.6142  154.2246 C   0  0  1  0  0  0  0  0  0  0  0  0
  146.9222  136.7328  153.0507 N   0  0  0  0  0  0  0  0  0  0  0  0
  146.0046  135.7980  152.7606 C   0  0  0  0  0  0  0  0  0  0  0  0
  145.0157  135.5705  153.4571 O   0  0  0  0  0  0  0  0  0  0  0  0
  146.3316  135.1412  151.6341 N   0  0  0  0  0  0  0  0  0  0  0  0
  145.6546  134.0625  151.0031 C   0  0  0  0  0  0  0  0  0  0  0  0
  146.4266  133.1611  150.2411 C   0  0  0  0  0  0  0  0  0  0  0  0
  145.7787  132.0904  149.5935 C   0  0  0  0  0  0  0  0  0  0  0  0
  144.4466  131.8833  149.6551 N   0  0  0  0  0  0  0  0  0  0  0  0
  143.7072  132.7550  150.3729 C   0  0  0  0  0  0  0  0  0  0  0  0
  144.2549  133.8575  151.0591 C   0  0  0  0  0  0  0  0  0  0  0  0
  148.0988  138.6798  154.1569 C   0  0  0  0  0  0  0  0  0  0  0  0
  149.4323  138.0221  153.9939 N   0  0  0  0  0  0  0  0  0  0  0  0
  149.7462  136.9718  154.9769 C   0  0  0  0  0  0  0  0  0  0  0  0
  151.0778  136.2667  154.6707 C   0  0  0  0  0  0  0  0  0  0  0  0
  152.1254  137.2265  154.6302 O   0  0  0  0  0  0  0  0  0  0  0  0
  151.9002  138.2274  153.6461 C   0  0  0  0  0  0  0  0  0  0  0  0
  150.5702  138.9492  153.9246 C   0  0  0  0  0  0  0  0  0  0  0  0
  147.7889  139.7012  153.0153 C   0  0  0  0  0  0  0  0  0  0  0  0
  147.3531  141.0107  153.6760 C   0  0  0  0  0  0  0  0  0  0  0  0
  148.0838  141.0172  155.0105 C   0  0  0  0  0  0  0  0  0  0  0  0
  148.0486  139.5540  155.4541 C   0  0  0  0  0  0  0  0  0  0  0  0
  145.4669  138.8275  155.3026 H   0  0  0  0  0  0  0  0  0  0  0  0
  144.7756  137.4566  154.4561 H   0  0  0  0  0  0  0  0  0  0  0  0
  145.2766  138.8800  153.5540 H   0  0  0  0  0  0  0  0  0  0  0  0
  147.1062  136.9774  155.0918 H   0  0  0  0  0  0  0  0  0  0  0  0
  147.6977  136.8347  152.4125 H   0  0  0  0  0  0  0  0  0  0  0  0
  147.2120  135.4002  151.2139 H   0  0  0  0  0  0  0  0  0  0  0  0
  147.4969  133.2793  150.1561 H   0  0  0  0  0  0  0  0  0  0  0  0
  146.3467  131.3821  149.0089 H   0  0  0  0  0  0  0  0  0  0  0  0
  142.6431  132.5720  150.3965 H   0  0  0  0  0  0  0  0  0  0  0  0
  143.5952  134.5202  151.5970 H   0  0  0  0  0  0  0  0  0  0  0  0
  149.8031  137.3866  155.9821 H   0  0  0  0  0  0  0  0  0  0  0  0
  148.9713  136.2089  155.0022 H   0  0  0  0  0  0  0  0  0  0  0  0
  151.3018  135.5297  155.4419 H   0  0  0  0  0  0  0  0  0  0  0  0
  151.0241  135.7316  153.7214 H   0  0  0  0  0  0  0  0  0  0  0  0
  152.7265  138.9380  153.6656 H   0  0  0  0  0  0  0  0  0  0  0  0
  151.8916  137.7755  152.6530 H   0  0  0  0  0  0  0  0  0  0  0  0
  150.4372  139.6775  153.1285 H   0  0  0  0  0  0  0  0  0  0  0  0
  150.6554  139.5114  154.8547 H   0  0  0  0  0  0  0  0  0  0  0  0
  148.6649  139.9095  152.4039 H   0  0  0  0  0  0  0  0  0  0  0  0
  147.0353  139.3415  152.3140 H   0  0  0  0  0  0  0  0  0  0  0  0
  147.5847  141.8849  153.0671 H   0  0  0  0  0  0  0  0  0  0  0  0
  146.2758  141.0008  153.8459 H   0  0  0  0  0  0  0  0  0  0  0  0
  149.1140  141.3436  154.8657 H   0  0  0  0  0  0  0  0  0  0  0  0
  147.6226  141.6869  155.7370 H   0  0  0  0  0  0  0  0  0  0  0  0
  147.1250  139.4101  156.0128 H   0  0  0  0  0  0  0  0  0  0  0  0
  148.8340  139.3189  156.1722 H   0  0  0  0  0  0  0  0  0  0  0  0
  1  2  1  0  0  0  0
  1 24  1  0  0  0  0
  1 25  1  0  0  0  0
  1 26  1  0  0  0  0
  2  3  1  0  0  0  0
  2 13  1  0  0  0  0
  2 27  1  0  0  0  0
  3  4  1  0  0  0  0
  3 28  1  0  0  0  0
  4  5  2  0  0  0  0
  4  6  1  0  0  0  0
  6  7  1  0  0  0  0
  6 29  1  0  0  0  0
  7 12  1  0  0  0  0
  7  8  2  0  0  0  0
  8  9  1  0  0  0  0
  8 30  1  0  0  0  0
  9 10  2  0  0  0  0
  9 31  1  0  0  0  0
 10 11  1  0  0  0  0
 11 12  2  0  0  0  0
 11 32  1  0  0  0  0
 12 33  1  0  0  0  0
 13 23  1  0  0  0  0
 13 14  1  0  0  0  0
 13 20  1  0  0  0  0
 14 19  1  0  0  0  0
 14 15  1  0  0  0  0
 15 16  1  0  0  0  0
 15 34  1  0  0  0  0
 15 35  1  0  0  0  0
 16 17  1  0  0  0  0
 16 36  1  0  0  0  0
 16 37  1  0  0  0  0
 17 18  1  0  0  0  0
 18 19  1  0  0  0  0
 18 38  1  0  0  0  0
 18 39  1  0  0  0  0
 19 40  1  0  0  0  0
 19 41  1  0  0  0  0
 20 21  1  0  0  0  0
 20 42  1  0  0  0  0
 20 43  1  0  0  0  0
 21 22  1  0  0  0  0
 21 44  1  0  0  0  0
 21 45  1  0  0  0  0
 22 23  1  0  0  0  0
 22 46  1  0  0  0  0
 22 47  1  0  0  0  0
 23 48  1  0  0  0  0
 23 49  1  0  0  0  0
M  END
> <s_m_source_file>
AV-unprocessed.smi

> <i_m_source_file_index>
702

> <i_lp_mmshare_version>
43012

> <i_f3d_flags>
0

> <s_epik_input>
W0NIMl0xW0NIMl1PW0NIMl1bQ0gyXU4xQzIoW0NIMl1bQ0gyXVtDSDJdW0NIMl0yKVtDQEhdKFtDSDNdKVtOSF1DKD1PKVtOSF1jM1tjSF1bY0hdbltjSF1bY0hdMw==

> <s_epik_cmdline>
J2VwaWtfcHl0aG9uJywgJy1waCcsICc3LjAnLCAnLXRuJywgJzgnLCAnLW1hJywgJzIwMCcsICctbWV0YWxfYmluZGluZycsICctaW1hZScsICc8aW5maWxlLm1hZT4nLCAnLW9tYWUnLCAnPG91dGZpbGUubWFlPic=

> <r_epik_Ionization_Penalty>
0.626636

> <r_epik_Ionization_Penalty_Charging>
0

> <r_epik_Ionization_Penalty_Neutral>
0.626636

> <r_epik_State_Penalty>
0.629018

> <r_epik_Charging_Adjusted_Penalty>
0.629018

> <i_epik_Tot_Q>
0

> <i_epik_Tot_abs_Q>
0

> <r_epik_Metal_State_Penalty>
0.606459

> <b_epik_Metal_Only>
0

> <s_lp_Force_Field>
OPLS_2005

> <r_lp_Energy>
67.1263

> <b_lp_Chiralities_Consistent>
1

> <s_lp_Variant>
AV-unprocessed.smi:702-4

> <Gold.Version>
5.8.1

> <Gold.Id.Protein>
6NUR|6NUR_protein|mol2

> <Gold.PLP.Fitness>
45.5158

> <Gold.PLP.PLP>
-33.5251

> <Gold.PLP.part.hbond>
-3.9627

> <Gold.PLP.part.metal>
0.0000

> <Gold.PLP.part.buried>
-2.2634

> <Gold.PLP.part.nonpolar>
-29.4882

> <Gold.PLP.part.repulsive>
1.1303

> <Gold.PLP.ligand.clash>
0.0000

> <Gold.PLP.ligand.torsion>
0.3304

> <Gold.PLP.Chemscore.Hbond>
2.6605

> <Gold.PLP.Chemscore.CHOScore>
1.5141

> <Gold.PLP.Chemscore.Metal>
0.0000

> <Gold.Chemscore.Hbonds>
donor molecule, donor type, donor heavy atom, donor atom, acceptor molecule, acceptor atom, score
      L1  H     3    28       P1  7948  0.84
      L1  H     6    29       P1  7948  0.75
      P1  H 10785 10796       L1    10  0.15
      L1  C    11    32       P1 10186  0.65

> <Gold.PLP.Chemscore.Internal.Correction>
0.1277

> <Gold.Rescore>
     Score         DG    S(hbond)    S(metal)    S(lipo)     H(rot)  DE(clash)    DE(int)     intcor
     16.39     -19.49       2.05        0.00      92.24       1.41       1.51       1.59       ----

> <Gold.Chemscore.Fitness>
16.3924

> <Gold.Chemscore.DG>
-19.4916

> <Gold.Chemscore.ZeroCoef>
-5.4800

> <Gold.Chemscore.Hbond>
2.0453

> <Gold.Chemscore.Metal>
0.0000

> <Gold.Chemscore.Lipo>
92.2434

> <Gold.Chemscore.Internal_Hbond>
0.0000

> <Gold.Chemscore.DEClash>
1.5098

> <Gold.Chemscore.DEInternal>
1.5893

> <Gold.Chemscore.Rot>
1.4111

> <Gold.Chemscore.Internal.Correction>
   9.000000E+99

> <Gold.Chemscore.Hbonds>
donor molecule, donor type, donor heavy atom, donor atom, acceptor molecule, acceptor atom, score
      L1  H     3    28       P1  7948  0.80
      L1  H     6    29       P1  7948  0.61
      P1  H 10785 10796       L1    10  0.14

> <Gold.Chemscore.Hbond.Weighted>
-6.8314

> <Gold.Chemscore.Metal.Weighted>
-0.0000

> <Gold.Chemscore.Lipo.Weighted>
-10.7925

> <Gold.Chemscore.Internal_Hbond.Weighted>
0.0000

> <Gold.Chemscore.DEClash.Weighted>
1.5098

> <Gold.Chemscore.DEInternal.Weighted>
1.5893

> <Gold.Chemscore.Rot.Weighted>
3.6123

> <Gold.Chemscore.Internal.Correction.Weighted>
   9.000000E+99

> <Gold.Protein.RotatedTorsions>
[ 6907 6896 6895 6894 ] final   17.28 input  -60.11 | X-H torsion
[ 7974 7965 7964 7962 ] final   -6.35 input  175.53 | X-H torsion
[ 8008 7997 7996 7995 ] final   22.21 input   59.86 | X-H torsion
[ 10167 10162 10161 10158 ] final  -44.04 input  -65.29 | X-H torsion
[ 10718 10713 10712 10709 ] final -121.85 input   66.30 | X-H torsion
[ 10763 10752 10751 10750 ] final -159.06 input  -60.55 | X-H torsion
[ 11005 11000 10999 10996 ] final   54.28 input  -57.11 | X-H torsion

> <Gold.Protein.ActiveResidues>
 VAL166  LYS551  ARG553  GLY616  TRP617  ASP618  TYR619  PRO620  LYS621  CYS622 
 ASP623  PHE694  ASN695  SER759  ASP760  ASP761  ALA762  ILE779  LEU786  VAL792 
 PHE793  MET794  SER795  GLU796  ALA797  LYS798  CYS799  TRP800  GLU811  SER814 

> <Gold.Protein.RotatedAtoms>
  151.8472  135.0570  160.0454 H   0  0  0  0  0  0  0  0  0  0  0  0  # atno 6907 bound_to 6896
  152.2764  133.5425  159.5479 H   0  0  0  0  0  0  0  0  0  0  0  0  # atno 6908 bound_to 6896
  150.7172  134.0542  159.3851 H   0  0  0  0  0  0  0  0  0  0  0  0  # atno 6909 bound_to 6896
  146.2333  140.2157  142.8336 H   0  0  0  0  0  0  0  0  0  0  0  0  # atno 7974 bound_to 7965
  154.9622  140.3079  155.5025 H   0  0  0  0  0  0  0  0  0  0  0  0  # atno 8008 bound_to 7997
  156.2976  140.2299  156.4647 H   0  0  0  0  0  0  0  0  0  0  0  0  # atno 8009 bound_to 7997
  154.7954  140.0437  157.1221 H   0  0  0  0  0  0  0  0  0  0  0  0  # atno 8010 bound_to 7997
  140.6911  143.2951  151.3439 H   0  0  0  0  0  0  0  0  0  0  0  0  # atno 10167 bound_to 10162
  156.1370  130.6438  150.9712 H   0  0  0  0  0  0  0  0  0  0  0  0  # atno 10718 bound_to 10713
  154.7506  135.3091  154.8565 H   0  0  0  0  0  0  0  0  0  0  0  0  # atno 10763 bound_to 10752
  153.9353  135.6780  153.4749 H   0  0  0  0  0  0  0  0  0  0  0  0  # atno 10764 bound_to 10752
  153.1102  135.4870  154.8949 H   0  0  0  0  0  0  0  0  0  0  0  0  # atno 10765 bound_to 10752
  140.0699  134.5484  155.9058 H   0  0  0  0  0  0  0  0  0  0  0  0  # atno 11005 bound_to 11000
  144.9671  140.8332  143.5478 LP  0  0  0  0  0  0  0  0  0  0  0  0  # atno 17320 bound_to 7965
  145.2135  139.2193  143.5131 LP  0  0  0  0  0  0  0  0  0  0  0  0  # atno 17321 bound_to 7965
  139.6316  144.0710  152.2481 LP  0  0  0  0  0  0  0  0  0  0  0  0  # atno 17342 bound_to 10162
  140.0186  144.6170  150.7586 LP  0  0  0  0  0  0  0  0  0  0  0  0  # atno 17343 bound_to 10162
  157.6542  131.0892  150.7985 LP  0  0  0  0  0  0  0  0  0  0  0  0  # atno 17370 bound_to 10713
  156.8064  130.4938  149.5362 LP  0  0  0  0  0  0  0  0  0  0  0  0  # atno 17371 bound_to 10713
  141.2008  133.6614  156.5914 LP  0  0  0  0  0  0  0  0  0  0  0  0  # atno 17394 bound_to 11000
  140.3642  134.7661  157.4555 LP  0  0  0  0  0  0  0  0  0  0  0  0  # atno 17395 bound_to 11000

$$$$
