AV-unprocessed.smi:2479|AV-procd|sdf|9768|dock2
  -GOLD-   2272013413D 1   1.00000     0.00000
 Structure written by MMmdl.
 29 30  0  0  0  0  0  0  0  0  1 V2000
  152.4726  145.0386  158.5202 N   0  0  0  0  0  0  0  0  0  0  0  0
  152.1398  143.9487  158.3211 C   0  0  0  0  0  0  0  0  0  0  0  0
  151.7216  142.5803  158.0715 C   0  0  0  0  0  0  0  0  0  0  0  0
  150.7151  142.2931  157.1285 C   0  0  0  0  0  0  0  0  0  0  0  0
  150.2915  141.0401  156.8594 N   0  0  0  0  0  0  0  0  0  0  0  0
  150.8618  140.0035  157.5220 C   0  0  0  0  0  0  0  0  0  0  0  0
  150.4017  138.7016  157.2373 N   0  0  0  0  0  0  0  0  0  0  0  0
  149.8398  138.0906  158.4395 C   0  0  0  0  0  0  0  0  0  0  0  0
  149.4774  136.6219  158.1819 C   0  0  0  0  0  0  0  0  0  0  0  0
  148.5753  136.5552  157.0866 O   0  0  0  0  0  0  0  0  0  0  0  0
  149.1689  137.0421  155.8889 C   0  0  0  0  0  0  0  0  0  0  0  0
  149.5641  138.5311  156.0368 C   0  0  2  0  0  0  0  0  0  0  0  0
  150.1836  138.9919  154.7006 C   0  0  0  0  0  0  0  0  0  0  0  0
  149.4623  138.8648  153.5814 N   0  0  0  0  0  0  0  0  0  0  0  0
  151.3217  139.4557  154.6823 O   0  0  0  0  0  0  0  0  0  0  0  0
  151.8775  140.1956  158.4906 C   0  0  0  0  0  0  0  0  0  0  0  0
  152.6007  138.8635  159.3231 Cl  0  0  0  0  0  0  0  0  0  0  0  0
  152.3125  141.5070  158.7659 C   0  0  0  0  0  0  0  0  0  0  0  0
  150.2328  143.0848  156.5733 H   0  0  0  0  0  0  0  0  0  0  0  0
  150.5519  138.1486  159.2641 H   0  0  0  0  0  0  0  0  0  0  0  0
  148.9491  138.6408  158.7484 H   0  0  0  0  0  0  0  0  0  0  0  0
  150.3690  136.0262  157.9784 H   0  0  0  0  0  0  0  0  0  0  0  0
  148.9995  136.1920  159.0622 H   0  0  0  0  0  0  0  0  0  0  0  0
  150.0350  136.4271  155.6359 H   0  0  0  0  0  0  0  0  0  0  0  0
  148.4483  136.9168  155.0795 H   0  0  0  0  0  0  0  0  0  0  0  0
  148.6441  139.1004  156.1821 H   0  0  0  0  0  0  0  0  0  0  0  0
  149.8501  139.1592  152.6965 H   0  0  0  0  0  0  0  0  0  0  0  0
  148.5326  138.4734  153.6257 H   0  0  0  0  0  0  0  0  0  0  0  0
  153.0882  141.6813  159.4976 H   0  0  0  0  0  0  0  0  0  0  0  0
  1  2  3  0  0  0  0
  2  3  1  0  0  0  0
  3 18  1  0  0  0  0
  3  4  2  0  0  0  0
  4  5  1  0  0  0  0
  4 19  1  0  0  0  0
  5  6  2  0  0  0  0
  6  7  1  0  0  0  0
  6 16  1  0  0  0  0
  7 12  1  0  0  0  0
  7  8  1  0  0  0  0
  8  9  1  0  0  0  0
  8 20  1  0  0  0  0
  8 21  1  0  0  0  0
  9 10  1  0  0  0  0
  9 22  1  0  0  0  0
  9 23  1  0  0  0  0
 10 11  1  0  0  0  0
 11 12  1  0  0  0  0
 11 24  1  0  0  0  0
 11 25  1  0  0  0  0
 12 13  1  0  0  0  0
 12 26  1  0  0  0  0
 13 14  1  0  0  0  0
 13 15  2  0  0  0  0
 14 27  1  0  0  0  0
 14 28  1  0  0  0  0
 16 17  1  0  0  0  0
 16 18  2  0  0  0  0
 18 29  1  0  0  0  0
M  END
> <s_m_source_file>
AV-unprocessed.smi

> <i_m_source_file_index>
2479

> <i_lp_mmshare_version>
43012

> <i_f3d_flags>
0

> <s_epik_input>
TiNDYzFbY0hdbmMoYyhDbClbY0hdMSlOMltDSDJdW0NIMl1PW0NIMl1bQ0BIXTJDKD1PKVtOSDJd

> <s_epik_cmdline>
J2VwaWtfcHl0aG9uJywgJy1waCcsICc3LjAnLCAnLXRuJywgJzgnLCAnLW1hJywgJzIwMCcsICctbWV0YWxfYmluZGluZycsICctaW1hZScsICc8aW5maWxlLm1hZT4nLCAnLW9tYWUnLCAnPG91dGZpbGUubWFlPic=

> <r_lp_tautomer_probability>
1

> <r_epik_Ionization_Penalty>
1.61078e-07

> <r_epik_Ionization_Penalty_Charging>
0

> <r_epik_Ionization_Penalty_Neutral>
1.61078e-07

> <r_epik_State_Penalty>
-0

> <r_epik_Charging_Adjusted_Penalty>
0

> <i_epik_Tot_Q>
0

> <i_epik_Tot_abs_Q>
0

> <r_epik_Metal_State_Penalty>
-0

> <b_epik_Metal_Only>
0

> <s_lp_Force_Field>
OPLS_2005

> <r_lp_Energy>
19.0846

> <b_lp_Chiralities_Consistent>
1

> <s_lp_Variant>
AV-unprocessed.smi:2479-2

> <Gold.Version>
5.8.1

> <Gold.Id.Protein>
6NUR|6NUR_protein|mol2

> <Gold.PLP.Fitness>
34.8782

> <Gold.PLP.PLP>
-26.0632

> <Gold.PLP.part.hbond>
-2.5815

> <Gold.PLP.part.metal>
0.0000

> <Gold.PLP.part.buried>
-6.2966

> <Gold.PLP.part.nonpolar>
-18.0085

> <Gold.PLP.part.repulsive>
0.2419

> <Gold.PLP.ligand.clash>
0.0000

> <Gold.PLP.ligand.torsion>
0.1624

> <Gold.PLP.Chemscore.Hbond>
1.9920

> <Gold.PLP.Chemscore.CHOScore>
1.0000

> <Gold.PLP.Chemscore.Metal>
0.0000

> <Gold.Chemscore.Hbonds>
donor molecule, donor type, donor heavy atom, donor atom, acceptor molecule, acceptor atom, score
      L1  H    14    27       P1  7957  0.98
      P1  H  7989  7998       L1    15  1.00
      L1  C     4    19       P1  8028  1.00

> <Gold.PLP.Chemscore.Internal.Correction>
0.1638

> <Gold.Rescore>
     Score         DG    S(hbond)    S(metal)    S(lipo)     H(rot)  DE(clash)    DE(int)     intcor
     12.32     -13.96       1.99        0.00      48.37       1.50       0.07       1.57       ----

> <Gold.Chemscore.Fitness>
12.3232

> <Gold.Chemscore.DG>
-13.9560

> <Gold.Chemscore.ZeroCoef>
-5.4800

> <Gold.Chemscore.Hbond>
1.9936

> <Gold.Chemscore.Metal>
0.0000

> <Gold.Chemscore.Lipo>
48.3686

> <Gold.Chemscore.Internal_Hbond>
0.0000

> <Gold.Chemscore.DEClash>
0.0650

> <Gold.Chemscore.DEInternal>
1.5677

> <Gold.Chemscore.Rot>
1.5006

> <Gold.Chemscore.Internal.Correction>
   9.000000E+99

> <Gold.Chemscore.Hbonds>
donor molecule, donor type, donor heavy atom, donor atom, acceptor molecule, acceptor atom, score
      L1  H    14    27       P1  7957  0.85
      P1  H  7989  7998       L1    15  0.94

> <Gold.Chemscore.Hbond.Weighted>
-6.6585

> <Gold.Chemscore.Metal.Weighted>
-0.0000

> <Gold.Chemscore.Lipo.Weighted>
-5.6591

> <Gold.Chemscore.Internal_Hbond.Weighted>
0.0000

> <Gold.Chemscore.DEClash.Weighted>
0.0650

> <Gold.Chemscore.DEInternal.Weighted>
1.5677

> <Gold.Chemscore.Rot.Weighted>
3.8416

> <Gold.Chemscore.Internal.Correction.Weighted>
   9.000000E+99

> <Gold.Protein.RotatedTorsions>
[ 6907 6896 6895 6894 ] final  -31.60 input  -60.11 | X-H torsion
[ 7974 7965 7964 7962 ] final -152.76 input  175.53 | X-H torsion
[ 8008 7997 7996 7995 ] final  -38.87 input   59.86 | X-H torsion
[ 10167 10162 10161 10158 ] final  165.71 input  -65.29 | X-H torsion
[ 10718 10713 10712 10709 ] final   91.01 input   66.30 | X-H torsion
[ 10763 10752 10751 10750 ] final  -39.84 input  -60.55 | X-H torsion
[ 11005 11000 10999 10996 ] final   16.62 input  -57.11 | X-H torsion

> <Gold.Protein.ActiveResidues>
 VAL166  LYS551  ARG553  GLY616  TRP617  ASP618  TYR619  PRO620  LYS621  CYS622 
 ASP623  PHE694  ASN695  SER759  ASP760  ASP761  ALA762  ILE779  LEU786  VAL792 
 PHE793  MET794  SER795  GLU796  ALA797  LYS798  CYS799  TRP800  GLU811  SER814 

> <Gold.Protein.RotatedAtoms>
  151.0899  134.9910  159.8397 H   0  0  0  0  0  0  0  0  0  0  0  0  # atno 6907 bound_to 6896
  152.5428  134.2078  159.8748 H   0  0  0  0  0  0  0  0  0  0  0  0  # atno 6908 bound_to 6896
  151.2114  133.4510  159.2631 H   0  0  0  0  0  0  0  0  0  0  0  0  # atno 6909 bound_to 6896
  144.7777  140.4618  143.5862 H   0  0  0  0  0  0  0  0  0  0  0  0  # atno 7974 bound_to 7965
  154.4030  140.1566  156.2770 H   0  0  0  0  0  0  0  0  0  0  0  0  # atno 8008 bound_to 7997
  155.8903  140.3439  155.5929 H   0  0  0  0  0  0  0  0  0  0  0  0  # atno 8009 bound_to 7997
  155.7566  140.0812  157.2166 H   0  0  0  0  0  0  0  0  0  0  0  0  # atno 8010 bound_to 7997
  139.4911  144.4103  151.9307 H   0  0  0  0  0  0  0  0  0  0  0  0  # atno 10167 bound_to 10162
  157.6960  131.0392  150.3665 H   0  0  0  0  0  0  0  0  0  0  0  0  # atno 10718 bound_to 10713
  153.9361  135.6766  153.4745 H   0  0  0  0  0  0  0  0  0  0  0  0  # atno 10763 bound_to 10752
  153.0955  135.4853  154.8767 H   0  0  0  0  0  0  0  0  0  0  0  0  # atno 10764 bound_to 10752
  154.7402  135.3159  154.8699 H   0  0  0  0  0  0  0  0  0  0  0  0  # atno 10765 bound_to 10752
  140.4450  134.1282  155.7695 H   0  0  0  0  0  0  0  0  0  0  0  0  # atno 11005 bound_to 11000
  145.6139  139.1516  143.3060 LP  0  0  0  0  0  0  0  0  0  0  0  0  # atno 17320 bound_to 7965
  146.1966  140.6254  142.9121 LP  0  0  0  0  0  0  0  0  0  0  0  0  # atno 17321 bound_to 7965
  140.3544  144.3049  150.5943 LP  0  0  0  0  0  0  0  0  0  0  0  0  # atno 17342 bound_to 10162
  140.5457  143.2215  151.8011 LP  0  0  0  0  0  0  0  0  0  0  0  0  # atno 17343 bound_to 10162
  156.4095  130.3931  149.6902 LP  0  0  0  0  0  0  0  0  0  0  0  0  # atno 17370 bound_to 10713
  156.4191  130.7760  151.2776 LP  0  0  0  0  0  0  0  0  0  0  0  0  # atno 17371 bound_to 10713
  141.1689  133.8648  157.1631 LP  0  0  0  0  0  0  0  0  0  0  0  0  # atno 17394 bound_to 11000
  140.0044  135.0014  157.0261 LP  0  0  0  0  0  0  0  0  0  0  0  0  # atno 17395 bound_to 11000

$$$$
