AV-unprocessed.smi:749|AV-procd|sdf|3585|dock10
  -GOLD-   22720 0583D 1   1.00000     0.00000
 Structure written by MMmdl.
 43 44  0  0  0  0  0  0  0  0  1 V2000
  149.6135  139.3958  158.5258 C   0  0  0  0  0  0  0  0  0  0  0  0
  150.3197  139.0144  157.3017 N   0  0  0  0  0  0  0  0  0  0  0  0
  149.6076  138.0440  156.4559 C   0  0  0  0  0  0  0  0  0  0  0  0
  150.1670  137.9213  155.0280 C   0  0  2  0  0  0  0  0  0  0  0  0
  149.6185  136.7322  154.3857 N   0  0  0  0  0  0  0  0  0  0  0  0
  149.4410  135.5354  154.9695 C   0  0  0  0  0  0  0  0  0  0  0  0
  149.7437  135.3141  156.1408 O   0  0  0  0  0  0  0  0  0  0  0  0
  148.9032  134.5702  154.1943 N   0  0  0  0  0  0  0  0  0  0  0  0
  148.5833  133.2128  154.4821 C   0  0  0  0  0  0  0  0  0  0  0  0
  148.6187  132.2360  153.4524 C   0  0  0  0  0  0  0  0  0  0  0  0
  148.2665  131.0810  154.0962 C   0  0  0  0  0  0  0  0  0  0  0  0
  148.0962  129.6568  153.6468 C   0  0  0  0  0  0  0  0  0  0  0  0
  149.4323  129.0802  153.1381 C   0  0  0  0  0  0  0  0  0  0  0  0
  147.0688  129.5847  152.5015 C   0  0  0  0  0  0  0  0  0  0  0  0
  147.6080  128.7884  154.8214 C   0  0  0  0  0  0  0  0  0  0  0  0
  148.0387  131.3374  155.4147 O   0  0  0  0  0  0  0  0  0  0  0  0
  148.2418  132.7004  155.6547 N   0  0  0  0  0  0  0  0  0  0  0  0
  151.6965  137.8523  155.0772 C   0  0  0  0  0  0  0  0  0  0  0  0
  152.2683  139.1097  155.7418 C   0  0  0  0  0  0  0  0  0  0  0  0
  151.5641  139.4900  157.0532 C   0  0  0  0  0  0  0  0  0  0  0  0
  152.1497  140.2480  157.8270 O   0  0  0  0  0  0  0  0  0  0  0  0
  149.3940  140.4645  158.5217 H   0  0  0  0  0  0  0  0  0  0  0  0
  150.2170  139.1739  159.4075 H   0  0  0  0  0  0  0  0  0  0  0  0
  148.6681  138.8634  158.6385 H   0  0  0  0  0  0  0  0  0  0  0  0
  149.6637  137.0769  156.9582 H   0  0  0  0  0  0  0  0  0  0  0  0
  148.5494  138.3046  156.4017 H   0  0  0  0  0  0  0  0  0  0  0  0
  149.8694  138.8079  154.4642 H   0  0  0  0  0  0  0  0  0  0  0  0
  149.3428  136.8260  153.4182 H   0  0  0  0  0  0  0  0  0  0  0  0
  148.7153  134.8517  153.2432 H   0  0  0  0  0  0  0  0  0  0  0  0
  148.8634  132.3621  152.4083 H   0  0  0  0  0  0  0  0  0  0  0  0
  149.3202  128.0479  152.8045 H   0  0  0  0  0  0  0  0  0  0  0  0
  150.1932  129.0891  153.9194 H   0  0  0  0  0  0  0  0  0  0  0  0
  149.8188  129.6548  152.2953 H   0  0  0  0  0  0  0  0  0  0  0  0
  147.3858  130.1846  151.6479 H   0  0  0  0  0  0  0  0  0  0  0  0
  146.0920  129.9537  152.8164 H   0  0  0  0  0  0  0  0  0  0  0  0
  146.9320  128.5608  152.1515 H   0  0  0  0  0  0  0  0  0  0  0  0
  147.4870  127.7460  154.5235 H   0  0  0  0  0  0  0  0  0  0  0  0
  146.6450  129.1321  155.2008 H   0  0  0  0  0  0  0  0  0  0  0  0
  148.3147  128.8130  155.6518 H   0  0  0  0  0  0  0  0  0  0  0  0
  152.0152  136.9656  155.6276 H   0  0  0  0  0  0  0  0  0  0  0  0
  152.1054  137.7559  154.0707 H   0  0  0  0  0  0  0  0  0  0  0  0
  153.3349  138.9777  155.9273 H   0  0  0  0  0  0  0  0  0  0  0  0
  152.1738  139.9557  155.0602 H   0  0  0  0  0  0  0  0  0  0  0  0
  1  2  1  0  0  0  0
  1 22  1  0  0  0  0
  1 23  1  0  0  0  0
  1 24  1  0  0  0  0
  2 20  1  0  0  0  0
  2  3  1  0  0  0  0
  3  4  1  0  0  0  0
  3 25  1  0  0  0  0
  3 26  1  0  0  0  0
  4  5  1  0  0  0  0
  4 18  1  0  0  0  0
  4 27  1  0  0  0  0
  5  6  1  0  0  0  0
  5 28  1  0  0  0  0
  6  7  2  0  0  0  0
  6  8  1  0  0  0  0
  8  9  1  0  0  0  0
  8 29  1  0  0  0  0
  9 17  2  0  0  0  0
  9 10  1  0  0  0  0
 10 11  2  0  0  0  0
 10 30  1  0  0  0  0
 11 12  1  0  0  0  0
 11 16  1  0  0  0  0
 12 13  1  0  0  0  0
 12 14  1  0  0  0  0
 12 15  1  0  0  0  0
 13 31  1  0  0  0  0
 13 32  1  0  0  0  0
 13 33  1  0  0  0  0
 14 34  1  0  0  0  0
 14 35  1  0  0  0  0
 14 36  1  0  0  0  0
 15 37  1  0  0  0  0
 15 38  1  0  0  0  0
 15 39  1  0  0  0  0
 16 17  1  0  0  0  0
 18 19  1  0  0  0  0
 18 40  1  0  0  0  0
 18 41  1  0  0  0  0
 19 20  1  0  0  0  0
 19 42  1  0  0  0  0
 19 43  1  0  0  0  0
 20 21  2  0  0  0  0
M  END
> <s_m_source_file>
AV-unprocessed.smi

> <i_m_source_file_index>
749

> <i_lp_mmshare_version>
43012

> <i_f3d_flags>
0

> <s_epik_input>
Tz1DMVtDSDJdW0NIMl1bQ0BASF0oW0NIMl1OMVtDSDNdKVtOSF1DKD1PKVtOSF1jMltjSF1jKG9uMilDKFtDSDNdKShbQ0gzXSlbQ0gzXQ==

> <s_epik_cmdline>
J2VwaWtfcHl0aG9uJywgJy1waCcsICc3LjAnLCAnLXRuJywgJzgnLCAnLW1hJywgJzIwMCcsICctbWV0YWxfYmluZGluZycsICctaW1hZScsICc8aW5maWxlLm1hZT4nLCAnLW9tYWUnLCAnPG91dGZpbGUubWFlPic=

> <r_lp_tautomer_probability>
1

> <r_epik_Ionization_Penalty>
2.91905e-05

> <r_epik_Ionization_Penalty_Charging>
0

> <r_epik_Ionization_Penalty_Neutral>
2.91905e-05

> <r_epik_State_Penalty>
-0

> <r_epik_Charging_Adjusted_Penalty>
0

> <i_epik_Tot_Q>
0

> <i_epik_Tot_abs_Q>
0

> <r_epik_Metal_State_Penalty>
0.0102923

> <b_epik_Metal_Only>
0

> <s_lp_Force_Field>
OPLS_2005

> <r_lp_Energy>
15.3042

> <b_lp_Chiralities_Consistent>
1

> <s_lp_Variant>
AV-unprocessed.smi:749-2

> <Gold.Version>
5.8.1

> <Gold.Id.Protein>
6NUR|6NUR_protein|mol2

> <Gold.PLP.Fitness>
33.6391

> <Gold.PLP.PLP>
-25.9412

> <Gold.PLP.part.hbond>
-3.4647

> <Gold.PLP.part.metal>
0.0000

> <Gold.PLP.part.buried>
-0.2774

> <Gold.PLP.part.nonpolar>
-21.6476

> <Gold.PLP.part.repulsive>
0.0778

> <Gold.PLP.ligand.clash>
0.0000

> <Gold.PLP.ligand.torsion>
0.4837

> <Gold.PLP.Chemscore.Hbond>
2.8880

> <Gold.PLP.Chemscore.CHOScore>
0.0000

> <Gold.PLP.Chemscore.Metal>
0.0000

> <Gold.Chemscore.Hbonds>
donor molecule, donor type, donor heavy atom, donor atom, acceptor molecule, acceptor atom, score
      L1  H     5    28       P1  7948  1.00
      L1  H     8    29       P1  7948  0.94

> <Gold.PLP.Chemscore.Internal.Correction>
0.0013

> <Gold.Rescore>
     Score         DG    S(hbond)    S(metal)    S(lipo)     H(rot)  DE(clash)    DE(int)     intcor
     14.21     -16.04       2.12        0.00      56.70       1.23       0.49       1.34       ----

> <Gold.Chemscore.Fitness>
14.2086

> <Gold.Chemscore.DG>
-16.0377

> <Gold.Chemscore.ZeroCoef>
-5.4800

> <Gold.Chemscore.Hbond>
2.1187

> <Gold.Chemscore.Metal>
0.0000

> <Gold.Chemscore.Lipo>
56.7036

> <Gold.Chemscore.Internal_Hbond>
0.0000

> <Gold.Chemscore.DEClash>
0.4936

> <Gold.Chemscore.DEInternal>
1.3355

> <Gold.Chemscore.Rot>
1.2317

> <Gold.Chemscore.Internal.Correction>
   9.000000E+99

> <Gold.Chemscore.Hbonds>
donor molecule, donor type, donor heavy atom, donor atom, acceptor molecule, acceptor atom, score
      L1  H     5    28       P1  7948  0.92
      L1  H     8    29       P1  7948  0.36

> <Gold.Chemscore.Hbond.Weighted>
-7.0765

> <Gold.Chemscore.Metal.Weighted>
-0.0000

> <Gold.Chemscore.Lipo.Weighted>
-6.6343

> <Gold.Chemscore.Internal_Hbond.Weighted>
0.0000

> <Gold.Chemscore.DEClash.Weighted>
0.4936

> <Gold.Chemscore.DEInternal.Weighted>
1.3355

> <Gold.Chemscore.Rot.Weighted>
3.1531

> <Gold.Chemscore.Internal.Correction.Weighted>
   9.000000E+99

> <Gold.Protein.RotatedTorsions>
[ 6907 6896 6895 6894 ] final   39.07 input  -60.11 | X-H torsion
[ 7974 7965 7964 7962 ] final  165.92 input  175.53 | X-H torsion
[ 8008 7997 7996 7995 ] final   57.78 input   59.86 | X-H torsion
[ 10167 10162 10161 10158 ] final -132.90 input  -65.29 | X-H torsion
[ 10718 10713 10712 10709 ] final -148.05 input   66.30 | X-H torsion
[ 10763 10752 10751 10750 ] final  173.37 input  -60.55 | X-H torsion
[ 11005 11000 10999 10996 ] final   73.04 input  -57.11 | X-H torsion

> <Gold.Protein.ActiveResidues>
 VAL166  LYS551  ARG553  GLY616  TRP617  ASP618  TYR619  PRO620  LYS621  CYS622 
 ASP623  PHE694  ASN695  SER759  ASP760  ASP761  ALA762  ILE779  LEU786  VAL792 
 PHE793  MET794  SER795  GLU796  ALA797  LYS798  CYS799  TRP800  GLU811  SER814 

> <Gold.Protein.RotatedAtoms>
  152.1647  134.8883  160.0538 H   0  0  0  0  0  0  0  0  0  0  0  0  # atno 6907 bound_to 6896
  151.9865  133.3771  159.4136 H   0  0  0  0  0  0  0  0  0  0  0  0  # atno 6908 bound_to 6896
  150.6893  134.3905  159.5118 H   0  0  0  0  0  0  0  0  0  0  0  0  # atno 6909 bound_to 6896
  144.7483  139.8540  143.6375 H   0  0  0  0  0  0  0  0  0  0  0  0  # atno 7974 bound_to 7965
  155.5393  140.3484  155.4443 H   0  0  0  0  0  0  0  0  0  0  0  0  # atno 8008 bound_to 7997
  156.0663  140.1352  156.9909 H   0  0  0  0  0  0  0  0  0  0  0  0  # atno 8009 bound_to 7997
  154.4505  140.0975  156.6576 H   0  0  0  0  0  0  0  0  0  0  0  0  # atno 8010 bound_to 7997
  139.9037  143.6576  152.2589 H   0  0  0  0  0  0  0  0  0  0  0  0  # atno 10167 bound_to 10162
  156.4153  130.8002  151.2222 H   0  0  0  0  0  0  0  0  0  0  0  0  # atno 10718 bound_to 10713
  154.4390  135.2761  155.1860 H   0  0  0  0  0  0  0  0  0  0  0  0  # atno 10763 bound_to 10752
  154.3734  135.6103  153.5756 H   0  0  0  0  0  0  0  0  0  0  0  0  # atno 10764 bound_to 10752
  152.9840  135.5863  154.4715 H   0  0  0  0  0  0  0  0  0  0  0  0  # atno 10765 bound_to 10752
  139.9460  134.7312  156.0978 H   0  0  0  0  0  0  0  0  0  0  0  0  # atno 11005 bound_to 11000
  146.1395  139.4449  143.0117 LP  0  0  0  0  0  0  0  0  0  0  0  0  # atno 17320 bound_to 7965
  145.7039  141.0127  143.1489 LP  0  0  0  0  0  0  0  0  0  0  0  0  # atno 17321 bound_to 7965
  139.7002  144.7636  151.1286 LP  0  0  0  0  0  0  0  0  0  0  0  0  # atno 17342 bound_to 10162
  140.7701  143.5468  150.9250 LP  0  0  0  0  0  0  0  0  0  0  0  0  # atno 17343 bound_to 10162
  157.7508  131.0245  150.3878 LP  0  0  0  0  0  0  0  0  0  0  0  0  # atno 17370 bound_to 10713
  156.4184  130.3948  149.6842 LP  0  0  0  0  0  0  0  0  0  0  0  0  # atno 17371 bound_to 10713
  141.1110  133.6643  156.2979 LP  0  0  0  0  0  0  0  0  0  0  0  0  # atno 17394 bound_to 11000
  140.5834  134.5723  157.5484 LP  0  0  0  0  0  0  0  0  0  0  0  0  # atno 17395 bound_to 11000

$$$$
