AV-unprocessed.smi:1554|AV-procd|sdf|6255|dock8
  -GOLD-   22720 6443D 1   1.00000     0.00000
 Structure written by MMmdl.
 48 50  0  0  0  0  0  0  0  0  2 V2000
  151.9239  143.4714  160.6262 C   0  0  0  0  0  0  0  0  0  0  0  0
  151.8467  142.5636  159.4104 C   0  0  0  0  0  0  0  0  0  0  0  0
  150.9188  142.8779  158.3919 C   0  0  0  0  0  0  0  0  0  0  0  0
  150.8728  142.0294  157.2920 C   0  0  0  0  0  0  0  0  0  0  0  0
  150.0840  142.0683  156.1404 N   0  3  0  0  0  0  0  0  0  0  0  0
  150.3989  141.0142  155.3381 C   0  0  0  0  0  0  0  0  0  0  0  0
  151.3767  140.3017  155.9605 N   0  0  0  0  0  0  0  0  0  0  0  0
  152.0659  139.0778  155.5254 C   0  0  0  0  0  0  0  0  0  0  0  0
  151.1241  138.0698  154.8379 C   0  0  1  0  0  0  0  0  0  0  0  0
  151.8772  137.2131  154.0026 O   0  0  0  0  0  0  0  0  0  0  0  0
  150.3724  137.2056  155.8698 C   0  0  0  0  0  0  0  0  0  0  0  0
  149.3589  136.3032  155.3202 N   0  0  0  0  0  0  0  0  0  0  0  0
  148.2401  136.0805  156.2341 C   0  0  0  0  0  0  0  0  0  0  0  0
  147.2050  135.1057  155.6464 C   0  0  0  0  0  0  0  0  0  0  0  0
  147.8409  133.8780  155.3069 O   0  0  0  0  0  0  0  0  0  0  0  0
  148.9082  134.0429  154.3774 C   0  0  2  0  0  0  0  0  0  0  0  0
  149.5070  132.6639  154.0808 C   0  0  0  0  0  0  0  0  0  0  0  0
  149.9466  135.0133  154.9731 C   0  0  0  0  0  0  0  0  0  0  0  0
  151.7061  140.8990  157.1834 C   0  0  0  0  0  0  0  0  0  0  0  0
  152.6264  140.5761  158.1779 C   0  0  0  0  0  0  0  0  0  0  0  0
  152.6911  141.4282  159.3035 C   0  0  0  0  0  0  0  0  0  0  0  0
  153.6875  141.1011  160.4028 C   0  0  0  0  0  0  0  0  0  0  0  0
  151.1887  144.2748  160.5716 H   0  0  0  0  0  0  0  0  0  0  0  0
  152.9112  143.9279  160.7009 H   0  0  0  0  0  0  0  0  0  0  0  0
  151.7325  142.9075  161.5392 H   0  0  0  0  0  0  0  0  0  0  0  0
  150.2741  143.7417  158.4651 H   0  0  0  0  0  0  0  0  0  0  0  0
  149.9529  140.7845  154.3812 H   0  0  0  0  0  0  0  0  0  0  0  0
  152.9036  139.3452  154.8805 H   0  0  0  0  0  0  0  0  0  0  0  0
  152.5018  138.6251  156.4169 H   0  0  0  0  0  0  0  0  0  0  0  0
  150.4236  138.6274  154.2173 H   0  0  0  0  0  0  0  0  0  0  0  0
  151.3540  137.0062  153.2425 H   0  0  0  0  0  0  0  0  0  0  0  0
  151.1122  136.6216  156.4199 H   0  0  0  0  0  0  0  0  0  0  0  0
  149.9038  137.8571  156.6091 H   0  0  0  0  0  0  0  0  0  0  0  0
  148.6089  135.6860  157.1823 H   0  0  0  0  0  0  0  0  0  0  0  0
  147.7372  137.0195  156.4600 H   0  0  0  0  0  0  0  0  0  0  0  0
  146.4150  134.9088  156.3713 H   0  0  0  0  0  0  0  0  0  0  0  0
  146.7294  135.5339  154.7627 H   0  0  0  0  0  0  0  0  0  0  0  0
  148.5094  134.4587  153.4504 H   0  0  0  0  0  0  0  0  0  0  0  0
  150.3265  132.7369  153.3652 H   0  0  0  0  0  0  0  0  0  0  0  0
  148.7559  131.9959  153.6588 H   0  0  0  0  0  0  0  0  0  0  0  0
  149.8947  132.1993  154.9878 H   0  0  0  0  0  0  0  0  0  0  0  0
  150.7543  135.1586  154.2548 H   0  0  0  0  0  0  0  0  0  0  0  0
  150.3965  134.5633  155.8598 H   0  0  0  0  0  0  0  0  0  0  0  0
  153.2732  139.7153  158.0949 H   0  0  0  0  0  0  0  0  0  0  0  0
  154.3012  140.2384  160.1411 H   0  0  0  0  0  0  0  0  0  0  0  0
  153.1668  140.8711  161.3325 H   0  0  0  0  0  0  0  0  0  0  0  0
  154.3573  141.9430  160.5788 H   0  0  0  0  0  0  0  0  0  0  0  0
  149.3826  142.7623  155.9154 H   0  0  0  0  0  0  0  0  0  0  0  0
  1  2  1  0  0  0  0
  1 23  1  0  0  0  0
  1 24  1  0  0  0  0
  1 25  1  0  0  0  0
  2 21  1  0  0  0  0
  2  3  2  0  0  0  0
  3  4  1  0  0  0  0
  3 26  1  0  0  0  0
  4 19  2  0  0  0  0
  4  5  1  0  0  0  0
  5  6  2  0  0  0  0
  5 48  1  0  0  0  0
  6  7  1  0  0  0  0
  6 27  1  0  0  0  0
  7  8  1  0  0  0  0
  7 19  1  0  0  0  0
  8  9  1  0  0  0  0
  8 28  1  0  0  0  0
  8 29  1  0  0  0  0
  9 10  1  0  0  0  0
  9 11  1  0  0  0  0
  9 30  1  0  0  0  0
 10 31  1  0  0  0  0
 11 12  1  0  0  0  0
 11 32  1  0  0  0  0
 11 33  1  0  0  0  0
 12 18  1  0  0  0  0
 12 13  1  0  0  0  0
 13 14  1  0  0  0  0
 13 34  1  0  0  0  0
 13 35  1  0  0  0  0
 14 15  1  0  0  0  0
 14 36  1  0  0  0  0
 14 37  1  0  0  0  0
 15 16  1  0  0  0  0
 16 17  1  0  0  0  0
 16 18  1  0  0  0  0
 16 38  1  0  0  0  0
 17 39  1  0  0  0  0
 17 40  1  0  0  0  0
 17 41  1  0  0  0  0
 18 42  1  0  0  0  0
 18 43  1  0  0  0  0
 19 20  1  0  0  0  0
 20 21  2  0  0  0  0
 20 44  1  0  0  0  0
 21 22  1  0  0  0  0
 22 45  1  0  0  0  0
 22 46  1  0  0  0  0
 22 47  1  0  0  0  0
M  CHG  1   5   1
M  END
> <s_m_source_file>
AV-unprocessed.smi

> <i_m_source_file_index>
1554

> <i_lp_mmshare_version>
43012

> <i_f3d_flags>
0

> <s_epik_input>
W0NIM11jKFtjSF0xKWMoW0NIM10pW2NIXWMoYzEyKW4oW2NIXW4yKVtDSDJdW0NASF0oW09IXSlbQ0gyXU4zW0NIMl1bQ0gyXU9bQ0BASF0oW0NIM10pW0NIMl0z

> <s_epik_cmdline>
J2VwaWtfcHl0aG9uJywgJy1waCcsICc3LjAnLCAnLXRuJywgJzgnLCAnLW1hJywgJzIwMCcsICctbWV0YWxfYmluZGluZycsICctaW1hZScsICc8aW5maWxlLm1hZT4nLCAnLW9tYWUnLCAnPG91dGZpbGUubWFlPic=

> <r_epik_Ionization_Penalty>
1.42504

> <r_epik_Ionization_Penalty_Charging>
1.21068

> <r_epik_Ionization_Penalty_Neutral>
0.214359

> <r_epik_State_Penalty>
1.46962

> <r_epik_Charging_Adjusted_Penalty>
2.6803

> <i_epik_Tot_Q>
1

> <i_epik_Tot_abs_Q>
1

> <r_epik_Metal_State_Penalty>
5.48754

> <b_epik_Metal_Only>
0

> <s_lp_Force_Field>
OPLS_2005

> <r_lp_Energy>
34.6572

> <b_lp_Chiralities_Consistent>
1

> <s_lp_Variant>
AV-unprocessed.smi:1554-16

> <Gold.Version>
5.8.1

> <Gold.Id.Protein>
6NUR|6NUR_protein|mol2

> <Gold.PLP.Fitness>
51.3303

> <Gold.PLP.PLP>
-41.3118

> <Gold.PLP.part.hbond>
-3.0000

> <Gold.PLP.part.metal>
0.0000

> <Gold.PLP.part.buried>
-3.8006

> <Gold.PLP.part.nonpolar>
-34.0078

> <Gold.PLP.part.repulsive>
0.2553

> <Gold.PLP.ligand.clash>
0.0000

> <Gold.PLP.ligand.torsion>
0.9289

> <Gold.PLP.Chemscore.Hbond>
3.9515

> <Gold.PLP.Chemscore.CHOScore>
0.0000

> <Gold.PLP.Chemscore.Metal>
0.0000

> <Gold.Chemscore.Hbonds>
donor molecule, donor type, donor heavy atom, donor atom, acceptor molecule, acceptor atom, score
      L1  H     5    48       P1  8028  1.93
      L1  H    10    31       P1  7949  0.95
      P1  H 10752 10763       L1    10  1.00

> <Gold.PLP.Chemscore.Internal.Correction>
0.0218

> <Gold.Rescore>
     Score         DG    S(hbond)    S(metal)    S(lipo)     H(rot)  DE(clash)    DE(int)     intcor
     19.25     -20.51       2.35        0.00     105.93       2.04       0.30       0.96       ----

> <Gold.Chemscore.Fitness>
19.2534

> <Gold.Chemscore.DG>
-20.5089

> <Gold.Chemscore.ZeroCoef>
-5.4800

> <Gold.Chemscore.Hbond>
2.3548

> <Gold.Chemscore.Metal>
0.0000

> <Gold.Chemscore.Lipo>
105.9252

> <Gold.Chemscore.Internal_Hbond>
0.0000

> <Gold.Chemscore.DEClash>
0.3000

> <Gold.Chemscore.DEInternal>
0.9554

> <Gold.Chemscore.Rot>
2.0427

> <Gold.Chemscore.Internal.Correction>
   9.000000E+99

> <Gold.Chemscore.Hbonds>
donor molecule, donor type, donor heavy atom, donor atom, acceptor molecule, acceptor atom, score
      L1  H     5    48       P1  8028  0.86
      L1  H    10    31       P1  7949  0.63
      P1  H 10752 10763       L1    10  0.39

> <Gold.Chemscore.Hbond.Weighted>
-7.8650

> <Gold.Chemscore.Metal.Weighted>
-0.0000

> <Gold.Chemscore.Lipo.Weighted>
-12.3932

> <Gold.Chemscore.Internal_Hbond.Weighted>
0.0000

> <Gold.Chemscore.DEClash.Weighted>
0.3000

> <Gold.Chemscore.DEInternal.Weighted>
0.9554

> <Gold.Chemscore.Rot.Weighted>
5.2294

> <Gold.Chemscore.Internal.Correction.Weighted>
   9.000000E+99

> <Gold.Protein.RotatedTorsions>
[ 6907 6896 6895 6894 ] final   -5.28 input  -60.11 | X-H torsion
[ 7974 7965 7964 7962 ] final  168.01 input  175.53 | X-H torsion
[ 8008 7997 7996 7995 ] final  176.11 input   59.86 | X-H torsion
[ 10167 10162 10161 10158 ] final  176.47 input  -65.29 | X-H torsion
[ 10718 10713 10712 10709 ] final  160.30 input   66.30 | X-H torsion
[ 10763 10752 10751 10750 ] final   36.17 input  -60.55 | X-H torsion
[ 11005 11000 10999 10996 ] final  -63.05 input  -57.11 | X-H torsion

> <Gold.Protein.ActiveResidues>
 VAL166  LYS551  ARG553  GLY616  TRP617  ASP618  TYR619  PRO620  LYS621  CYS622 
 ASP623  PHE694  ASN695  SER759  ASP760  ASP761  ALA762  ILE779  LEU786  VAL792 
 PHE793  MET794  SER795  GLU796  ALA797  LYS798  CYS799  TRP800  GLU811  SER814 

> <Gold.Protein.RotatedAtoms>
  151.4841  135.1054  159.9785 H   0  0  0  0  0  0  0  0  0  0  0  0  # atno 6907 bound_to 6896
  152.4767  133.8152  159.7035 H   0  0  0  0  0  0  0  0  0  0  0  0  # atno 6908 bound_to 6896
  150.8810  133.7310  159.2958 H   0  0  0  0  0  0  0  0  0  0  0  0  # atno 6909 bound_to 6896
  144.7404  139.8844  143.6398 H   0  0  0  0  0  0  0  0  0  0  0  0  # atno 7974 bound_to 7965
  156.0799  140.1392  156.9725 H   0  0  0  0  0  0  0  0  0  0  0  0  # atno 8008 bound_to 7997
  154.4579  140.0954  156.6860 H   0  0  0  0  0  0  0  0  0  0  0  0  # atno 8009 bound_to 7997
  155.5092  140.3453  155.4387 H   0  0  0  0  0  0  0  0  0  0  0  0  # atno 8010 bound_to 7997
  139.5215  144.2912  152.0462 H   0  0  0  0  0  0  0  0  0  0  0  0  # atno 10167 bound_to 10162
  157.1522  131.0567  151.2274 H   0  0  0  0  0  0  0  0  0  0  0  0  # atno 10718 bound_to 10713
  153.0088  135.6313  154.1943 H   0  0  0  0  0  0  0  0  0  0  0  0  # atno 10763 bound_to 10752
  154.1686  135.2819  155.3089 H   0  0  0  0  0  0  0  0  0  0  0  0  # atno 10764 bound_to 10752
  154.5926  135.5613  153.7354 H   0  0  0  0  0  0  0  0  0  0  0  0  # atno 10765 bound_to 10752
  141.1380  133.6647  156.5622 H   0  0  0  0  0  0  0  0  0  0  0  0  # atno 11005 bound_to 11000
  146.1187  139.4202  143.0242 LP  0  0  0  0  0  0  0  0  0  0  0  0  # atno 17320 bound_to 7965
  145.7336  141.0033  143.1338 LP  0  0  0  0  0  0  0  0  0  0  0  0  # atno 17321 bound_to 7965
  140.2363  144.4316  150.6279 LP  0  0  0  0  0  0  0  0  0  0  0  0  # atno 17342 bound_to 10162
  140.6321  143.2189  151.6473 LP  0  0  0  0  0  0  0  0  0  0  0  0  # atno 17343 bound_to 10162
  157.4210  130.7437  149.6913 LP  0  0  0  0  0  0  0  0  0  0  0  0  # atno 17370 bound_to 10713
  155.9768  130.4070  150.3752 LP  0  0  0  0  0  0  0  0  0  0  0  0  # atno 17371 bound_to 10713
  140.3979  134.7382  157.4762 LP  0  0  0  0  0  0  0  0  0  0  0  0  # atno 17394 bound_to 11000
  140.0517  134.6121  155.8853 LP  0  0  0  0  0  0  0  0  0  0  0  0  # atno 17395 bound_to 11000

$$$$
