AV-unprocessed.smi:3281|AV-procd|sdf|12558|dock9
  -GOLD-   2272018483D 1   1.00000     0.00000
 Structure written by MMmdl.
 36 37  0  0  0  0  0  0  0  0  1 V2000
  149.6056  134.9846  154.9007 C   0  0  0  0  0  0  0  0  0  0  0  0
  150.9101  135.7560  155.1288 C   0  0  0  0  0  0  0  0  0  0  0  0
  150.7429  137.2360  155.0246 C   0  0  0  0  0  0  0  0  0  0  0  0
  151.2697  138.0734  154.0726 C   0  0  0  0  0  0  0  0  0  0  0  0
  150.9373  139.4173  154.2560 N   0  0  0  0  0  0  0  0  0  0  0  0
  150.1562  139.6092  155.3222 C   0  0  0  0  0  0  0  0  0  0  0  0
  149.6846  140.9540  155.7743 C   0  0  0  0  0  0  0  0  0  0  0  0
  150.8102  141.8314  156.3448 C   0  0  0  0  0  0  0  0  0  0  0  0
  151.2776  141.2998  157.6183 N   0  0  0  0  0  0  0  0  0  0  0  0
  151.9074  142.3195  158.4470 C   0  0  2  0  0  0  0  0  0  0  0  0
  152.3997  141.6343  159.7365 C   0  0  0  0  0  0  0  0  0  0  0  0
  153.1364  142.6036  160.6746 C   0  0  0  0  0  0  0  0  0  0  0  0
  152.2386  143.7562  161.1448 C   0  0  0  0  0  0  0  0  0  0  0  0
  151.6761  144.7622  159.7452 S   0  0  0  0  0  0  0  0  0  0  0  0
  150.9044  143.4504  158.7589 C   0  0  0  0  0  0  0  0  0  0  0  0
  149.7979  138.1232  156.1931 S   0  0  0  0  0  0  0  0  0  0  0  0
  149.7688  133.9105  154.9900 H   0  0  0  0  0  0  0  0  0  0  0  0
  149.2009  135.1781  153.9068 H   0  0  0  0  0  0  0  0  0  0  0  0
  148.8483  135.2687  155.6319 H   0  0  0  0  0  0  0  0  0  0  0  0
  151.3100  135.5025  156.1112 H   0  0  0  0  0  0  0  0  0  0  0  0
  151.6562  135.4254  154.4056 H   0  0  0  0  0  0  0  0  0  0  0  0
  151.8947  137.7996  153.2355 H   0  0  0  0  0  0  0  0  0  0  0  0
  149.1950  141.4597  154.9407 H   0  0  0  0  0  0  0  0  0  0  0  0
  148.9184  140.8071  156.5358 H   0  0  0  0  0  0  0  0  0  0  0  0
  151.6465  141.8613  155.6456 H   0  0  0  0  0  0  0  0  0  0  0  0
  150.4497  142.8533  156.4592 H   0  0  0  0  0  0  0  0  0  0  0  0
  150.5143  140.8687  158.1209 H   0  0  0  0  0  0  0  0  0  0  0  0
  152.7726  142.7236  157.9189 H   0  0  0  0  0  0  0  0  0  0  0  0
  151.5593  141.1837  160.2667 H   0  0  0  0  0  0  0  0  0  0  0  0
  153.0728  140.8147  159.4805 H   0  0  0  0  0  0  0  0  0  0  0  0
  153.5004  142.0551  161.5439 H   0  0  0  0  0  0  0  0  0  0  0  0
  154.0191  143.0038  160.1743 H   0  0  0  0  0  0  0  0  0  0  0  0
  151.3692  143.3689  161.6769 H   0  0  0  0  0  0  0  0  0  0  0  0
  152.7804  144.3971  161.8406 H   0  0  0  0  0  0  0  0  0  0  0  0
  150.5210  143.9071  157.8470 H   0  0  0  0  0  0  0  0  0  0  0  0
  150.0438  143.0608  159.3041 H   0  0  0  0  0  0  0  0  0  0  0  0
  1  2  1  0  0  0  0
  1 17  1  0  0  0  0
  1 18  1  0  0  0  0
  1 19  1  0  0  0  0
  2  3  1  0  0  0  0
  2 20  1  0  0  0  0
  2 21  1  0  0  0  0
  3 16  1  0  0  0  0
  3  4  2  0  0  0  0
  4  5  1  0  0  0  0
  4 22  1  0  0  0  0
  5  6  2  0  0  0  0
  6  7  1  0  0  0  0
  6 16  1  0  0  0  0
  7  8  1  0  0  0  0
  7 23  1  0  0  0  0
  7 24  1  0  0  0  0
  8  9  1  0  0  0  0
  8 25  1  0  0  0  0
  8 26  1  0  0  0  0
  9 10  1  0  0  0  0
  9 27  1  0  0  0  0
 10 15  1  0  0  0  0
 10 11  1  0  0  0  0
 10 28  1  0  0  0  0
 11 12  1  0  0  0  0
 11 29  1  0  0  0  0
 11 30  1  0  0  0  0
 12 13  1  0  0  0  0
 12 31  1  0  0  0  0
 12 32  1  0  0  0  0
 13 14  1  0  0  0  0
 13 33  1  0  0  0  0
 13 34  1  0  0  0  0
 14 15  1  0  0  0  0
 15 35  1  0  0  0  0
 15 36  1  0  0  0  0
M  END
> <s_m_source_file>
AV-unprocessed.smi

> <i_m_source_file_index>
3281

> <i_lp_mmshare_version>
43012

> <i_f3d_flags>
0

> <s_epik_input>
W0NIM11bQ0gyXWMxW2NIXW5jKHMxKVtDSDJdW0NIMl1bTkhdW0NAQEhdMltDSDJdW0NIMl1bQ0gyXVNbQ0gyXTI=

> <s_epik_cmdline>
J2VwaWtfcHl0aG9uJywgJy1waCcsICc3LjAnLCAnLXRuJywgJzgnLCAnLW1hJywgJzIwMCcsICctbWV0YWxfYmluZGluZycsICctaW1hZScsICc8aW5maWxlLm1hZT4nLCAnLW9tYWUnLCAnPG91dGZpbGUubWFlPic=

> <r_epik_Ionization_Penalty>
2.53829

> <r_epik_Ionization_Penalty_Charging>
0

> <r_epik_Ionization_Penalty_Neutral>
2.53829

> <r_epik_State_Penalty>
2.70274

> <r_epik_Charging_Adjusted_Penalty>
2.70274

> <i_epik_Tot_Q>
0

> <i_epik_Tot_abs_Q>
0

> <r_epik_Metal_State_Penalty>
2.69977

> <b_epik_Metal_Only>
0

> <s_lp_Force_Field>
OPLS_2005

> <r_lp_Energy>
0.229732

> <b_lp_Chiralities_Consistent>
1

> <s_lp_Variant>
AV-unprocessed.smi:3281-3

> <Gold.Version>
5.8.1

> <Gold.Id.Protein>
6NUR|6NUR_protein|mol2

> <Gold.PLP.Fitness>
39.8656

> <Gold.PLP.PLP>
-34.5584

> <Gold.PLP.part.hbond>
-1.0000

> <Gold.PLP.part.metal>
0.0000

> <Gold.PLP.part.buried>
-4.7375

> <Gold.PLP.part.nonpolar>
-29.0254

> <Gold.PLP.part.repulsive>
0.1598

> <Gold.PLP.ligand.clash>
0.0000

> <Gold.PLP.ligand.torsion>
0.3030

> <Gold.PLP.Chemscore.Hbond>
1.0000

> <Gold.PLP.Chemscore.CHOScore>
0.9659

> <Gold.PLP.Chemscore.Metal>
0.0000

> <Gold.Chemscore.Hbonds>
donor molecule, donor type, donor heavy atom, donor atom, acceptor molecule, acceptor atom, score
      P1  H  7989  7998       L1     5  1.00
      L1  C     4    22       P1  7949  0.68

> <Gold.PLP.Chemscore.Internal.Correction>
0.0156

> <Gold.Rescore>
     Score         DG    S(hbond)    S(metal)    S(lipo)     H(rot)  DE(clash)    DE(int)     intcor
     17.96     -18.27       0.94        0.00     110.83       1.30       0.07       0.23       ----

> <Gold.Chemscore.Fitness>
17.9625

> <Gold.Chemscore.DG>
-18.2686

> <Gold.Chemscore.ZeroCoef>
-5.4800

> <Gold.Chemscore.Hbond>
0.9409

> <Gold.Chemscore.Metal>
0.0000

> <Gold.Chemscore.Lipo>
110.8258

> <Gold.Chemscore.Internal_Hbond>
0.0000

> <Gold.Chemscore.DEClash>
0.0742

> <Gold.Chemscore.DEInternal>
0.2319

> <Gold.Chemscore.Rot>
1.2972

> <Gold.Chemscore.Internal.Correction>
   9.000000E+99

> <Gold.Chemscore.Hbonds>
donor molecule, donor type, donor heavy atom, donor atom, acceptor molecule, acceptor atom, score
      P1  H  7989  7998       L1     5  0.96

> <Gold.Chemscore.Hbond.Weighted>
-3.1428

> <Gold.Chemscore.Metal.Weighted>
-0.0000

> <Gold.Chemscore.Lipo.Weighted>
-12.9666

> <Gold.Chemscore.Internal_Hbond.Weighted>
0.0000

> <Gold.Chemscore.DEClash.Weighted>
0.0742

> <Gold.Chemscore.DEInternal.Weighted>
0.2319

> <Gold.Chemscore.Rot.Weighted>
3.3208

> <Gold.Chemscore.Internal.Correction.Weighted>
   9.000000E+99

> <Gold.Protein.RotatedTorsions>
[ 6907 6896 6895 6894 ] final  155.58 input  -60.11 | X-H torsion
[ 7974 7965 7964 7962 ] final   -1.99 input  175.53 | X-H torsion
[ 8008 7997 7996 7995 ] final -105.92 input   59.86 | X-H torsion
[ 10167 10162 10161 10158 ] final  145.28 input  -65.29 | X-H torsion
[ 10718 10713 10712 10709 ] final -141.65 input   66.30 | X-H torsion
[ 10763 10752 10751 10750 ] final  -87.21 input  -60.55 | X-H torsion
[ 11005 11000 10999 10996 ] final    0.88 input  -57.11 | X-H torsion

> <Gold.Protein.ActiveResidues>
 VAL166  LYS551  ARG553  GLY616  TRP617  ASP618  TYR619  PRO620  LYS621  CYS622 
 ASP623  PHE694  ASN695  SER759  ASP760  ASP761  ALA762  ILE779  LEU786  VAL792 
 PHE793  MET794  SER795  GLU796  ALA797  LYS798  CYS799  TRP800  GLU811  SER814 

> <Gold.Protein.RotatedAtoms>
  152.0421  133.3982  159.4341 H   0  0  0  0  0  0  0  0  0  0  0  0  # atno 6907 bound_to 6896
  150.6875  134.3403  159.4874 H   0  0  0  0  0  0  0  0  0  0  0  0  # atno 6908 bound_to 6896
  152.1202  134.9210  160.0614 H   0  0  0  0  0  0  0  0  0  0  0  0  # atno 6909 bound_to 6896
  146.2410  140.1503  142.8334 H   0  0  0  0  0  0  0  0  0  0  0  0  # atno 7974 bound_to 7965
  154.9069  140.0411  157.1924 H   0  0  0  0  0  0  0  0  0  0  0  0  # atno 8008 bound_to 7997
  154.8387  140.2911  155.5652 H   0  0  0  0  0  0  0  0  0  0  0  0  # atno 8009 bound_to 7997
  156.2991  140.2487  156.3326 H   0  0  0  0  0  0  0  0  0  0  0  0  # atno 8010 bound_to 7997
  139.4929  144.5912  151.6676 H   0  0  0  0  0  0  0  0  0  0  0  0  # atno 10167 bound_to 10162
  156.3365  130.7614  151.1742 H   0  0  0  0  0  0  0  0  0  0  0  0  # atno 10718 bound_to 10713
  154.6310  135.5421  153.7681 H   0  0  0  0  0  0  0  0  0  0  0  0  # atno 10763 bound_to 10752
  153.0285  135.6436  154.1300 H   0  0  0  0  0  0  0  0  0  0  0  0  # atno 10764 bound_to 10752
  154.1230  135.2919  155.3184 H   0  0  0  0  0  0  0  0  0  0  0  0  # atno 10765 bound_to 10752
  140.6217  133.9655  155.8228 H   0  0  0  0  0  0  0  0  0  0  0  0  # atno 11005 bound_to 11000
  145.0173  140.8764  143.5188 LP  0  0  0  0  0  0  0  0  0  0  0  0  # atno 17320 bound_to 7965
  145.1546  139.2494  143.5423 LP  0  0  0  0  0  0  0  0  0  0  0  0  # atno 17321 bound_to 7965
  140.5540  144.0379  150.6139 LP  0  0  0  0  0  0  0  0  0  0  0  0  # atno 17342 bound_to 10162
  140.3442  143.3001  152.0556 LP  0  0  0  0  0  0  0  0  0  0  0  0  # atno 17343 bound_to 10162
  157.7439  131.0466  150.4904 LP  0  0  0  0  0  0  0  0  0  0  0  0  # atno 17370 bound_to 10713
  156.5078  130.4132  149.6317 LP  0  0  0  0  0  0  0  0  0  0  0  0  # atno 17371 bound_to 10713
  141.0738  134.0166  157.3488 LP  0  0  0  0  0  0  0  0  0  0  0  0  # atno 17394 bound_to 11000
  139.9151  135.0195  156.7848 LP  0  0  0  0  0  0  0  0  0  0  0  0  # atno 17395 bound_to 11000

$$$$
