AV-unprocessed.smi:47|AV-procd|sdf|443|dock5
  -GOLD-   2262016313D 1   1.00000     0.00000
 Structure written by MMmdl.
 30 32  0  0  0  0  0  0  0  0  2 V2000
  145.0849  140.3990  154.6659 O   0  0  0  0  0  0  0  0  0  0  0  0
  146.4903  140.2645  154.6608 C   0  0  1  0  0  0  0  0  0  0  0  0
  147.0252  139.7926  153.3153 C   0  0  0  0  0  0  0  0  0  0  0  0
  148.4325  140.1653  153.3335 N   0  0  0  0  0  0  0  0  0  0  0  0
  148.5608  141.3924  154.1281 C   0  0  2  0  0  0  0  0  0  0  0  0
  149.7207  141.3382  155.1061 C   0  0  0  0  0  0  0  0  0  0  0  0
  150.6878  140.3980  155.1129 N   0  0  0  0  0  0  0  0  0  0  0  0
  151.4718  140.6838  156.1353 N   0  5  0  0  0  0  0  0  0  0  0  0
  150.9734  141.7736  156.7386 C   0  0  0  0  0  0  0  0  0  0  0  0
  151.6041  142.3717  157.9336 C   0  0  0  0  0  0  0  0  0  0  0  0
  152.2363  141.5505  158.8960 C   0  0  0  0  0  0  0  0  0  0  0  0
  152.8416  142.1055  160.0404 C   0  0  0  0  0  0  0  0  0  0  0  0
  152.8247  143.4976  160.2406 C   0  0  0  0  0  0  0  0  0  0  0  0
  152.2012  144.3300  159.2935 C   0  0  0  0  0  0  0  0  0  0  0  0
  151.5963  143.7700  158.1514 C   0  0  0  0  0  0  0  0  0  0  0  0
  149.8788  142.1992  156.1236 N   0  0  0  0  0  0  0  0  0  0  0  0
  147.2152  141.5933  154.8493 C   0  0  0  0  0  0  0  0  0  0  0  0
  146.7911  139.5651  155.4424 H   0  0  0  0  0  0  0  0  0  0  0  0
  148.7298  142.2392  153.4618 H   0  0  0  0  0  0  0  0  0  0  0  0
  144.7673  140.2381  153.7906 H   0  0  0  0  0  0  0  0  0  0  0  0
  146.8876  138.7227  153.1580 H   0  0  0  0  0  0  0  0  0  0  0  0
  146.5170  140.3198  152.5066 H   0  0  0  0  0  0  0  0  0  0  0  0
  148.7431  140.3356  152.3828 H   0  0  0  0  0  0  0  0  0  0  0  0
  152.2608  140.4793  158.7596 H   0  0  0  0  0  0  0  0  0  0  0  0
  153.3188  141.4611  160.7637 H   0  0  0  0  0  0  0  0  0  0  0  0
  153.2883  143.9256  161.1170 H   0  0  0  0  0  0  0  0  0  0  0  0
  152.1862  145.3996  159.4417 H   0  0  0  0  0  0  0  0  0  0  0  0
  151.1230  144.4289  157.4383 H   0  0  0  0  0  0  0  0  0  0  0  0
  146.6634  142.3909  154.3495 H   0  0  0  0  0  0  0  0  0  0  0  0
  147.3174  141.8743  155.8984 H   0  0  0  0  0  0  0  0  0  0  0  0
  1  2  1  0  0  0  0
  1 20  1  0  0  0  0
  2 18  1  0  0  0  0
  2 17  1  0  0  0  0
  2  3  1  0  0  0  0
  3  4  1  0  0  0  0
  3 21  1  0  0  0  0
  3 22  1  0  0  0  0
  4  5  1  0  0  0  0
  4 23  1  0  0  0  0
  5 19  1  0  0  0  0
  5  6  1  0  0  0  0
  5 17  1  0  0  0  0
  6 16  1  0  0  0  0
  6  7  2  0  0  0  0
  7  8  1  0  0  0  0
  8  9  1  0  0  0  0
  9 10  1  0  0  0  0
  9 16  2  0  0  0  0
 10 15  1  0  0  0  0
 10 11  2  0  0  0  0
 11 12  1  0  0  0  0
 11 24  1  0  0  0  0
 12 13  2  0  0  0  0
 12 25  1  0  0  0  0
 13 14  1  0  0  0  0
 13 26  1  0  0  0  0
 14 15  2  0  0  0  0
 14 27  1  0  0  0  0
 15 28  1  0  0  0  0
 17 29  1  0  0  0  0
 17 30  1  0  0  0  0
M  CHG  1   8  -1
M  END
> <s_m_source_file>
AV-unprocessed.smi

> <i_m_source_file_index>
47

> <i_lp_mmshare_version>
43012

> <i_f3d_flags>
0

> <s_epik_input>
W09IXVtDQEhdMVtDSDJdW05IXVtDQEBIXShbQ0gyXTEpYzJuW25IXWMobjIpLWMzW2NIXVtjSF1bY0hdW2NIXVtjSF0z

> <s_epik_cmdline>
J2VwaWtfcHl0aG9uJywgJy1waCcsICc3LjAnLCAnLXRuJywgJzgnLCAnLW1hJywgJzIwMCcsICctbWV0YWxfYmluZGluZycsICctaW1hZScsICc8aW5maWxlLm1hZT4nLCAnLW9tYWUnLCAnPG91dGZpbGUubWFlPic=

> <r_epik_Ionization_Penalty>
16.1968

> <r_epik_Ionization_Penalty_Charging>
13.1522

> <r_epik_Ionization_Penalty_Neutral>
3.04463

> <r_epik_State_Penalty>
6.32428

> <r_epik_Charging_Adjusted_Penalty>
19.4764

> <i_epik_Tot_Q>
-1

> <i_epik_Tot_abs_Q>
1

> <r_epik_Metal_State_Penalty>
2.82187

> <b_epik_Metal_Only>
1

> <s_lp_Force_Field>
OPLS_2005

> <r_lp_Energy>
30.4725

> <b_lp_Chiralities_Consistent>
1

> <s_lp_Variant>
AV-unprocessed.smi:47-21

> <Gold.Version>
5.8.1

> <Gold.Id.Protein>
6NUR|6NUR_protein|mol2

> <Gold.PLP.Fitness>
44.1091

> <Gold.PLP.PLP>
-36.6801

> <Gold.PLP.part.hbond>
-2.8108

> <Gold.PLP.part.metal>
0.0000

> <Gold.PLP.part.buried>
-5.9123

> <Gold.PLP.part.nonpolar>
-30.7461

> <Gold.PLP.part.repulsive>
2.6045

> <Gold.PLP.ligand.clash>
0.0000

> <Gold.PLP.ligand.torsion>
0.7776

> <Gold.PLP.Chemscore.Hbond>
2.9913

> <Gold.PLP.Chemscore.CHOScore>
0.0000

> <Gold.PLP.Chemscore.Metal>
0.0000

> <Gold.Chemscore.Hbonds>
donor molecule, donor type, donor heavy atom, donor atom, acceptor molecule, acceptor atom, score
      L1  H     1    20       P1 10175  1.00
      L1  H     4    23       P1  7957  0.98
      P1  H  7989  7998       L1     7  1.00

> <Gold.PLP.Chemscore.Internal.Correction>
0.0103

> <Gold.Rescore>
     Score         DG    S(hbond)    S(metal)    S(lipo)     H(rot)  DE(clash)    DE(int)     intcor
     17.58     -19.73       2.22        0.00      90.37       1.46       1.38       0.77       ----

> <Gold.Chemscore.Fitness>
17.5823

> <Gold.Chemscore.DG>
-19.7344

> <Gold.Chemscore.ZeroCoef>
-5.4800

> <Gold.Chemscore.Hbond>
2.2228

> <Gold.Chemscore.Metal>
0.0000

> <Gold.Chemscore.Lipo>
90.3698

> <Gold.Chemscore.Internal_Hbond>
0.0000

> <Gold.Chemscore.DEClash>
1.3842

> <Gold.Chemscore.DEInternal>
0.7680

> <Gold.Chemscore.Rot>
1.4621

> <Gold.Chemscore.Internal.Correction>
   9.000000E+99

> <Gold.Chemscore.Hbonds>
donor molecule, donor type, donor heavy atom, donor atom, acceptor molecule, acceptor atom, score
      L1  H     1    20       P1 10175  0.97
      L1  H     4    23       P1  7957  0.89
      P1  H  7989  7998       L1     7  0.16

> <Gold.Chemscore.Hbond.Weighted>
-7.4240

> <Gold.Chemscore.Metal.Weighted>
-0.0000

> <Gold.Chemscore.Lipo.Weighted>
-10.5733

> <Gold.Chemscore.Internal_Hbond.Weighted>
0.0000

> <Gold.Chemscore.DEClash.Weighted>
1.3842

> <Gold.Chemscore.DEInternal.Weighted>
0.7680

> <Gold.Chemscore.Rot.Weighted>
3.7429

> <Gold.Chemscore.Internal.Correction.Weighted>
   9.000000E+99

> <Gold.Protein.RotatedTorsions>
[ 6907 6896 6895 6894 ] final  -95.22 input  -60.11 | X-H torsion
[ 7974 7965 7964 7962 ] final -115.00 input  175.53 | X-H torsion
[ 8008 7997 7996 7995 ] final  -77.78 input   59.86 | X-H torsion
[ 10167 10162 10161 10158 ] final  136.34 input  -65.29 | X-H torsion
[ 10718 10713 10712 10709 ] final   84.38 input   66.30 | X-H torsion
[ 10763 10752 10751 10750 ] final  -17.39 input  -60.55 | X-H torsion
[ 11005 11000 10999 10996 ] final  165.97 input  -57.11 | X-H torsion

> <Gold.Protein.ActiveResidues>
 VAL166  LYS551  ARG553  GLY616  TRP617  ASP618  TYR619  PRO620  LYS621  CYS622 
 ASP623  PHE694  ASN695  SER759  ASP760  ASP761  ALA762  ILE779  LEU786  VAL792 
 PHE793  MET794  SER795  GLU796  ALA797  LYS798  CYS799  TRP800  GLU811  SER814 

> <Gold.Protein.RotatedAtoms>
  150.6959  134.1692  159.4205 H   0  0  0  0  0  0  0  0  0  0  0  0  # atno 6907 bound_to 6896
  151.9670  135.0093  160.0560 H   0  0  0  0  0  0  0  0  0  0  0  0  # atno 6908 bound_to 6896
  152.1876  133.4715  159.5027 H   0  0  0  0  0  0  0  0  0  0  0  0  # atno 6909 bound_to 6896
  145.1136  140.8626  143.3855 H   0  0  0  0  0  0  0  0  0  0  0  0  # atno 7974 bound_to 7965
  154.5628  140.0705  156.8845 H   0  0  0  0  0  0  0  0  0  0  0  0  # atno 8008 bound_to 7997
  155.2780  140.3369  155.4242 H   0  0  0  0  0  0  0  0  0  0  0  0  # atno 8009 bound_to 7997
  156.2056  140.1738  156.7793 H   0  0  0  0  0  0  0  0  0  0  0  0  # atno 8010 bound_to 7997
  139.5184  144.6470  151.5412 H   0  0  0  0  0  0  0  0  0  0  0  0  # atno 10167 bound_to 10162
  157.6897  131.0131  150.2664 H   0  0  0  0  0  0  0  0  0  0  0  0  # atno 10718 bound_to 10713
  153.5731  135.7007  153.5496 H   0  0  0  0  0  0  0  0  0  0  0  0  # atno 10763 bound_to 10752
  153.3327  135.4043  155.1508 H   0  0  0  0  0  0  0  0  0  0  0  0  # atno 10764 bound_to 10752
  154.8630  135.3723  154.5255 H   0  0  0  0  0  0  0  0  0  0  0  0  # atno 10765 bound_to 10752
  140.2616  134.7898  157.3595 H   0  0  0  0  0  0  0  0  0  0  0  0  # atno 11005 bound_to 11000
  145.0819  139.2953  143.5779 LP  0  0  0  0  0  0  0  0  0  0  0  0  # atno 17320 bound_to 7965
  146.3525  140.0328  142.8649 LP  0  0  0  0  0  0  0  0  0  0  0  0  # atno 17321 bound_to 7965
  140.6259  143.9170  150.6564 LP  0  0  0  0  0  0  0  0  0  0  0  0  # atno 17342 bound_to 10162
  140.2458  143.3629  152.1447 LP  0  0  0  0  0  0  0  0  0  0  0  0  # atno 17343 bound_to 10162
  156.3234  130.3789  149.7555 LP  0  0  0  0  0  0  0  0  0  0  0  0  # atno 17370 bound_to 10713
  156.5117  130.8175  151.3171 LP  0  0  0  0  0  0  0  0  0  0  0  0  # atno 17371 bound_to 10713
  140.1459  134.4912  155.7996 LP  0  0  0  0  0  0  0  0  0  0  0  0  # atno 17394 bound_to 11000
  141.2189  133.6843  156.7293 LP  0  0  0  0  0  0  0  0  0  0  0  0  # atno 17395 bound_to 11000

$$$$
