AV-unprocessed.smi:1422|AV-procd|sdf|5793|dock10
  -GOLD-   22720 5443D 1   1.00000     0.00000
 Structure written by MMmdl.
 31 32  0  0  0  0  0  0  0  0  1 V2000
  146.2194  129.8362  152.5360 C   0  0  0  0  0  0  0  0  0  0  0  0
  147.1245  130.8858  153.0835 C   0  0  0  0  0  0  0  0  0  0  0  0
  147.3904  132.1725  152.7081 C   0  0  0  0  0  0  0  0  0  0  0  0
  148.3501  132.5937  153.6667 C   0  0  0  0  0  0  0  0  0  0  0  0
  148.8931  133.9031  153.6257 N   0  0  0  0  0  0  0  0  0  0  0  0
  149.7346  134.4689  154.5076 C   0  0  0  0  0  0  0  0  0  0  0  0
  150.1783  133.9198  155.5167 O   0  0  0  0  0  0  0  0  0  0  0  0
  150.0371  135.7263  154.1532 N   0  0  0  0  0  0  0  0  0  0  0  0
  150.9218  136.6237  154.8902 C   0  0  0  0  0  0  0  0  0  0  0  0
  150.7497  138.0899  154.4509 C   0  0  1  0  0  0  0  0  0  0  0  0
  149.4839  138.7687  154.9384 C   0  0  0  0  0  0  0  0  0  0  0  0
  149.8348  140.2456  154.7831 C   0  0  0  0  0  0  0  0  0  0  0  0
  151.2458  140.3345  154.9608 O   0  0  0  0  0  0  0  0  0  0  0  0
  151.8135  139.0296  155.0167 C   0  0  0  0  0  0  0  0  0  0  0  0
  148.6438  131.6495  154.5474 N   0  0  0  0  0  0  0  0  0  0  0  0
  147.8602  130.5499  154.1779 O   0  0  0  0  0  0  0  0  0  0  0  0
  145.4739  130.2729  151.8713 H   0  0  0  0  0  0  0  0  0  0  0  0
  145.6931  129.3199  153.3392 H   0  0  0  0  0  0  0  0  0  0  0  0
  146.7854  129.0958  151.9706 H   0  0  0  0  0  0  0  0  0  0  0  0
  146.9653  132.7202  151.8803 H   0  0  0  0  0  0  0  0  0  0  0  0
  148.6109  134.4699  152.8399 H   0  0  0  0  0  0  0  0  0  0  0  0
  149.6246  136.0933  153.3080 H   0  0  0  0  0  0  0  0  0  0  0  0
  150.7705  136.5226  155.9663 H   0  0  0  0  0  0  0  0  0  0  0  0
  151.9469  136.3067  154.6977 H   0  0  0  0  0  0  0  0  0  0  0  0
  150.7807  138.1487  153.3614 H   0  0  0  0  0  0  0  0  0  0  0  0
  148.5955  138.4840  154.3737 H   0  0  0  0  0  0  0  0  0  0  0  0
  149.3085  138.5355  155.9898 H   0  0  0  0  0  0  0  0  0  0  0  0
  149.5916  140.5907  153.7776 H   0  0  0  0  0  0  0  0  0  0  0  0
  149.3022  140.8758  155.4955 H   0  0  0  0  0  0  0  0  0  0  0  0
  152.0232  138.7914  156.0606 H   0  0  0  0  0  0  0  0  0  0  0  0
  152.7522  138.9800  154.4644 H   0  0  0  0  0  0  0  0  0  0  0  0
  1  2  1  0  0  0  0
  1 17  1  0  0  0  0
  1 18  1  0  0  0  0
  1 19  1  0  0  0  0
  2 16  1  0  0  0  0
  2  3  2  0  0  0  0
  3  4  1  0  0  0  0
  3 20  1  0  0  0  0
  4  5  1  0  0  0  0
  4 15  2  0  0  0  0
  5  6  1  0  0  0  0
  5 21  1  0  0  0  0
  6  7  2  0  0  0  0
  6  8  1  0  0  0  0
  8  9  1  0  0  0  0
  8 22  1  0  0  0  0
  9 10  1  0  0  0  0
  9 23  1  0  0  0  0
  9 24  1  0  0  0  0
 10 14  1  0  0  0  0
 10 11  1  0  0  0  0
 10 25  1  0  0  0  0
 11 12  1  0  0  0  0
 11 26  1  0  0  0  0
 11 27  1  0  0  0  0
 12 13  1  0  0  0  0
 12 28  1  0  0  0  0
 12 29  1  0  0  0  0
 13 14  1  0  0  0  0
 14 30  1  0  0  0  0
 14 31  1  0  0  0  0
 15 16  1  0  0  0  0
M  END
> <s_m_source_file>
AV-unprocessed.smi

> <i_m_source_file_index>
1422

> <i_lp_mmshare_version>
43012

> <i_f3d_flags>
0

> <s_epik_input>
W0NIM11jMVtjSF1jKG5vMSlbTkhdQyg9TylbTkhdW0NIMl1bQ0BASF0yW0NIMl1bQ0gyXU9bQ0gyXTI=

> <s_epik_cmdline>
J2VwaWtfcHl0aG9uJywgJy1waCcsICc3LjAnLCAnLXRuJywgJzgnLCAnLW1hJywgJzIwMCcsICctbWV0YWxfYmluZGluZycsICctaW1hZScsICc8aW5maWxlLm1hZT4nLCAnLW9tYWUnLCAnPG91dGZpbGUubWFlPic=

> <r_lp_tautomer_probability>
1

> <r_epik_Ionization_Penalty>
2.27275e-05

> <r_epik_Ionization_Penalty_Charging>
0

> <r_epik_Ionization_Penalty_Neutral>
2.27275e-05

> <r_epik_State_Penalty>
-0

> <r_epik_Charging_Adjusted_Penalty>
0

> <i_epik_Tot_Q>
0

> <i_epik_Tot_abs_Q>
0

> <r_epik_Metal_State_Penalty>
-0

> <b_epik_Metal_Only>
0

> <s_lp_Force_Field>
OPLS_2005

> <r_lp_Energy>
16.3124

> <b_lp_Chiralities_Consistent>
1

> <s_lp_Variant>
AV-unprocessed.smi:1422-2

> <Gold.Version>
5.8.1

> <Gold.Id.Protein>
6NUR|6NUR_protein|mol2

> <Gold.PLP.Fitness>
33.8467

> <Gold.PLP.PLP>
-25.7874

> <Gold.PLP.part.hbond>
-4.0000

> <Gold.PLP.part.metal>
0.0000

> <Gold.PLP.part.buried>
-1.1948

> <Gold.PLP.part.nonpolar>
-21.4632

> <Gold.PLP.part.repulsive>
0.2359

> <Gold.PLP.ligand.clash>
0.0000

> <Gold.PLP.ligand.torsion>
0.1826

> <Gold.PLP.Chemscore.Hbond>
2.8064

> <Gold.PLP.Chemscore.CHOScore>
0.0000

> <Gold.PLP.Chemscore.Metal>
0.0000

> <Gold.Chemscore.Hbonds>
donor molecule, donor type, donor heavy atom, donor atom, acceptor molecule, acceptor atom, score
      L1  H     5    21       P1  7948  0.66
      L1  H     8    22       P1  7948  0.95
      P1  H  7989  7998       L1    13  0.95

> <Gold.PLP.Chemscore.Internal.Correction>
0.0052

> <Gold.Rescore>
     Score         DG    S(hbond)    S(metal)    S(lipo)     H(rot)  DE(clash)    DE(int)     intcor
     11.46     -12.90       1.56        0.00      47.17       1.30       0.01       1.43       ----

> <Gold.Chemscore.Fitness>
11.4562

> <Gold.Chemscore.DG>
-12.8968

> <Gold.Chemscore.ZeroCoef>
-5.4800

> <Gold.Chemscore.Hbond>
1.5620

> <Gold.Chemscore.Metal>
0.0000

> <Gold.Chemscore.Lipo>
47.1712

> <Gold.Chemscore.Internal_Hbond>
0.0000

> <Gold.Chemscore.DEClash>
0.0060

> <Gold.Chemscore.DEInternal>
1.4346

> <Gold.Chemscore.Rot>
1.2965

> <Gold.Chemscore.Internal.Correction>
   9.000000E+99

> <Gold.Chemscore.Hbonds>
donor molecule, donor type, donor heavy atom, donor atom, acceptor molecule, acceptor atom, score
      L1  H     5    21       P1  7948  0.08
      L1  H     8    22       P1  7948  0.21
      P1  H  7989  7998       L1    13  0.09

> <Gold.Chemscore.Hbond.Weighted>
-5.2169

> <Gold.Chemscore.Metal.Weighted>
-0.0000

> <Gold.Chemscore.Lipo.Weighted>
-5.5190

> <Gold.Chemscore.Internal_Hbond.Weighted>
0.0000

> <Gold.Chemscore.DEClash.Weighted>
0.0060

> <Gold.Chemscore.DEInternal.Weighted>
1.4346

> <Gold.Chemscore.Rot.Weighted>
3.3192

> <Gold.Chemscore.Internal.Correction.Weighted>
   9.000000E+99

> <Gold.Protein.RotatedTorsions>
[ 6907 6896 6895 6894 ] final  -57.23 input  -60.11 | X-H torsion
[ 7974 7965 7964 7962 ] final  -96.06 input  175.53 | X-H torsion
[ 8008 7997 7996 7995 ] final  -87.95 input   59.86 | X-H torsion
[ 10167 10162 10161 10158 ] final  125.72 input  -65.29 | X-H torsion
[ 10718 10713 10712 10709 ] final   46.40 input   66.30 | X-H torsion
[ 10763 10752 10751 10750 ] final   45.32 input  -60.55 | X-H torsion
[ 11005 11000 10999 10996 ] final   61.87 input  -57.11 | X-H torsion

> <Gold.Protein.ActiveResidues>
 VAL166  LYS551  ARG553  GLY616  TRP617  ASP618  TYR619  PRO620  LYS621  CYS622 
 ASP623  PHE694  ASN695  SER759  ASP760  ASP761  ALA762  ILE779  LEU786  VAL792 
 PHE793  MET794  SER795  GLU796  ALA797  LYS798  CYS799  TRP800  GLU811  SER814 

> <Gold.Protein.RotatedAtoms>
  150.8103  134.7254  159.6681 H   0  0  0  0  0  0  0  0  0  0  0  0  # atno 6907 bound_to 6896
  152.4223  134.5929  159.9989 H   0  0  0  0  0  0  0  0  0  0  0  0  # atno 6908 bound_to 6896
  151.6141  133.3307  159.3110 H   0  0  0  0  0  0  0  0  0  0  0  0  # atno 6909 bound_to 6896
  145.3518  140.9478  143.2550 H   0  0  0  0  0  0  0  0  0  0  0  0  # atno 7974 bound_to 7965
  154.6692  140.0559  157.0147 H   0  0  0  0  0  0  0  0  0  0  0  0  # atno 8008 bound_to 7997
  155.1114  140.3238  155.4502 H   0  0  0  0  0  0  0  0  0  0  0  0  # atno 8009 bound_to 7997
  156.2650  140.2013  156.6238 H   0  0  0  0  0  0  0  0  0  0  0  0  # atno 8010 bound_to 7997
  139.5670  144.6917  151.3883 H   0  0  0  0  0  0  0  0  0  0  0  0  # atno 10167 bound_to 10162
  157.4477  130.8120  149.7757 H   0  0  0  0  0  0  0  0  0  0  0  0  # atno 10718 bound_to 10713
  152.9826  135.6043  154.3417 H   0  0  0  0  0  0  0  0  0  0  0  0  # atno 10763 bound_to 10752
  154.3113  135.2771  155.2566 H   0  0  0  0  0  0  0  0  0  0  0  0  # atno 10764 bound_to 10752
  154.4774  135.5926  153.6421 H   0  0  0  0  0  0  0  0  0  0  0  0  # atno 10765 bound_to 10752
  140.0131  134.6265  155.9750 H   0  0  0  0  0  0  0  0  0  0  0  0  # atno 11005 bound_to 11000
  144.8712  139.5036  143.6767 LP  0  0  0  0  0  0  0  0  0  0  0  0  # atno 17320 bound_to 7965
  146.2965  139.7293  142.9123 LP  0  0  0  0  0  0  0  0  0  0  0  0  # atno 17321 bound_to 7965
  140.6953  143.7763  150.7318 LP  0  0  0  0  0  0  0  0  0  0  0  0  # atno 17342 bound_to 10162
  140.1257  143.4571  152.2285 LP  0  0  0  0  0  0  0  0  0  0  0  0  # atno 17343 bound_to 10162
  155.9974  130.3900  150.2740 LP  0  0  0  0  0  0  0  0  0  0  0  0  # atno 17370 bound_to 10713
  157.0910  131.0169  151.3121 LP  0  0  0  0  0  0  0  0  0  0  0  0  # atno 17371 bound_to 10713
  141.1725  133.6538  156.4703 LP  0  0  0  0  0  0  0  0  0  0  0  0  # atno 17394 bound_to 11000
  140.4518  134.6921  157.5043 LP  0  0  0  0  0  0  0  0  0  0  0  0  # atno 17395 bound_to 11000

$$$$
