AV-unprocessed.smi:1599|AV-procd|sdf|6424|dock1
  -GOLD-   22720 7 63D 1   1.00000     0.00000
 Structure written by MMmdl.
 39 40  0  0  0  0  0  0  0  0  1 V2000
  143.9450  135.2575  152.6624 C   0  0  0  0  0  0  0  0  0  0  0  0
  144.8611  135.4723  151.4484 C   0  0  1  0  0  0  0  0  0  0  0  0
  146.0263  136.2563  151.8527 N   0  0  0  0  0  0  0  0  0  0  0  0
  145.9945  137.4550  152.4519 C   0  0  0  0  0  0  0  0  0  0  0  0
  144.9560  138.0416  152.7555 O   0  0  0  0  0  0  0  0  0  0  0  0
  147.2347  137.9211  152.6683 N   0  0  0  0  0  0  0  0  0  0  0  0
  147.5940  139.1609  153.2529 C   0  0  0  0  0  0  0  0  0  0  0  0
  147.0248  140.4504  153.0539 C   0  0  0  0  0  0  0  0  0  0  0  0
  147.6481  141.3622  153.7850 N   0  0  0  0  0  0  0  0  0  0  0  0
  148.6090  140.6811  154.4581 N   0  0  0  0  0  0  0  0  0  0  0  0
  149.4950  141.3922  155.3636 C   0  0  0  0  0  0  0  0  0  0  0  0
  150.7269  140.5547  155.7185 C   0  0  0  0  0  0  0  0  0  0  0  0
  150.9644  140.3409  157.0152 N   0  0  0  0  0  0  0  0  0  0  0  0
  151.4568  140.1058  154.8367 O   0  0  0  0  0  0  0  0  0  0  0  0
  148.6026  139.3337  154.1521 C   0  0  0  0  0  0  0  0  0  0  0  0
  145.3213  134.1410  150.8253 C   0  0  2  0  0  0  0  0  0  0  0  0
  144.1959  133.2894  150.2381 C   0  0  0  0  0  0  0  0  0  0  0  0
  144.7995  131.8971  150.2198 C   0  0  0  0  0  0  0  0  0  0  0  0
  145.8925  131.9559  151.2916 C   0  0  0  0  0  0  0  0  0  0  0  0
  145.8528  133.2773  151.8182 O   0  0  0  0  0  0  0  0  0  0  0  0
  143.0549  134.6908  152.3883 H   0  0  0  0  0  0  0  0  0  0  0  0
  143.6114  136.2100  153.0757 H   0  0  0  0  0  0  0  0  0  0  0  0
  144.4559  134.7103  153.4553 H   0  0  0  0  0  0  0  0  0  0  0  0
  144.2941  136.0151  150.6899 H   0  0  0  0  0  0  0  0  0  0  0  0
  146.9298  135.8563  151.6469 H   0  0  0  0  0  0  0  0  0  0  0  0
  148.0005  137.3342  152.3719 H   0  0  0  0  0  0  0  0  0  0  0  0
  146.2054  140.7586  152.4221 H   0  0  0  0  0  0  0  0  0  0  0  0
  149.7884  142.3312  154.8917 H   0  0  0  0  0  0  0  0  0  0  0  0
  148.9568  141.6474  156.2778 H   0  0  0  0  0  0  0  0  0  0  0  0
  151.7662  139.7974  157.2999 H   0  0  0  0  0  0  0  0  0  0  0  0
  150.3399  140.7284  157.7078 H   0  0  0  0  0  0  0  0  0  0  0  0
  149.3001  138.6356  154.5910 H   0  0  0  0  0  0  0  0  0  0  0  0
  146.0847  134.3172  150.0648 H   0  0  0  0  0  0  0  0  0  0  0  0
  143.3278  133.3059  150.8990 H   0  0  0  0  0  0  0  0  0  0  0  0
  143.8758  133.6257  149.2515 H   0  0  0  0  0  0  0  0  0  0  0  0
  144.0536  131.1293  150.4270 H   0  0  0  0  0  0  0  0  0  0  0  0
  145.2408  131.6829  149.2458 H   0  0  0  0  0  0  0  0  0  0  0  0
  145.7306  131.2279  152.0870 H   0  0  0  0  0  0  0  0  0  0  0  0
  146.8727  131.7670  150.8526 H   0  0  0  0  0  0  0  0  0  0  0  0
  1  2  1  0  0  0  0
  1 21  1  0  0  0  0
  1 22  1  0  0  0  0
  1 23  1  0  0  0  0
  2  3  1  0  0  0  0
  2 16  1  0  0  0  0
  2 24  1  0  0  0  0
  3  4  1  0  0  0  0
  3 25  1  0  0  0  0
  4  5  2  0  0  0  0
  4  6  1  0  0  0  0
  6  7  1  0  0  0  0
  6 26  1  0  0  0  0
  7 15  2  0  0  0  0
  7  8  1  0  0  0  0
  8  9  2  0  0  0  0
  8 27  1  0  0  0  0
  9 10  1  0  0  0  0
 10 11  1  0  0  0  0
 10 15  1  0  0  0  0
 11 12  1  0  0  0  0
 11 28  1  0  0  0  0
 11 29  1  0  0  0  0
 12 13  1  0  0  0  0
 12 14  2  0  0  0  0
 13 30  1  0  0  0  0
 13 31  1  0  0  0  0
 15 32  1  0  0  0  0
 16 20  1  0  0  0  0
 16 17  1  0  0  0  0
 16 33  1  0  0  0  0
 17 18  1  0  0  0  0
 17 34  1  0  0  0  0
 17 35  1  0  0  0  0
 18 19  1  0  0  0  0
 18 36  1  0  0  0  0
 18 37  1  0  0  0  0
 19 20  1  0  0  0  0
 19 38  1  0  0  0  0
 19 39  1  0  0  0  0
M  END
> <s_m_source_file>
AV-unprocessed.smi

> <i_m_source_file_index>
1599

> <i_lp_mmshare_version>
43012

> <i_f3d_flags>
0

> <s_epik_input>
TzFbQ0gyXVtDSDJdW0NIMl1bQ0BIXTFbQ0BIXShbQ0gzXSlbTkhdQyg9TylbTkhdYzJbY0hdbm4oW2NIXTIpW0NIMl1DKD1PKVtOSDJd

> <s_epik_cmdline>
J2VwaWtfcHl0aG9uJywgJy1waCcsICc3LjAnLCAnLXRuJywgJzgnLCAnLW1hJywgJzIwMCcsICctbWV0YWxfYmluZGluZycsICctaW1hZScsICc8aW5maWxlLm1hZT4nLCAnLW9tYWUnLCAnPG91dGZpbGUubWFlPic=

> <r_lp_tautomer_probability>
1

> <r_epik_Ionization_Penalty>
4.15391e-05

> <r_epik_Ionization_Penalty_Charging>
0

> <r_epik_Ionization_Penalty_Neutral>
4.15391e-05

> <r_epik_State_Penalty>
-0

> <r_epik_Charging_Adjusted_Penalty>
0

> <i_epik_Tot_Q>
0

> <i_epik_Tot_abs_Q>
0

> <r_epik_Metal_State_Penalty>
-0

> <b_epik_Metal_Only>
0

> <s_lp_Force_Field>
OPLS_2005

> <r_lp_Energy>
20.7391

> <b_lp_Chiralities_Consistent>
1

> <s_lp_Variant>
AV-unprocessed.smi:1599-2

> <Gold.Version>
5.8.1

> <Gold.Id.Protein>
6NUR|6NUR_protein|mol2

> <Gold.PLP.Fitness>
43.1179

> <Gold.PLP.PLP>
-32.8367

> <Gold.PLP.part.hbond>
-2.9457

> <Gold.PLP.part.metal>
0.0000

> <Gold.PLP.part.buried>
-5.5271

> <Gold.PLP.part.nonpolar>
-28.7531

> <Gold.PLP.part.repulsive>
3.1150

> <Gold.PLP.ligand.clash>
0.0000

> <Gold.PLP.ligand.torsion>
0.6243

> <Gold.PLP.Chemscore.Hbond>
2.8640

> <Gold.PLP.Chemscore.CHOScore>
0.9581

> <Gold.PLP.Chemscore.Metal>
0.0000

> <Gold.Chemscore.Hbonds>
donor molecule, donor type, donor heavy atom, donor atom, acceptor molecule, acceptor atom, score
      L1  H     3    25       P1  7948  0.84
      L1  H     6    26       P1  7948  0.99
      P1  H  7989  7998       L1    14  1.00
      L1  C     8    27       P1 10175  0.95

> <Gold.PLP.Chemscore.Internal.Correction>
0.0637

> <Gold.Rescore>
     Score         DG    S(hbond)    S(metal)    S(lipo)     H(rot)  DE(clash)    DE(int)     intcor
     13.95     -17.02       2.83        0.00      67.92       2.28       1.35       1.72       ----

> <Gold.Chemscore.Fitness>
13.9504

> <Gold.Chemscore.DG>
-17.0199

> <Gold.Chemscore.ZeroCoef>
-5.4800

> <Gold.Chemscore.Hbond>
2.8252

> <Gold.Chemscore.Metal>
0.0000

> <Gold.Chemscore.Lipo>
67.9189

> <Gold.Chemscore.Internal_Hbond>
0.0000

> <Gold.Chemscore.DEClash>
1.3533

> <Gold.Chemscore.DEInternal>
1.7162

> <Gold.Chemscore.Rot>
2.2823

> <Gold.Chemscore.Internal.Correction>
   9.000000E+99

> <Gold.Chemscore.Hbonds>
donor molecule, donor type, donor heavy atom, donor atom, acceptor molecule, acceptor atom, score
      L1  H     3    25       P1  7948  0.78
      L1  H     6    26       P1  7948  0.93
      P1  H  7989  7998       L1    14  0.92

> <Gold.Chemscore.Hbond.Weighted>
-9.4361

> <Gold.Chemscore.Metal.Weighted>
-0.0000

> <Gold.Chemscore.Lipo.Weighted>
-7.9465

> <Gold.Chemscore.Internal_Hbond.Weighted>
0.0000

> <Gold.Chemscore.DEClash.Weighted>
1.3533

> <Gold.Chemscore.DEInternal.Weighted>
1.7162

> <Gold.Chemscore.Rot.Weighted>
5.8427

> <Gold.Chemscore.Internal.Correction.Weighted>
   9.000000E+99

> <Gold.Protein.RotatedTorsions>
[ 6907 6896 6895 6894 ] final   13.77 input  -60.11 | X-H torsion
[ 7974 7965 7964 7962 ] final  -65.06 input  175.53 | X-H torsion
[ 8008 7997 7996 7995 ] final  -49.22 input   59.86 | X-H torsion
[ 10167 10162 10161 10158 ] final  109.67 input  -65.29 | X-H torsion
[ 10718 10713 10712 10709 ] final  -93.33 input   66.30 | X-H torsion
[ 10763 10752 10751 10750 ] final  138.54 input  -60.55 | X-H torsion
[ 11005 11000 10999 10996 ] final   38.44 input  -57.11 | X-H torsion

> <Gold.Protein.ActiveResidues>
 VAL166  LYS551  ARG553  GLY616  TRP617  ASP618  TYR619  PRO620  LYS621  CYS622 
 ASP623  PHE694  ASN695  SER759  ASP760  ASP761  ALA762  ILE779  LEU786  VAL792 
 PHE793  MET794  SER795  GLU796  ALA797  LYS798  CYS799  TRP800  GLU811  SER814 

> <Gold.Protein.RotatedAtoms>
  151.7916  135.0734  160.0387 H   0  0  0  0  0  0  0  0  0  0  0  0  # atno 6907 bound_to 6896
  152.3153  133.5791  159.5716 H   0  0  0  0  0  0  0  0  0  0  0  0  # atno 6908 bound_to 6896
  150.7341  134.0008  159.3679 H   0  0  0  0  0  0  0  0  0  0  0  0  # atno 6909 bound_to 6896
  145.7589  140.8871  143.0440 H   0  0  0  0  0  0  0  0  0  0  0  0  # atno 7974 bound_to 7965
  154.4040  140.1302  156.4467 H   0  0  0  0  0  0  0  0  0  0  0  0  # atno 8008 bound_to 7997
  155.7406  140.3490  155.5082 H   0  0  0  0  0  0  0  0  0  0  0  0  # atno 8009 bound_to 7997
  155.9042  140.1024  157.1317 H   0  0  0  0  0  0  0  0  0  0  0  0  # atno 8010 bound_to 7997
  139.6748  144.7123  151.1622 H   0  0  0  0  0  0  0  0  0  0  0  0  # atno 10167 bound_to 10162
  156.0012  130.5023  150.5760 H   0  0  0  0  0  0  0  0  0  0  0  0  # atno 10718 bound_to 10713
  153.8913  135.3032  155.3447 H   0  0  0  0  0  0  0  0  0  0  0  0  # atno 10763 bound_to 10752
  154.7715  135.4883  153.9661 H   0  0  0  0  0  0  0  0  0  0  0  0  # atno 10764 bound_to 10752
  153.1296  135.6801  153.9299 H   0  0  0  0  0  0  0  0  0  0  0  0  # atno 10765 bound_to 10752
  140.2126  134.3737  155.8042 H   0  0  0  0  0  0  0  0  0  0  0  0  # atno 11005 bound_to 11000
  144.6834  139.9696  143.7482 LP  0  0  0  0  0  0  0  0  0  0  0  0  # atno 17320 bound_to 7965
  146.0283  139.3312  143.0771 LP  0  0  0  0  0  0  0  0  0  0  0  0  # atno 17321 bound_to 7965
  140.7631  143.5789  150.8916 LP  0  0  0  0  0  0  0  0  0  0  0  0  # atno 17342 bound_to 10162
  139.9457  143.6330  152.3042 LP  0  0  0  0  0  0  0  0  0  0  0  0  # atno 17343 bound_to 10162
  157.3648  131.0756  151.1607 LP  0  0  0  0  0  0  0  0  0  0  0  0  # atno 17370 bound_to 10713
  157.2380  130.6556  149.5877 LP  0  0  0  0  0  0  0  0  0  0  0  0  # atno 17371 bound_to 10713
  141.2226  133.7151  156.8443 LP  0  0  0  0  0  0  0  0  0  0  0  0  # atno 17394 bound_to 11000
  140.1934  134.8949  157.3087 LP  0  0  0  0  0  0  0  0  0  0  0  0  # atno 17395 bound_to 11000

$$$$
