#       Name:                AV-unprocessed.smi:761
#       Creating user name   scv26
#       Creation time:       Fri Mar 27 01:02:26 2020


#       File generated by GOLD software.
#

@<TRIPOS>MOLECULE
AV-unprocessed.smi:761
    37    38     1
SMALL
NO_CHARGES


@<TRIPOS>ATOM
      1 ****        -0.6610   1.1246   0.7049 O.2            1 S1                 0.0000
      2 ****        -1.1917   0.0148   0.7502 C.2            1 S1                 0.0000
      3 ****        -0.4949  -1.1304   0.7783 N.am           1 S1                 0.0000
      4 ****         0.9609  -1.2144   0.7779 C.3            1 S1                 0.0000
      5 ****         1.5377  -1.0045  -0.6344 C.3            1 S1                 0.0000
      6 ****         3.0167  -1.0798  -0.6468 N.4            1 S1                 1.0000
      7 ****         3.7045   0.0351   0.0666 C.3            1 S1                 0.0000
      8 ****         4.8898   0.3266  -0.8095 C.2            1 S1                 0.0000
      9 ****         4.8354  -0.3605  -1.9448 C.2            1 S1                 0.0000
     10 ****         3.6044  -1.2195  -2.0090 C.3            1 S1                 0.0000
     11 ****        -2.5155  -0.2188   0.7543 N.am           1 S1                 0.0000
     12 ****        -3.5829   0.7201   0.7574 C.ar           1 S1                 0.0000
     13 ****        -4.8547   0.2692   0.3474 C.ar           1 S1                 0.0000
     14 ****        -5.9333   1.1761   0.3581 C.ar           1 S1                 0.0000
     15 ****        -5.8172   2.4618   0.7513 N.ar           1 S1                 0.0000
     16 ****        -4.6027   2.8879   1.1577 C.ar           1 S1                 0.0000
     17 ****        -3.4594   2.0642   1.1849 C.ar           1 S1                 0.0000
     18 ****        -1.0055  -2.0011   0.8093 H              1 S1                 0.0000
     19 ****         1.3669  -0.4859   1.4818 H              1 S1                 0.0000
     20 ****         1.2442  -2.1981   1.1532 H              1 S1                 0.0000
     21 ****         1.1430  -1.7779  -1.2950 H              1 S1                 0.0000
     22 ****         1.2218  -0.0464  -1.0501 H              1 S1                 0.0000
     23 ****         3.0804   0.9269   0.1423 H              1 S1                 0.0000
     24 ****         4.0124  -0.2722   1.0663 H              1 S1                 0.0000
     25 ****         5.6630   1.0286  -0.5331 H              1 S1                 0.0000
     26 ****         5.5569  -0.3118  -2.7473 H              1 S1                 0.0000
     27 ****         3.8520  -2.2597  -2.2221 H              1 S1                 0.0000
     28 ****         2.9387  -0.8427  -2.7870 H              1 S1                 0.0000
     29 ****        -2.7954  -1.1874   0.7054 H              1 S1                 0.0000
     30 ****        -5.0061  -0.7507   0.0252 H              1 S1                 0.0000
     31 ****        -6.9165   0.8582   0.0441 H              1 S1                 0.0000
     32 ****        -4.5399   3.9173   1.4782 H              1 S1                 0.0000
     33 ****        -2.5272   2.4735   1.5415 H              1 S1                 0.0000
     34 ****         3.2737  -1.9242  -0.1559 H              1 S1                 0.0000
     35 ****         0.3359   1.2018   0.6873 LP             1 S1                 0.0000
     36 ****        -1.2267   1.9490   0.6856 LP             1 S1                 0.0000
     37 ****        -6.6046   3.0782   0.7418 LP             1 S1                 0.0000
@<TRIPOS>BOND
    1    1    2 2     
    2    2    3 am    
    3    2   11 am    
    4    3    4 1     
    5    3   18 1     
    6    4    5 1     
    7    4   19 1     
    8    4   20 1     
    9    5    6 1     
   10    5   21 1     
   11    5   22 1     
   12    6   10 1     
   13    6    7 1     
   14    6   34 1     
   15    7    8 1     
   16    7   23 1     
   17    7   24 1     
   18    8    9 2     
   19    8   25 1     
   20    9   10 1     
   21    9   26 1     
   22   10   27 1     
   23   10   28 1     
   24   11   12 1     
   25   11   29 1     
   26   12   17 ar    
   27   12   13 ar    
   28   13   14 ar    
   29   13   30 1     
   30   14   15 ar    
   31   14   31 1     
   32   15   16 ar    
   33   16   17 ar    
   34   16   32 1     
   35   17   33 1     
   36    1   35 1     
   37    1   36 1     
   38   15   37 1     
@<TRIPOS>SUBSTRUCTURE
      1 S1             1
@<TRIPOS>SET
LONE_PAIRS      STATIC     ATOMS    <user>   **** ""
3 35 36 37
DONOR_HYDROGENS      STATIC     ATOMS    <user>   **** ""
3 18 34 29
ATOM$BLUE        STATIC     ATOMS    COLORGROUP SYSTEM
3 35 36 37
ATOM$RED        STATIC     ATOMS    COLORGROUP SYSTEM
3 18 34 29
