AV-unprocessed.smi:1261|AV-procd|sdf|5307|dock8
  -GOLD-   22720 4433D 1   1.00000     0.00000
 Structure written by MMmdl.
 50 51  0  0  0  0  0  0  0  0  2 V2000
  144.9672  131.9207  150.0798 C   0  0  0  0  0  0  0  0  0  0  0  0
  145.1666  132.8305  151.3003 C   0  0  2  0  0  0  0  0  0  0  0  0
  143.9363  133.7233  151.5398 C   0  0  0  0  0  0  0  0  0  0  0  0
  144.1621  134.6666  152.7344 C   0  0  2  0  0  0  0  0  0  0  0  0
  142.9500  135.5810  152.9610 C   0  0  0  0  0  0  0  0  0  0  0  0
  145.4529  135.4861  152.5252 C   0  0  0  0  0  0  0  0  0  0  0  0
  146.6392  134.6182  152.3036 N   0  3  1  0  0  0  0  0  0  0  0  0
  147.1416  133.9711  153.5457 C   0  0  0  0  0  0  0  0  0  0  0  0
  148.0812  134.8875  154.3471 C   0  0  0  0  0  0  0  0  0  0  0  0
  148.7424  134.1566  155.5272 C   0  0  0  0  0  0  0  0  0  0  0  0
  148.6560  134.9369  156.7553 N   0  0  0  0  0  0  0  0  0  0  0  0
  149.1651  134.5717  157.9447 C   0  0  0  0  0  0  0  0  0  0  0  0
  149.7705  133.5133  158.1097 O   0  0  0  0  0  0  0  0  0  0  0  0
  148.9867  135.5238  159.1407 C   0  0  0  0  0  0  0  0  0  0  0  0
  148.4670  134.8957  160.3663 N   0  0  0  0  0  0  0  0  0  0  0  0
  148.2547  133.5298  160.2545 N   0  0  0  0  0  0  0  0  0  0  0  0
  147.7984  132.8634  161.2606 C   0  0  0  0  0  0  0  0  0  0  0  0
  147.6047  131.5126  161.1074 O   0  0  0  0  0  0  0  0  0  0  0  0
  147.4989  133.5158  162.5162 C   0  0  0  0  0  0  0  0  0  0  0  0
  147.7112  134.8462  162.6164 C   0  0  0  0  0  0  0  0  0  0  0  0
  148.2318  135.6317  161.4961 C   0  0  0  0  0  0  0  0  0  0  0  0
  148.4478  136.8412  161.5638 O   0  0  0  0  0  0  0  0  0  0  0  0
  146.4373  133.6961  151.1522 C   0  0  0  0  0  0  0  0  0  0  0  0
  148.2579  131.2335  160.4847 H   0  0  0  0  0  0  0  0  0  0  0  0
  144.8384  132.5028  149.1667 H   0  0  0  0  0  0  0  0  0  0  0  0
  144.0857  131.2903  150.1995 H   0  0  0  0  0  0  0  0  0  0  0  0
  145.8245  131.2624  149.9365 H   0  0  0  0  0  0  0  0  0  0  0  0
  145.2854  132.1786  152.1658 H   0  0  0  0  0  0  0  0  0  0  0  0
  143.7265  134.3090  150.6434 H   0  0  0  0  0  0  0  0  0  0  0  0
  143.0566  133.1032  151.7172 H   0  0  0  0  0  0  0  0  0  0  0  0
  144.2799  134.0578  153.6319 H   0  0  0  0  0  0  0  0  0  0  0  0
  142.7685  136.2223  152.0978 H   0  0  0  0  0  0  0  0  0  0  0  0
  143.1003  136.2247  153.8282 H   0  0  0  0  0  0  0  0  0  0  0  0
  142.0458  134.9977  153.1381 H   0  0  0  0  0  0  0  0  0  0  0  0
  145.3373  136.1332  151.6543 H   0  0  0  0  0  0  0  0  0  0  0  0
  145.6292  136.1514  153.3716 H   0  0  0  0  0  0  0  0  0  0  0  0
  146.2911  133.7273  154.1837 H   0  0  0  0  0  0  0  0  0  0  0  0
  147.6310  133.0239  153.3206 H   0  0  0  0  0  0  0  0  0  0  0  0
  148.8599  135.2866  153.6981 H   0  0  0  0  0  0  0  0  0  0  0  0
  147.5207  135.7452  154.7213 H   0  0  0  0  0  0  0  0  0  0  0  0
  148.2458  133.2017  155.7003 H   0  0  0  0  0  0  0  0  0  0  0  0
  149.7856  133.9282  155.3022 H   0  0  0  0  0  0  0  0  0  0  0  0
  148.1699  135.8207  156.7028 H   0  0  0  0  0  0  0  0  0  0  0  0
  149.9415  136.0125  159.3413 H   0  0  0  0  0  0  0  0  0  0  0  0
  148.3168  136.3272  158.8291 H   0  0  0  0  0  0  0  0  0  0  0  0
  147.1147  132.9454  163.3493 H   0  0  0  0  0  0  0  0  0  0  0  0
  147.4918  135.3465  163.5482 H   0  0  0  0  0  0  0  0  0  0  0  0
  147.3130  133.0657  151.0043 H   0  0  0  0  0  0  0  0  0  0  0  0
  146.3557  134.3034  150.2496 H   0  0  0  0  0  0  0  0  0  0  0  0
  147.3785  135.2487  152.0278 H   0  0  0  0  0  0  0  0  0  0  0  0
  1  2  1  0  0  0  0
  1 25  1  0  0  0  0
  1 26  1  0  0  0  0
  1 27  1  0  0  0  0
  2 23  1  0  0  0  0
  2  3  1  0  0  0  0
  2 28  1  0  0  0  0
  3  4  1  0  0  0  0
  3 29  1  0  0  0  0
  3 30  1  0  0  0  0
  4  5  1  0  0  0  0
  4  6  1  0  0  0  0
  4 31  1  0  0  0  0
  5 32  1  0  0  0  0
  5 33  1  0  0  0  0
  5 34  1  0  0  0  0
  6  7  1  0  0  0  0
  6 35  1  0  0  0  0
  6 36  1  0  0  0  0
  7  8  1  0  0  0  0
  7 23  1  0  0  0  0
  7 50  1  0  0  0  0
  8  9  1  0  0  0  0
  8 37  1  0  0  0  0
  8 38  1  0  0  0  0
  9 10  1  0  0  0  0
  9 39  1  0  0  0  0
  9 40  1  0  0  0  0
 10 11  1  0  0  0  0
 10 41  1  0  0  0  0
 10 42  1  0  0  0  0
 11 12  1  0  0  0  0
 11 43  1  0  0  0  0
 12 13  2  0  0  0  0
 12 14  1  0  0  0  0
 14 44  1  0  0  0  0
 14 45  1  0  0  0  0
 14 15  1  0  0  0  0
 15 16  1  0  0  0  0
 15 21  1  0  0  0  0
 16 17  2  0  0  0  0
 17 18  1  0  0  0  0
 17 19  1  0  0  0  0
 18 24  1  0  0  0  0
 19 46  1  0  0  0  0
 19 20  2  0  0  0  0
 20 47  1  0  0  0  0
 20 21  1  0  0  0  0
 21 22  2  0  0  0  0
 23 48  1  0  0  0  0
 23 49  1  0  0  0  0
M  CHG  1   7   1
M  END
> <s_m_source_file>
AV-unprocessed.smi

> <i_m_source_file_index>
1261

> <i_lp_mmshare_version>
43012

> <i_f3d_flags>
0

> <s_epik_input>
W0NIM11bQ0BASF0xW0NIMl1bQ0BASF0oW0NIM10pW0NIMl1OKFtDSDJdMSlbQ0gyXVtDSDJdW0NIMl1bTkhdQyg9TylbQ0gyXW4yW25IXWMoPU8pW2NIXVtjSF1jMj1P

> <s_epik_cmdline>
J2VwaWtfcHl0aG9uJywgJy1waCcsICc3LjAnLCAnLXRuJywgJzgnLCAnLW1hJywgJzIwMCcsICctbWV0YWxfYmluZGluZycsICctaW1hZScsICc8aW5maWxlLm1hZT4nLCAnLW9tYWUnLCAnPG91dGZpbGUubWFlPic=

> <r_lp_tautomer_probability>
0.9996

> <r_epik_Ionization_Penalty>
2.1425

> <r_epik_Ionization_Penalty_Charging>
0.000312112

> <r_epik_Ionization_Penalty_Neutral>
2.14218

> <r_epik_State_Penalty>
1.71978

> <r_epik_Charging_Adjusted_Penalty>
1.72009

> <i_epik_Tot_Q>
1

> <i_epik_Tot_abs_Q>
1

> <r_epik_Metal_State_Penalty>
1.71978

> <b_epik_Metal_Only>
0

> <s_lp_Force_Field>
OPLS_2005

> <r_lp_Energy>
29.2022

> <b_lp_Chiralities_Consistent>
1

> <s_lp_Variant>
AV-unprocessed.smi:1261-7

> <Gold.Version>
5.8.1

> <Gold.Id.Protein>
6NUR|6NUR_protein|mol2

> <Gold.PLP.Fitness>
51.5962

> <Gold.PLP.PLP>
-38.7611

> <Gold.PLP.part.hbond>
-4.0000

> <Gold.PLP.part.metal>
0.0000

> <Gold.PLP.part.buried>
-3.6885

> <Gold.PLP.part.nonpolar>
-30.0669

> <Gold.PLP.part.repulsive>
0.0249

> <Gold.PLP.ligand.clash>
0.0000

> <Gold.PLP.ligand.torsion>
0.8049

> <Gold.PLP.Chemscore.Hbond>
4.7760

> <Gold.PLP.Chemscore.CHOScore>
0.0000

> <Gold.PLP.Chemscore.Metal>
0.0000

> <Gold.Chemscore.Hbonds>
donor molecule, donor type, donor heavy atom, donor atom, acceptor molecule, acceptor atom, score
      L1  H     7    50       P1  7948  2.00
      P1  H  6896  6909       L1    13  0.90
      P1  H  6931  6943       L1    22  1.00

> <Gold.PLP.Chemscore.Internal.Correction>
0.1169

> <Gold.Rescore>
     Score         DG    S(hbond)    S(metal)    S(lipo)     H(rot)  DE(clash)    DE(int)     intcor
     14.02     -16.15       2.98        0.00      74.63       3.14       0.00       2.13       ----

> <Gold.Chemscore.Fitness>
14.0167

> <Gold.Chemscore.DG>
-16.1545

> <Gold.Chemscore.ZeroCoef>
-5.4800

> <Gold.Chemscore.Hbond>
2.9847

> <Gold.Chemscore.Metal>
0.0000

> <Gold.Chemscore.Lipo>
74.6282

> <Gold.Chemscore.Internal_Hbond>
0.0000

> <Gold.Chemscore.DEClash>
0.0048

> <Gold.Chemscore.DEInternal>
2.1330

> <Gold.Chemscore.Rot>
3.1352

> <Gold.Chemscore.Internal.Correction>
   9.000000E+99

> <Gold.Chemscore.Hbonds>
donor molecule, donor type, donor heavy atom, donor atom, acceptor molecule, acceptor atom, score
      L1  H     7    50       P1  7948  0.99
      P1  H  6896  6909       L1    13  0.17
      P1  H  6931  6943       L1    22  0.96

> <Gold.Chemscore.Hbond.Weighted>
-9.9690

> <Gold.Chemscore.Metal.Weighted>
-0.0000

> <Gold.Chemscore.Lipo.Weighted>
-8.7315

> <Gold.Chemscore.Internal_Hbond.Weighted>
0.0000

> <Gold.Chemscore.DEClash.Weighted>
0.0048

> <Gold.Chemscore.DEInternal.Weighted>
2.1330

> <Gold.Chemscore.Rot.Weighted>
8.0260

> <Gold.Chemscore.Internal.Correction.Weighted>
   9.000000E+99

> <Gold.Protein.RotatedTorsions>
[ 6907 6896 6895 6894 ] final   12.50 input  -60.11 | X-H torsion
[ 7974 7965 7964 7962 ] final -124.92 input  175.53 | X-H torsion
[ 8008 7997 7996 7995 ] final  -12.18 input   59.86 | X-H torsion
[ 10167 10162 10161 10158 ] final  170.68 input  -65.29 | X-H torsion
[ 10718 10713 10712 10709 ] final  -47.81 input   66.30 | X-H torsion
[ 10763 10752 10751 10750 ] final  -29.36 input  -60.55 | X-H torsion
[ 11005 11000 10999 10996 ] final  134.07 input  -57.11 | X-H torsion

> <Gold.Protein.ActiveResidues>
 VAL166  LYS551  ARG553  GLY616  TRP617  ASP618  TYR619  PRO620  LYS621  CYS622 
 ASP623  PHE694  ASN695  SER759  ASP760  ASP761  ALA762  ILE779  LEU786  VAL792 
 PHE793  MET794  SER795  GLU796  ALA797  LYS798  CYS799  TRP800  GLU811  SER814 

> <Gold.Protein.RotatedAtoms>
  151.7714  135.0785  160.0360 H   0  0  0  0  0  0  0  0  0  0  0  0  # atno 6907 bound_to 6896
  152.3286  133.5928  159.5802 H   0  0  0  0  0  0  0  0  0  0  0  0  # atno 6908 bound_to 6896
  150.7409  133.9818  159.3620 H   0  0  0  0  0  0  0  0  0  0  0  0  # atno 6909 bound_to 6896
  145.0030  140.7837  143.4485 H   0  0  0  0  0  0  0  0  0  0  0  0  # atno 7974 bound_to 7965
  154.5400  140.2283  155.8658 H   0  0  0  0  0  0  0  0  0  0  0  0  # atno 8008 bound_to 7997
  156.1849  140.3091  155.9181 H   0  0  0  0  0  0  0  0  0  0  0  0  # atno 8009 bound_to 7997
  155.3278  140.0444  157.3032 H   0  0  0  0  0  0  0  0  0  0  0  0  # atno 8010 bound_to 7997
  139.5025  144.3570  151.9864 H   0  0  0  0  0  0  0  0  0  0  0  0  # atno 10167 bound_to 10162
  156.2048  130.4158  149.9192 H   0  0  0  0  0  0  0  0  0  0  0  0  # atno 10718 bound_to 10713
  153.7634  135.6917  153.4921 H   0  0  0  0  0  0  0  0  0  0  0  0  # atno 10763 bound_to 10752
  153.1923  135.4466  155.0163 H   0  0  0  0  0  0  0  0  0  0  0  0  # atno 10764 bound_to 10752
  154.8144  135.3392  154.7148 H   0  0  0  0  0  0  0  0  0  0  0  0  # atno 10765 bound_to 10752
  139.9892  134.9521  156.9815 H   0  0  0  0  0  0  0  0  0  0  0  0  # atno 11005 bound_to 11000
  145.2127  139.2197  143.5134 LP  0  0  0  0  0  0  0  0  0  0  0  0  # atno 17320 bound_to 7965
  146.3455  140.1968  142.8589 LP  0  0  0  0  0  0  0  0  0  0  0  0  # atno 17321 bound_to 7965
  140.3006  144.3650  150.6061 LP  0  0  0  0  0  0  0  0  0  0  0  0  # atno 17342 bound_to 10162
  140.5876  143.2169  151.7313 LP  0  0  0  0  0  0  0  0  0  0  0  0  # atno 17343 bound_to 10162
  156.6890  130.8888  151.3586 LP  0  0  0  0  0  0  0  0  0  0  0  0  # atno 17370 bound_to 10713
  157.7006  130.9329  150.0774 LP  0  0  0  0  0  0  0  0  0  0  0  0  # atno 17371 bound_to 10713
  140.4942  134.1162  155.7238 LP  0  0  0  0  0  0  0  0  0  0  0  0  # atno 17394 bound_to 11000
  141.1551  133.8898  157.1998 LP  0  0  0  0  0  0  0  0  0  0  0  0  # atno 17395 bound_to 11000

$$$$
