AV-unprocessed.smi:2063|AV-procd|sdf|8412|dock6
  -GOLD-   2272011103D 1   1.00000     0.00000
 Structure written by MMmdl.
 38 39  0  0  0  0  0  0  0  0  2 V2000
  147.2475  133.8731  162.2990 C   0  0  0  0  0  0  0  0  0  0  0  0
  147.1871  135.4044  162.2012 C   0  0  0  0  0  0  0  0  0  0  0  0
  145.7915  135.9726  162.4966 C   0  0  0  0  0  0  0  0  0  0  0  0
  147.7392  135.9090  160.9046 C   0  0  0  0  0  0  0  0  0  0  0  0
  147.9111  137.2078  160.6395 N   0  0  0  0  0  0  0  0  0  0  0  0
  148.4328  137.4201  159.3720 N   0  0  0  0  0  0  0  0  0  0  0  0
  148.6580  136.2828  158.6991 C   0  0  0  0  0  0  0  0  0  0  0  0
  149.1559  136.2682  157.4518 N   0  5  0  0  0  0  0  0  0  0  0  0
  149.5680  137.4198  156.8742 C   0  0  0  0  0  0  0  0  0  0  0  0
  149.7761  138.4906  157.4489 O   0  0  0  0  0  0  0  0  0  0  0  0
  149.7538  137.3189  155.5501 N   0  0  0  0  0  0  0  0  0  0  0  0
  150.2201  138.3755  154.6535 C   0  0  2  0  0  0  0  0  0  0  0  0
  151.7094  138.6520  154.9117 C   0  0  0  0  0  0  0  0  0  0  0  0
  149.3561  139.6359  154.8472 C   0  0  2  0  0  0  0  0  0  0  0  0
  147.9550  139.5487  154.2345 C   0  0  0  0  0  0  0  0  0  0  0  0
  147.6037  140.9931  153.9092 C   0  0  0  0  0  0  0  0  0  0  0  0
  148.9160  141.7534  154.1131 C   0  0  0  0  0  0  0  0  0  0  0  0
  149.9149  140.7458  154.1613 O   0  0  0  0  0  0  0  0  0  0  0  0
  148.2120  134.8338  159.5988 S   0  0  0  0  0  0  0  0  0  0  0  0
  148.2672  133.5118  162.1607 H   0  0  0  0  0  0  0  0  0  0  0  0
  146.6213  133.4024  161.5404 H   0  0  0  0  0  0  0  0  0  0  0  0
  146.9037  133.5276  163.2743 H   0  0  0  0  0  0  0  0  0  0  0  0
  147.8447  135.7865  162.9832 H   0  0  0  0  0  0  0  0  0  0  0  0
  145.8063  137.0629  162.5062 H   0  0  0  0  0  0  0  0  0  0  0  0
  145.4296  135.6389  163.4692 H   0  0  0  0  0  0  0  0  0  0  0  0
  145.0672  135.6557  161.7456 H   0  0  0  0  0  0  0  0  0  0  0  0
  149.5646  136.4211  155.1294 H   0  0  0  0  0  0  0  0  0  0  0  0
  150.1066  138.0521  153.6174 H   0  0  0  0  0  0  0  0  0  0  0  0
  152.0883  139.4240  154.2414 H   0  0  0  0  0  0  0  0  0  0  0  0
  152.3087  137.7555  154.7499 H   0  0  0  0  0  0  0  0  0  0  0  0
  151.8792  138.9866  155.9356 H   0  0  0  0  0  0  0  0  0  0  0  0
  149.2774  139.8830  155.9080 H   0  0  0  0  0  0  0  0  0  0  0  0
  147.9803  138.9650  153.3132 H   0  0  0  0  0  0  0  0  0  0  0  0
  147.2359  139.0788  154.9062 H   0  0  0  0  0  0  0  0  0  0  0  0
  147.2522  141.0771  152.8804 H   0  0  0  0  0  0  0  0  0  0  0  0
  146.8221  141.3799  154.5641 H   0  0  0  0  0  0  0  0  0  0  0  0
  149.1143  142.4711  153.3167 H   0  0  0  0  0  0  0  0  0  0  0  0
  148.9044  142.2915  155.0621 H   0  0  0  0  0  0  0  0  0  0  0  0
  1  2  1  0  0  0  0
  1 20  1  0  0  0  0
  1 21  1  0  0  0  0
  1 22  1  0  0  0  0
  2  3  1  0  0  0  0
  2  4  1  0  0  0  0
  2 23  1  0  0  0  0
  3 24  1  0  0  0  0
  3 25  1  0  0  0  0
  3 26  1  0  0  0  0
  4 19  1  0  0  0  0
  4  5  2  0  0  0  0
  5  6  1  0  0  0  0
  6  7  2  0  0  0  0
  7  8  1  0  0  0  0
  7 19  1  0  0  0  0
  8  9  1  0  0  0  0
  9 10  2  0  0  0  0
  9 11  1  0  0  0  0
 11 12  1  0  0  0  0
 11 27  1  0  0  0  0
 12 13  1  0  0  0  0
 12 14  1  0  0  0  0
 12 28  1  0  0  0  0
 13 29  1  0  0  0  0
 13 30  1  0  0  0  0
 13 31  1  0  0  0  0
 14 18  1  0  0  0  0
 14 15  1  0  0  0  0
 14 32  1  0  0  0  0
 15 16  1  0  0  0  0
 15 33  1  0  0  0  0
 15 34  1  0  0  0  0
 16 17  1  0  0  0  0
 16 35  1  0  0  0  0
 16 36  1  0  0  0  0
 17 18  1  0  0  0  0
 17 37  1  0  0  0  0
 17 38  1  0  0  0  0
M  CHG  1   8  -1
M  END
> <s_m_source_file>
AV-unprocessed.smi

> <i_m_source_file_index>
2063

> <i_lp_mmshare_version>
43012

> <i_f3d_flags>
0

> <s_epik_input>
W0NIM11bQ0hdKFtDSDNdKWMxbm5jKHMxKVtOSF1DKD1PKVtOSF1bQ0BIXShbQ0gzXSlbQ0BASF0yW0NIMl1bQ0gyXVtDSDJdTzI=

> <s_epik_cmdline>
J2VwaWtfcHl0aG9uJywgJy1waCcsICc3LjAnLCAnLXRuJywgJzgnLCAnLW1hJywgJzIwMCcsICctbWV0YWxfYmluZGluZycsICctaW1hZScsICc8aW5maWxlLm1hZT4nLCAnLW9tYWUnLCAnPG91dGZpbGUubWFlPic=

> <r_lp_tautomer_probability>
1

> <r_epik_Ionization_Penalty>
4.37022

> <r_epik_Ionization_Penalty_Charging>
4.21437

> <r_epik_Ionization_Penalty_Neutral>
0.15585

> <r_epik_State_Penalty>
4.21389

> <r_epik_Charging_Adjusted_Penalty>
8.42826

> <i_epik_Tot_Q>
-1

> <i_epik_Tot_abs_Q>
1

> <r_epik_Metal_State_Penalty>
0.693772

> <b_epik_Metal_Only>
1

> <s_lp_Force_Field>
OPLS_2005

> <r_lp_Energy>
9.58619

> <b_lp_Chiralities_Consistent>
1

> <s_lp_Variant>
AV-unprocessed.smi:2063-5

> <Gold.Version>
5.8.1

> <Gold.Id.Protein>
6NUR|6NUR_protein|mol2

> <Gold.PLP.Fitness>
37.9113

> <Gold.PLP.PLP>
-32.0334

> <Gold.PLP.part.hbond>
-3.6144

> <Gold.PLP.part.metal>
0.0000

> <Gold.PLP.part.buried>
-2.0879

> <Gold.PLP.part.nonpolar>
-26.7226

> <Gold.PLP.part.repulsive>
0.6686

> <Gold.PLP.ligand.clash>
0.0000

> <Gold.PLP.ligand.torsion>
0.3639

> <Gold.PLP.Chemscore.Hbond>
2.1600

> <Gold.PLP.Chemscore.CHOScore>
0.0000

> <Gold.PLP.Chemscore.Metal>
0.0000

> <Gold.Chemscore.Hbonds>
donor molecule, donor type, donor heavy atom, donor atom, acceptor molecule, acceptor atom, score
      P1  H  6931  6943       L1     5  0.80
      P1  H  6934  6947       L1     5  0.68
      P1  H  7989  7998       L1    18  0.64

> <Gold.PLP.Chemscore.Internal.Correction>
0.1257

> <Gold.Rescore>
     Score         DG    S(hbond)    S(metal)    S(lipo)     H(rot)  DE(clash)    DE(int)     intcor
     11.63     -15.50       1.35        0.00      77.38       1.39       0.43       3.43       ----

> <Gold.Chemscore.Fitness>
11.6333

> <Gold.Chemscore.DG>
-15.4986

> <Gold.Chemscore.ZeroCoef>
-5.4800

> <Gold.Chemscore.Hbond>
1.3540

> <Gold.Chemscore.Metal>
0.0000

> <Gold.Chemscore.Lipo>
77.3751

> <Gold.Chemscore.Internal_Hbond>
0.0000

> <Gold.Chemscore.DEClash>
0.4303

> <Gold.Chemscore.DEInternal>
3.4349

> <Gold.Chemscore.Rot>
1.3893

> <Gold.Chemscore.Internal.Correction>
   9.000000E+99

> <Gold.Chemscore.Hbonds>
donor molecule, donor type, donor heavy atom, donor atom, acceptor molecule, acceptor atom, score
      P1  H  6931  6943       L1     5  0.41
      P1  H  6934  6947       L1     5  0.11
      P1  H  7989  7998       L1    18  0.64

> <Gold.Chemscore.Hbond.Weighted>
-4.5224

> <Gold.Chemscore.Metal.Weighted>
-0.0000

> <Gold.Chemscore.Lipo.Weighted>
-9.0529

> <Gold.Chemscore.Internal_Hbond.Weighted>
0.0000

> <Gold.Chemscore.DEClash.Weighted>
0.4303

> <Gold.Chemscore.DEInternal.Weighted>
3.4349

> <Gold.Chemscore.Rot.Weighted>
3.5567

> <Gold.Chemscore.Internal.Correction.Weighted>
   9.000000E+99

> <Gold.Protein.RotatedTorsions>
[ 6907 6896 6895 6894 ] final   -7.73 input  -60.11 | X-H torsion
[ 7974 7965 7964 7962 ] final -108.35 input  175.53 | X-H torsion
[ 8008 7997 7996 7995 ] final  -11.41 input   59.86 | X-H torsion
[ 10167 10162 10161 10158 ] final   40.37 input  -65.29 | X-H torsion
[ 10718 10713 10712 10709 ] final    0.49 input   66.30 | X-H torsion
[ 10763 10752 10751 10750 ] final  -90.58 input  -60.55 | X-H torsion
[ 11005 11000 10999 10996 ] final  -80.83 input  -57.11 | X-H torsion

> <Gold.Protein.ActiveResidues>
 VAL166  LYS551  ARG553  GLY616  TRP617  ASP618  TYR619  PRO620  LYS621  CYS622 
 ASP623  PHE694  ASN695  SER759  ASP760  ASP761  ALA762  ILE779  LEU786  VAL792 
 PHE793  MET794  SER795  GLU796  ALA797  LYS798  CYS799  TRP800  GLU811  SER814 

> <Gold.Protein.RotatedAtoms>
  151.4450  135.1024  159.9680 H   0  0  0  0  0  0  0  0  0  0  0  0  # atno 6907 bound_to 6896
  152.4909  133.8493  159.7204 H   0  0  0  0  0  0  0  0  0  0  0  0  # atno 6908 bound_to 6896
  150.9062  133.6996  159.2894 H   0  0  0  0  0  0  0  0  0  0  0  0  # atno 6909 bound_to 6896
  145.1940  140.9027  143.3408 H   0  0  0  0  0  0  0  0  0  0  0  0  # atno 7974 bound_to 7965
  154.5467  140.2303  155.8551 H   0  0  0  0  0  0  0  0  0  0  0  0  # atno 8008 bound_to 7997
  156.1909  140.3077  155.9292 H   0  0  0  0  0  0  0  0  0  0  0  0  # atno 8009 bound_to 7997
  155.3150  140.0437  157.3027 H   0  0  0  0  0  0  0  0  0  0  0  0  # atno 8010 bound_to 7997
  140.3748  144.2057  150.6132 H   0  0  0  0  0  0  0  0  0  0  0  0  # atno 10167 bound_to 10162
  156.8342  130.5499  149.5684 H   0  0  0  0  0  0  0  0  0  0  0  0  # atno 10718 bound_to 10713
  154.6672  135.5299  153.8093 H   0  0  0  0  0  0  0  0  0  0  0  0  # atno 10763 bound_to 10752
  153.0479  135.6520  154.0780 H   0  0  0  0  0  0  0  0  0  0  0  0  # atno 10764 bound_to 10752
  154.0683  135.2956  155.3292 H   0  0  0  0  0  0  0  0  0  0  0  0  # atno 10765 bound_to 10752
  141.1667  133.7168  156.8332 H   0  0  0  0  0  0  0  0  0  0  0  0  # atno 11005 bound_to 11000
  145.0013  139.3596  143.6166 LP  0  0  0  0  0  0  0  0  0  0  0  0  # atno 17320 bound_to 7965
  146.3431  139.9237  142.8763 LP  0  0  0  0  0  0  0  0  0  0  0  0  # atno 17321 bound_to 7965
  140.4997  143.2321  151.8697 LP  0  0  0  0  0  0  0  0  0  0  0  0  # atno 17342 bound_to 10162
  139.4800  144.5073  151.8980 LP  0  0  0  0  0  0  0  0  0  0  0  0  # atno 17343 bound_to 10162
  156.0917  130.5901  150.9744 LP  0  0  0  0  0  0  0  0  0  0  0  0  # atno 17370 bound_to 10713
  157.6390  131.0912  150.8289 LP  0  0  0  0  0  0  0  0  0  0  0  0  # atno 17371 bound_to 10713
  140.2036  134.8879  157.3197 LP  0  0  0  0  0  0  0  0  0  0  0  0  # atno 17394 bound_to 11000
  140.2161  134.4080  155.7588 LP  0  0  0  0  0  0  0  0  0  0  0  0  # atno 17395 bound_to 11000

$$$$
