AV-unprocessed.smi:1958|AV-procd|sdf|7908|dock4
  -GOLD-   2272010 73D 1   1.00000     0.00000
 Structure written by MMmdl.
 48 49  0  0  0  0  0  0  0  0  2 V2000
  152.1728  139.4855  158.1019 C   0  0  0  0  0  0  0  0  0  0  0  0
  153.5140  139.0292  158.0937 O   0  0  0  0  0  0  0  0  0  0  0  0
  153.6813  137.8481  157.3282 C   0  0  0  0  0  0  0  0  0  0  0  0
  153.4362  138.1777  155.8482 C   0  0  0  0  0  0  0  0  0  0  0  0
  152.0397  137.9413  155.4688 N   0  0  0  0  0  0  0  0  0  0  0  0
  151.6463  136.6167  155.5619 N   0  0  0  0  0  0  0  0  0  0  0  0
  150.4379  136.2743  155.2508 C   0  0  0  0  0  0  0  0  0  0  0  0
  149.9771  134.8604  155.3348 C   0  0  0  0  0  0  0  0  0  0  0  0
  150.2619  134.1368  156.2906 O   0  0  0  0  0  0  0  0  0  0  0  0
  149.2314  134.4352  154.3006 N   0  0  0  0  0  0  0  0  0  0  0  0
  148.6642  133.0970  154.1831 C   0  0  0  0  0  0  0  0  0  0  0  0
  148.4849  132.6612  152.7043 C   0  0  2  0  0  0  0  0  0  0  0  0
  147.3086  133.4321  152.0591 C   0  0  0  0  0  0  0  0  0  0  0  0
  148.2940  131.1815  152.5390 N   0  3  0  0  0  0  0  0  0  0  0  0
  149.1787  130.3836  153.4324 C   0  0  0  0  0  0  0  0  0  0  0  0
  149.0081  128.8755  153.1860 C   0  0  0  0  0  0  0  0  0  0  0  0
  147.6505  128.5141  153.3872 O   0  0  0  0  0  0  0  0  0  0  0  0
  146.7972  129.1785  152.4683 C   0  0  0  0  0  0  0  0  0  0  0  0
  146.8900  130.7006  152.6724 C   0  0  0  0  0  0  0  0  0  0  0  0
  149.4756  137.2656  154.8009 C   0  0  0  0  0  0  0  0  0  0  0  0
  149.8763  138.5525  154.7082 C   0  0  0  0  0  0  0  0  0  0  0  0
  151.2388  138.9662  155.0478 C   0  0  0  0  0  0  0  0  0  0  0  0
  151.6309  140.1291  154.9587 O   0  0  0  0  0  0  0  0  0  0  0  0
  152.0980  140.3940  158.6995 H   0  0  0  0  0  0  0  0  0  0  0  0
  151.5057  138.7406  158.5377 H   0  0  0  0  0  0  0  0  0  0  0  0
  151.8288  139.7171  157.0931 H   0  0  0  0  0  0  0  0  0  0  0  0
  154.6886  137.4528  157.4686 H   0  0  0  0  0  0  0  0  0  0  0  0
  152.9772  137.0849  157.6641 H   0  0  0  0  0  0  0  0  0  0  0  0
  153.6994  139.2204  155.6615 H   0  0  0  0  0  0  0  0  0  0  0  0
  154.1084  137.5925  155.2182 H   0  0  0  0  0  0  0  0  0  0  0  0
  149.0422  135.0864  153.5520 H   0  0  0  0  0  0  0  0  0  0  0  0
  149.3492  132.4308  154.7082 H   0  0  0  0  0  0  0  0  0  0  0  0
  147.7050  133.0596  154.7029 H   0  0  0  0  0  0  0  0  0  0  0  0
  149.4015  132.9349  152.1790 H   0  0  0  0  0  0  0  0  0  0  0  0
  147.4218  134.5113  152.1602 H   0  0  0  0  0  0  0  0  0  0  0  0
  146.3601  133.1590  152.5225 H   0  0  0  0  0  0  0  0  0  0  0  0
  147.2202  133.2482  150.9901 H   0  0  0  0  0  0  0  0  0  0  0  0
  150.2261  130.6339  153.2773 H   0  0  0  0  0  0  0  0  0  0  0  0
  148.9484  130.6140  154.4737 H   0  0  0  0  0  0  0  0  0  0  0  0
  149.3290  128.6033  152.1791 H   0  0  0  0  0  0  0  0  0  0  0  0
  149.6286  128.3097  153.8811 H   0  0  0  0  0  0  0  0  0  0  0  0
  147.0606  128.9059  151.4450 H   0  0  0  0  0  0  0  0  0  0  0  0
  145.7736  128.8406  152.6320 H   0  0  0  0  0  0  0  0  0  0  0  0
  146.5009  130.9718  153.6551 H   0  0  0  0  0  0  0  0  0  0  0  0
  146.2472  131.1629  151.9241 H   0  0  0  0  0  0  0  0  0  0  0  0
  148.4636  136.9887  154.5433 H   0  0  0  0  0  0  0  0  0  0  0  0
  149.1718  139.3001  154.3742 H   0  0  0  0  0  0  0  0  0  0  0  0
  148.5665  130.9671  151.5903 H   0  0  0  0  0  0  0  0  0  0  0  0
  1  2  1  0  0  0  0
  1 24  1  0  0  0  0
  1 25  1  0  0  0  0
  1 26  1  0  0  0  0
  2  3  1  0  0  0  0
  3  4  1  0  0  0  0
  3 27  1  0  0  0  0
  3 28  1  0  0  0  0
  4  5  1  0  0  0  0
  4 29  1  0  0  0  0
  4 30  1  0  0  0  0
  5 22  1  0  0  0  0
  5  6  1  0  0  0  0
  6  7  2  0  0  0  0
  7  8  1  0  0  0  0
  7 20  1  0  0  0  0
  8  9  2  0  0  0  0
  8 10  1  0  0  0  0
 10 11  1  0  0  0  0
 10 31  1  0  0  0  0
 11 12  1  0  0  0  0
 11 32  1  0  0  0  0
 11 33  1  0  0  0  0
 12 13  1  0  0  0  0
 12 14  1  0  0  0  0
 12 34  1  0  0  0  0
 13 35  1  0  0  0  0
 13 36  1  0  0  0  0
 13 37  1  0  0  0  0
 14 19  1  0  0  0  0
 14 15  1  0  0  0  0
 14 48  1  0  0  0  0
 15 16  1  0  0  0  0
 15 38  1  0  0  0  0
 15 39  1  0  0  0  0
 16 17  1  0  0  0  0
 16 40  1  0  0  0  0
 16 41  1  0  0  0  0
 17 18  1  0  0  0  0
 18 19  1  0  0  0  0
 18 42  1  0  0  0  0
 18 43  1  0  0  0  0
 19 44  1  0  0  0  0
 19 45  1  0  0  0  0
 20 21  2  0  0  0  0
 20 46  1  0  0  0  0
 21 22  1  0  0  0  0
 21 47  1  0  0  0  0
 22 23  2  0  0  0  0
M  CHG  1  14   1
M  END
> <s_m_source_file>
AV-unprocessed.smi

> <i_m_source_file_index>
1958

> <i_lp_mmshare_version>
43012

> <i_f3d_flags>
0

> <s_epik_input>
W0NIM11PW0NIMl1bQ0gyXW4xbmMoW2NIXVtjSF1jMT1PKUMoPU8pW05IXVtDSDJdW0NASF0oW0NIM10pTjJbQ0gyXVtDSDJdT1tDSDJdW0NIMl0y

> <s_epik_cmdline>
J2VwaWtfcHl0aG9uJywgJy1waCcsICc3LjAnLCAnLXRuJywgJzgnLCAnLW1hJywgJzIwMCcsICctbWV0YWxfYmluZGluZycsICctaW1hZScsICc8aW5maWxlLm1hZT4nLCAnLW9tYWUnLCAnPG91dGZpbGUubWFlPic=

> <r_lp_tautomer_probability>
1

> <r_epik_Ionization_Penalty>
0.724355

> <r_epik_Ionization_Penalty_Charging>
0.724348

> <r_epik_Ionization_Penalty_Neutral>
6.31911e-06

> <r_epik_State_Penalty>
0.749058

> <r_epik_Charging_Adjusted_Penalty>
1.47341

> <i_epik_Tot_Q>
1

> <i_epik_Tot_abs_Q>
1

> <r_epik_Metal_State_Penalty>
0.750821

> <b_epik_Metal_Only>
0

> <s_lp_Force_Field>
OPLS_2005

> <r_lp_Energy>
41.4704

> <b_lp_Chiralities_Consistent>
1

> <s_lp_Variant>
AV-unprocessed.smi:1958-3

> <Gold.Version>
5.8.1

> <Gold.Id.Protein>
6NUR|6NUR_protein|mol2

> <Gold.PLP.Fitness>
46.8070

> <Gold.PLP.PLP>
-34.8704

> <Gold.PLP.part.hbond>
-4.8956

> <Gold.PLP.part.metal>
0.0000

> <Gold.PLP.part.buried>
-1.0010

> <Gold.PLP.part.nonpolar>
-28.6623

> <Gold.PLP.part.repulsive>
0.2220

> <Gold.PLP.ligand.clash>
0.0000

> <Gold.PLP.ligand.torsion>
1.6391

> <Gold.PLP.Chemscore.Hbond>
5.0000

> <Gold.PLP.Chemscore.CHOScore>
0.0000

> <Gold.PLP.Chemscore.Metal>
0.0000

> <Gold.Chemscore.Hbonds>
donor molecule, donor type, donor heavy atom, donor atom, acceptor molecule, acceptor atom, score
      L1  H    10    31       P1  7948  1.00
      L1  H    14    48       P1 10747  0.59
      P1  H  7989  7998       L1    23  1.00
      P1  H  7997  8010       L1     2  0.80
      P1  H 10752 10763       L1     6  1.00

> <Gold.PLP.Chemscore.Internal.Correction>
0.2148

> <Gold.Rescore>
     Score         DG    S(hbond)    S(metal)    S(lipo)     H(rot)  DE(clash)    DE(int)     intcor
     19.48     -21.98       3.99        0.00      73.60       2.12       0.31       2.18       ----

> <Gold.Chemscore.Fitness>
19.4817

> <Gold.Chemscore.DG>
-21.9767

> <Gold.Chemscore.ZeroCoef>
-5.4800

> <Gold.Chemscore.Hbond>
3.9873

> <Gold.Chemscore.Metal>
0.0000

> <Gold.Chemscore.Lipo>
73.6040

> <Gold.Chemscore.Internal_Hbond>
0.0000

> <Gold.Chemscore.DEClash>
0.3149

> <Gold.Chemscore.DEInternal>
2.1802

> <Gold.Chemscore.Rot>
2.1221

> <Gold.Chemscore.Internal.Correction>
   9.000000E+99

> <Gold.Chemscore.Hbonds>
donor molecule, donor type, donor heavy atom, donor atom, acceptor molecule, acceptor atom, score
      L1  H    10    31       P1  7948  0.38
      L1  H    14    48       P1 10747  0.58
      P1  H  7989  7998       L1    23  0.93
      P1  H  7997  8010       L1     2  0.11
      P1  H 10752 10763       L1     6  0.67

> <Gold.Chemscore.Hbond.Weighted>
-13.3175

> <Gold.Chemscore.Metal.Weighted>
-0.0000

> <Gold.Chemscore.Lipo.Weighted>
-8.6117

> <Gold.Chemscore.Internal_Hbond.Weighted>
0.0000

> <Gold.Chemscore.DEClash.Weighted>
0.3149

> <Gold.Chemscore.DEInternal.Weighted>
2.1802

> <Gold.Chemscore.Rot.Weighted>
5.4325

> <Gold.Chemscore.Internal.Correction.Weighted>
   9.000000E+99

> <Gold.Protein.RotatedTorsions>
[ 6907 6896 6895 6894 ] final  -50.53 input  -60.11 | X-H torsion
[ 7974 7965 7964 7962 ] final -151.60 input  175.53 | X-H torsion
[ 8008 7997 7996 7995 ] final   15.79 input   59.86 | X-H torsion
[ 10167 10162 10161 10158 ] final  151.03 input  -65.29 | X-H torsion
[ 10718 10713 10712 10709 ] final -149.00 input   66.30 | X-H torsion
[ 10763 10752 10751 10750 ] final   85.44 input  -60.55 | X-H torsion
[ 11005 11000 10999 10996 ] final -141.46 input  -57.11 | X-H torsion

> <Gold.Protein.ActiveResidues>
 VAL166  LYS551  ARG553  GLY616  TRP617  ASP618  TYR619  PRO620  LYS621  CYS622 
 ASP623  PHE694  ASN695  SER759  ASP760  ASP761  ALA762  ILE779  LEU786  VAL792 
 PHE793  MET794  SER795  GLU796  ALA797  LYS798  CYS799  TRP800  GLU811  SER814 

> <Gold.Protein.RotatedAtoms>
  150.8698  134.8069  159.7145 H   0  0  0  0  0  0  0  0  0  0  0  0  # atno 6907 bound_to 6896
  152.4707  134.4965  159.9721 H   0  0  0  0  0  0  0  0  0  0  0  0  # atno 6908 bound_to 6896
  151.5055  133.3457  159.2911 H   0  0  0  0  0  0  0  0  0  0  0  0  # atno 6909 bound_to 6896
  144.7841  140.4775  143.5819 H   0  0  0  0  0  0  0  0  0  0  0  0  # atno 7974 bound_to 7965
  154.8676  140.2954  155.5501 H   0  0  0  0  0  0  0  0  0  0  0  0  # atno 8008 bound_to 7997
  156.3021  140.2466  156.3593 H   0  0  0  0  0  0  0  0  0  0  0  0  # atno 8009 bound_to 7997
  154.8851  140.0396  157.1794 H   0  0  0  0  0  0  0  0  0  0  0  0  # atno 8010 bound_to 7997
  139.4844  144.5474  151.7460 H   0  0  0  0  0  0  0  0  0  0  0  0  # atno 10167 bound_to 10162
  156.4275  130.8059  151.2285 H   0  0  0  0  0  0  0  0  0  0  0  0  # atno 10718 bound_to 10713
  153.1475  135.4617  154.9588 H   0  0  0  0  0  0  0  0  0  0  0  0  # atno 10763 bound_to 10752
  154.7798  135.3185  154.8017 H   0  0  0  0  0  0  0  0  0  0  0  0  # atno 10764 bound_to 10752
  153.8528  135.6920  153.4845 H   0  0  0  0  0  0  0  0  0  0  0  0  # atno 10765 bound_to 10752
  140.8322  134.2503  157.4851 H   0  0  0  0  0  0  0  0  0  0  0  0  # atno 11005 bound_to 11000
  145.5971  139.1500  143.3150 LP  0  0  0  0  0  0  0  0  0  0  0  0  # atno 17320 bound_to 7965
  146.2063  140.6094  142.9079 LP  0  0  0  0  0  0  0  0  0  0  0  0  # atno 17321 bound_to 7965
  140.5023  144.1150  150.5974 LP  0  0  0  0  0  0  0  0  0  0  0  0  # atno 17342 bound_to 10162
  140.4048  143.2686  151.9905 LP  0  0  0  0  0  0  0  0  0  0  0  0  # atno 17343 bound_to 10162
  157.7508  131.0208  150.3726 LP  0  0  0  0  0  0  0  0  0  0  0  0  # atno 17370 bound_to 10713
  156.4056  130.3924  149.6928 LP  0  0  0  0  0  0  0  0  0  0  0  0  # atno 17371 bound_to 10713
  139.8704  134.9592  156.4324 LP  0  0  0  0  0  0  0  0  0  0  0  0  # atno 17394 bound_to 11000
  140.8986  133.7796  155.9653 LP  0  0  0  0  0  0  0  0  0  0  0  0  # atno 17395 bound_to 11000

$$$$
