#       Name:                AV-unprocessed.smi:2999
#       Creating user name   scv26
#       Creation time:       Fri Mar 27 16:34:45 2020


#       File generated by GOLD software.
#

@<TRIPOS>MOLECULE
AV-unprocessed.smi:2999
    43    45     1
SMALL
NO_CHARGES


@<TRIPOS>ATOM
      1 ****        -0.7649   2.8111  -2.3363 O.2            1 S1                 0.0000
      2 ****        -1.3456   1.8738  -1.7838 C.2            1 S1                 0.0000
      3 ****        -0.6505   0.7996  -1.3887 N.am           1 S1                 0.0000
      4 ****         0.7886   0.6266  -1.5449 C.3            1 S1                 0.0000
      5 ****         1.2710  -0.6725  -0.8812 C.3            1 S1                 0.0000
      6 ****         1.0273  -0.6971   0.6436 C.3            1 S1                 0.0000
      7 ****         1.5681  -1.9004   1.2640 N.3            1 S1                 0.0000
      8 ****         1.3438  -1.8903   2.7016 C.3            1 S1                 0.0000
      9 ****         1.2900  -3.1949   3.4538 C.3            1 S1                 0.0000
     10 ****         0.0267  -2.3798   3.2460 C.3            1 S1                 0.0000
     11 ****         2.9888  -1.9887   0.9541 C.3            1 S1                 0.0000
     12 ****         3.2385  -1.9751  -0.5631 C.3            1 S1                 0.0000
     13 ****         2.6706  -0.7971  -1.1270 O.3            1 S1                 0.0000
     14 ****        -2.6689   1.7958  -1.5152 N.pl3          1 S1                -1.0000
     15 ****        -3.4848   2.8068  -1.8557 C.2            1 S1                 0.0000
     16 ****        -3.9218   3.7184  -0.9788 N.2            1 S1                 0.0000
     17 ****        -4.7641   4.6760  -1.5466 C.2            1 S1                 0.0000
     18 ****        -4.9795   4.4848  -2.8856 C.2            1 S1                 0.0000
     19 ****        -4.1286   3.0861  -3.4764 S.3            1 S1                 0.0000
     20 ****        -1.1597   0.0515  -0.9414 H              1 S1                 0.0000
     21 ****         1.0293   0.6104  -2.6089 H              1 S1                 0.0000
     22 ****         1.3093   1.4821  -1.1117 H              1 S1                 0.0000
     23 ****         0.7596  -1.5180  -1.3451 H              1 S1                 0.0000
     24 ****         1.4786   0.1875   1.0965 H              1 S1                 0.0000
     25 ****        -0.0426  -0.6361   0.8454 H              1 S1                 0.0000
     26 ****         1.8138  -1.0375   3.1892 H              1 S1                 0.0000
     27 ****         1.3925  -4.1161   2.8834 H              1 S1                 0.0000
     28 ****         1.7166  -3.2146   4.4544 H              1 S1                 0.0000
     29 ****        -0.3845  -1.8581   4.1077 H              1 S1                 0.0000
     30 ****        -0.7062  -2.7630   2.5382 H              1 S1                 0.0000
     31 ****         3.5227  -1.1563   1.4155 H              1 S1                 0.0000
     32 ****         3.4042  -2.9013   1.3826 H              1 S1                 0.0000
     33 ****         4.3081  -1.9907  -0.7722 H              1 S1                 0.0000
     34 ****         2.8052  -2.8584  -1.0349 H              1 S1                 0.0000
     35 ****        -5.1661   5.4599  -0.9221 H              1 S1                 0.0000
     36 ****        -5.5839   5.0760  -3.5566 H              1 S1                 0.0000
     37 ****         0.2225   2.7677  -2.4882 LP             1 S1                 0.0000
     38 ****        -1.2815   3.6145  -2.6324 LP             1 S1                 0.0000
     39 ****         1.0989  -2.7048   0.8995 LP             1 S1                 0.0000
     40 ****         3.1337  -0.0023  -0.7349 LP             1 S1                 0.0000
     41 ****         2.8189  -0.8151  -2.1158 LP             1 S1                 0.0000
     42 ****        -3.0401   0.9849  -1.0628 LP             1 S1                 0.0000
     43 ****        -3.6696   3.7140  -0.0111 LP             1 S1                 0.0000
@<TRIPOS>BOND
    1    1    2 2     
    2    2    3 am    
    3    2   14 1     
    4    3    4 1     
    5    3   20 1     
    6    4    5 1     
    7    4   21 1     
    8    4   22 1     
    9    5   13 1     
   10    5    6 1     
   11    5   23 1     
   12    6    7 1     
   13    6   24 1     
   14    6   25 1     
   15    7    8 1     
   16    7   11 1     
   17    8   10 1     
   18    8    9 1     
   19    8   26 1     
   20    9   10 1     
   21    9   27 1     
   22    9   28 1     
   23   10   29 1     
   24   10   30 1     
   25   11   12 1     
   26   11   31 1     
   27   11   32 1     
   28   12   13 1     
   29   12   33 1     
   30   12   34 1     
   31   14   15 1     
   32   15   19 1     
   33   15   16 2     
   34   16   17 1     
   35   17   18 2     
   36   17   35 1     
   37   18   19 1     
   38   18   36 1     
   39    1   37 1     
   40    1   38 1     
   41    7   39 1     
   42   13   40 1     
   43   13   41 1     
   44   14   42 1     
   45   16   43 1     
@<TRIPOS>SUBSTRUCTURE
      1 S1             1
@<TRIPOS>SET
LONE_PAIRS      STATIC     ATOMS    <user>   **** ""
7 37 38 39 40 41 42 43
DONOR_HYDROGENS      STATIC     ATOMS    <user>   **** ""
1 20
ATOM$BLUE        STATIC     ATOMS    COLORGROUP SYSTEM
7 37 38 39 40 41 42 43
ATOM$RED        STATIC     ATOMS    COLORGROUP SYSTEM
1 20
