#       Name:                AV-unprocessed.smi:2010
#       Creating user name   scv26
#       Creation time:       Fri Mar 27 10:39:05 2020


#       File generated by GOLD software.
#

@<TRIPOS>MOLECULE
AV-unprocessed.smi:2010
    44    45     1
SMALL
NO_CHARGES


@<TRIPOS>ATOM
      1 ****        -3.7399   2.1137   2.8597 C.3            1 S1                 0.0000
      2 ****        -2.5713   2.3326   1.8884 C.3            1 S1                 0.0000
      3 ****        -3.0282   2.2763   0.4244 C.3            1 S1                 0.0000
      4 ****        -1.8531   2.4921  -0.5440 C.3            1 S1                 0.0000
      5 ****        -0.7555   1.5390  -0.2894 N.3            1 S1                 0.0000
      6 ****         0.4508   1.3961  -1.5250 S.o2           1 S1                 0.0000
      7 ****        -0.2125   1.2988  -2.8342 O.2            1 S1                 0.0000
      8 ****         1.4964   2.4011  -1.2805 O.2            1 S1                 0.0000
      9 ****         1.0811  -0.1586  -1.1282 N.3            1 S1                 0.0000
     10 ****         2.1455  -0.7423  -1.9476 C.3            1 S1                 0.0000
     11 ****         1.5335  -1.6553  -3.0228 C.3            1 S1                 0.0000
     12 ****         3.1800  -1.4412  -1.0398 C.3            1 S1                 0.0000
     13 ****         2.6804  -2.6526  -0.4095 N.pl3          1 S1                 0.0000
     14 ****         1.9270  -2.7716   0.7396 C.2            1 S1                 0.0000
     15 ****         1.6991  -4.1027   0.9411 C.2            1 S1                 0.0000
     16 ****         2.3654  -4.7282  -0.1494 C.2            1 S1                 0.0000
     17 ****         2.9533  -3.8584  -0.9547 N.2            1 S1                 0.0000
     18 ****        -0.2935   1.5218   1.1145 C.3            1 S1                 0.0000
     19 ****        -1.4596   1.2940   2.0902 C.3            1 S1                 0.0000
     20 ****        -4.1993   1.1355   2.7143 H              1 S1                 0.0000
     21 ****        -4.5134   2.8691   2.7187 H              1 S1                 0.0000
     22 ****        -3.4055   2.1744   3.8957 H              1 S1                 0.0000
     23 ****        -2.1570   3.3231   2.0824 H              1 S1                 0.0000
     24 ****        -3.4948   1.3119   0.2185 H              1 S1                 0.0000
     25 ****        -3.7923   3.0329   0.2422 H              1 S1                 0.0000
     26 ****        -2.2068   2.3785  -1.5688 H              1 S1                 0.0000
     27 ****        -1.4674   3.5084  -0.4536 H              1 S1                 0.0000
     28 ****         0.3528  -0.8251  -0.8727 H              1 S1                 0.0000
     29 ****         2.6635   0.0746  -2.4516 H              1 S1                 0.0000
     30 ****         2.3120  -2.1162  -3.6312 H              1 S1                 0.0000
     31 ****         0.8835  -1.0936  -3.6936 H              1 S1                 0.0000
     32 ****         0.9380  -2.4553  -2.5825 H              1 S1                 0.0000
     33 ****         4.0655  -1.6959  -1.6242 H              1 S1                 0.0000
     34 ****         3.5188  -0.7605  -0.2575 H              1 S1                 0.0000
     35 ****         1.6178  -1.9078   1.3098 H              1 S1                 0.0000
     36 ****         1.1424  -4.5600   1.7454 H              1 S1                 0.0000
     37 ****         2.4399  -5.7811  -0.3777 H              1 S1                 0.0000
     38 ****         0.4503   0.7382   1.2547 H              1 S1                 0.0000
     39 ****         0.2032   2.4676   1.3344 H              1 S1                 0.0000
     40 ****        -1.0898   1.3366   3.1151 H              1 S1                 0.0000
     41 ****        -1.8600   0.2890   1.9484 H              1 S1                 0.0000
     42 ****        -1.1861   0.6426  -0.3937 LP             1 S1                 0.0000
     43 ****         1.6147   0.0685  -0.3135 LP             1 S1                 0.0000
     44 ****         3.4815  -4.0504  -1.7818 LP             1 S1                 0.0000
@<TRIPOS>BOND
    1    1    2 1     
    2    1   20 1     
    3    1   21 1     
    4    1   22 1     
    5    2   19 1     
    6    2    3 1     
    7    2   23 1     
    8    3    4 1     
    9    3   24 1     
   10    3   25 1     
   11    4    5 1     
   12    4   26 1     
   13    4   27 1     
   14    5    6 1     
   15    5   18 1     
   16    6    7 2     
   17    6    8 2     
   18    6    9 1     
   19    9   10 1     
   20    9   28 1     
   21   10   11 1     
   22   10   12 1     
   23   10   29 1     
   24   11   30 1     
   25   11   31 1     
   26   11   32 1     
   27   12   13 1     
   28   12   33 1     
   29   12   34 1     
   30   13   17 1     
   31   13   14 1     
   32   14   15 2     
   33   14   35 1     
   34   15   16 1     
   35   15   36 1     
   36   16   17 2     
   37   16   37 1     
   38   18   19 1     
   39   18   38 1     
   40   18   39 1     
   41   19   40 1     
   42   19   41 1     
   43    5   42 1     
   44    9   43 1     
   45   17   44 1     
@<TRIPOS>SUBSTRUCTURE
      1 S1             1
@<TRIPOS>SET
LONE_PAIRS      STATIC     ATOMS    <user>   **** ""
5 42 7 8 43 44
DONOR_HYDROGENS      STATIC     ATOMS    <user>   **** ""
1 28
ATOM$BLUE        STATIC     ATOMS    COLORGROUP SYSTEM
5 42 7 8 43 44
ATOM$RED        STATIC     ATOMS    COLORGROUP SYSTEM
1 28
