AV-unprocessed.smi:601|AV-procd|sdf|3033|dock6
  -GOLD-   2262023543D 1   1.00000     0.00000
 Structure written by MMmdl.
 49 50  0  0  0  0  0  0  0  0  2 V2000
  149.2668  134.4554  154.6504 C   0  0  0  0  0  0  0  0  0  0  0  0
  149.9114  134.1282  156.0041 C   0  0  0  0  0  0  0  0  0  0  0  0
  149.8738  135.2944  157.0044 C   0  0  0  0  0  0  0  0  0  0  0  0
  148.5136  135.4604  157.7100 C   0  0  0  0  0  0  0  0  0  0  0  0
  148.5479  136.5240  158.7253 N   0  0  0  0  0  0  0  0  0  0  0  0
  147.9558  136.3517  159.9370 C   0  0  0  0  0  0  0  0  0  0  0  0
  148.0526  137.1961  160.8307 O   0  0  0  0  0  0  0  0  0  0  0  0
  147.0990  135.0843  160.1948 C   0  0  2  0  0  0  0  0  0  0  0  0
  145.6783  135.3617  160.7046 C   0  0  0  0  0  0  0  0  0  0  0  0
  145.8275  135.4669  162.2177 C   0  0  0  0  0  0  0  0  0  0  0  0
  147.2191  134.8943  162.5021 C   0  0  0  0  0  0  0  0  0  0  0  0
  147.6445  134.3270  161.2686 O   0  0  0  0  0  0  0  0  0  0  0  0
  149.2717  137.6860  158.4005 C   0  0  0  0  0  0  0  0  0  0  0  0
  148.6912  138.7421  157.7719 C   0  0  0  0  0  0  0  0  0  0  0  0
  147.3547  138.7005  157.4003 N   0  0  0  0  0  0  0  0  0  0  0  0
  149.4551  139.9054  157.4865 N   0  0  0  0  0  0  0  0  0  0  0  0
  148.8142  141.0291  156.7706 C   0  0  0  0  0  0  0  0  0  0  0  0
  149.5359  141.3383  155.4475 C   0  0  0  0  0  0  0  0  0  0  0  0
  149.1069  140.4012  154.3139 C   0  0  0  0  0  0  0  0  0  0  0  0
  150.7607  139.9999  157.8863 C   0  0  0  0  0  0  0  0  0  0  0  0
  151.3868  141.0368  157.6614 O   0  0  0  0  0  0  0  0  0  0  0  0
  151.3353  138.9426  158.5282 N   0  5  0  0  0  0  0  0  0  0  0  0
  150.6765  137.7882  158.8128 C   0  0  0  0  0  0  0  0  0  0  0  0
  151.2188  136.8531  159.4025 O   0  0  0  0  0  0  0  0  0  0  0  0
  149.3826  133.6220  153.9573 H   0  0  0  0  0  0  0  0  0  0  0  0
  149.7297  135.3314  154.1953 H   0  0  0  0  0  0  0  0  0  0  0  0
  148.1996  134.6524  154.7498 H   0  0  0  0  0  0  0  0  0  0  0  0
  149.4337  133.2498  156.4395 H   0  0  0  0  0  0  0  0  0  0  0  0
  150.9520  133.8516  155.8319 H   0  0  0  0  0  0  0  0  0  0  0  0
  150.6410  135.1226  157.7600 H   0  0  0  0  0  0  0  0  0  0  0  0
  150.1550  136.2173  156.4961 H   0  0  0  0  0  0  0  0  0  0  0  0
  147.7244  135.6680  156.9862 H   0  0  0  0  0  0  0  0  0  0  0  0
  148.2374  134.5133  158.1764 H   0  0  0  0  0  0  0  0  0  0  0  0
  147.0534  134.4793  159.2890 H   0  0  0  0  0  0  0  0  0  0  0  0
  145.2189  136.2473  160.2637 H   0  0  0  0  0  0  0  0  0  0  0  0
  145.0376  134.5136  160.4603 H   0  0  0  0  0  0  0  0  0  0  0  0
  145.7646  136.5026  162.5532 H   0  0  0  0  0  0  0  0  0  0  0  0
  145.0461  134.9015  162.7262 H   0  0  0  0  0  0  0  0  0  0  0  0
  147.9105  135.6849  162.7973 H   0  0  0  0  0  0  0  0  0  0  0  0
  147.2088  134.1430  163.2914 H   0  0  0  0  0  0  0  0  0  0  0  0
  146.7766  137.8930  157.5830 H   0  0  0  0  0  0  0  0  0  0  0  0
  146.8877  139.5081  157.0140 H   0  0  0  0  0  0  0  0  0  0  0  0
  147.7624  140.8186  156.5702 H   0  0  0  0  0  0  0  0  0  0  0  0
  148.7777  141.9212  157.3957 H   0  0  0  0  0  0  0  0  0  0  0  0
  149.3417  142.3698  155.1519 H   0  0  0  0  0  0  0  0  0  0  0  0
  150.6141  141.2578  155.5906 H   0  0  0  0  0  0  0  0  0  0  0  0
  149.6410  140.6346  153.3927 H   0  0  0  0  0  0  0  0  0  0  0  0
  148.0391  140.4920  154.1126 H   0  0  0  0  0  0  0  0  0  0  0  0
  149.3144  139.3605  154.5643 H   0  0  0  0  0  0  0  0  0  0  0  0
  1  2  1  0  0  0  0
  1 25  1  0  0  0  0
  1 26  1  0  0  0  0
  1 27  1  0  0  0  0
  2  3  1  0  0  0  0
  2 28  1  0  0  0  0
  2 29  1  0  0  0  0
  3  4  1  0  0  0  0
  3 30  1  0  0  0  0
  3 31  1  0  0  0  0
  4  5  1  0  0  0  0
  4 32  1  0  0  0  0
  4 33  1  0  0  0  0
  5  6  1  0  0  0  0
  5 13  1  0  0  0  0
  6  7  2  0  0  0  0
  6  8  1  0  0  0  0
  8 12  1  0  0  0  0
  8  9  1  0  0  0  0
  8 34  1  0  0  0  0
  9 10  1  0  0  0  0
  9 35  1  0  0  0  0
  9 36  1  0  0  0  0
 10 11  1  0  0  0  0
 10 37  1  0  0  0  0
 10 38  1  0  0  0  0
 11 12  1  0  0  0  0
 11 39  1  0  0  0  0
 11 40  1  0  0  0  0
 13 23  1  0  0  0  0
 13 14  2  0  0  0  0
 14 15  1  0  0  0  0
 14 16  1  0  0  0  0
 15 41  1  0  0  0  0
 15 42  1  0  0  0  0
 16 17  1  0  0  0  0
 16 20  1  0  0  0  0
 17 18  1  0  0  0  0
 17 43  1  0  0  0  0
 17 44  1  0  0  0  0
 18 19  1  0  0  0  0
 18 45  1  0  0  0  0
 18 46  1  0  0  0  0
 19 47  1  0  0  0  0
 19 48  1  0  0  0  0
 19 49  1  0  0  0  0
 20 21  2  0  0  0  0
 20 22  1  0  0  0  0
 22 23  1  0  0  0  0
 23 24  2  0  0  0  0
M  CHG  1  22  -1
M  END
> <s_m_source_file>
AV-unprocessed.smi

> <i_m_source_file_index>
601

> <i_lp_mmshare_version>
43012

> <i_f3d_flags>
0

> <s_epik_input>
TzFbQ0gyXVtDSDJdW0NIMl1bQ0BIXTFDKD1PKU4oW0NIMl1bQ0gyXVtDSDJdW0NIM10pYzJjKFtOSDJdKW4oW0NIMl1bQ0gyXVtDSDNdKWMoPU8pW25IXWMyPU8=

> <s_epik_cmdline>
J2VwaWtfcHl0aG9uJywgJy1waCcsICc3LjAnLCAnLXRuJywgJzgnLCAnLW1hJywgJzIwMCcsICctbWV0YWxfYmluZGluZycsICctaW1hZScsICc8aW5maWxlLm1hZT4nLCAnLW9tYWUnLCAnPG91dGZpbGUubWFlPic=

> <r_lp_tautomer_probability>
1

> <r_epik_Ionization_Penalty>
5.90608

> <r_epik_Ionization_Penalty_Charging>
4.55687e-07

> <r_epik_Ionization_Penalty_Neutral>
5.90608

> <r_epik_State_Penalty>
5.90604

> <r_epik_Charging_Adjusted_Penalty>
5.90604

> <i_epik_Tot_Q>
-1

> <i_epik_Tot_abs_Q>
1

> <r_epik_Metal_State_Penalty>
1.84043

> <b_epik_Metal_Only>
1

> <s_lp_Force_Field>
OPLS_2005

> <r_lp_Energy>
51.8523

> <b_lp_Chiralities_Consistent>
1

> <s_lp_Variant>
AV-unprocessed.smi:601-3

> <Gold.Version>
5.8.1

> <Gold.Id.Protein>
6NUR|6NUR_protein|mol2

> <Gold.PLP.Fitness>
39.2001

> <Gold.PLP.PLP>
-33.3407

> <Gold.PLP.part.hbond>
-3.0000

> <Gold.PLP.part.metal>
0.0000

> <Gold.PLP.part.buried>
-5.5050

> <Gold.PLP.part.nonpolar>
-24.9155

> <Gold.PLP.part.repulsive>
0.0640

> <Gold.PLP.ligand.clash>
0.0000

> <Gold.PLP.ligand.torsion>
2.0255

> <Gold.PLP.Chemscore.Hbond>
2.5196

> <Gold.PLP.Chemscore.CHOScore>
0.0000

> <Gold.PLP.Chemscore.Metal>
0.0000

> <Gold.Chemscore.Hbonds>
donor molecule, donor type, donor heavy atom, donor atom, acceptor molecule, acceptor atom, score
      P1  H  6896  6908       L1    24  1.00
      P1  H  6931  6943       L1     7  0.88
      P1  H  6934  6947       L1     7  0.72

> <Gold.PLP.Chemscore.Internal.Correction>
2.3515

> <Gold.Rescore>
     Score         DG    S(hbond)    S(metal)    S(lipo)     H(rot)  DE(clash)    DE(int)     intcor
     13.13     -16.39       2.63        0.00      60.24       1.92       0.01       3.26       ----

> <Gold.Chemscore.Fitness>
13.1290

> <Gold.Chemscore.DG>
-16.3938

> <Gold.Chemscore.ZeroCoef>
-5.4800

> <Gold.Chemscore.Hbond>
2.6290

> <Gold.Chemscore.Metal>
0.0000

> <Gold.Chemscore.Lipo>
60.2424

> <Gold.Chemscore.Internal_Hbond>
0.0000

> <Gold.Chemscore.DEClash>
0.0089

> <Gold.Chemscore.DEInternal>
3.2559

> <Gold.Chemscore.Rot>
1.9201

> <Gold.Chemscore.Internal.Correction>
   9.000000E+99

> <Gold.Chemscore.Hbonds>
donor molecule, donor type, donor heavy atom, donor atom, acceptor molecule, acceptor atom, score
      P1  H  6896  6908       L1    24  0.99
      P1  H  6931  6943       L1     7  0.87
      P1  H  6934  6947       L1     7  0.68

> <Gold.Chemscore.Hbond.Weighted>
-8.7809

> <Gold.Chemscore.Metal.Weighted>
-0.0000

> <Gold.Chemscore.Lipo.Weighted>
-7.0484

> <Gold.Chemscore.Internal_Hbond.Weighted>
0.0000

> <Gold.Chemscore.DEClash.Weighted>
0.0089

> <Gold.Chemscore.DEInternal.Weighted>
3.2559

> <Gold.Chemscore.Rot.Weighted>
4.9154

> <Gold.Chemscore.Internal.Correction.Weighted>
   9.000000E+99

> <Gold.Protein.RotatedTorsions>
[ 6907 6896 6895 6894 ] final -144.85 input  -60.11 | X-H torsion
[ 7974 7965 7964 7962 ] final  139.81 input  175.53 | X-H torsion
[ 8008 7997 7996 7995 ] final -109.17 input   59.86 | X-H torsion
[ 10167 10162 10161 10158 ] final  169.57 input  -65.29 | X-H torsion
[ 10718 10713 10712 10709 ] final   53.51 input   66.30 | X-H torsion
[ 10763 10752 10751 10750 ] final -151.90 input  -60.55 | X-H torsion
[ 11005 11000 10999 10996 ] final -114.25 input  -57.11 | X-H torsion

> <Gold.Protein.ActiveResidues>
 VAL166  LYS551  ARG553  GLY616  TRP617  ASP618  TYR619  PRO620  LYS621  CYS622 
 ASP623  PHE694  ASN695  SER759  ASP760  ASP761  ALA762  ILE779  LEU786  VAL792 
 PHE793  MET794  SER795  GLU796  ALA797  LYS798  CYS799  TRP800  GLU811  SER814 

> <Gold.Protein.RotatedAtoms>
  151.1197  133.5113  159.2602 H   0  0  0  0  0  0  0  0  0  0  0  0  # atno 6907 bound_to 6896
  151.1875  135.0387  159.8828 H   0  0  0  0  0  0  0  0  0  0  0  0  # atno 6908 bound_to 6896
  152.5455  134.1042  159.8384 H   0  0  0  0  0  0  0  0  0  0  0  0  # atno 6909 bound_to 6896
  144.9244  139.5126  143.5648 H   0  0  0  0  0  0  0  0  0  0  0  0  # atno 7974 bound_to 7965
  154.9553  140.0400  157.2164 H   0  0  0  0  0  0  0  0  0  0  0  0  # atno 8008 bound_to 7997
  154.7940  140.2840  155.5949 H   0  0  0  0  0  0  0  0  0  0  0  0  # atno 8009 bound_to 7997
  156.2953  140.2568  156.2793 H   0  0  0  0  0  0  0  0  0  0  0  0  # atno 8010 bound_to 7997
  139.4996  144.3691  151.9743 H   0  0  0  0  0  0  0  0  0  0  0  0  # atno 10167 bound_to 10162
  157.5173  130.8541  149.8512 H   0  0  0  0  0  0  0  0  0  0  0  0  # atno 10718 bound_to 10713
  154.8028  135.3249  154.7506 H   0  0  0  0  0  0  0  0  0  0  0  0  # atno 10763 bound_to 10752
  153.8171  135.6891  153.4837 H   0  0  0  0  0  0  0  0  0  0  0  0  # atno 10764 bound_to 10752
  153.1755  135.4606  154.9903 H   0  0  0  0  0  0  0  0  0  0  0  0  # atno 10765 bound_to 10752
  141.0563  133.9607  157.2747 H   0  0  0  0  0  0  0  0  0  0  0  0  # atno 11005 bound_to 11000
  146.3219  139.8148  142.8938 LP  0  0  0  0  0  0  0  0  0  0  0  0  # atno 17320 bound_to 7965
  145.3243  141.0251  143.3483 LP  0  0  0  0  0  0  0  0  0  0  0  0  # atno 17321 bound_to 7965
  140.3127  144.3519  150.6029 LP  0  0  0  0  0  0  0  0  0  0  0  0  # atno 17342 bound_to 10162
  140.5785  143.2174  151.7471 LP  0  0  0  0  0  0  0  0  0  0  0  0  # atno 17343 bound_to 10162
  156.0329  130.3759  150.1638 LP  0  0  0  0  0  0  0  0  0  0  0  0  # atno 17370 bound_to 10713
  156.9827  130.9869  151.3433 LP  0  0  0  0  0  0  0  0  0  0  0  0  # atno 17371 bound_to 10713
  139.9393  135.0193  156.8657 LP  0  0  0  0  0  0  0  0  0  0  0  0  # atno 17394 bound_to 11000
  140.5957  134.0219  155.7517 LP  0  0  0  0  0  0  0  0  0  0  0  0  # atno 17395 bound_to 11000

$$$$
