AV-unprocessed.smi:2822|AV-procd|sdf|10867|dock8
  -GOLD-   2272015313D 1   1.00000     0.00000
 Structure written by MMmdl.
 41 43  0  0  0  0  0  0  0  0  3 V2000
  152.7806  140.1428  156.4842 Cl  0  0  0  0  0  0  0  0  0  0  0  0
  152.3228  141.6350  157.2277 C   0  0  0  0  0  0  0  0  0  0  0  0
  151.4181  142.4874  156.5616 C   0  0  0  0  0  0  0  0  0  0  0  0
  151.0498  143.6561  157.1276 N   0  3  0  0  0  0  0  0  0  0  0  0
  151.5126  144.0624  158.3285 C   0  0  0  0  0  0  0  0  0  0  0  0
  152.4194  143.2535  159.0433 C   0  0  0  0  0  0  0  0  0  0  0  0
  152.8382  142.0168  158.4912 C   0  0  0  0  0  0  0  0  0  0  0  0
  153.7421  141.1674  159.1483 N   0  0  0  0  0  0  0  0  0  0  0  0
  154.4294  141.5866  160.3607 C   0  0  0  0  0  0  0  0  0  0  0  0
  154.4664  140.4617  161.4053 C   0  0  1  0  0  0  0  0  0  0  0  0
  154.8365  139.1074  160.7724 C   0  0  0  0  0  0  0  0  0  0  0  0
  154.9347  138.0552  161.8108 N   0  3  1  0  0  0  0  0  0  0  0  0
  155.2518  136.7219  161.2390 C   0  0  0  0  0  0  0  0  0  0  0  0
  155.2532  135.6380  162.3292 C   0  0  0  0  0  0  0  0  0  0  0  0
  156.2261  136.0002  163.4585 C   0  0  0  0  0  0  0  0  0  0  0  0
  155.8946  137.3925  164.0120 C   0  0  0  0  0  0  0  0  0  0  0  0
  155.8788  138.4511  162.8912 C   0  0  2  0  0  0  0  0  0  0  0  0
  155.5001  139.8415  163.4380 C   0  0  0  0  0  0  0  0  0  0  0  0
  155.4571  140.7853  162.3752 O   0  0  0  0  0  0  0  0  0  0  0  0
  150.9808  142.2701  155.5981 H   0  0  0  0  0  0  0  0  0  0  0  0
  151.1470  145.0165  158.6796 H   0  0  0  0  0  0  0  0  0  0  0  0
  152.7794  143.5974  160.0015 H   0  0  0  0  0  0  0  0  0  0  0  0
  153.7667  140.1892  158.8950 H   0  0  0  0  0  0  0  0  0  0  0  0
  155.4499  141.8691  160.0991 H   0  0  0  0  0  0  0  0  0  0  0  0
  153.9423  142.4700  160.7756 H   0  0  0  0  0  0  0  0  0  0  0  0
  153.4883  140.3842  161.8848 H   0  0  0  0  0  0  0  0  0  0  0  0
  154.0824  138.8223  160.0376 H   0  0  0  0  0  0  0  0  0  0  0  0
  155.7869  139.1864  160.2419 H   0  0  0  0  0  0  0  0  0  0  0  0
  154.5172  136.4682  160.4737 H   0  0  0  0  0  0  0  0  0  0  0  0
  156.2245  136.7574  160.7460 H   0  0  0  0  0  0  0  0  0  0  0  0
  154.2468  135.5225  162.7341 H   0  0  0  0  0  0  0  0  0  0  0  0
  155.5258  134.6746  161.8972 H   0  0  0  0  0  0  0  0  0  0  0  0
  156.1750  135.2560  164.2540 H   0  0  0  0  0  0  0  0  0  0  0  0
  157.2500  135.9859  163.0825 H   0  0  0  0  0  0  0  0  0  0  0  0
  154.9234  137.3638  164.5081 H   0  0  0  0  0  0  0  0  0  0  0  0
  156.6231  137.6666  164.7761 H   0  0  0  0  0  0  0  0  0  0  0  0
  156.8789  138.5152  162.4583 H   0  0  0  0  0  0  0  0  0  0  0  0
  154.5379  139.8147  163.9524 H   0  0  0  0  0  0  0  0  0  0  0  0
  156.2398  140.1727  164.1674 H   0  0  0  0  0  0  0  0  0  0  0  0
  154.0218  137.9796  162.2364 H   0  0  0  0  0  0  0  0  0  0  0  0
  150.3945  144.2568  156.6266 H   0  0  0  0  0  0  0  0  0  0  0  0
  1  2  1  0  0  0  0
  2  7  1  0  0  0  0
  2  3  2  0  0  0  0
  3  4  1  0  0  0  0
  3 20  1  0  0  0  0
  4  5  2  0  0  0  0
  4 41  1  0  0  0  0
  5  6  1  0  0  0  0
  5 21  1  0  0  0  0
  6  7  2  0  0  0  0
  6 22  1  0  0  0  0
  7  8  1  0  0  0  0
  8  9  1  0  0  0  0
  8 23  1  0  0  0  0
  9 10  1  0  0  0  0
  9 24  1  0  0  0  0
  9 25  1  0  0  0  0
 10 19  1  0  0  0  0
 10 11  1  0  0  0  0
 10 26  1  0  0  0  0
 11 12  1  0  0  0  0
 11 27  1  0  0  0  0
 11 28  1  0  0  0  0
 12 17  1  0  0  0  0
 12 13  1  0  0  0  0
 12 40  1  0  0  0  0
 13 14  1  0  0  0  0
 13 29  1  0  0  0  0
 13 30  1  0  0  0  0
 14 15  1  0  0  0  0
 14 31  1  0  0  0  0
 14 32  1  0  0  0  0
 15 16  1  0  0  0  0
 15 33  1  0  0  0  0
 15 34  1  0  0  0  0
 16 17  1  0  0  0  0
 16 35  1  0  0  0  0
 16 36  1  0  0  0  0
 17 18  1  0  0  0  0
 17 37  1  0  0  0  0
 18 19  1  0  0  0  0
 18 38  1  0  0  0  0
 18 39  1  0  0  0  0
M  CHG  1   4   1
M  CHG  1  12   1
M  END
> <s_m_source_file>
AV-unprocessed.smi

> <i_m_source_file_index>
2822

> <i_lp_mmshare_version>
43012

> <i_f3d_flags>
0

> <s_epik_input>
Q2xjMVtjSF1uW2NIXVtjSF1jMVtOSF1bQ0gyXVtDQEhdKFtDSDJdMilPW0NIMl1bQ0BASF0oTjIzKVtDSDJdW0NIMl1bQ0gyXVtDSDJdMw==

> <s_epik_cmdline>
J2VwaWtfcHl0aG9uJywgJy1waCcsICc3LjAnLCAnLXRuJywgJzgnLCAnLW1hJywgJzIwMCcsICctbWV0YWxfYmluZGluZycsICctaW1hZScsICc8aW5maWxlLm1hZT4nLCAnLW9tYWUnLCAnPG91dGZpbGUubWFlPic=

> <r_lp_tautomer_probability>
1

> <r_epik_Ionization_Penalty>
0.254999

> <r_epik_Ionization_Penalty_Charging>
0.254956

> <r_epik_Ionization_Penalty_Neutral>
4.33524e-05

> <r_epik_State_Penalty>
0.230978

> <r_epik_Charging_Adjusted_Penalty>
0.485934

> <i_epik_Tot_Q>
2

> <i_epik_Tot_abs_Q>
2

> <r_epik_Metal_State_Penalty>
3.47007

> <b_epik_Metal_Only>
0

> <s_lp_Force_Field>
OPLS_2005

> <r_lp_Energy>
36.8988

> <b_lp_Chiralities_Consistent>
1

> <s_lp_Variant>
AV-unprocessed.smi:2822-8

> <Gold.Version>
5.8.1

> <Gold.Id.Protein>
6NUR|6NUR_protein|mol2

> <Gold.PLP.Fitness>
45.4557

> <Gold.PLP.PLP>
-40.0206

> <Gold.PLP.part.hbond>
-1.8944

> <Gold.PLP.part.metal>
0.0000

> <Gold.PLP.part.buried>
-4.4739

> <Gold.PLP.part.nonpolar>
-34.3913

> <Gold.PLP.part.repulsive>
0.0915

> <Gold.PLP.ligand.clash>
0.0000

> <Gold.PLP.ligand.torsion>
0.2587

> <Gold.PLP.Chemscore.Hbond>
1.9840

> <Gold.PLP.Chemscore.CHOScore>
0.0000

> <Gold.PLP.Chemscore.Metal>
0.0000

> <Gold.Chemscore.Hbonds>
donor molecule, donor type, donor heavy atom, donor atom, acceptor molecule, acceptor atom, score
      L1  H     4    41       P1  8028  2.00

> <Gold.PLP.Chemscore.Internal.Correction>
0.0005

> <Gold.Rescore>
     Score         DG    S(hbond)    S(metal)    S(lipo)     H(rot)  DE(clash)    DE(int)     intcor
     18.26     -20.00       0.96        0.00     122.96       1.20       1.42       0.32       ----

> <Gold.Chemscore.Fitness>
18.2570

> <Gold.Chemscore.DG>
-20.0008

> <Gold.Chemscore.ZeroCoef>
-5.4800

> <Gold.Chemscore.Hbond>
0.9572

> <Gold.Chemscore.Metal>
0.0000

> <Gold.Chemscore.Lipo>
122.9574

> <Gold.Chemscore.Internal_Hbond>
0.0000

> <Gold.Chemscore.DEClash>
1.4221

> <Gold.Chemscore.DEInternal>
0.3217

> <Gold.Chemscore.Rot>
1.1962

> <Gold.Chemscore.Internal.Correction>
   9.000000E+99

> <Gold.Chemscore.Hbonds>
donor molecule, donor type, donor heavy atom, donor atom, acceptor molecule, acceptor atom, score
      L1  H     4    41       P1  8028  0.99

> <Gold.Chemscore.Hbond.Weighted>
-3.1970

> <Gold.Chemscore.Metal.Weighted>
-0.0000

> <Gold.Chemscore.Lipo.Weighted>
-14.3860

> <Gold.Chemscore.Internal_Hbond.Weighted>
0.0000

> <Gold.Chemscore.DEClash.Weighted>
1.4221

> <Gold.Chemscore.DEInternal.Weighted>
0.3217

> <Gold.Chemscore.Rot.Weighted>
3.0623

> <Gold.Chemscore.Internal.Correction.Weighted>
   9.000000E+99

> <Gold.Protein.RotatedTorsions>
[ 6907 6896 6895 6894 ] final  -16.42 input  -60.11 | X-H torsion
[ 7974 7965 7964 7962 ] final   17.64 input  175.53 | X-H torsion
[ 8008 7997 7996 7995 ] final  -93.45 input   59.86 | X-H torsion
[ 10167 10162 10161 10158 ] final  173.80 input  -65.29 | X-H torsion
[ 10718 10713 10712 10709 ] final  -14.10 input   66.30 | X-H torsion
[ 10763 10752 10751 10750 ] final  -66.82 input  -60.55 | X-H torsion
[ 11005 11000 10999 10996 ] final   67.76 input  -57.11 | X-H torsion

> <Gold.Protein.ActiveResidues>
 VAL166  LYS551  ARG553  GLY616  TRP617  ASP618  TYR619  PRO620  LYS621  CYS622 
 ASP623  PHE694  ASN695  SER759  ASP760  ASP761  ALA762  ILE779  LEU786  VAL792 
 PHE793  MET794  SER795  GLU796  ALA797  LYS798  CYS799  TRP800  GLU811  SER814 

> <Gold.Protein.RotatedAtoms>
  151.3088  135.0789  159.9264 H   0  0  0  0  0  0  0  0  0  0  0  0  # atno 6907 bound_to 6896
  152.5282  133.9757  159.7793 H   0  0  0  0  0  0  0  0  0  0  0  0  # atno 6908 bound_to 6896
  151.0057  133.5962  159.2719 H   0  0  0  0  0  0  0  0  0  0  0  0  # atno 6909 bound_to 6896
  146.2212  139.8573  142.8611 H   0  0  0  0  0  0  0  0  0  0  0  0  # atno 7974 bound_to 7965
  154.7358  140.0499  157.0767 H   0  0  0  0  0  0  0  0  0  0  0  0  # atno 8008 bound_to 7997
  155.0242  140.3150  155.4763 H   0  0  0  0  0  0  0  0  0  0  0  0  # atno 8009 bound_to 7997
  156.2852  140.2161  156.5361 H   0  0  0  0  0  0  0  0  0  0  0  0  # atno 8010 bound_to 7997
  139.5120  144.3219  152.0194 H   0  0  0  0  0  0  0  0  0  0  0  0  # atno 10167 bound_to 10162
  156.6207  130.4875  149.6165 H   0  0  0  0  0  0  0  0  0  0  0  0  # atno 10718 bound_to 10713
  154.3654  135.6107  153.5712 H   0  0  0  0  0  0  0  0  0  0  0  0  # atno 10763 bound_to 10752
  152.9792  135.5825  154.4584 H   0  0  0  0  0  0  0  0  0  0  0  0  # atno 10764 bound_to 10752
  154.4329  135.2848  155.1878 H   0  0  0  0  0  0  0  0  0  0  0  0  # atno 10765 bound_to 10752
  139.9751  134.6835  156.0369 H   0  0  0  0  0  0  0  0  0  0  0  0  # atno 11005 bound_to 11000
  145.2740  141.0118  143.3755 LP  0  0  0  0  0  0  0  0  0  0  0  0  # atno 17320 bound_to 7965
  144.9201  139.4422  143.6545 LP  0  0  0  0  0  0  0  0  0  0  0  0  # atno 17321 bound_to 7965
  140.2661  144.4015  150.6168 LP  0  0  0  0  0  0  0  0  0  0  0  0  # atno 17342 bound_to 10162
  140.6122  143.2170  151.6862 LP  0  0  0  0  0  0  0  0  0  0  0  0  # atno 17343 bound_to 10162
  156.2314  130.6796  151.1467 LP  0  0  0  0  0  0  0  0  0  0  0  0  # atno 17370 bound_to 10713
  157.7228  131.0670  150.6062 LP  0  0  0  0  0  0  0  0  0  0  0  0  # atno 17371 bound_to 10713
  141.1429  133.6561  156.3782 LP  0  0  0  0  0  0  0  0  0  0  0  0  # atno 17394 bound_to 11000
  140.5211  134.6303  157.5318 LP  0  0  0  0  0  0  0  0  0  0  0  0  # atno 17395 bound_to 11000

$$$$
