AV-unprocessed.smi:793|AV-procd|sdf|3755|dock7
  -GOLD-   22720 1183D 1   1.00000     0.00000
 Structure written by MMmdl.
 38 39  0  0  0  0  0  0  0  0  2 V2000
  152.0916  137.4742  159.4409 C   0  0  0  0  0  0  0  0  0  0  0  0
  151.4755  137.8982  158.1017 C   0  0  0  0  0  0  0  0  0  0  0  0
  149.9421  138.0300  158.1679 C   0  0  1  0  0  0  0  0  0  0  0  0
  149.4831  138.4080  156.8707 O   0  0  0  0  0  0  0  0  0  0  0  0
  148.6225  139.5434  156.8101 C   0  0  0  0  0  0  0  0  0  0  0  0
  148.1354  139.7530  155.3724 C   0  0  0  0  0  0  0  0  0  0  0  0
  149.2720  140.4899  154.6515 C   0  0  0  0  0  0  0  0  0  0  0  0
  150.1713  141.0812  155.7476 C   0  0  0  0  0  0  0  0  0  0  0  0
  149.4692  140.7875  157.0767 C   0  0  0  0  0  0  0  0  0  0  0  0
  149.2789  136.7134  158.6075 C   0  0  0  0  0  0  0  0  0  0  0  0
  149.4945  135.6808  157.9725 O   0  0  0  0  0  0  0  0  0  0  0  0
  148.4882  136.7954  159.6930 N   0  0  0  0  0  0  0  0  0  0  0  0
  147.7448  135.7712  160.3435 C   0  0  0  0  0  0  0  0  0  0  0  0
  147.4878  134.5000  159.7709 C   0  0  0  0  0  0  0  0  0  0  0  0
  146.7693  133.5353  160.3850 N   0  0  0  0  0  0  0  0  0  0  0  0
  146.2653  133.8042  161.6075 C   0  0  0  0  0  0  0  0  0  0  0  0
  146.4423  135.0377  162.2626 C   0  0  0  0  0  0  0  0  0  0  0  0
  147.1909  136.0410  161.6176 C   0  0  0  0  0  0  0  0  0  0  0  0
  147.3693  137.2491  162.2334 O   0  5  0  0  0  0  0  0  0  0  0  0
  153.1751  137.3857  159.3592 H   0  0  0  0  0  0  0  0  0  0  0  0
  151.7023  136.5086  159.7645 H   0  0  0  0  0  0  0  0  0  0  0  0
  151.8758  138.2020  160.2235 H   0  0  0  0  0  0  0  0  0  0  0  0
  151.9183  138.8440  157.7863 H   0  0  0  0  0  0  0  0  0  0  0  0
  151.7501  137.1629  157.3440 H   0  0  0  0  0  0  0  0  0  0  0  0
  149.6959  138.8176  158.8834 H   0  0  0  0  0  0  0  0  0  0  0  0
  147.7978  139.4745  157.5218 H   0  0  0  0  0  0  0  0  0  0  0  0
  147.8589  138.8244  154.8731 H   0  0  0  0  0  0  0  0  0  0  0  0
  147.2489  140.3882  155.3856 H   0  0  0  0  0  0  0  0  0  0  0  0
  149.8450  139.7962  154.0349 H   0  0  0  0  0  0  0  0  0  0  0  0
  148.8783  141.2635  153.9915 H   0  0  0  0  0  0  0  0  0  0  0  0
  151.1429  140.5858  155.7279 H   0  0  0  0  0  0  0  0  0  0  0  0
  150.3460  142.1485  155.6088 H   0  0  0  0  0  0  0  0  0  0  0  0
  148.8146  141.6217  157.3326 H   0  0  0  0  0  0  0  0  0  0  0  0
  150.1683  140.6532  157.9029 H   0  0  0  0  0  0  0  0  0  0  0  0
  148.4671  137.6912  160.1592 H   0  0  0  0  0  0  0  0  0  0  0  0
  147.8397  134.2349  158.7864 H   0  0  0  0  0  0  0  0  0  0  0  0
  145.6973  133.0141  162.0755 H   0  0  0  0  0  0  0  0  0  0  0  0
  146.0115  135.2077  163.2385 H   0  0  0  0  0  0  0  0  0  0  0  0
  1  2  1  0  0  0  0
  1 20  1  0  0  0  0
  1 21  1  0  0  0  0
  1 22  1  0  0  0  0
  2  3  1  0  0  0  0
  2 23  1  0  0  0  0
  2 24  1  0  0  0  0
  3  4  1  0  0  0  0
  3 10  1  0  0  0  0
  3 25  1  0  0  0  0
  4  5  1  0  0  0  0
  5  9  1  0  0  0  0
  5  6  1  0  0  0  0
  5 26  1  0  0  0  0
  6  7  1  0  0  0  0
  6 27  1  0  0  0  0
  6 28  1  0  0  0  0
  7  8  1  0  0  0  0
  7 29  1  0  0  0  0
  7 30  1  0  0  0  0
  8  9  1  0  0  0  0
  8 31  1  0  0  0  0
  8 32  1  0  0  0  0
  9 33  1  0  0  0  0
  9 34  1  0  0  0  0
 10 11  2  0  0  0  0
 10 12  1  0  0  0  0
 12 35  1  0  0  0  0
 12 13  1  0  0  0  0
 13 18  1  0  0  0  0
 13 14  2  0  0  0  0
 14 36  1  0  0  0  0
 14 15  1  0  0  0  0
 15 16  2  0  0  0  0
 16 37  1  0  0  0  0
 16 17  1  0  0  0  0
 17 18  2  0  0  0  0
 17 38  1  0  0  0  0
 18 19  1  0  0  0  0
M  CHG  1  19  -1
M  END
> <s_m_source_file>
AV-unprocessed.smi

> <i_m_source_file_index>
793

> <i_lp_mmshare_version>
43012

> <i_f3d_flags>
0

> <s_epik_input>
W0NIMl0xW0NIMl1bQ0gyXVtDSDJdW0NIXTFPW0NAQEhdKFtDSDJdW0NIM10pQyg9TylbTkhdYzJbY0hdbltjSF1bY0hdYzJbT0hd

> <s_epik_cmdline>
J2VwaWtfcHl0aG9uJywgJy1waCcsICc3LjAnLCAnLXRuJywgJzgnLCAnLW1hJywgJzIwMCcsICctbWV0YWxfYmluZGluZycsICctaW1hZScsICc8aW5maWxlLm1hZT4nLCAnLW9tYWUnLCAnPG91dGZpbGUubWFlPic=

> <r_lp_tautomer_probability>
1

> <r_epik_Ionization_Penalty>
5.91611

> <r_epik_Ionization_Penalty_Charging>
1.01889

> <r_epik_Ionization_Penalty_Neutral>
4.89722

> <r_epik_State_Penalty>
4.89706

> <r_epik_Charging_Adjusted_Penalty>
5.91595

> <i_epik_Tot_Q>
-1

> <i_epik_Tot_abs_Q>
1

> <r_epik_Metal_State_Penalty>
1.05012

> <b_epik_Metal_Only>
1

> <s_lp_Force_Field>
OPLS_2005

> <r_lp_Energy>
29.623

> <b_lp_Chiralities_Consistent>
1

> <s_lp_Variant>
AV-unprocessed.smi:793-4

> <Gold.Version>
5.8.1

> <Gold.Id.Protein>
6NUR|6NUR_protein|mol2

> <Gold.PLP.Fitness>
39.1736

> <Gold.PLP.PLP>
-29.6520

> <Gold.PLP.part.hbond>
-3.0000

> <Gold.PLP.part.metal>
0.0000

> <Gold.PLP.part.buried>
-3.7472

> <Gold.PLP.part.nonpolar>
-22.7482

> <Gold.PLP.part.repulsive>
0.2282

> <Gold.PLP.ligand.clash>
0.0000

> <Gold.PLP.ligand.torsion>
0.8121

> <Gold.PLP.Chemscore.Hbond>
3.6960

> <Gold.PLP.Chemscore.CHOScore>
0.0000

> <Gold.PLP.Chemscore.Metal>
0.0000

> <Gold.Chemscore.Hbonds>
donor molecule, donor type, donor heavy atom, donor atom, acceptor molecule, acceptor atom, score
      P1  H  6896  6909       L1    11  0.30
      P1  H  6931  6943       L1    19  1.66
      P1  H  6934  6947       L1    19  0.75

> <Gold.PLP.Chemscore.Internal.Correction>
0.0577

> <Gold.Rescore>
     Score         DG    S(hbond)    S(metal)    S(lipo)     H(rot)  DE(clash)    DE(int)     intcor
     14.34     -16.38       1.99        0.00      68.93       1.49       0.01       2.03       ----

> <Gold.Chemscore.Fitness>
14.3411

> <Gold.Chemscore.DG>
-16.3832

> <Gold.Chemscore.ZeroCoef>
-5.4800

> <Gold.Chemscore.Hbond>
1.9942

> <Gold.Chemscore.Metal>
0.0000

> <Gold.Chemscore.Lipo>
68.9324

> <Gold.Chemscore.Internal_Hbond>
0.0000

> <Gold.Chemscore.DEClash>
0.0137

> <Gold.Chemscore.DEInternal>
2.0285

> <Gold.Chemscore.Rot>
1.4932

> <Gold.Chemscore.Internal.Correction>
   9.000000E+99

> <Gold.Chemscore.Hbonds>
donor molecule, donor type, donor heavy atom, donor atom, acceptor molecule, acceptor atom, score
      P1  H  6896  6909       L1    11  0.04
      P1  H  6931  6943       L1    19  0.78
      P1  H  6934  6947       L1    19  0.34

> <Gold.Chemscore.Hbond.Weighted>
-6.6608

> <Gold.Chemscore.Metal.Weighted>
-0.0000

> <Gold.Chemscore.Lipo.Weighted>
-8.0651

> <Gold.Chemscore.Internal_Hbond.Weighted>
0.0000

> <Gold.Chemscore.DEClash.Weighted>
0.0137

> <Gold.Chemscore.DEInternal.Weighted>
2.0285

> <Gold.Chemscore.Rot.Weighted>
3.8226

> <Gold.Chemscore.Internal.Correction.Weighted>
   9.000000E+99

> <Gold.Protein.RotatedTorsions>
[ 6907 6896 6895 6894 ] final   58.13 input  -60.11 | X-H torsion
[ 7974 7965 7964 7962 ] final  -16.54 input  175.53 | X-H torsion
[ 8008 7997 7996 7995 ] final -150.95 input   59.86 | X-H torsion
[ 10167 10162 10161 10158 ] final   51.60 input  -65.29 | X-H torsion
[ 10718 10713 10712 10709 ] final  -69.11 input   66.30 | X-H torsion
[ 10763 10752 10751 10750 ] final -140.64 input  -60.55 | X-H torsion
[ 11005 11000 10999 10996 ] final   75.05 input  -57.11 | X-H torsion

> <Gold.Protein.ActiveResidues>
 VAL166  LYS551  ARG553  GLY616  TRP617  ASP618  TYR619  PRO620  LYS621  CYS622 
 ASP623  PHE694  ASN695  SER759  ASP760  ASP761  ALA762  ILE779  LEU786  VAL792 
 PHE793  MET794  SER795  GLU796  ALA797  LYS798  CYS799  TRP800  GLU811  SER814 

> <Gold.Protein.RotatedAtoms>
  152.3796  134.6611  160.0147 H   0  0  0  0  0  0  0  0  0  0  0  0  # atno 6907 bound_to 6896
  151.6879  133.3306  159.3243 H   0  0  0  0  0  0  0  0  0  0  0  0  # atno 6908 bound_to 6896
  150.7736  134.6660  159.6410 H   0  0  0  0  0  0  0  0  0  0  0  0  # atno 6909 bound_to 6896
  146.1983  140.3651  142.8433 H   0  0  0  0  0  0  0  0  0  0  0  0  # atno 7974 bound_to 7965
  155.6317  140.0692  157.2646 H   0  0  0  0  0  0  0  0  0  0  0  0  # atno 8008 bound_to 7997
  154.4204  140.1766  156.1528 H   0  0  0  0  0  0  0  0  0  0  0  0  # atno 8009 bound_to 7997
  155.9927  140.3343  155.6772 H   0  0  0  0  0  0  0  0  0  0  0  0  # atno 8010 bound_to 7997
  140.2602  144.3381  150.6320 H   0  0  0  0  0  0  0  0  0  0  0  0  # atno 10167 bound_to 10162
  156.0471  130.4307  150.2100 H   0  0  0  0  0  0  0  0  0  0  0  0  # atno 10718 bound_to 10713
  154.8572  135.3547  154.5740 H   0  0  0  0  0  0  0  0  0  0  0  0  # atno 10763 bound_to 10752
  153.6352  135.7000  153.5266 H   0  0  0  0  0  0  0  0  0  0  0  0  # atno 10764 bound_to 10752
  153.3016  135.4204  155.1217 H   0  0  0  0  0  0  0  0  0  0  0  0  # atno 10765 bound_to 10752
  139.9362  134.7485  156.1223 H   0  0  0  0  0  0  0  0  0  0  0  0  # atno 11005 bound_to 11000
  144.8627  140.7162  143.6097 LP  0  0  0  0  0  0  0  0  0  0  0  0  # atno 17320 bound_to 7965
  145.3571  139.1691  143.4403 LP  0  0  0  0  0  0  0  0  0  0  0  0  # atno 17321 bound_to 7965
  140.5972  143.2167  151.7142 LP  0  0  0  0  0  0  0  0  0  0  0  0  # atno 17342 bound_to 10162
  139.5019  144.3850  152.0338 LP  0  0  0  0  0  0  0  0  0  0  0  0  # atno 17343 bound_to 10162
  157.0188  130.9973  151.3345 LP  0  0  0  0  0  0  0  0  0  0  0  0  # atno 17370 bound_to 10713
  157.5359  130.8088  149.7971 LP  0  0  0  0  0  0  0  0  0  0  0  0  # atno 17371 bound_to 10713
  141.0976  133.6689  156.2681 LP  0  0  0  0  0  0  0  0  0  0  0  0  # atno 17394 bound_to 11000
  140.6070  134.5497  157.5527 LP  0  0  0  0  0  0  0  0  0  0  0  0  # atno 17395 bound_to 11000

$$$$
