AV-unprocessed.smi:2310|AV-procd|sdf|9257|dock3
  -GOLD-   2272012483D 1   1.00000     0.00000
 Structure written by MMmdl.
 46 47  0  0  0  0  0  0  0  0  2 V2000
  152.8082  142.4140  159.9573 C   0  0  0  0  0  0  0  0  0  0  0  0
  151.6478  142.2890  158.9591 C   0  0  0  0  0  0  0  0  0  0  0  0
  151.8244  143.1421  157.6865 C   0  0  2  0  0  0  0  0  0  0  0  0
  152.0680  144.6280  158.0099 C   0  0  0  0  0  0  0  0  0  0  0  0
  151.2070  145.1473  159.0842 C   0  0  0  0  0  0  0  0  0  0  0  0
  150.5302  145.5558  159.9288 N   0  0  0  0  0  0  0  0  0  0  0  0
  150.6544  143.0038  156.8216 N   0  0  0  0  0  0  0  0  0  0  0  0
  150.2854  141.8769  156.1963 C   0  0  0  0  0  0  0  0  0  0  0  0
  150.9204  140.8248  156.2631 O   0  0  0  0  0  0  0  0  0  0  0  0
  149.1579  142.0592  155.4873 N   0  0  0  0  0  0  0  0  0  0  0  0
  148.4544  141.1173  154.6843 C   0  0  0  0  0  0  0  0  0  0  0  0
  148.9420  139.8089  154.4357 C   0  0  0  0  0  0  0  0  0  0  0  0
  148.1877  138.9171  153.6478 C   0  0  0  0  0  0  0  0  0  0  0  0
  146.9445  139.3361  153.1239 C   0  0  0  0  0  0  0  0  0  0  0  0
  146.1165  138.5277  152.3325 N   0  0  0  0  0  0  0  0  0  0  0  0
  146.6758  138.1633  151.0416 C   0  0  0  0  0  0  0  0  0  0  0  0
  145.8371  136.9812  150.5474 C   0  0  0  0  0  0  0  0  0  0  0  0
  145.1776  136.4098  151.8083 C   0  0  0  0  0  0  0  0  0  0  0  0
  145.6997  137.2812  152.9530 C   0  0  0  0  0  0  0  0  0  0  0  0
  146.5069  140.5842  153.3944 N   0  3  0  0  0  0  0  0  0  0  0  0
  147.1928  141.4764  154.1435 C   0  0  0  0  0  0  0  0  0  0  0  0
  146.5352  142.8322  154.3422 C   0  0  0  0  0  0  0  0  0  0  0  0
  152.6073  141.8309  160.8562 H   0  0  0  0  0  0  0  0  0  0  0  0
  152.9554  143.4508  160.2610 H   0  0  0  0  0  0  0  0  0  0  0  0
  153.7454  142.0515  159.5348 H   0  0  0  0  0  0  0  0  0  0  0  0
  151.5193  141.2413  158.6845 H   0  0  0  0  0  0  0  0  0  0  0  0
  150.7289  142.5816  159.4676 H   0  0  0  0  0  0  0  0  0  0  0  0
  152.6972  142.7625  157.1515 H   0  0  0  0  0  0  0  0  0  0  0  0
  153.1007  144.7907  158.3194 H   0  0  0  0  0  0  0  0  0  0  0  0
  151.8988  145.2430  157.1256 H   0  0  0  0  0  0  0  0  0  0  0  0
  150.0769  143.8242  156.7074 H   0  0  0  0  0  0  0  0  0  0  0  0
  148.8002  143.0028  155.4601 H   0  0  0  0  0  0  0  0  0  0  0  0
  149.8773  139.4631  154.8476 H   0  0  0  0  0  0  0  0  0  0  0  0
  148.5634  137.9227  153.4563 H   0  0  0  0  0  0  0  0  0  0  0  0
  146.6348  139.0019  150.3458 H   0  0  0  0  0  0  0  0  0  0  0  0
  147.7196  137.8643  151.1468 H   0  0  0  0  0  0  0  0  0  0  0  0
  145.0711  137.3224  149.8497 H   0  0  0  0  0  0  0  0  0  0  0  0
  146.4516  136.2435  150.0305 H   0  0  0  0  0  0  0  0  0  0  0  0
  144.0932  136.4968  151.7307 H   0  0  0  0  0  0  0  0  0  0  0  0
  145.4155  135.3570  151.9625 H   0  0  0  0  0  0  0  0  0  0  0  0
  146.5438  136.7916  153.4401 H   0  0  0  0  0  0  0  0  0  0  0  0
  144.9313  137.4552  153.7068 H   0  0  0  0  0  0  0  0  0  0  0  0
  147.1319  143.5145  154.9462 H   0  0  0  0  0  0  0  0  0  0  0  0
  145.5703  142.7101  154.8349 H   0  0  0  0  0  0  0  0  0  0  0  0
  146.3639  143.3085  153.3764 H   0  0  0  0  0  0  0  0  0  0  0  0
  145.6052  140.8701  153.0120 H   0  0  0  0  0  0  0  0  0  0  0  0
  1  2  1  0  0  0  0
  1 23  1  0  0  0  0
  1 24  1  0  0  0  0
  1 25  1  0  0  0  0
  2  3  1  0  0  0  0
  2 26  1  0  0  0  0
  2 27  1  0  0  0  0
  3  4  1  0  0  0  0
  3  7  1  0  0  0  0
  3 28  1  0  0  0  0
  4  5  1  0  0  0  0
  4 29  1  0  0  0  0
  4 30  1  0  0  0  0
  5  6  3  0  0  0  0
  7  8  1  0  0  0  0
  7 31  1  0  0  0  0
  8  9  2  0  0  0  0
  8 10  1  0  0  0  0
 10 11  1  0  0  0  0
 10 32  1  0  0  0  0
 11 21  1  0  0  0  0
 11 12  2  0  0  0  0
 12 13  1  0  0  0  0
 12 33  1  0  0  0  0
 13 14  2  0  0  0  0
 13 34  1  0  0  0  0
 14 15  1  0  0  0  0
 14 20  1  0  0  0  0
 15 19  1  0  0  0  0
 15 16  1  0  0  0  0
 16 17  1  0  0  0  0
 16 35  1  0  0  0  0
 16 36  1  0  0  0  0
 17 18  1  0  0  0  0
 17 37  1  0  0  0  0
 17 38  1  0  0  0  0
 18 19  1  0  0  0  0
 18 39  1  0  0  0  0
 18 40  1  0  0  0  0
 19 41  1  0  0  0  0
 19 42  1  0  0  0  0
 20 21  2  0  0  0  0
 20 46  1  0  0  0  0
 21 22  1  0  0  0  0
 22 43  1  0  0  0  0
 22 44  1  0  0  0  0
 22 45  1  0  0  0  0
M  CHG  1  20   1
M  END
> <s_m_source_file>
AV-unprocessed.smi

> <i_m_source_file_index>
2310

> <i_lp_mmshare_version>
43012

> <i_f3d_flags>
0

> <s_epik_input>
TiNDW0NIMl1bQ0BASF0oW0NIMl1bQ0gzXSlbTkhdQyg9TylbTkhdYzFbY0hdW2NIXWMobmMxW0NIM10pTjJbQ0gyXVtDSDJdW0NIMl1bQ0gyXTI=

> <s_epik_cmdline>
J2VwaWtfcHl0aG9uJywgJy1waCcsICc3LjAnLCAnLXRuJywgJzgnLCAnLW1hJywgJzIwMCcsICctbWV0YWxfYmluZGluZycsICctaW1hZScsICc8aW5maWxlLm1hZT4nLCAnLW9tYWUnLCAnPG91dGZpbGUubWFlPic=

> <r_lp_tautomer_probability>
0.999994

> <r_epik_Ionization_Penalty>
0.577302

> <r_epik_Ionization_Penalty_Charging>
0.577278

> <r_epik_Ionization_Penalty_Neutral>
2.39253e-05

> <r_epik_State_Penalty>
0.589738

> <r_epik_Charging_Adjusted_Penalty>
1.16702

> <i_epik_Tot_Q>
1

> <i_epik_Tot_abs_Q>
1

> <r_epik_Metal_State_Penalty>
0.784556

> <b_epik_Metal_Only>
0

> <s_lp_Force_Field>
OPLS_2005

> <r_lp_Energy>
39.7138

> <b_lp_Chiralities_Consistent>
1

> <s_lp_Variant>
AV-unprocessed.smi:2310-3

> <Gold.Version>
5.8.1

> <Gold.Id.Protein>
6NUR|6NUR_protein|mol2

> <Gold.PLP.Fitness>
54.4950

> <Gold.PLP.PLP>
-43.2135

> <Gold.PLP.part.hbond>
-4.0000

> <Gold.PLP.part.metal>
0.0000

> <Gold.PLP.part.buried>
3.7239

> <Gold.PLP.part.nonpolar>
-44.3598

> <Gold.PLP.part.repulsive>
0.8123

> <Gold.PLP.ligand.clash>
0.0000

> <Gold.PLP.ligand.torsion>
0.2863

> <Gold.PLP.Chemscore.Hbond>
3.9280

> <Gold.PLP.Chemscore.CHOScore>
0.0000

> <Gold.PLP.Chemscore.Metal>
0.0000

> <Gold.Chemscore.Hbonds>
donor molecule, donor type, donor heavy atom, donor atom, acceptor molecule, acceptor atom, score
      L1  H     7    31       P1  8028  0.96
      L1  H    10    32       P1  8028  1.00
      L1  H    20    46       P1 10175  2.00

> <Gold.PLP.Chemscore.Internal.Correction>
0.0701

> <Gold.Rescore>
     Score         DG    S(hbond)    S(metal)    S(lipo)     H(rot)  DE(clash)    DE(int)     intcor
     17.60     -21.70       2.89        0.00      92.74       1.68       1.57       2.53       ----

> <Gold.Chemscore.Fitness>
17.5952

> <Gold.Chemscore.DG>
-21.6954

> <Gold.Chemscore.ZeroCoef>
-5.4800

> <Gold.Chemscore.Hbond>
2.8949

> <Gold.Chemscore.Metal>
0.0000

> <Gold.Chemscore.Lipo>
92.7437

> <Gold.Chemscore.Internal_Hbond>
0.0000

> <Gold.Chemscore.DEClash>
1.5706

> <Gold.Chemscore.DEInternal>
2.5296

> <Gold.Chemscore.Rot>
1.6815

> <Gold.Chemscore.Internal.Correction>
   9.000000E+99

> <Gold.Chemscore.Hbonds>
donor molecule, donor type, donor heavy atom, donor atom, acceptor molecule, acceptor atom, score
      L1  H     7    31       P1  8028  0.92
      L1  H    10    32       P1  8028  0.99
      L1  H    20    46       P1 10175  0.41

> <Gold.Chemscore.Hbond.Weighted>
-9.6689

> <Gold.Chemscore.Metal.Weighted>
-0.0000

> <Gold.Chemscore.Lipo.Weighted>
-10.8510

> <Gold.Chemscore.Internal_Hbond.Weighted>
0.0000

> <Gold.Chemscore.DEClash.Weighted>
1.5706

> <Gold.Chemscore.DEInternal.Weighted>
2.5296

> <Gold.Chemscore.Rot.Weighted>
4.3045

> <Gold.Chemscore.Internal.Correction.Weighted>
   9.000000E+99

> <Gold.Protein.RotatedTorsions>
[ 6907 6896 6895 6894 ] final -157.91 input  -60.11 | X-H torsion
[ 7974 7965 7964 7962 ] final  170.27 input  175.53 | X-H torsion
[ 8008 7997 7996 7995 ] final   37.71 input   59.86 | X-H torsion
[ 10167 10162 10161 10158 ] final   66.41 input  -65.29 | X-H torsion
[ 10718 10713 10712 10709 ] final   31.13 input   66.30 | X-H torsion
[ 10763 10752 10751 10750 ] final -114.57 input  -60.55 | X-H torsion
[ 11005 11000 10999 10996 ] final   35.43 input  -57.11 | X-H torsion

> <Gold.Protein.ActiveResidues>
 VAL166  LYS551  ARG553  GLY616  TRP617  ASP618  TYR619  PRO620  LYS621  CYS622 
 ASP623  PHE694  ASN695  SER759  ASP760  ASP761  ALA762  ILE779  LEU786  VAL792 
 PHE793  MET794  SER795  GLU796  ALA797  LYS798  CYS799  TRP800  GLU811  SER814 

> <Gold.Protein.RotatedAtoms>
  151.3100  133.4084  159.2645 H   0  0  0  0  0  0  0  0  0  0  0  0  # atno 6907 bound_to 6896
  151.0122  134.9406  159.8024 H   0  0  0  0  0  0  0  0  0  0  0  0  # atno 6908 bound_to 6896
  152.5303  134.3065  159.9150 H   0  0  0  0  0  0  0  0  0  0  0  0  # atno 6909 bound_to 6896
  144.7329  139.9178  143.6418 H   0  0  0  0  0  0  0  0  0  0  0  0  # atno 7974 bound_to 7965
  155.2082  140.3321  155.4333 H   0  0  0  0  0  0  0  0  0  0  0  0  # atno 8008 bound_to 7997
  156.2380  140.1881  156.7114 H   0  0  0  0  0  0  0  0  0  0  0  0  # atno 8009 bound_to 7997
  154.6095  140.0611  156.9461 H   0  0  0  0  0  0  0  0  0  0  0  0  # atno 8010 bound_to 7997
  140.1007  144.4906  150.7039 H   0  0  0  0  0  0  0  0  0  0  0  0  # atno 10167 bound_to 10162
  157.2685  130.7196  149.6491 H   0  0  0  0  0  0  0  0  0  0  0  0  # atno 10718 bound_to 10713
  154.8445  135.4413  154.1526 H   0  0  0  0  0  0  0  0  0  0  0  0  # atno 10763 bound_to 10752
  153.2683  135.6943  153.7513 H   0  0  0  0  0  0  0  0  0  0  0  0  # atno 10764 bound_to 10752
  153.6763  135.3410  155.3142 H   0  0  0  0  0  0  0  0  0  0  0  0  # atno 10765 bound_to 10752
  140.2428  134.3395  155.7919 H   0  0  0  0  0  0  0  0  0  0  0  0  # atno 11005 bound_to 11000
  146.0953  139.3944  143.0381 LP  0  0  0  0  0  0  0  0  0  0  0  0  # atno 17320 bound_to 7965
  145.7655  140.9918  143.1177 LP  0  0  0  0  0  0  0  0  0  0  0  0  # atno 17321 bound_to 7965
  140.6979  143.2415  151.4948 LP  0  0  0  0  0  0  0  0  0  0  0  0  # atno 17342 bound_to 10162
  139.5673  144.2012  152.1784 LP  0  0  0  0  0  0  0  0  0  0  0  0  # atno 17343 bound_to 10162
  155.9663  130.4375  150.5178 LP  0  0  0  0  0  0  0  0  0  0  0  0  # atno 17370 bound_to 10713
  157.3098  131.0661  151.2009 LP  0  0  0  0  0  0  0  0  0  0  0  0  # atno 17371 bound_to 10713
  141.2209  133.7308  156.8912 LP  0  0  0  0  0  0  0  0  0  0  0  0  # atno 17394 bound_to 11000
  140.1636  134.9148  157.2746 LP  0  0  0  0  0  0  0  0  0  0  0  0  # atno 17395 bound_to 11000

$$$$
