#       Name:                AV-unprocessed.smi:1867
#       Creating user name   scv26
#       Creation time:       Fri Mar 27 09:27:54 2020


#       File generated by GOLD software.
#

@<TRIPOS>MOLECULE
AV-unprocessed.smi:1867
    55    58     1
SMALL
NO_CHARGES


@<TRIPOS>ATOM
      1 ****        -0.9008   2.8474   0.4805 O.2            1 S1                 0.0000
      2 ****        -1.2505   1.6763   0.6040 C.2            1 S1                 0.0000
      3 ****        -0.4092   0.6362   0.7644 N.am           1 S1                 0.0000
      4 ****         1.0111   0.6347   0.7571 C.ar           1 S1                 0.0000
      5 ****         1.6739  -0.4636   1.3376 C.ar           1 S1                 0.0000
      6 ****         3.0807  -0.5030   1.3289 C.ar           1 S1                 0.0000
      7 ****         3.7938   0.5623   0.7304 C.ar           1 S1                 0.0000
      8 ****         5.2026   0.5637   0.6994 N.pl3          1 S1                 0.0000
      9 ****         5.9859  -0.2171   1.6475 C.3            1 S1                 0.0000
     10 ****         7.3293   0.5106   1.7765 C.3            1 S1                 0.0000
     11 ****         7.4137   1.3701   0.5151 C.3            1 S1                 0.0000
     12 ****         5.9533   1.7214   0.2381 C.3            1 S1                 0.0000
     13 ****         3.1568   1.6078   0.1514 N.ar           1 S1                 0.0000
     14 ****         1.8079   1.6427   0.1644 C.ar           1 S1                 0.0000
     15 ****        -2.5532   1.3388   0.5996 N.am           1 S1                 0.0000
     16 ****        -3.7248   2.2077   0.4488 C.3            1 S1                 0.0000
     17 ****        -4.9447   1.4631  -0.1278 C.3            1 S1                 0.0000
     18 ****        -6.1399   2.0035   0.6629 C.3            1 S1                 0.0000
     19 ****        -5.5659   2.2576   1.9886 N.4            1 S1                 1.0000
     20 ****        -6.3659   3.0161   2.9713 C.3            1 S1                 0.0000
     21 ****        -5.6311   2.9808   4.3285 C.3            1 S1                 0.0000
     22 ****        -4.1598   3.4393   4.2096 C.3            1 S1                 0.0000
     23 ****        -3.4160   2.6985   3.0770 C.3            1 S1                 0.0000
     24 ****        -4.2263   2.8327   1.7745 C.3            1 S1                 0.0000
     25 ****        -0.8396  -0.2575   0.9504 H              1 S1                 0.0000
     26 ****         1.1132  -1.2699   1.7879 H              1 S1                 0.0000
     27 ****         3.5897  -1.3465   1.7711 H              1 S1                 0.0000
     28 ****         5.4951  -0.2992   2.6178 H              1 S1                 0.0000
     29 ****         6.1265  -1.2214   1.2470 H              1 S1                 0.0000
     30 ****         7.3106   1.1558   2.6557 H              1 S1                 0.0000
     31 ****         8.1717  -0.1735   1.8822 H              1 S1                 0.0000
     32 ****         8.0460   2.2498   0.6374 H              1 S1                 0.0000
     33 ****         7.8140   0.7769  -0.3081 H              1 S1                 0.0000
     34 ****         5.7794   1.9196  -0.8200 H              1 S1                 0.0000
     35 ****         5.6542   2.6014   0.8093 H              1 S1                 0.0000
     36 ****         1.3758   2.4951  -0.3357 H              1 S1                 0.0000
     37 ****        -2.7525   0.3544   0.7045 H              1 S1                 0.0000
     38 ****        -3.4876   3.0162  -0.2451 H              1 S1                 0.0000
     39 ****        -5.0568   1.6077  -1.2029 H              1 S1                 0.0000
     40 ****        -4.8532   0.3902   0.0513 H              1 S1                 0.0000
     41 ****        -6.4979   2.9386   0.2288 H              1 S1                 0.0000
     42 ****        -6.9711   1.2990   0.7051 H              1 S1                 0.0000
     43 ****        -6.5071   4.0429   2.6304 H              1 S1                 0.0000
     44 ****        -7.3549   2.5667   3.0678 H              1 S1                 0.0000
     45 ****        -6.1583   3.5997   5.0552 H              1 S1                 0.0000
     46 ****        -5.6547   1.9631   4.7202 H              1 S1                 0.0000
     47 ****        -4.1345   4.5121   4.0135 H              1 S1                 0.0000
     48 ****        -3.6430   3.2895   5.1580 H              1 S1                 0.0000
     49 ****        -2.4192   3.1232   2.9579 H              1 S1                 0.0000
     50 ****        -3.2860   1.6474   3.3387 H              1 S1                 0.0000
     51 ****        -4.3575   3.8988   1.5753 H              1 S1                 0.0000
     52 ****        -5.4129   1.3440   2.3914 H              1 S1                 0.0000
     53 ****         0.0708   3.0833   0.4951 LP             1 S1                 0.0000
     54 ****        -1.5878   3.5649   0.3652 LP             1 S1                 0.0000
     55 ****         3.6788   2.3438  -0.2797 LP             1 S1                 0.0000
@<TRIPOS>BOND
    1    1    2 2     
    2    2    3 am    
    3    2   15 am    
    4    3    4 1     
    5    3   25 1     
    6    4   14 ar    
    7    4    5 ar    
    8    5    6 ar    
    9    5   26 1     
   10    6    7 ar    
   11    6   27 1     
   12    7    8 1     
   13    7   13 ar    
   14    8   12 1     
   15    8    9 1     
   16    9   10 1     
   17    9   28 1     
   18    9   29 1     
   19   10   11 1     
   20   10   30 1     
   21   10   31 1     
   22   11   12 1     
   23   11   32 1     
   24   11   33 1     
   25   12   34 1     
   26   12   35 1     
   27   13   14 ar    
   28   14   36 1     
   29   15   16 1     
   30   15   37 1     
   31   16   24 1     
   32   16   17 1     
   33   16   38 1     
   34   17   18 1     
   35   17   39 1     
   36   17   40 1     
   37   18   19 1     
   38   18   41 1     
   39   18   42 1     
   40   19   24 1     
   41   19   20 1     
   42   19   52 1     
   43   20   21 1     
   44   20   43 1     
   45   20   44 1     
   46   21   22 1     
   47   21   45 1     
   48   21   46 1     
   49   22   23 1     
   50   22   47 1     
   51   22   48 1     
   52   23   24 1     
   53   23   49 1     
   54   23   50 1     
   55   24   51 1     
   56    1   53 1     
   57    1   54 1     
   58   13   55 1     
@<TRIPOS>SUBSTRUCTURE
      1 S1             1
@<TRIPOS>SET
LONE_PAIRS      STATIC     ATOMS    <user>   **** ""
3 53 54 55
DONOR_HYDROGENS      STATIC     ATOMS    <user>   **** ""
3 25 37 52
ATOM$BLUE        STATIC     ATOMS    COLORGROUP SYSTEM
3 53 54 55
ATOM$RED        STATIC     ATOMS    COLORGROUP SYSTEM
3 25 37 52
