AV-unprocessed.smi:1835|AV-procd|sdf|7475|dock1
  -GOLD-   22720 9173D 1   1.00000     0.00000
 Structure written by MMmdl.
 42 43  0  0  0  0  0  0  0  0  2 V2000
  149.3565  132.1014  154.8745 C   0  0  0  0  0  0  0  0  0  0  0  0
  149.4098  133.4872  154.1855 C   0  0  2  0  0  0  0  0  0  0  0  0
  149.7790  134.5855  155.2245 C   0  0  0  0  0  0  0  0  0  0  0  0
  150.0345  135.8914  154.6224 N   0  0  0  0  0  0  0  0  0  0  0  0
  151.0410  136.7104  154.9639 C   0  0  0  0  0  0  0  0  0  0  0  0
  151.8487  136.4457  155.8553 O   0  0  0  0  0  0  0  0  0  0  0  0
  151.1283  138.0345  154.1915 C   0  0  0  0  0  0  0  0  0  0  0  0
  150.9500  139.2178  155.0497 N   0  0  0  0  0  0  0  0  0  0  0  0
  149.8436  140.0478  154.7792 C   0  0  0  0  0  0  0  0  0  0  0  0
  149.5866  141.1473  155.5052 C   0  0  0  0  0  0  0  0  0  0  0  0
  150.4808  141.4730  156.5910 C   0  0  0  0  0  0  0  0  0  0  0  0
  151.5406  140.6848  156.8602 C   0  0  0  0  0  0  0  0  0  0  0  0
  151.8249  139.4815  156.0694 C   0  0  0  0  0  0  0  0  0  0  0  0
  152.7895  138.7543  156.3091 O   0  0  0  0  0  0  0  0  0  0  0  0
  148.1311  133.7836  153.4551 N   0  3  0  0  0  0  0  0  0  0  0  0
  147.5796  132.6280  152.6916 C   0  0  0  0  0  0  0  0  0  0  0  0
  146.2648  132.9904  151.9805 C   0  0  0  0  0  0  0  0  0  0  0  0
  145.3204  133.4675  152.9247 O   0  0  0  0  0  0  0  0  0  0  0  0
  145.7820  134.6506  153.5560 C   0  0  0  0  0  0  0  0  0  0  0  0
  147.0714  134.3494  154.3375 C   0  0  0  0  0  0  0  0  0  0  0  0
  150.2536  131.8994  155.4588 H   0  0  0  0  0  0  0  0  0  0  0  0
  149.2934  131.2817  154.1606 H   0  0  0  0  0  0  0  0  0  0  0  0
  148.5039  132.0291  155.5505 H   0  0  0  0  0  0  0  0  0  0  0  0
  150.2045  133.4583  153.4382 H   0  0  0  0  0  0  0  0  0  0  0  0
  148.9861  134.7345  155.9571 H   0  0  0  0  0  0  0  0  0  0  0  0
  150.6686  134.2897  155.7813 H   0  0  0  0  0  0  0  0  0  0  0  0
  149.4117  136.1859  153.8838 H   0  0  0  0  0  0  0  0  0  0  0  0
  152.0871  138.0926  153.6727 H   0  0  0  0  0  0  0  0  0  0  0  0
  150.3766  138.0151  153.4011 H   0  0  0  0  0  0  0  0  0  0  0  0
  149.2198  139.7316  153.9556 H   0  0  0  0  0  0  0  0  0  0  0  0
  148.7314  141.7696  155.2857 H   0  0  0  0  0  0  0  0  0  0  0  0
  150.2981  142.3521  157.1914 H   0  0  0  0  0  0  0  0  0  0  0  0
  152.1974  140.9431  157.6777 H   0  0  0  0  0  0  0  0  0  0  0  0
  148.2736  132.3029  151.9188 H   0  0  0  0  0  0  0  0  0  0  0  0
  147.4207  131.7860  153.3671 H   0  0  0  0  0  0  0  0  0  0  0  0
  146.4348  133.7391  151.2049 H   0  0  0  0  0  0  0  0  0  0  0  0
  145.8529  132.1107  151.4858 H   0  0  0  0  0  0  0  0  0  0  0  0
  145.9462  135.4368  152.8172 H   0  0  0  0  0  0  0  0  0  0  0  0
  145.0086  135.0103  154.2347 H   0  0  0  0  0  0  0  0  0  0  0  0
  146.8583  133.6495  155.1471 H   0  0  0  0  0  0  0  0  0  0  0  0
  147.3969  135.2814  154.7951 H   0  0  0  0  0  0  0  0  0  0  0  0
  148.3478  134.4947  152.7713 H   0  0  0  0  0  0  0  0  0  0  0  0
  1  2  1  0  0  0  0
  1 21  1  0  0  0  0
  1 22  1  0  0  0  0
  1 23  1  0  0  0  0
  2  3  1  0  0  0  0
  2 15  1  0  0  0  0
  2 24  1  0  0  0  0
  3  4  1  0  0  0  0
  3 25  1  0  0  0  0
  3 26  1  0  0  0  0
  4  5  1  0  0  0  0
  4 27  1  0  0  0  0
  5  6  2  0  0  0  0
  5  7  1  0  0  0  0
  7  8  1  0  0  0  0
  7 28  1  0  0  0  0
  7 29  1  0  0  0  0
  8 13  1  0  0  0  0
  8  9  1  0  0  0  0
  9 10  2  0  0  0  0
  9 30  1  0  0  0  0
 10 11  1  0  0  0  0
 10 31  1  0  0  0  0
 11 12  2  0  0  0  0
 11 32  1  0  0  0  0
 12 13  1  0  0  0  0
 12 33  1  0  0  0  0
 13 14  2  0  0  0  0
 15 20  1  0  0  0  0
 15 16  1  0  0  0  0
 15 42  1  0  0  0  0
 16 17  1  0  0  0  0
 16 34  1  0  0  0  0
 16 35  1  0  0  0  0
 17 18  1  0  0  0  0
 17 36  1  0  0  0  0
 17 37  1  0  0  0  0
 18 19  1  0  0  0  0
 19 20  1  0  0  0  0
 19 38  1  0  0  0  0
 19 39  1  0  0  0  0
 20 40  1  0  0  0  0
 20 41  1  0  0  0  0
M  CHG  1  15   1
M  END
> <s_m_source_file>
AV-unprocessed.smi

> <i_m_source_file_index>
1835

> <i_lp_mmshare_version>
43012

> <i_f3d_flags>
0

> <s_epik_input>
W0NIMl0xW0NIMl1PW0NIMl1bQ0gyXU4xW0NASF0oW0NIM10pW0NIMl1bTkhdQyg9TylbQ0gyXW4yW2NIXVtjSF1bY0hdW2NIXWMyPU8=

> <s_epik_cmdline>
J2VwaWtfcHl0aG9uJywgJy1waCcsICc3LjAnLCAnLXRuJywgJzgnLCAnLW1hJywgJzIwMCcsICctbWV0YWxfYmluZGluZycsICctaW1hZScsICc8aW5maWxlLm1hZT4nLCAnLW9tYWUnLCAnPG91dGZpbGUubWFlPic=

> <r_lp_tautomer_probability>
1

> <r_epik_Ionization_Penalty>
0.656654

> <r_epik_Ionization_Penalty_Charging>
0.656654

> <r_epik_Ionization_Penalty_Neutral>
9.12373e-08

> <r_epik_State_Penalty>
0.675641

> <r_epik_Charging_Adjusted_Penalty>
1.33229

> <i_epik_Tot_Q>
1

> <i_epik_Tot_abs_Q>
1

> <r_epik_Metal_State_Penalty>
0.675692

> <b_epik_Metal_Only>
0

> <s_lp_Force_Field>
OPLS_2005

> <r_lp_Energy>
29.3587

> <b_lp_Chiralities_Consistent>
1

> <s_lp_Variant>
AV-unprocessed.smi:1835-3

> <Gold.Version>
5.8.1

> <Gold.Id.Protein>
6NUR|6NUR_protein|mol2

> <Gold.PLP.Fitness>
54.8514

> <Gold.PLP.PLP>
-37.8950

> <Gold.PLP.part.hbond>
-4.6863

> <Gold.PLP.part.metal>
0.0000

> <Gold.PLP.part.buried>
-0.9663

> <Gold.PLP.part.nonpolar>
-31.9817

> <Gold.PLP.part.repulsive>
0.1964

> <Gold.PLP.ligand.clash>
0.0000

> <Gold.PLP.ligand.torsion>
0.4808

> <Gold.PLP.Chemscore.Hbond>
4.9440

> <Gold.PLP.Chemscore.CHOScore>
0.9684

> <Gold.PLP.Chemscore.Metal>
0.0000

> <Gold.Chemscore.Hbonds>
donor molecule, donor type, donor heavy atom, donor atom, acceptor molecule, acceptor atom, score
      L1  H     4    27       P1  7948  0.91
      L1  H    15    42       P1  7948  2.00
      P1  H  7997  8009       L1    14  0.94
      P1  H 10752 10765       L1     6  0.70
      L1  C     9    30       P1  7957  0.23

> <Gold.PLP.Chemscore.Internal.Correction>
0.1807

> <Gold.Rescore>
     Score         DG    S(hbond)    S(metal)    S(lipo)     H(rot)  DE(clash)    DE(int)     intcor
     18.38     -19.15       3.31        0.00      65.43       1.96       0.04       0.72       ----

> <Gold.Chemscore.Fitness>
18.3802

> <Gold.Chemscore.DG>
-19.1473

> <Gold.Chemscore.ZeroCoef>
-5.4800

> <Gold.Chemscore.Hbond>
3.3059

> <Gold.Chemscore.Metal>
0.0000

> <Gold.Chemscore.Lipo>
65.4318

> <Gold.Chemscore.Internal_Hbond>
0.0000

> <Gold.Chemscore.DEClash>
0.0449

> <Gold.Chemscore.DEInternal>
0.7222

> <Gold.Chemscore.Rot>
1.9649

> <Gold.Chemscore.Internal.Correction>
   9.000000E+99

> <Gold.Chemscore.Hbonds>
donor molecule, donor type, donor heavy atom, donor atom, acceptor molecule, acceptor atom, score
      L1  H     4    27       P1  7948  0.65
      L1  H    15    42       P1  7948  0.24
      P1  H  7997  8009       L1    14  0.36
      P1  H 10752 10765       L1     6  0.07

> <Gold.Chemscore.Hbond.Weighted>
-11.0418

> <Gold.Chemscore.Metal.Weighted>
-0.0000

> <Gold.Chemscore.Lipo.Weighted>
-7.6555

> <Gold.Chemscore.Internal_Hbond.Weighted>
0.0000

> <Gold.Chemscore.DEClash.Weighted>
0.0449

> <Gold.Chemscore.DEInternal.Weighted>
0.7222

> <Gold.Chemscore.Rot.Weighted>
5.0300

> <Gold.Chemscore.Internal.Correction.Weighted>
   9.000000E+99

> <Gold.Protein.RotatedTorsions>
[ 6907 6896 6895 6894 ] final -124.56 input  -60.11 | X-H torsion
[ 7974 7965 7964 7962 ] final   35.22 input  175.53 | X-H torsion
[ 8008 7997 7996 7995 ] final -170.70 input   59.86 | X-H torsion
[ 10167 10162 10161 10158 ] final -157.73 input  -65.29 | X-H torsion
[ 10718 10713 10712 10709 ] final   65.18 input   66.30 | X-H torsion
[ 10763 10752 10751 10750 ] final -172.42 input  -60.55 | X-H torsion
[ 11005 11000 10999 10996 ] final -176.09 input  -57.11 | X-H torsion

> <Gold.Protein.ActiveResidues>
 VAL166  LYS551  ARG553  GLY616  TRP617  ASP618  TYR619  PRO620  LYS621  CYS622 
 ASP623  PHE694  ASN695  SER759  ASP760  ASP761  ALA762  ILE779  LEU786  VAL792 
 PHE793  MET794  SER795  GLU796  ALA797  LYS798  CYS799  TRP800  GLU811  SER814 

> <Gold.Protein.RotatedAtoms>
  150.8780  133.7411  159.2940 H   0  0  0  0  0  0  0  0  0  0  0  0  # atno 6907 bound_to 6896
  151.5002  135.1060  159.9836 H   0  0  0  0  0  0  0  0  0  0  0  0  # atno 6908 bound_to 6896
  152.4741  133.8051  159.7029 H   0  0  0  0  0  0  0  0  0  0  0  0  # atno 6909 bound_to 6896
  146.1298  139.6170  142.9234 H   0  0  0  0  0  0  0  0  0  0  0  0  # atno 7974 bound_to 7965
  155.9218  140.1075  157.1201 H   0  0  0  0  0  0  0  0  0  0  0  0  # atno 8008 bound_to 7997
  154.4055  140.1254  156.4755 H   0  0  0  0  0  0  0  0  0  0  0  0  # atno 8009 bound_to 7997
  155.7186  140.3470  155.5008 H   0  0  0  0  0  0  0  0  0  0  0  0  # atno 8010 bound_to 7997
  139.6748  143.9683  152.2304 H   0  0  0  0  0  0  0  0  0  0  0  0  # atno 10167 bound_to 10162
  157.6088  130.9200  149.9942 H   0  0  0  0  0  0  0  0  0  0  0  0  # atno 10718 bound_to 10713
  154.6195  135.2873  155.0342 H   0  0  0  0  0  0  0  0  0  0  0  0  # atno 10763 bound_to 10752
  154.1542  135.6498  153.4974 H   0  0  0  0  0  0  0  0  0  0  0  0  # atno 10764 bound_to 10752
  153.0229  135.5363  154.6979 H   0  0  0  0  0  0  0  0  0  0  0  0  # atno 10765 bound_to 10752
  140.4560  134.6299  157.4822 H   0  0  0  0  0  0  0  0  0  0  0  0  # atno 11005 bound_to 11000
  145.5286  141.0428  143.2396 LP  0  0  0  0  0  0  0  0  0  0  0  0  # atno 17320 bound_to 7965
  144.7679  139.6803  143.7207 LP  0  0  0  0  0  0  0  0  0  0  0  0  # atno 17321 bound_to 7965
  139.9457  144.6653  150.8222 LP  0  0  0  0  0  0  0  0  0  0  0  0  # atno 17342 bound_to 10162
  140.7631  143.3215  151.2611 LP  0  0  0  0  0  0  0  0  0  0  0  0  # atno 17343 bound_to 10162
  156.1184  130.3647  149.9929 LP  0  0  0  0  0  0  0  0  0  0  0  0  # atno 17370 bound_to 10713
  156.8014  130.9292  151.3646 LP  0  0  0  0  0  0  0  0  0  0  0  0  # atno 17371 bound_to 10713
  139.9976  134.6887  155.9583 LP  0  0  0  0  0  0  0  0  0  0  0  0  # atno 17394 bound_to 11000
  141.1643  133.6537  156.4425 LP  0  0  0  0  0  0  0  0  0  0  0  0  # atno 17395 bound_to 11000

$$$$
