AV-unprocessed.smi:639|AV-procd|sdf|3149|dock6
  -GOLD-   22720 0 73D 1   1.00000     0.00000
 Structure written by MMmdl.
 23 24  0  0  0  0  0  0  0  0  2 V2000
  153.1397  142.8411  161.9965 C   0  0  0  0  0  0  0  0  0  0  0  0
  152.8028  142.2757  160.7077 N   0  0  0  0  0  0  0  0  0  0  0  0
  152.5942  140.9551  160.3756 C   0  0  0  0  0  0  0  0  0  0  0  0
  152.2982  140.9014  159.0400 C   0  0  0  0  0  0  0  0  0  0  0  0
  151.9768  139.6991  158.1691 C   0  0  2  0  0  0  0  0  0  0  0  0
  152.0649  138.3891  158.9760 C   0  0  0  0  0  0  0  0  0  0  0  0
  152.8287  139.6106  156.9913 N   0  5  0  0  0  0  0  0  0  0  0  0
  152.0597  139.7444  155.8846 C   0  0  0  0  0  0  0  0  0  0  0  0
  152.4223  139.7346  154.7105 O   0  0  0  0  0  0  0  0  0  0  0  0
  150.7748  139.8962  156.2191 N   0  0  0  0  0  0  0  0  0  0  0  0
  150.6022  139.8693  157.5371 C   0  0  0  0  0  0  0  0  0  0  0  0
  149.5379  139.9590  158.1490 O   0  0  0  0  0  0  0  0  0  0  0  0
  152.3513  142.2723  158.6482 C   0  0  0  0  0  0  0  0  0  0  0  0
  152.6549  143.0893  159.6436 N   0  0  0  0  0  0  0  0  0  0  0  0
  153.2338  142.0484  162.7392 H   0  0  0  0  0  0  0  0  0  0  0  0
  152.3566  143.5312  162.3122 H   0  0  0  0  0  0  0  0  0  0  0  0
  154.0863  143.3778  161.9288 H   0  0  0  0  0  0  0  0  0  0  0  0
  152.6712  140.1661  161.1094 H   0  0  0  0  0  0  0  0  0  0  0  0
  151.3823  138.3963  159.8266 H   0  0  0  0  0  0  0  0  0  0  0  0
  153.0718  138.2366  159.3667 H   0  0  0  0  0  0  0  0  0  0  0  0
  151.8157  137.5203  158.3648 H   0  0  0  0  0  0  0  0  0  0  0  0
  150.0264  140.0041  155.5512 H   0  0  0  0  0  0  0  0  0  0  0  0
  152.1793  142.6936  157.6688 H   0  0  0  0  0  0  0  0  0  0  0  0
  1  2  1  0  0  0  0
  1 15  1  0  0  0  0
  1 16  1  0  0  0  0
  1 17  1  0  0  0  0
  2 14  1  0  0  0  0
  2  3  1  0  0  0  0
  3  4  2  0  0  0  0
  3 18  1  0  0  0  0
  4  5  1  0  0  0  0
  4 13  1  0  0  0  0
  5 11  1  0  0  0  0
  5  6  1  0  0  0  0
  5  7  1  0  0  0  0
  6 19  1  0  0  0  0
  6 20  1  0  0  0  0
  6 21  1  0  0  0  0
  7  8  1  0  0  0  0
  8  9  2  0  0  0  0
  8 10  1  0  0  0  0
 10 11  1  0  0  0  0
 10 22  1  0  0  0  0
 11 12  2  0  0  0  0
 13 14  2  0  0  0  0
 13 23  1  0  0  0  0
M  CHG  1   7  -1
M  END
> <s_m_source_file>
AV-unprocessed.smi

> <i_m_source_file_index>
639

> <i_lp_mmshare_version>
43012

> <i_f3d_flags>
0

> <s_epik_input>
W0NIM11uMVtjSF1jKFtjSF1uMSlbQ0BAXTIoW0NIM10pW05IXUMoPU8pW05IXUMyPU8=

> <s_epik_cmdline>
J2VwaWtfcHl0aG9uJywgJy1waCcsICc3LjAnLCAnLXRuJywgJzgnLCAnLW1hJywgJzIwMCcsICctbWV0YWxfYmluZGluZycsICctaW1hZScsICc8aW5maWxlLm1hZT4nLCAnLW9tYWUnLCAnPG91dGZpbGUubWFlPic=

> <r_lp_tautomer_probability>
1

> <r_epik_Ionization_Penalty>
4.83415

> <r_epik_Ionization_Penalty_Charging>
4.8337

> <r_epik_Ionization_Penalty_Neutral>
0.000449923

> <r_epik_State_Penalty>
4.85653

> <r_epik_Charging_Adjusted_Penalty>
9.69023

> <i_epik_Tot_Q>
-1

> <i_epik_Tot_abs_Q>
1

> <r_epik_Metal_State_Penalty>
1.31841

> <b_epik_Metal_Only>
1

> <s_lp_Force_Field>
OPLS_2005

> <r_lp_Energy>
8.78459

> <b_lp_Chiralities_Consistent>
1

> <s_lp_Variant>
AV-unprocessed.smi:639-6

> <Gold.Version>
5.8.1

> <Gold.Id.Protein>
6NUR|6NUR_protein|mol2

> <Gold.PLP.Fitness>
32.4247

> <Gold.PLP.PLP>
-24.6692

> <Gold.PLP.part.hbond>
-2.3002

> <Gold.PLP.part.metal>
0.0000

> <Gold.PLP.part.buried>
-4.4267

> <Gold.PLP.part.nonpolar>
-17.5634

> <Gold.PLP.part.repulsive>
0.1156

> <Gold.PLP.ligand.clash>
0.0000

> <Gold.PLP.ligand.torsion>
0.0392

> <Gold.PLP.Chemscore.Hbond>
2.5920

> <Gold.PLP.Chemscore.CHOScore>
0.0000

> <Gold.PLP.Chemscore.Metal>
0.0000

> <Gold.Chemscore.Hbonds>
donor molecule, donor type, donor heavy atom, donor atom, acceptor molecule, acceptor atom, score
      P1  H  7989  7998       L1     9  0.64
      P1  H  7997  8009       L1     7  1.98

> <Gold.PLP.Chemscore.Internal.Correction>
0.0578

> <Gold.Rescore>
     Score         DG    S(hbond)    S(metal)    S(lipo)     H(rot)  DE(clash)    DE(int)     intcor
     14.27     -14.43       1.80        0.00      46.89       1.00       0.13       0.03       ----

> <Gold.Chemscore.Fitness>
14.2670

> <Gold.Chemscore.DG>
-14.4326

> <Gold.Chemscore.ZeroCoef>
-5.4800

> <Gold.Chemscore.Hbond>
1.8044

> <Gold.Chemscore.Metal>
0.0000

> <Gold.Chemscore.Lipo>
46.8876

> <Gold.Chemscore.Internal_Hbond>
0.0000

> <Gold.Chemscore.DEClash>
0.1319

> <Gold.Chemscore.DEInternal>
0.0337

> <Gold.Chemscore.Rot>
1.0000

> <Gold.Chemscore.Internal.Correction>
   9.000000E+99

> <Gold.Chemscore.Hbonds>
donor molecule, donor type, donor heavy atom, donor atom, acceptor molecule, acceptor atom, score
      P1  H  7989  7998       L1     9  0.63
      P1  H  7997  8009       L1     7  0.90

> <Gold.Chemscore.Hbond.Weighted>
-6.0268

> <Gold.Chemscore.Metal.Weighted>
-0.0000

> <Gold.Chemscore.Lipo.Weighted>
-5.4859

> <Gold.Chemscore.Internal_Hbond.Weighted>
0.0000

> <Gold.Chemscore.DEClash.Weighted>
0.1319

> <Gold.Chemscore.DEInternal.Weighted>
0.0337

> <Gold.Chemscore.Rot.Weighted>
2.5600

> <Gold.Chemscore.Internal.Correction.Weighted>
   9.000000E+99

> <Gold.Protein.RotatedTorsions>
[ 6907 6896 6895 6894 ] final   94.55 input  -60.11 | X-H torsion
[ 7974 7965 7964 7962 ] final -126.71 input  175.53 | X-H torsion
[ 8008 7997 7996 7995 ] final  161.03 input   59.86 | X-H torsion
[ 10167 10162 10161 10158 ] final   38.98 input  -65.29 | X-H torsion
[ 10718 10713 10712 10709 ] final -176.73 input   66.30 | X-H torsion
[ 10763 10752 10751 10750 ] final  -43.88 input  -60.55 | X-H torsion
[ 11005 11000 10999 10996 ] final   79.62 input  -57.11 | X-H torsion

> <Gold.Protein.ActiveResidues>
 VAL166  LYS551  ARG553  GLY616  TRP617  ASP618  TYR619  PRO620  LYS621  CYS622 
 ASP623  PHE694  ASN695  SER759  ASP760  ASP761  ALA762  ILE779  LEU786  VAL792 
 PHE793  MET794  SER795  GLU796  ALA797  LYS798  CYS799  TRP800  GLU811  SER814 

> <Gold.Protein.RotatedAtoms>
  152.5449  134.1177  159.8385 H   0  0  0  0  0  0  0  0  0  0  0  0  # atno 6907 bound_to 6896
  151.1236  133.5079  159.2608 H   0  0  0  0  0  0  0  0  0  0  0  0  # atno 6908 bound_to 6896
  151.1751  135.0345  159.8823 H   0  0  0  0  0  0  0  0  0  0  0  0  # atno 6909 bound_to 6896
  144.9844  140.7672  143.4592 H   0  0  0  0  0  0  0  0  0  0  0  0  # atno 7974 bound_to 7965
  156.2132  140.1788  156.7649 H   0  0  0  0  0  0  0  0  0  0  0  0  # atno 8008 bound_to 7997
  154.5752  140.0675  156.9053 H   0  0  0  0  0  0  0  0  0  0  0  0  # atno 8009 bound_to 7997
  155.2600  140.3335  155.4276 H   0  0  0  0  0  0  0  0  0  0  0  0  # atno 8010 bound_to 7997
  140.3884  144.1885  150.6130 H   0  0  0  0  0  0  0  0  0  0  0  0  # atno 10167 bound_to 10162
  156.8190  130.9613  151.3112 H   0  0  0  0  0  0  0  0  0  0  0  0  # atno 10718 bound_to 10713
  154.0029  135.6691  153.4760 H   0  0  0  0  0  0  0  0  0  0  0  0  # atno 10763 bound_to 10752
  153.0654  135.5004  154.8185 H   0  0  0  0  0  0  0  0  0  0  0  0  # atno 10764 bound_to 10752
  154.7042  135.3084  154.9259 H   0  0  0  0  0  0  0  0  0  0  0  0  # atno 10765 bound_to 10752
  139.9165  134.7857  156.1802 H   0  0  0  0  0  0  0  0  0  0  0  0  # atno 11005 bound_to 11000
  145.2374  139.2088  143.5011 LP  0  0  0  0  0  0  0  0  0  0  0  0  # atno 17320 bound_to 7965
  146.3416  140.2263  142.8592 LP  0  0  0  0  0  0  0  0  0  0  0  0  # atno 17321 bound_to 7965
  140.4865  143.2361  151.8880 LP  0  0  0  0  0  0  0  0  0  0  0  0  # atno 17342 bound_to 10162
  139.4790  144.5213  151.8798 LP  0  0  0  0  0  0  0  0  0  0  0  0  # atno 17343 bound_to 10162
  157.6466  130.8850  149.9551 LP  0  0  0  0  0  0  0  0  0  0  0  0  # atno 17370 bound_to 10713
  156.1000  130.3656  150.0236 LP  0  0  0  0  0  0  0  0  0  0  0  0  # atno 17371 bound_to 10713
  141.0647  133.6825  156.2020 LP  0  0  0  0  0  0  0  0  0  0  0  0  # atno 17394 bound_to 11000
  140.6605  134.4973  157.5583 LP  0  0  0  0  0  0  0  0  0  0  0  0  # atno 17395 bound_to 11000

$$$$
