AV-unprocessed.smi:3328|AV-procd|sdf|12794|dock1
  -GOLD-   2272019143D 1   1.00000     0.00000
 Structure written by MMmdl.
 40 41  0  0  0  0  0  0  0  0  1 V2000
  152.8619  142.6945  162.8782 C   0  0  0  0  0  0  0  0  0  0  0  0
  152.3934  143.2717  161.5737 C   0  0  0  0  0  0  0  0  0  0  0  0
  151.6504  144.4680  161.3656 C   0  0  0  0  0  0  0  0  0  0  0  0
  151.3958  144.6989  160.0889 N   0  0  0  0  0  0  0  0  0  0  0  0
  151.9587  143.6594  159.4366 N   0  0  0  0  0  0  0  0  0  0  0  0
  151.8752  143.5843  157.9859 C   0  0  0  0  0  0  0  0  0  0  0  0
  151.2182  142.2829  157.4572 C   0  0  1  0  0  0  0  0  0  0  0  0
  150.0830  141.7789  158.3628 C   0  0  0  0  0  0  0  0  0  0  0  0
  150.6684  142.4502  156.1166 N   0  0  0  0  0  0  0  0  0  0  0  0
  150.1768  141.2016  155.5509 C   0  0  0  0  0  0  0  0  0  0  0  0
  151.3582  140.2564  155.2732 C   0  0  0  0  0  0  0  0  0  0  0  0
  150.9229  138.8698  155.1079 N   0  0  0  0  0  0  0  0  0  0  0  0
  149.5313  138.5026  155.3098 C   0  0  0  0  0  0  0  0  0  0  0  0
  149.4412  137.0190  154.9233 C   0  0  0  0  0  0  0  0  0  0  0  0
  150.8836  136.5460  154.7092 C   0  0  0  0  0  0  0  0  0  0  0  0
  151.6981  137.8251  154.7956 C   0  0  0  0  0  0  0  0  0  0  0  0
  152.9117  137.8563  154.5967 O   0  0  0  0  0  0  0  0  0  0  0  0
  152.5755  142.7875  160.3091 C   0  0  0  0  0  0  0  0  0  0  0  0
  152.1439  142.8739  163.6788 H   0  0  0  0  0  0  0  0  0  0  0  0
  153.8102  143.1307  163.1924 H   0  0  0  0  0  0  0  0  0  0  0  0
  153.0084  141.6159  162.8148 H   0  0  0  0  0  0  0  0  0  0  0  0
  151.2919  145.1727  162.1011 H   0  0  0  0  0  0  0  0  0  0  0  0
  151.3579  144.4706  157.6184 H   0  0  0  0  0  0  0  0  0  0  0  0
  152.8893  143.6581  157.5917 H   0  0  0  0  0  0  0  0  0  0  0  0
  151.9779  141.5009  157.4201 H   0  0  0  0  0  0  0  0  0  0  0  0
  150.4321  141.6436  159.3866 H   0  0  0  0  0  0  0  0  0  0  0  0
  149.7044  140.8162  158.0174 H   0  0  0  0  0  0  0  0  0  0  0  0
  149.2420  142.4728  158.3867 H   0  0  0  0  0  0  0  0  0  0  0  0
  149.9126  143.1196  156.1405 H   0  0  0  0  0  0  0  0  0  0  0  0
  149.4627  140.7173  156.2154 H   0  0  0  0  0  0  0  0  0  0  0  0
  149.6511  141.4199  154.6209 H   0  0  0  0  0  0  0  0  0  0  0  0
  151.8678  140.5710  154.3613 H   0  0  0  0  0  0  0  0  0  0  0  0
  152.0986  140.3246  156.0717 H   0  0  0  0  0  0  0  0  0  0  0  0
  149.2606  138.6541  156.3554 H   0  0  0  0  0  0  0  0  0  0  0  0
  148.8734  139.1162  154.6930 H   0  0  0  0  0  0  0  0  0  0  0  0
  148.9401  136.4369  155.6975 H   0  0  0  0  0  0  0  0  0  0  0  0
  148.8659  136.9024  154.0043 H   0  0  0  0  0  0  0  0  0  0  0  0
  151.1995  135.8539  155.4905 H   0  0  0  0  0  0  0  0  0  0  0  0
  151.0157  136.0649  153.7395 H   0  0  0  0  0  0  0  0  0  0  0  0
  153.0842  141.9007  159.9606 H   0  0  0  0  0  0  0  0  0  0  0  0
  1  2  1  0  0  0  0
  1 19  1  0  0  0  0
  1 20  1  0  0  0  0
  1 21  1  0  0  0  0
  2 18  2  0  0  0  0
  2  3  1  0  0  0  0
  3  4  2  0  0  0  0
  3 22  1  0  0  0  0
  4  5  1  0  0  0  0
  5  6  1  0  0  0  0
  5 18  1  0  0  0  0
  6  7  1  0  0  0  0
  6 23  1  0  0  0  0
  6 24  1  0  0  0  0
  7  8  1  0  0  0  0
  7  9  1  0  0  0  0
  7 25  1  0  0  0  0
  8 26  1  0  0  0  0
  8 27  1  0  0  0  0
  8 28  1  0  0  0  0
  9 10  1  0  0  0  0
  9 29  1  0  0  0  0
 10 11  1  0  0  0  0
 10 30  1  0  0  0  0
 10 31  1  0  0  0  0
 11 12  1  0  0  0  0
 11 32  1  0  0  0  0
 11 33  1  0  0  0  0
 12 16  1  0  0  0  0
 12 13  1  0  0  0  0
 13 14  1  0  0  0  0
 13 34  1  0  0  0  0
 13 35  1  0  0  0  0
 14 15  1  0  0  0  0
 14 36  1  0  0  0  0
 14 37  1  0  0  0  0
 15 16  1  0  0  0  0
 15 38  1  0  0  0  0
 15 39  1  0  0  0  0
 16 17  2  0  0  0  0
 18 40  1  0  0  0  0
M  END
> <s_m_source_file>
AV-unprocessed.smi

> <i_m_source_file_index>
3328

> <i_lp_mmshare_version>
43012

> <i_f3d_flags>
0

> <s_epik_input>
W0NIM11jMVtjSF1ubihbY0hdMSlbQ0gyXVtDQEhdKFtDSDNdKVtOSF1bQ0gyXVtDSDJdTjJbQ0gyXVtDSDJdW0NIMl1DMj1P

> <s_epik_cmdline>
J2VwaWtfcHl0aG9uJywgJy1waCcsICc3LjAnLCAnLXRuJywgJzgnLCAnLW1hJywgJzIwMCcsICctbWV0YWxfYmluZGluZycsICctaW1hZScsICc8aW5maWxlLm1hZT4nLCAnLW9tYWUnLCAnPG91dGZpbGUubWFlPic=

> <r_lp_tautomer_probability>
1

> <r_epik_Ionization_Penalty>
2.53591

> <r_epik_Ionization_Penalty_Charging>
0

> <r_epik_Ionization_Penalty_Neutral>
2.53591

> <r_epik_State_Penalty>
2.70334

> <r_epik_Charging_Adjusted_Penalty>
2.70334

> <i_epik_Tot_Q>
0

> <i_epik_Tot_abs_Q>
0

> <r_epik_Metal_State_Penalty>
2.70327

> <b_epik_Metal_Only>
0

> <s_lp_Force_Field>
OPLS_2005

> <r_lp_Energy>
23.1303

> <b_lp_Chiralities_Consistent>
1

> <s_lp_Variant>
AV-unprocessed.smi:3328-4

> <Gold.Version>
5.8.1

> <Gold.Id.Protein>
6NUR|6NUR_protein|mol2

> <Gold.PLP.Fitness>
45.3186

> <Gold.PLP.PLP>
-41.6254

> <Gold.PLP.part.hbond>
-2.0000

> <Gold.PLP.part.metal>
0.0000

> <Gold.PLP.part.buried>
-2.1802

> <Gold.PLP.part.nonpolar>
-37.3452

> <Gold.PLP.part.repulsive>
0.1510

> <Gold.PLP.ligand.clash>
0.0000

> <Gold.PLP.ligand.torsion>
0.3831

> <Gold.PLP.Chemscore.Hbond>
1.4272

> <Gold.PLP.Chemscore.CHOScore>
0.0000

> <Gold.PLP.Chemscore.Metal>
0.0000

> <Gold.Chemscore.Hbonds>
donor molecule, donor type, donor heavy atom, donor atom, acceptor molecule, acceptor atom, score
      L1  H     9    29       P1  8028  1.00
      P1  H 10752 10765       L1    17  0.15

> <Gold.PLP.Chemscore.Internal.Correction>
0.1778

> <Gold.Rescore>
     Score         DG    S(hbond)    S(metal)    S(lipo)     H(rot)  DE(clash)    DE(int)     intcor
     16.02     -17.06       1.51        0.00      97.34       1.89       0.57       0.47       ----

> <Gold.Chemscore.Fitness>
16.0186

> <Gold.Chemscore.DG>
-17.0641

> <Gold.Chemscore.ZeroCoef>
-5.4800

> <Gold.Chemscore.Hbond>
1.5086

> <Gold.Chemscore.Metal>
0.0000

> <Gold.Chemscore.Lipo>
97.3404

> <Gold.Chemscore.Internal_Hbond>
0.0000

> <Gold.Chemscore.DEClash>
0.5739

> <Gold.Chemscore.DEInternal>
0.4716

> <Gold.Chemscore.Rot>
1.8920

> <Gold.Chemscore.Internal.Correction>
   9.000000E+99

> <Gold.Chemscore.Hbonds>
donor molecule, donor type, donor heavy atom, donor atom, acceptor molecule, acceptor atom, score
      L1  H     9    29       P1  8028  0.98
      P1  H 10752 10765       L1    17  0.01

> <Gold.Chemscore.Hbond.Weighted>
-5.0387

> <Gold.Chemscore.Metal.Weighted>
-0.0000

> <Gold.Chemscore.Lipo.Weighted>
-11.3888

> <Gold.Chemscore.Internal_Hbond.Weighted>
0.0000

> <Gold.Chemscore.DEClash.Weighted>
0.5739

> <Gold.Chemscore.DEInternal.Weighted>
0.4716

> <Gold.Chemscore.Rot.Weighted>
4.8435

> <Gold.Chemscore.Internal.Correction.Weighted>
   9.000000E+99

> <Gold.Protein.RotatedTorsions>
[ 6907 6896 6895 6894 ] final  166.86 input  -60.11 | X-H torsion
[ 7974 7965 7964 7962 ] final   34.27 input  175.53 | X-H torsion
[ 8008 7997 7996 7995 ] final -177.22 input   59.86 | X-H torsion
[ 10167 10162 10161 10158 ] final -148.08 input  -65.29 | X-H torsion
[ 10718 10713 10712 10709 ] final  157.87 input   66.30 | X-H torsion
[ 10763 10752 10751 10750 ] final  156.56 input  -60.55 | X-H torsion
[ 11005 11000 10999 10996 ] final   69.70 input  -57.11 | X-H torsion

> <Gold.Protein.ActiveResidues>
 VAL166  LYS551  ARG553  GLY616  TRP617  ASP618  TYR619  PRO620  LYS621  CYS622 
 ASP623  PHE694  ASN695  SER759  ASP760  ASP761  ALA762  ILE779  LEU786  VAL792 
 PHE793  MET794  SER795  GLU796  ALA797  LYS798  CYS799  TRP800  GLU811  SER814 

> <Gold.Protein.RotatedAtoms>
  151.8723  133.3478  159.3738 H   0  0  0  0  0  0  0  0  0  0  0  0  # atno 6907 bound_to 6896
  150.7149  134.5100  159.5612 H   0  0  0  0  0  0  0  0  0  0  0  0  # atno 6908 bound_to 6896
  152.2635  134.8009  160.0477 H   0  0  0  0  0  0  0  0  0  0  0  0  # atno 6909 bound_to 6896
  146.1364  139.6291  142.9192 H   0  0  0  0  0  0  0  0  0  0  0  0  # atno 7974 bound_to 7965
  156.0044  140.1227  157.0516 H   0  0  0  0  0  0  0  0  0  0  0  0  # atno 8008 bound_to 7997
  154.4253  140.1100  156.5810 H   0  0  0  0  0  0  0  0  0  0  0  0  # atno 8009 bound_to 7997
  155.6168  140.3472  155.4641 H   0  0  0  0  0  0  0  0  0  0  0  0  # atno 8010 bound_to 7997
  139.7564  143.8442  152.2598 H   0  0  0  0  0  0  0  0  0  0  0  0  # atno 10167 bound_to 10162
  157.1856  131.0642  151.2108 H   0  0  0  0  0  0  0  0  0  0  0  0  # atno 10718 bound_to 10713
  154.1863  135.2797  155.3036 H   0  0  0  0  0  0  0  0  0  0  0  0  # atno 10763 bound_to 10752
  154.5963  135.5544  153.7332 H   0  0  0  0  0  0  0  0  0  0  0  0  # atno 10764 bound_to 10752
  153.0124  135.6381  154.2002 H   0  0  0  0  0  0  0  0  0  0  0  0  # atno 10765 bound_to 10752
  139.9639  134.7014  156.0588 H   0  0  0  0  0  0  0  0  0  0  0  0  # atno 11005 bound_to 11000
  145.5145  141.0434  143.2469 LP  0  0  0  0  0  0  0  0  0  0  0  0  # atno 17320 bound_to 7965
  144.7745  139.6661  143.7181 LP  0  0  0  0  0  0  0  0  0  0  0  0  # atno 17321 bound_to 7965
  139.8435  144.7198  150.9301 LP  0  0  0  0  0  0  0  0  0  0  0  0  # atno 17342 bound_to 10162
  140.7803  143.3962  151.1226 LP  0  0  0  0  0  0  0  0  0  0  0  0  # atno 17343 bound_to 10162
  157.3910  130.7282  149.6698 LP  0  0  0  0  0  0  0  0  0  0  0  0  # atno 17370 bound_to 10713
  155.9718  130.4146  150.4142 LP  0  0  0  0  0  0  0  0  0  0  0  0  # atno 17371 bound_to 10713
  141.1317  133.6585  156.3484 LP  0  0  0  0  0  0  0  0  0  0  0  0  # atno 17394 bound_to 11000
  140.5440  134.6092  157.5388 LP  0  0  0  0  0  0  0  0  0  0  0  0  # atno 17395 bound_to 11000

$$$$
