AV-unprocessed.smi:2751|AV-procd|sdf|10603|dock6
  -GOLD-   2272015 53D 1   1.00000     0.00000
 Structure written by MMmdl.
 33 34  0  0  0  0  0  0  0  0  2 V2000
  150.7877  140.5856  155.3583 O   0  0  0  0  0  0  0  0  0  0  0  0
  150.0413  141.5674  155.3417 C   0  0  0  0  0  0  0  0  0  0  0  0
  150.2606  142.5880  156.1836 N   0  0  0  0  0  0  0  0  0  0  0  0
  151.3360  142.6698  157.1665 C   0  0  0  0  0  0  0  0  0  0  0  0
  150.7919  142.9345  158.5809 C   0  0  0  0  0  0  0  0  0  0  0  0
  151.9040  143.0750  159.6322 C   0  0  2  0  0  0  0  0  0  0  0  0
  152.5979  141.7293  159.9204 C   0  0  0  0  0  0  0  0  0  0  0  0
  153.6498  141.8900  161.0239 C   0  0  0  0  0  0  0  0  0  0  0  0
  153.0123  142.5438  162.2544 C   0  0  0  0  0  0  0  0  0  0  0  0
  152.2912  143.8413  161.8564 C   0  0  0  0  0  0  0  0  0  0  0  0
  151.3298  143.5699  160.8412 O   0  0  0  0  0  0  0  0  0  0  0  0
  148.9708  141.7463  154.5349 N   0  5  0  0  0  0  0  0  0  0  0  0
  148.3050  140.6805  154.0616 C   0  0  0  0  0  0  0  0  0  0  0  0
  148.6481  139.4006  154.2170 N   0  0  0  0  0  0  0  0  0  0  0  0
  147.6766  138.6646  153.5561 C   0  0  0  0  0  0  0  0  0  0  0  0
  146.7780  139.5443  153.0172 C   0  0  0  0  0  0  0  0  0  0  0  0
  147.1664  140.8189  153.3244 O   0  0  0  0  0  0  0  0  0  0  0  0
  149.6261  143.3719  156.1359 H   0  0  0  0  0  0  0  0  0  0  0  0
  151.9314  141.7555  157.1482 H   0  0  0  0  0  0  0  0  0  0  0  0
  152.0025  143.4783  156.8656 H   0  0  0  0  0  0  0  0  0  0  0  0
  150.1743  143.8336  158.5767 H   0  0  0  0  0  0  0  0  0  0  0  0
  150.1346  142.1134  158.8698 H   0  0  0  0  0  0  0  0  0  0  0  0
  152.6433  143.7899  159.2663 H   0  0  0  0  0  0  0  0  0  0  0  0
  151.8562  140.9909  160.2284 H   0  0  0  0  0  0  0  0  0  0  0  0
  153.0660  141.3429  159.0144 H   0  0  0  0  0  0  0  0  0  0  0  0
  154.0788  140.9226  161.2855 H   0  0  0  0  0  0  0  0  0  0  0  0
  154.4701  142.5106  160.6612 H   0  0  0  0  0  0  0  0  0  0  0  0
  152.2976  141.8550  162.7063 H   0  0  0  0  0  0  0  0  0  0  0  0
  153.7714  142.7489  163.0098 H   0  0  0  0  0  0  0  0  0  0  0  0
  151.7800  144.2658  162.7203 H   0  0  0  0  0  0  0  0  0  0  0  0
  153.0027  144.5913  161.5076 H   0  0  0  0  0  0  0  0  0  0  0  0
  147.7018  137.5857  153.5220 H   0  0  0  0  0  0  0  0  0  0  0  0
  145.8780  139.4370  152.4308 H   0  0  0  0  0  0  0  0  0  0  0  0
  1  2  2  0  0  0  0
  2 12  1  0  0  0  0
  2  3  1  0  0  0  0
  3  4  1  0  0  0  0
  3 18  1  0  0  0  0
  4  5  1  0  0  0  0
  4 19  1  0  0  0  0
  4 20  1  0  0  0  0
  5  6  1  0  0  0  0
  5 21  1  0  0  0  0
  5 22  1  0  0  0  0
  6 11  1  0  0  0  0
  6  7  1  0  0  0  0
  6 23  1  0  0  0  0
  7  8  1  0  0  0  0
  7 24  1  0  0  0  0
  7 25  1  0  0  0  0
  8  9  1  0  0  0  0
  8 26  1  0  0  0  0
  8 27  1  0  0  0  0
  9 10  1  0  0  0  0
  9 28  1  0  0  0  0
  9 29  1  0  0  0  0
 10 11  1  0  0  0  0
 10 30  1  0  0  0  0
 10 31  1  0  0  0  0
 12 13  1  0  0  0  0
 13 17  1  0  0  0  0
 13 14  2  0  0  0  0
 14 15  1  0  0  0  0
 15 32  1  0  0  0  0
 15 16  2  0  0  0  0
 16 33  1  0  0  0  0
 16 17  1  0  0  0  0
M  CHG  1  12  -1
M  END
> <s_m_source_file>
AV-unprocessed.smi

> <i_m_source_file_index>
2751

> <i_lp_mmshare_version>
43012

> <i_f3d_flags>
0

> <s_epik_input>
bzFbY0hdW2NIXW5jMVtOSF1DKD1PKVtOSF1bQ0gyXVtDSDJdW0NAQEhdMltDSDJdW0NIMl1bQ0gyXVtDSDJdTzI=

> <s_epik_cmdline>
J2VwaWtfcHl0aG9uJywgJy1waCcsICc3LjAnLCAnLXRuJywgJzgnLCAnLW1hJywgJzIwMCcsICctbWV0YWxfYmluZGluZycsICctaW1hZScsICc8aW5maWxlLm1hZT4nLCAnLW9tYWUnLCAnPG91dGZpbGUubWFlPic=

> <r_lp_tautomer_probability>
0.107061

> <r_epik_Ionization_Penalty>
11.077

> <r_epik_Ionization_Penalty_Charging>
7.79122

> <r_epik_Ionization_Penalty_Neutral>
3.28583

> <r_epik_State_Penalty>
5.8984

> <r_epik_Charging_Adjusted_Penalty>
13.6896

> <i_epik_Tot_Q>
-1

> <i_epik_Tot_abs_Q>
1

> <r_epik_Metal_State_Penalty>
1.82322

> <b_epik_Metal_Only>
1

> <s_lp_Force_Field>
OPLS_2005

> <r_lp_Energy>
3.95886

> <b_lp_Chiralities_Consistent>
1

> <s_lp_Variant>
AV-unprocessed.smi:2751-9

> <Gold.Version>
5.8.1

> <Gold.Id.Protein>
6NUR|6NUR_protein|mol2

> <Gold.PLP.Fitness>
47.5713

> <Gold.PLP.PLP>
-36.3659

> <Gold.PLP.part.hbond>
-3.6430

> <Gold.PLP.part.metal>
0.0000

> <Gold.PLP.part.buried>
-4.4725

> <Gold.PLP.part.nonpolar>
-29.3574

> <Gold.PLP.part.repulsive>
0.8051

> <Gold.PLP.ligand.clash>
0.0000

> <Gold.PLP.ligand.torsion>
0.2363

> <Gold.PLP.Chemscore.Hbond>
1.8960

> <Gold.PLP.Chemscore.CHOScore>
1.9922

> <Gold.PLP.Chemscore.Metal>
0.0000

> <Gold.Chemscore.Hbonds>
donor molecule, donor type, donor heavy atom, donor atom, acceptor molecule, acceptor atom, score
      L1  H     3    18       P1  8028  1.00
      P1  H  7989  7998       L1     1  0.73
      L1  C    15    32       P1  7948  0.90
      L1  C    16    33       P1 10175  1.00

> <Gold.PLP.Chemscore.Internal.Correction>
0.0136

> <Gold.Rescore>
     Score         DG    S(hbond)    S(metal)    S(lipo)     H(rot)  DE(clash)    DE(int)     intcor
     14.24     -16.34       1.49        0.00      85.45       1.60       0.34       1.76       ----

> <Gold.Chemscore.Fitness>
14.2373

> <Gold.Chemscore.DG>
-16.3425

> <Gold.Chemscore.ZeroCoef>
-5.4800

> <Gold.Chemscore.Hbond>
1.4890

> <Gold.Chemscore.Metal>
0.0000

> <Gold.Chemscore.Lipo>
85.4485

> <Gold.Chemscore.Internal_Hbond>
0.0000

> <Gold.Chemscore.DEClash>
0.3403

> <Gold.Chemscore.DEInternal>
1.7649

> <Gold.Chemscore.Rot>
1.6048

> <Gold.Chemscore.Internal.Correction>
   9.000000E+99

> <Gold.Chemscore.Hbonds>
donor molecule, donor type, donor heavy atom, donor atom, acceptor molecule, acceptor atom, score
      L1  H     3    18       P1  8028  0.99
      P1  H  7989  7998       L1     1  0.12

> <Gold.Chemscore.Hbond.Weighted>
-4.9732

> <Gold.Chemscore.Metal.Weighted>
-0.0000

> <Gold.Chemscore.Lipo.Weighted>
-9.9975

> <Gold.Chemscore.Internal_Hbond.Weighted>
0.0000

> <Gold.Chemscore.DEClash.Weighted>
0.3403

> <Gold.Chemscore.DEInternal.Weighted>
1.7649

> <Gold.Chemscore.Rot.Weighted>
4.1082

> <Gold.Chemscore.Internal.Correction.Weighted>
   9.000000E+99

> <Gold.Protein.RotatedTorsions>
[ 6907 6896 6895 6894 ] final -132.11 input  -60.11 | X-H torsion
[ 7974 7965 7964 7962 ] final -165.95 input  175.53 | X-H torsion
[ 8008 7997 7996 7995 ] final -166.59 input   59.86 | X-H torsion
[ 10167 10162 10161 10158 ] final   84.19 input  -65.29 | X-H torsion
[ 10718 10713 10712 10709 ] final   -5.36 input   66.30 | X-H torsion
[ 10763 10752 10751 10750 ] final  -17.23 input  -60.55 | X-H torsion
[ 11005 11000 10999 10996 ] final   27.71 input  -57.11 | X-H torsion

> <Gold.Protein.ActiveResidues>
 VAL166  LYS551  ARG553  GLY616  TRP617  ASP618  TYR619  PRO620  LYS621  CYS622 
 ASP623  PHE694  ASN695  SER759  ASP760  ASP761  ALA762  ILE779  LEU786  VAL792 
 PHE793  MET794  SER795  GLU796  ALA797  LYS798  CYS799  TRP800  GLU811  SER814 

> <Gold.Protein.RotatedAtoms>
  150.9586  133.6469  159.2758 H   0  0  0  0  0  0  0  0  0  0  0  0  # atno 6907 bound_to 6896
  151.3800  135.0937  159.9502 H   0  0  0  0  0  0  0  0  0  0  0  0  # atno 6908 bound_to 6896
  152.5139  133.9123  159.7548 H   0  0  0  0  0  0  0  0  0  0  0  0  # atno 6909 bound_to 6896
  144.7257  140.2738  143.6246 H   0  0  0  0  0  0  0  0  0  0  0  0  # atno 7974 bound_to 7965
  155.8659  140.0985  157.1582 H   0  0  0  0  0  0  0  0  0  0  0  0  # atno 8008 bound_to 7997
  154.3993  140.1356  156.4081 H   0  0  0  0  0  0  0  0  0  0  0  0  # atno 8009 bound_to 7997
  155.7804  140.3458  155.5297 H   0  0  0  0  0  0  0  0  0  0  0  0  # atno 8010 bound_to 7997
  139.9106  144.6274  150.8541 H   0  0  0  0  0  0  0  0  0  0  0  0  # atno 10167 bound_to 10162
  156.7477  130.5229  149.5810 H   0  0  0  0  0  0  0  0  0  0  0  0  # atno 10718 bound_to 10713
  153.5707  135.7007  153.5506 H   0  0  0  0  0  0  0  0  0  0  0  0  # atno 10763 bound_to 10752
  153.3347  135.4037  155.1524 H   0  0  0  0  0  0  0  0  0  0  0  0  # atno 10764 bound_to 10752
  154.8633  135.3727  154.5229 H   0  0  0  0  0  0  0  0  0  0  0  0  # atno 10765 bound_to 10752
  140.3233  134.2519  155.7713 H   0  0  0  0  0  0  0  0  0  0  0  0  # atno 11005 bound_to 11000
  145.8016  139.1966  143.2044 LP  0  0  0  0  0  0  0  0  0  0  0  0  # atno 17320 bound_to 7965
  146.0671  140.7908  142.9706 LP  0  0  0  0  0  0  0  0  0  0  0  0  # atno 17321 bound_to 7965
  140.7686  143.3368  151.2291 LP  0  0  0  0  0  0  0  0  0  0  0  0  # atno 17342 bound_to 10162
  139.6946  143.9635  152.2876 LP  0  0  0  0  0  0  0  0  0  0  0  0  # atno 17343 bound_to 10162
  156.1422  130.6252  151.0482 LP  0  0  0  0  0  0  0  0  0  0  0  0  # atno 17370 bound_to 10713
  157.6791  131.0843  150.7418 LP  0  0  0  0  0  0  0  0  0  0  0  0  # atno 17371 bound_to 10713
  141.2081  133.7786  157.0078 LP  0  0  0  0  0  0  0  0  0  0  0  0  # atno 17394 bound_to 11000
  140.0923  134.9585  157.1795 LP  0  0  0  0  0  0  0  0  0  0  0  0  # atno 17395 bound_to 11000

$$$$
