AV-unprocessed.smi:62|AV-procd|sdf|606|dock7
  -GOLD-   2262016503D 1   1.00000     0.00000
 Structure written by MMmdl.
 30 31  0  0  0  0  0  0  0  0  2 V2000
  151.7377  145.1571  159.6612 C   0  0  0  0  0  0  0  0  0  0  0  0
  152.1011  143.7901  159.3564 N   0  0  0  0  0  0  0  0  0  0  0  0
  151.4876  142.9071  158.4980 C   0  0  0  0  0  0  0  0  0  0  0  0
  152.1853  141.7317  158.5305 C   0  0  0  0  0  0  0  0  0  0  0  0
  151.8676  140.4918  157.7282 C   0  0  0  0  0  0  0  0  0  0  0  0
  150.5948  140.5923  157.0208 N   0  0  0  0  0  0  0  0  0  0  0  0
  150.0106  139.3108  156.6619 C   0  0  0  0  0  0  0  0  0  0  0  0
  149.0026  139.5911  155.5387 C   0  0  0  0  0  0  0  0  0  0  0  0
  149.3780  140.9968  155.0413 C   0  0  2  0  0  0  0  0  0  0  0  0
  149.5151  141.0631  153.6373 O   0  0  0  0  0  0  0  0  0  0  0  0
  150.6955  141.2942  155.7589 C   0  0  0  0  0  0  0  0  0  0  0  0
  153.2367  142.0044  159.4711 C   0  0  0  0  0  0  0  0  0  0  0  0
  154.2757  140.9806  159.8472 C   0  0  0  0  0  0  0  0  0  0  0  0
  154.4733  139.9857  159.1157 O   0  0  0  0  0  0  0  0  0  0  0  0
  154.9156  141.1619  160.9069 O   0  5  0  0  0  0  0  0  0  0  0  0
  153.1747  143.2397  159.9526 N   0  0  0  0  0  0  0  0  0  0  0  0
  150.7873  145.4059  159.1881 H   0  0  0  0  0  0  0  0  0  0  0  0
  152.5079  145.8336  159.2896 H   0  0  0  0  0  0  0  0  0  0  0  0
  151.6395  145.2828  160.7400 H   0  0  0  0  0  0  0  0  0  0  0  0
  150.6112  143.1850  157.9318 H   0  0  0  0  0  0  0  0  0  0  0  0
  152.6627  140.2947  157.0088 H   0  0  0  0  0  0  0  0  0  0  0  0
  151.8522  139.6135  158.3752 H   0  0  0  0  0  0  0  0  0  0  0  0
  150.7852  138.6405  156.2859 H   0  0  0  0  0  0  0  0  0  0  0  0
  149.5460  138.8287  157.5227 H   0  0  0  0  0  0  0  0  0  0  0  0
  149.0777  138.8340  154.7570 H   0  0  0  0  0  0  0  0  0  0  0  0
  147.9796  139.5808  155.9162 H   0  0  0  0  0  0  0  0  0  0  0  0
  148.6186  141.7117  155.3611 H   0  0  0  0  0  0  0  0  0  0  0  0
  149.2419  140.2361  153.2710 H   0  0  0  0  0  0  0  0  0  0  0  0
  150.8589  142.3626  155.9038 H   0  0  0  0  0  0  0  0  0  0  0  0
  151.5345  140.9008  155.1818 H   0  0  0  0  0  0  0  0  0  0  0  0
  1  2  1  0  0  0  0
  1 17  1  0  0  0  0
  1 18  1  0  0  0  0
  1 19  1  0  0  0  0
  2 16  1  0  0  0  0
  2  3  1  0  0  0  0
  3  4  2  0  0  0  0
  3 20  1  0  0  0  0
  4  5  1  0  0  0  0
  4 12  1  0  0  0  0
  5  6  1  0  0  0  0
  5 21  1  0  0  0  0
  5 22  1  0  0  0  0
  6 11  1  0  0  0  0
  6  7  1  0  0  0  0
  7  8  1  0  0  0  0
  7 23  1  0  0  0  0
  7 24  1  0  0  0  0
  8  9  1  0  0  0  0
  8 25  1  0  0  0  0
  8 26  1  0  0  0  0
  9 10  1  0  0  0  0
  9 11  1  0  0  0  0
  9 27  1  0  0  0  0
 10 28  1  0  0  0  0
 11 29  1  0  0  0  0
 11 30  1  0  0  0  0
 12 13  1  0  0  0  0
 12 16  2  0  0  0  0
 13 14  2  0  0  0  0
 13 15  1  0  0  0  0
M  CHG  1  15  -1
M  END
> <s_m_source_file>
AV-unprocessed.smi

> <i_m_source_file_index>
62

> <i_lp_mmshare_version>
43012

> <i_f3d_flags>
0

> <s_epik_input>
W0NIM11uMVtjSF1jKGMobjEpQyg9TylbT0hdKVtDSDJdTjJbQ0gyXVtDSDJdW0NAQEhdKFtPSF0pW0NIMl0y

> <s_epik_cmdline>
J2VwaWtfcHl0aG9uJywgJy1waCcsICc3LjAnLCAnLXRuJywgJzgnLCAnLW1hJywgJzIwMCcsICctbWV0YWxfYmluZGluZycsICctaW1hZScsICc8aW5maWxlLm1hZT4nLCAnLW9tYWUnLCAnPG91dGZpbGUubWFlPic=

> <r_epik_Ionization_Penalty>
1.46526

> <r_epik_Ionization_Penalty_Charging>
0.000523675

> <r_epik_Ionization_Penalty_Neutral>
1.46474

> <r_epik_State_Penalty>
1.55202

> <r_epik_Charging_Adjusted_Penalty>
1.55254

> <i_epik_Tot_Q>
-1

> <i_epik_Tot_abs_Q>
1

> <r_epik_Metal_State_Penalty>
1.552

> <b_epik_Metal_Only>
0

> <s_lp_Force_Field>
OPLS_2005

> <r_lp_Energy>
37.4103

> <b_lp_Chiralities_Consistent>
1

> <s_lp_Variant>
AV-unprocessed.smi:62-6

> <Gold.Version>
5.8.1

> <Gold.Id.Protein>
6NUR|6NUR_protein|mol2

> <Gold.PLP.Fitness>
43.2690

> <Gold.PLP.PLP>
-33.6584

> <Gold.PLP.part.hbond>
-5.0000

> <Gold.PLP.part.metal>
0.0000

> <Gold.PLP.part.buried>
-4.1866

> <Gold.PLP.part.nonpolar>
-23.9956

> <Gold.PLP.part.repulsive>
0.0147

> <Gold.PLP.ligand.clash>
0.0000

> <Gold.PLP.ligand.torsion>
0.4424

> <Gold.PLP.Chemscore.Hbond>
3.4948

> <Gold.PLP.Chemscore.CHOScore>
0.0000

> <Gold.PLP.Chemscore.Metal>
0.0000

> <Gold.Chemscore.Hbonds>
donor molecule, donor type, donor heavy atom, donor atom, acceptor molecule, acceptor atom, score
      L1  H    10    28       P1  7957  0.20
      P1  H  7989  7998       L1    10  0.24
      P1  H  7997  8010       L1    14  1.98
      P1  H  8011  8017       L1    10  0.99

> <Gold.PLP.Chemscore.Internal.Correction>
0.0109

> <Gold.Rescore>
     Score         DG    S(hbond)    S(metal)    S(lipo)     H(rot)  DE(clash)    DE(int)     intcor
     15.32     -16.19       2.23        0.00      66.57       1.77       0.13       0.73       ----

> <Gold.Chemscore.Fitness>
15.3200

> <Gold.Chemscore.DG>
-16.1875

> <Gold.Chemscore.ZeroCoef>
-5.4800

> <Gold.Chemscore.Hbond>
2.2284

> <Gold.Chemscore.Metal>
0.0000

> <Gold.Chemscore.Lipo>
66.5743

> <Gold.Chemscore.Internal_Hbond>
0.0000

> <Gold.Chemscore.DEClash>
0.1330

> <Gold.Chemscore.DEInternal>
0.7345

> <Gold.Chemscore.Rot>
1.7674

> <Gold.Chemscore.Internal.Correction>
   9.000000E+99

> <Gold.Chemscore.Hbonds>
donor molecule, donor type, donor heavy atom, donor atom, acceptor molecule, acceptor atom, score
      L1  H    10    28       P1  7957  0.19
      P1  H  7989  7998       L1    10  0.02
      P1  H  7997  8010       L1    14  0.94
      P1  H  8011  8017       L1    10  0.83

> <Gold.Chemscore.Hbond.Weighted>
-7.4428

> <Gold.Chemscore.Metal.Weighted>
-0.0000

> <Gold.Chemscore.Lipo.Weighted>
-7.7892

> <Gold.Chemscore.Internal_Hbond.Weighted>
0.0000

> <Gold.Chemscore.DEClash.Weighted>
0.1330

> <Gold.Chemscore.DEInternal.Weighted>
0.7345

> <Gold.Chemscore.Rot.Weighted>
4.5245

> <Gold.Chemscore.Internal.Correction.Weighted>
   9.000000E+99

> <Gold.Protein.RotatedTorsions>
[ 6907 6896 6895 6894 ] final   18.35 input  -60.11 | X-H torsion
[ 7974 7965 7964 7962 ] final   -3.91 input  175.53 | X-H torsion
[ 8008 7997 7996 7995 ] final   -4.79 input   59.86 | X-H torsion
[ 10167 10162 10161 10158 ] final -124.36 input  -65.29 | X-H torsion
[ 10718 10713 10712 10709 ] final   77.07 input   66.30 | X-H torsion
[ 10763 10752 10751 10750 ] final  100.79 input  -60.55 | X-H torsion
[ 11005 11000 10999 10996 ] final  -65.53 input  -57.11 | X-H torsion

> <Gold.Protein.ActiveResidues>
 VAL166  LYS551  ARG553  GLY616  TRP617  ASP618  TYR619  PRO620  LYS621  CYS622 
 ASP623  PHE694  ASN695  SER759  ASP760  ASP761  ALA762  ILE779  LEU786  VAL792 
 PHE793  MET794  SER795  GLU796  ALA797  LYS798  CYS799  TRP800  GLU811  SER814 

> <Gold.Protein.RotatedAtoms>
  151.8639  135.0514  160.0471 H   0  0  0  0  0  0  0  0  0  0  0  0  # atno 6907 bound_to 6896
  152.2641  133.5319  159.5408 H   0  0  0  0  0  0  0  0  0  0  0  0  # atno 6908 bound_to 6896
  150.7127  134.0705  159.3905 H   0  0  0  0  0  0  0  0  0  0  0  0  # atno 6909 bound_to 6896
  146.2381  140.1792  142.8332 H   0  0  0  0  0  0  0  0  0  0  0  0  # atno 7974 bound_to 7965
  154.6106  140.2475  155.7674 H   0  0  0  0  0  0  0  0  0  0  0  0  # atno 8008 bound_to 7997
  156.2368  140.2947  156.0285 H   0  0  0  0  0  0  0  0  0  0  0  0  # atno 8009 bound_to 7997
  155.2059  140.0395  157.2915 H   0  0  0  0  0  0  0  0  0  0  0  0  # atno 8010 bound_to 7997
  139.9936  143.5614  152.2332 H   0  0  0  0  0  0  0  0  0  0  0  0  # atno 10167 bound_to 10162
  157.6697  130.9804  150.1588 H   0  0  0  0  0  0  0  0  0  0  0  0  # atno 10718 bound_to 10713
  153.3184  135.4066  155.1396 H   0  0  0  0  0  0  0  0  0  0  0  0  # atno 10763 bound_to 10752
  154.8594  135.3581  154.5629 H   0  0  0  0  0  0  0  0  0  0  0  0  # atno 10764 bound_to 10752
  153.6061  135.7069  153.5424 H   0  0  0  0  0  0  0  0  0  0  0  0  # atno 10765 bound_to 10752
  141.1457  133.6683  156.6001 H   0  0  0  0  0  0  0  0  0  0  0  0  # atno 11005 bound_to 11000
  144.9948  140.8580  143.5317 LP  0  0  0  0  0  0  0  0  0  0  0  0  # atno 17320 bound_to 7965
  145.1803  139.2355  143.5296 LP  0  0  0  0  0  0  0  0  0  0  0  0  # atno 17321 bound_to 7965
  139.6322  144.7645  151.2513 LP  0  0  0  0  0  0  0  0  0  0  0  0  # atno 17342 bound_to 10162
  140.7445  143.6460  150.8291 LP  0  0  0  0  0  0  0  0  0  0  0  0  # atno 17343 bound_to 10162
  156.2369  130.3687  149.8381 LP  0  0  0  0  0  0  0  0  0  0  0  0  # atno 17370 bound_to 10713
  156.6191  130.8619  151.3471 LP  0  0  0  0  0  0  0  0  0  0  0  0  # atno 17371 bound_to 10713
  140.3695  134.7618  157.4589 LP  0  0  0  0  0  0  0  0  0  0  0  0  # atno 17394 bound_to 11000
  140.0721  134.5848  155.8630 LP  0  0  0  0  0  0  0  0  0  0  0  0  # atno 17395 bound_to 11000

$$$$
