#       Name:                AV-unprocessed.smi:21
#       Creating user name   scv26
#       Creation time:       Thu Mar 26 15:36:44 2020


#       File generated by GOLD software.
#

@<TRIPOS>MOLECULE
AV-unprocessed.smi:21
    71    74     1
SMALL
NO_CHARGES


@<TRIPOS>ATOM
      1 ****        -1.5144  -1.0335   5.3363 C.3            1 S1                 0.0000
      2 ****        -2.5684  -1.8352   4.8277 O.3            1 S1                 0.0000
      3 ****        -3.4478  -1.1344   3.9607 C.3            1 S1                 0.0000
      4 ****        -2.8437  -0.8480   2.5899 C.3            1 S1                 0.0000
      5 ****        -4.0748  -0.6470   1.6970 C.3            1 S1                 0.0000
      6 ****        -3.8034  -0.8474   0.1850 C.3            1 S1                 0.0000
      7 ****        -2.8593   0.1374  -0.3529 N.pl3          1 S1                 0.0000
      8 ****        -3.3491   1.4935  -0.5708 C.3            1 S1                 0.0000
      9 ****        -1.5229  -0.1348  -0.4455 C.ar           1 S1                 0.0000
     10 ****        -1.1085  -1.4153  -0.2457 N.ar           1 S1                 0.0000
     11 ****         0.1832  -1.7445  -0.3190 C.ar           1 S1                 0.0000
     12 ****         1.2269  -0.9598  -0.5800 N.ar           1 S1                 0.0000
     13 ****         0.8326   0.3275  -0.7885 C.ar           1 S1                 0.0000
     14 ****        -0.5034   0.8260  -0.7405 C.ar           1 S1                 0.0000
     15 ****        -0.4872   2.1939  -1.0005 N.2            1 S1                 0.0000
     16 ****         0.7704   2.4817  -1.1907 C.2            1 S1                 0.0000
     17 ****         1.6319   1.4157  -1.0886 N.pl3          1 S1                 0.0000
     18 ****         3.0755   1.4409  -1.2478 C.3            1 S1                 0.0000
     19 ****         3.5469   0.8050  -2.5813 C.3            1 S1                 0.0000
     20 ****         3.0125   1.5932  -3.8000 C.3            1 S1                 0.0000
     21 ****         3.2259   0.8859  -5.0039 O.3            1 S1                 0.0000
     22 ****         5.0852   0.5984  -2.6564 C.3            1 S1                 0.0000
     23 ****         5.9561   1.8178  -2.4010 C.3            1 S1                 0.0000
     24 ****         7.3025   1.1656  -2.1186 C.3            1 S1                 0.0000
     25 ****         6.9752   0.0213  -1.3421 O.3            1 S1                 0.0000
     26 ****         5.6718  -0.4422  -1.6905 C.3            1 S1                 0.0000
     27 ****        -5.1415  -1.5072   2.2896 N.4            1 S1                 1.0000
     28 ****        -5.7089  -2.5812   1.4402 C.3            1 S1                 0.0000
     29 ****        -4.6497  -2.0040   3.5965 C.3            1 S1                 0.0000
     30 ****        -3.7983  -0.2094   4.4226 H              1 S1                 0.0000
     31 ****        -4.4250   0.3753   1.8466 H              1 S1                 0.0000
     32 ****        -0.9061  -1.6236   6.0218 H              1 S1                 0.0000
     33 ****        -1.9014  -0.1752   5.8871 H              1 S1                 0.0000
     34 ****        -0.8631  -0.6742   4.5392 H              1 S1                 0.0000
     35 ****        -2.1771   0.0149   2.5877 H              1 S1                 0.0000
     36 ****        -2.2743  -1.7164   2.2562 H              1 S1                 0.0000
     37 ****        -3.4867  -1.8692  -0.0221 H              1 S1                 0.0000
     38 ****        -4.7342  -0.7201  -0.3681 H              1 S1                 0.0000
     39 ****        -2.9316   2.1784   0.1678 H              1 S1                 0.0000
     40 ****        -4.4351   1.5372  -0.4846 H              1 S1                 0.0000
     41 ****        -3.0872   1.8436  -1.5696 H              1 S1                 0.0000
     42 ****         0.4127  -2.7855  -0.1448 H              1 S1                 0.0000
     43 ****         1.1045   3.4841  -1.4163 H              1 S1                 0.0000
     44 ****         3.4036   2.4783  -1.1814 H              1 S1                 0.0000
     45 ****         3.5047   0.9278  -0.3886 H              1 S1                 0.0000
     46 ****         3.1032  -0.1906  -2.6328 H              1 S1                 0.0000
     47 ****         1.9395   1.7634  -3.7180 H              1 S1                 0.0000
     48 ****         3.4854   2.5732  -3.8670 H              1 S1                 0.0000
     49 ****         2.8784   1.3967  -5.7192 H              1 S1                 0.0000
     50 ****         5.3333   0.2418  -3.6572 H              1 S1                 0.0000
     51 ****         5.9883   2.5065  -3.2457 H              1 S1                 0.0000
     52 ****         5.6333   2.3695  -1.5189 H              1 S1                 0.0000
     53 ****         7.7782   0.8460  -3.0470 H              1 S1                 0.0000
     54 ****         7.9905   1.8260  -1.5904 H              1 S1                 0.0000
     55 ****         5.0897  -0.5496  -0.7767 H              1 S1                 0.0000
     56 ****         5.7280  -1.4259  -2.1578 H              1 S1                 0.0000
     57 ****        -4.9420  -3.2927   1.1313 H              1 S1                 0.0000
     58 ****        -6.1890  -2.1715   0.5516 H              1 S1                 0.0000
     59 ****        -6.4717  -3.1305   1.9932 H              1 S1                 0.0000
     60 ****        -4.3238  -3.0409   3.4938 H              1 S1                 0.0000
     61 ****        -5.4306  -1.9769   4.3566 H              1 S1                 0.0000
     62 ****        -5.9068  -0.8803   2.4939 H              1 S1                 0.0000
     63 ****        -3.0987  -2.1869   5.5991 LP             1 S1                 0.0000
     64 ****        -2.1685  -2.5996   4.3220 LP             1 S1                 0.0000
     65 ****        -1.7843  -2.1232  -0.0401 LP             1 S1                 0.0000
     66 ****         2.1754  -1.2741  -0.6180 LP             1 S1                 0.0000
     67 ****        -1.2679   2.8180  -1.0340 LP             1 S1                 0.0000
     68 ****         2.7592   0.0024  -4.9629 LP             1 S1                 0.0000
     69 ****         4.2057   0.7393  -5.1394 LP             1 S1                 0.0000
     70 ****         6.9935   0.2622  -0.3718 LP             1 S1                 0.0000
     71 ****         7.6429  -0.7018  -1.5187 LP             1 S1                 0.0000
@<TRIPOS>BOND
    1    1    2 1     
    2    1   32 1     
    3    1   33 1     
    4    1   34 1     
    5    2    3 1     
    6    3   30 1     
    7    3   29 1     
    8    3    4 1     
    9    4    5 1     
   10    4   35 1     
   11    4   36 1     
   12    5   31 1     
   13    5    6 1     
   14    5   27 1     
   15    6    7 1     
   16    6   37 1     
   17    6   38 1     
   18    7    8 1     
   19    7    9 1     
   20    8   39 1     
   21    8   40 1     
   22    8   41 1     
   23    9   14 ar    
   24    9   10 ar    
   25   10   11 ar    
   26   11   12 ar    
   27   11   42 1     
   28   12   13 ar    
   29   13   17 1     
   30   13   14 ar    
   31   14   15 1     
   32   15   16 2     
   33   16   17 1     
   34   16   43 1     
   35   17   18 1     
   36   18   19 1     
   37   18   44 1     
   38   18   45 1     
   39   19   20 1     
   40   19   22 1     
   41   19   46 1     
   42   20   21 1     
   43   20   47 1     
   44   20   48 1     
   45   21   49 1     
   46   22   26 1     
   47   22   23 1     
   48   22   50 1     
   49   23   24 1     
   50   23   51 1     
   51   23   52 1     
   52   24   25 1     
   53   24   53 1     
   54   24   54 1     
   55   25   26 1     
   56   26   55 1     
   57   26   56 1     
   58   27   28 1     
   59   27   29 1     
   60   27   62 1     
   61   28   57 1     
   62   28   58 1     
   63   28   59 1     
   64   29   60 1     
   65   29   61 1     
   66    2   63 1     
   67    2   64 1     
   68   10   65 1     
   69   12   66 1     
   70   15   67 1     
   71   21   68 1     
   72   21   69 1     
   73   25   70 1     
   74   25   71 1     
@<TRIPOS>SUBSTRUCTURE
      1 S1             1
@<TRIPOS>SET
LONE_PAIRS      STATIC     ATOMS    <user>   **** ""
9 63 64 65 66 67 68 69 70 71
DONOR_HYDROGENS      STATIC     ATOMS    <user>   **** ""
2 49 62
ATOM$BLUE        STATIC     ATOMS    COLORGROUP SYSTEM
9 63 64 65 66 67 68 69 70 71
ATOM$RED        STATIC     ATOMS    COLORGROUP SYSTEM
2 49 62
