AV-unprocessed.smi:1875|AV-procd|sdf|7616|dock1
  -GOLD-   22720 9343D 1   1.00000     0.00000
 Structure written by MMmdl.
 49 51  0  0  0  0  0  0  0  0  3 V2000
  150.8405  130.5961  155.3517 C   0  0  0  0  0  0  0  0  0  0  0  0
  150.0092  131.7370  154.8033 C   0  0  0  0  0  0  0  0  0  0  0  0
  149.0349  131.4198  153.9454 N   0  0  0  0  0  0  0  0  0  0  0  0
  148.2945  132.4377  153.4554 C   0  0  0  0  0  0  0  0  0  0  0  0
  148.5284  133.7745  153.8371 C   0  0  0  0  0  0  0  0  0  0  0  0
  149.5826  133.9868  154.7500 C   0  0  0  0  0  0  0  0  0  0  0  0
  149.9210  135.3780  155.2532 C   0  0  0  0  0  0  0  0  0  0  0  0
  148.9754  136.3924  154.7416 N   0  3  0  0  0  0  0  0  0  0  0  0
  149.0874  137.7228  155.3780 C   0  0  0  0  0  0  0  0  0  0  0  0
  150.1070  138.6153  154.6470 C   0  0  2  0  0  0  0  0  0  0  0  0
  150.7075  137.8724  153.6063 O   0  0  0  0  0  0  0  0  0  0  0  0
  151.2335  139.1413  155.5609 C   0  0  0  0  0  0  0  0  0  0  0  0
  150.9471  140.4640  156.1328 N   0  0  0  0  0  0  0  0  0  0  0  0
  150.1560  141.4698  155.6671 C   0  0  0  0  0  0  0  0  0  0  0  0
  150.2250  142.4938  156.5622 N   0  3  0  0  0  0  0  0  0  0  0  0
  151.0623  142.1327  157.6201 C   0  0  0  0  0  0  0  0  0  0  0  0
  151.4389  142.8288  158.7624 C   0  0  0  0  0  0  0  0  0  0  0  0
  152.3108  142.1717  159.6599 C   0  0  0  0  0  0  0  0  0  0  0  0
  152.7397  142.9044  160.9197 C   0  0  0  0  0  0  0  0  0  0  0  0
  152.7765  140.8574  159.3959 C   0  0  0  0  0  0  0  0  0  0  0  0
  153.7104  140.1595  160.3704 C   0  0  0  0  0  0  0  0  0  0  0  0
  152.3846  140.1675  158.2260 C   0  0  0  0  0  0  0  0  0  0  0  0
  151.5252  140.8297  157.3530 C   0  0  0  0  0  0  0  0  0  0  0  0
  150.3228  132.9633  155.2323 N   0  0  0  0  0  0  0  0  0  0  0  0
  150.4327  129.6274  155.0592 H   0  0  0  0  0  0  0  0  0  0  0  0
  150.8698  130.6359  156.4409 H   0  0  0  0  0  0  0  0  0  0  0  0
  151.8625  130.6617  154.9773 H   0  0  0  0  0  0  0  0  0  0  0  0
  147.5085  132.1844  152.7596 H   0  0  0  0  0  0  0  0  0  0  0  0
  147.9315  134.5861  153.4473 H   0  0  0  0  0  0  0  0  0  0  0  0
  149.9393  135.3990  156.3440 H   0  0  0  0  0  0  0  0  0  0  0  0
  150.9250  135.6389  154.9177 H   0  0  0  0  0  0  0  0  0  0  0  0
  149.1434  136.5092  153.7525 H   0  0  0  0  0  0  0  0  0  0  0  0
  148.1074  138.1972  155.3503 H   0  0  0  0  0  0  0  0  0  0  0  0
  149.3585  137.6106  156.4287 H   0  0  0  0  0  0  0  0  0  0  0  0
  149.5855  139.4613  154.1978 H   0  0  0  0  0  0  0  0  0  0  0  0
  150.0547  137.3108  153.2160 H   0  0  0  0  0  0  0  0  0  0  0  0
  151.3934  138.4569  156.3954 H   0  0  0  0  0  0  0  0  0  0  0  0
  152.1807  139.1992  155.0223 H   0  0  0  0  0  0  0  0  0  0  0  0
  149.5816  141.4610  154.7517 H   0  0  0  0  0  0  0  0  0  0  0  0
  151.0793  143.8286  158.9586 H   0  0  0  0  0  0  0  0  0  0  0  0
  152.4200  142.3584  161.8077 H   0  0  0  0  0  0  0  0  0  0  0  0
  152.3043  143.9029  160.9677 H   0  0  0  0  0  0  0  0  0  0  0  0
  153.8243  143.0126  160.9500 H   0  0  0  0  0  0  0  0  0  0  0  0
  153.9589  139.1525  160.0343 H   0  0  0  0  0  0  0  0  0  0  0  0
  153.2462  140.0758  161.3533 H   0  0  0  0  0  0  0  0  0  0  0  0
  154.6419  140.7166  160.4731 H   0  0  0  0  0  0  0  0  0  0  0  0
  152.7382  139.1667  158.0254 H   0  0  0  0  0  0  0  0  0  0  0  0
  148.0349  136.0472  154.8685 H   0  0  0  0  0  0  0  0  0  0  0  0
  149.7295  143.3707  156.4611 H   0  0  0  0  0  0  0  0  0  0  0  0
  1  2  1  0  0  0  0
  1 25  1  0  0  0  0
  1 26  1  0  0  0  0
  1 27  1  0  0  0  0
  2 24  1  0  0  0  0
  2  3  2  0  0  0  0
  3  4  1  0  0  0  0
  4  5  2  0  0  0  0
  4 28  1  0  0  0  0
  5  6  1  0  0  0  0
  5 29  1  0  0  0  0
  6  7  1  0  0  0  0
  6 24  2  0  0  0  0
  7  8  1  0  0  0  0
  7 30  1  0  0  0  0
  7 31  1  0  0  0  0
  8  9  1  0  0  0  0
  8 32  1  0  0  0  0
  8 48  1  0  0  0  0
  9 10  1  0  0  0  0
  9 33  1  0  0  0  0
  9 34  1  0  0  0  0
 10 11  1  0  0  0  0
 10 12  1  0  0  0  0
 10 35  1  0  0  0  0
 11 36  1  0  0  0  0
 12 13  1  0  0  0  0
 12 37  1  0  0  0  0
 12 38  1  0  0  0  0
 13 23  1  0  0  0  0
 13 14  1  0  0  0  0
 14 15  2  0  0  0  0
 14 39  1  0  0  0  0
 15 16  1  0  0  0  0
 15 49  1  0  0  0  0
 16 23  2  0  0  0  0
 16 17  1  0  0  0  0
 17 18  2  0  0  0  0
 17 40  1  0  0  0  0
 18 19  1  0  0  0  0
 18 20  1  0  0  0  0
 19 41  1  0  0  0  0
 19 42  1  0  0  0  0
 19 43  1  0  0  0  0
 20 21  1  0  0  0  0
 20 22  2  0  0  0  0
 21 44  1  0  0  0  0
 21 45  1  0  0  0  0
 21 46  1  0  0  0  0
 22 23  1  0  0  0  0
 22 47  1  0  0  0  0
M  CHG  1   8   1
M  CHG  1  15   1
M  END
> <s_m_source_file>
AV-unprocessed.smi

> <i_m_source_file_index>
1875

> <i_lp_mmshare_version>
43012

> <i_f3d_flags>
0

> <s_epik_input>
W0NIM11jMW5bY0hdW2NIXWMobjEpW0NIMl1bTkhdW0NIMl1bQ0BIXShbT0hdKVtDSDJdbihbY0hdbjIpYyhjMjMpW2NIXWMoW0NIM10pYyhbY0hdMylbQ0gzXQ==

> <s_epik_cmdline>
J2VwaWtfcHl0aG9uJywgJy1waCcsICc3LjAnLCAnLXRuJywgJzgnLCAnLW1hJywgJzIwMCcsICctbWV0YWxfYmluZGluZycsICctaW1hZScsICc8aW5maWxlLm1hZT4nLCAnLW9tYWUnLCAnPG91dGZpbGUubWFlPic=

> <r_lp_tautomer_probability>
1

> <r_epik_Ionization_Penalty>
1.27527

> <r_epik_Ionization_Penalty_Charging>
1.27526

> <r_epik_Ionization_Penalty_Neutral>
8.72389e-06

> <r_epik_State_Penalty>
1.28654

> <r_epik_Charging_Adjusted_Penalty>
2.5618

> <i_epik_Tot_Q>
2

> <i_epik_Tot_abs_Q>
2

> <r_epik_Metal_State_Penalty>
1.36882

> <b_epik_Metal_Only>
0

> <s_epik_Chemistry_Notes>
This compound contains an electron-poor aromatic ring that is susceptible to covalent hydrolysis at low pH, typically resulting in measured values for nitrogen ring protonation that are around two units higher than predicted values.

> <s_lp_Force_Field>
OPLS_2005

> <r_lp_Energy>
13.455

> <b_lp_Chiralities_Consistent>
1

> <s_lp_Variant>
AV-unprocessed.smi:1875-5

> <Gold.Version>
5.8.1

> <Gold.Id.Protein>
6NUR|6NUR_protein|mol2

> <Gold.PLP.Fitness>
59.8919

> <Gold.PLP.PLP>
-48.5980

> <Gold.PLP.part.hbond>
-4.0000

> <Gold.PLP.part.metal>
0.0000

> <Gold.PLP.part.buried>
-4.4584

> <Gold.PLP.part.nonpolar>
-40.1488

> <Gold.PLP.part.repulsive>
0.1493

> <Gold.PLP.ligand.clash>
0.0000

> <Gold.PLP.ligand.torsion>
1.7825

> <Gold.PLP.Chemscore.Hbond>
4.9000

> <Gold.PLP.Chemscore.CHOScore>
0.0000

> <Gold.PLP.Chemscore.Metal>
0.0000

> <Gold.Chemscore.Hbonds>
donor molecule, donor type, donor heavy atom, donor atom, acceptor molecule, acceptor atom, score
      L1  H     8    32       P1  7948  2.00
      L1  H    11    36       P1  7948  0.95
      L1  H    15    49       P1  8028  2.00

> <Gold.PLP.Chemscore.Internal.Correction>
0.1589

> <Gold.Rescore>
     Score         DG    S(hbond)    S(metal)    S(lipo)     H(rot)  DE(clash)    DE(int)     intcor
     17.88     -19.64       2.70        0.00     107.10       2.88       0.00       1.76       ----

> <Gold.Chemscore.Fitness>
17.8770

> <Gold.Chemscore.DG>
-19.6373

> <Gold.Chemscore.ZeroCoef>
-5.4800

> <Gold.Chemscore.Hbond>
2.6974

> <Gold.Chemscore.Metal>
0.0000

> <Gold.Chemscore.Lipo>
107.0984

> <Gold.Chemscore.Internal_Hbond>
0.0000

> <Gold.Chemscore.DEClash>
0.0048

> <Gold.Chemscore.DEInternal>
1.7555

> <Gold.Chemscore.Rot>
2.8838

> <Gold.Chemscore.Internal.Correction>
   9.000000E+99

> <Gold.Chemscore.Hbonds>
donor molecule, donor type, donor heavy atom, donor atom, acceptor molecule, acceptor atom, score
      L1  H     8    32       P1  7948  0.98
      L1  H    11    36       P1  7948  0.21
      L1  H    15    49       P1  8028  0.99

> <Gold.Chemscore.Hbond.Weighted>
-9.0092

> <Gold.Chemscore.Metal.Weighted>
-0.0000

> <Gold.Chemscore.Lipo.Weighted>
-12.5305

> <Gold.Chemscore.Internal_Hbond.Weighted>
0.0000

> <Gold.Chemscore.DEClash.Weighted>
0.0048

> <Gold.Chemscore.DEInternal.Weighted>
1.7555

> <Gold.Chemscore.Rot.Weighted>
7.3824

> <Gold.Chemscore.Internal.Correction.Weighted>
   9.000000E+99

> <Gold.Protein.RotatedTorsions>
[ 6907 6896 6895 6894 ] final  177.35 input  -60.11 | X-H torsion
[ 7974 7965 7964 7962 ] final  161.68 input  175.53 | X-H torsion
[ 8008 7997 7996 7995 ] final   -6.82 input   59.86 | X-H torsion
[ 10167 10162 10161 10158 ] final  127.09 input  -65.29 | X-H torsion
[ 10718 10713 10712 10709 ] final  142.05 input   66.30 | X-H torsion
[ 10763 10752 10751 10750 ] final  -55.65 input  -60.55 | X-H torsion
[ 11005 11000 10999 10996 ] final -163.09 input  -57.11 | X-H torsion

> <Gold.Protein.ActiveResidues>
 VAL166  LYS551  ARG553  GLY616  TRP617  ASP618  TYR619  PRO620  LYS621  CYS622 
 ASP623  PHE694  ASN695  SER759  ASP760  ASP761  ALA762  ILE779  LEU786  VAL792 
 PHE793  MET794  SER795  GLU796  ALA797  LYS798  CYS799  TRP800  GLU811  SER814 

> <Gold.Protein.RotatedAtoms>
  151.7054  133.3311  159.3276 H   0  0  0  0  0  0  0  0  0  0  0  0  # atno 6907 bound_to 6896
  150.7717  134.6579  159.6333 H   0  0  0  0  0  0  0  0  0  0  0  0  # atno 6908 bound_to 6896
  152.3744  134.6688  160.0217 H   0  0  0  0  0  0  0  0  0  0  0  0  # atno 6909 bound_to 6896
  144.7673  139.7933  143.6310 H   0  0  0  0  0  0  0  0  0  0  0  0  # atno 7974 bound_to 7965
  154.5900  140.2423  155.7934 H   0  0  0  0  0  0  0  0  0  0  0  0  # atno 8008 bound_to 7997
  156.2240  140.2988  155.9976 H   0  0  0  0  0  0  0  0  0  0  0  0  # atno 8009 bound_to 7997
  155.2391  140.0406  157.2963 H   0  0  0  0  0  0  0  0  0  0  0  0  # atno 8010 bound_to 7997
  139.5596  144.6873  151.4080 H   0  0  0  0  0  0  0  0  0  0  0  0  # atno 10167 bound_to 10162
  157.3850  131.0997  151.0702 H   0  0  0  0  0  0  0  0  0  0  0  0  # atno 10718 bound_to 10713
  154.1942  135.6422  153.5068 H   0  0  0  0  0  0  0  0  0  0  0  0  # atno 10763 bound_to 10752
  153.0027  135.5436  154.6383 H   0  0  0  0  0  0  0  0  0  0  0  0  # atno 10764 bound_to 10752
  154.5780  135.2922  155.0734 H   0  0  0  0  0  0  0  0  0  0  0  0  # atno 10765 bound_to 10752
  140.6019  134.4938  157.5206 H   0  0  0  0  0  0  0  0  0  0  0  0  # atno 11005 bound_to 11000
  146.1792  139.4976  142.9877 LP  0  0  0  0  0  0  0  0  0  0  0  0  # atno 17320 bound_to 7965
  145.6429  141.0280  143.1802 LP  0  0  0  0  0  0  0  0  0  0  0  0  # atno 17321 bound_to 7965
  140.6875  143.7940  150.7206 LP  0  0  0  0  0  0  0  0  0  0  0  0  # atno 17342 bound_to 10162
  140.1413  143.4439  152.2192 LP  0  0  0  0  0  0  0  0  0  0  0  0  # atno 17343 bound_to 10162
  157.1756  130.6287  149.5655 LP  0  0  0  0  0  0  0  0  0  0  0  0  # atno 17370 bound_to 10713
  155.9784  130.4770  150.6656 LP  0  0  0  0  0  0  0  0  0  0  0  0  # atno 17371 bound_to 10713
  139.9229  134.8114  156.1157 LP  0  0  0  0  0  0  0  0  0  0  0  0  # atno 17394 bound_to 11000
  141.0866  133.6731  156.2450 LP  0  0  0  0  0  0  0  0  0  0  0  0  # atno 17395 bound_to 11000

$$$$
