AV-unprocessed.smi:1782|AV-procd|sdf|7190|dock9
  -GOLD-   22720 8433D 1   1.00000     0.00000
 Structure written by MMmdl.
 42 44  0  0  0  0  0  0  0  0  2 V2000
  150.3525  139.7365  154.2631 O   0  0  0  0  0  0  0  0  0  0  0  0
  149.5335  140.4947  154.7804 C   0  0  0  0  0  0  0  0  0  0  0  0
  150.0394  141.6847  155.6154 C   0  0  0  0  0  0  0  0  0  0  0  0
  150.6953  141.3241  156.8866 N   0  0  0  0  0  0  0  0  0  0  0  0
  150.8174  139.9521  157.1700 C   0  0  0  0  0  0  0  0  0  0  0  0
  151.3931  139.5128  158.2972 C   0  0  0  0  0  0  0  0  0  0  0  0
  151.8944  140.4898  159.2327 C   0  0  0  0  0  0  0  0  0  0  0  0
  151.7877  141.8168  158.9902 C   0  0  0  0  0  0  0  0  0  0  0  0
  152.3073  142.8644  159.9723 C   0  0  0  0  0  0  0  0  0  0  0  0
  153.2916  143.5763  159.4224 F   0  0  0  0  0  0  0  0  0  0  0  0
  151.3301  143.7028  160.3204 F   0  0  0  0  0  0  0  0  0  0  0  0
  152.7809  142.3058  161.0871 F   0  0  0  0  0  0  0  0  0  0  0  0
  151.1504  142.2901  157.7445 C   0  0  0  0  0  0  0  0  0  0  0  0
  151.0178  143.4870  157.4846 O   0  0  0  0  0  0  0  0  0  0  0  0
  148.2073  140.3290  154.6433 N   0  0  0  0  0  0  0  0  0  0  0  0
  147.5701  139.2744  153.8647 C   0  0  2  0  0  0  0  0  0  0  0  0
  147.5938  139.4954  152.3552 C   0  0  0  0  0  0  0  0  0  0  0  0
  146.4570  138.5894  151.8703 C   0  0  0  0  0  0  0  0  0  0  0  0
  145.4774  138.5032  152.9822 N   0  3  1  0  0  0  0  0  0  0  0  0
  145.0259  137.1243  153.2695 C   0  0  0  0  0  0  0  0  0  0  0  0
  144.9757  136.2372  152.0484 C   0  0  0  0  0  0  0  0  0  0  0  0
  143.6951  136.7837  152.6419 C   0  0  0  0  0  0  0  0  0  0  0  0
  146.0717  139.1872  154.1520 C   0  0  0  0  0  0  0  0  0  0  0  0
  150.7209  142.2651  154.9917 H   0  0  0  0  0  0  0  0  0  0  0  0
  149.1986  142.3546  155.8042 H   0  0  0  0  0  0  0  0  0  0  0  0
  150.4128  139.2869  156.4208 H   0  0  0  0  0  0  0  0  0  0  0  0
  151.4778  138.4554  158.5010 H   0  0  0  0  0  0  0  0  0  0  0  0
  152.3595  140.1377  160.1415 H   0  0  0  0  0  0  0  0  0  0  0  0
  147.5994  140.9910  155.1036 H   0  0  0  0  0  0  0  0  0  0  0  0
  148.0333  138.3140  154.1003 H   0  0  0  0  0  0  0  0  0  0  0  0
  147.3676  140.5369  152.1205 H   0  0  0  0  0  0  0  0  0  0  0  0
  148.5538  139.2473  151.9013 H   0  0  0  0  0  0  0  0  0  0  0  0
  145.9878  138.9699  150.9628 H   0  0  0  0  0  0  0  0  0  0  0  0
  146.8555  137.5989  151.6434 H   0  0  0  0  0  0  0  0  0  0  0  0
  145.3012  136.7150  154.2403 H   0  0  0  0  0  0  0  0  0  0  0  0
  145.3067  136.6510  151.0973 H   0  0  0  0  0  0  0  0  0  0  0  0
  145.1765  135.1770  152.1892 H   0  0  0  0  0  0  0  0  0  0  0  0
  143.0536  136.0838  153.1736 H   0  0  0  0  0  0  0  0  0  0  0  0
  143.1741  137.5606  152.0848 H   0  0  0  0  0  0  0  0  0  0  0  0
  145.8572  138.6810  155.0946 H   0  0  0  0  0  0  0  0  0  0  0  0
  145.6368  140.1864  154.2103 H   0  0  0  0  0  0  0  0  0  0  0  0
  144.6607  139.0338  152.7148 H   0  0  0  0  0  0  0  0  0  0  0  0
  1  2  2  0  0  0  0
  2  3  1  0  0  0  0
  2 15  1  0  0  0  0
  3  4  1  0  0  0  0
  3 24  1  0  0  0  0
  3 25  1  0  0  0  0
  4 13  1  0  0  0  0
  4  5  1  0  0  0  0
  5  6  2  0  0  0  0
  5 26  1  0  0  0  0
  6  7  1  0  0  0  0
  6 27  1  0  0  0  0
  7  8  2  0  0  0  0
  7 28  1  0  0  0  0
  8  9  1  0  0  0  0
  8 13  1  0  0  0  0
  9 10  1  0  0  0  0
  9 11  1  0  0  0  0
  9 12  1  0  0  0  0
 13 14  2  0  0  0  0
 15 16  1  0  0  0  0
 15 29  1  0  0  0  0
 16 23  1  0  0  0  0
 16 17  1  0  0  0  0
 16 30  1  0  0  0  0
 17 18  1  0  0  0  0
 17 31  1  0  0  0  0
 17 32  1  0  0  0  0
 18 19  1  0  0  0  0
 18 33  1  0  0  0  0
 18 34  1  0  0  0  0
 19 20  1  0  0  0  0
 19 23  1  0  0  0  0
 19 42  1  0  0  0  0
 20 22  1  0  0  0  0
 20 21  1  0  0  0  0
 20 35  1  0  0  0  0
 21 22  1  0  0  0  0
 21 36  1  0  0  0  0
 21 37  1  0  0  0  0
 22 38  1  0  0  0  0
 22 39  1  0  0  0  0
 23 40  1  0  0  0  0
 23 41  1  0  0  0  0
M  CHG  1  19   1
M  END
> <s_m_source_file>
AV-unprocessed.smi

> <i_m_source_file_index>
1782

> <i_lp_mmshare_version>
43012

> <i_f3d_flags>
0

> <s_epik_input>
W0NIMl0xW0NIMl1bQ0hdMU4oW0NIMl0yKVtDSDJdW0NIMl1bQ0BIXTJbTkhdQyg9TylbQ0gyXW4zW2NIXVtjSF1bY0hdYyhDKEYpKEYpRiljMz1P

> <s_epik_cmdline>
J2VwaWtfcHl0aG9uJywgJy1waCcsICc3LjAnLCAnLXRuJywgJzgnLCAnLW1hJywgJzIwMCcsICctbWV0YWxfYmluZGluZycsICctaW1hZScsICc8aW5maWxlLm1hZT4nLCAnLW9tYWUnLCAnPG91dGZpbGUubWFlPic=

> <r_lp_tautomer_probability>
1

> <r_epik_Ionization_Penalty>
0.00106789

> <r_epik_Ionization_Penalty_Charging>
0.00106781

> <r_epik_Ionization_Penalty_Neutral>
8.2288e-08

> <r_epik_State_Penalty>
0.000699156

> <r_epik_Charging_Adjusted_Penalty>
0.00176697

> <i_epik_Tot_Q>
1

> <i_epik_Tot_abs_Q>
1

> <r_epik_Metal_State_Penalty>
-0

> <b_epik_Metal_Only>
0

> <s_lp_Force_Field>
OPLS_2005

> <r_lp_Energy>
47.5501

> <b_lp_Chiralities_Consistent>
1

> <s_lp_Variant>
AV-unprocessed.smi:1782-3

> <Gold.Version>
5.8.1

> <Gold.Id.Protein>
6NUR|6NUR_protein|mol2

> <Gold.PLP.Fitness>
49.8464

> <Gold.PLP.PLP>
-41.8266

> <Gold.PLP.part.hbond>
-2.0000

> <Gold.PLP.part.metal>
0.0000

> <Gold.PLP.part.buried>
-0.0159

> <Gold.PLP.part.nonpolar>
-40.8097

> <Gold.PLP.part.repulsive>
0.7184

> <Gold.PLP.ligand.clash>
0.2636

> <Gold.PLP.ligand.torsion>
1.1565

> <Gold.PLP.Chemscore.Hbond>
3.0000

> <Gold.PLP.Chemscore.CHOScore>
0.0000

> <Gold.PLP.Chemscore.Metal>
0.0000

> <Gold.Chemscore.Hbonds>
donor molecule, donor type, donor heavy atom, donor atom, acceptor molecule, acceptor atom, score
      L1  H    19    42       P1 10175  2.00
      P1  H  7989  7998       L1     1  1.00

> <Gold.PLP.Chemscore.Internal.Correction>
1.5963

> <Gold.Rescore>
     Score         DG    S(hbond)    S(metal)    S(lipo)     H(rot)  DE(clash)    DE(int)     intcor
     10.07     -17.30       1.90        0.00      86.38       1.81       2.34       4.89       ----

> <Gold.Chemscore.Fitness>
10.0722

> <Gold.Chemscore.DG>
-17.3039

> <Gold.Chemscore.ZeroCoef>
-5.4800

> <Gold.Chemscore.Hbond>
1.9014

> <Gold.Chemscore.Metal>
0.0000

> <Gold.Chemscore.Lipo>
86.3841

> <Gold.Chemscore.Internal_Hbond>
0.0000

> <Gold.Chemscore.DEClash>
2.3419

> <Gold.Chemscore.DEInternal>
4.8897

> <Gold.Chemscore.Rot>
1.8101

> <Gold.Chemscore.Internal.Correction>
   9.000000E+99

> <Gold.Chemscore.Hbonds>
donor molecule, donor type, donor heavy atom, donor atom, acceptor molecule, acceptor atom, score
      L1  H    19    42       P1 10175  0.99
      P1  H  7989  7998       L1     1  0.50

> <Gold.Chemscore.Hbond.Weighted>
-6.3507

> <Gold.Chemscore.Metal.Weighted>
-0.0000

> <Gold.Chemscore.Lipo.Weighted>
-10.1069

> <Gold.Chemscore.Internal_Hbond.Weighted>
0.0000

> <Gold.Chemscore.DEClash.Weighted>
2.3419

> <Gold.Chemscore.DEInternal.Weighted>
4.8897

> <Gold.Chemscore.Rot.Weighted>
4.6338

> <Gold.Chemscore.Internal.Correction.Weighted>
   9.000000E+99

> <Gold.Protein.RotatedTorsions>
[ 6907 6896 6895 6894 ] final  -38.24 input  -60.11 | X-H torsion
[ 7974 7965 7964 7962 ] final   30.03 input  175.53 | X-H torsion
[ 8008 7997 7996 7995 ] final  126.06 input   59.86 | X-H torsion
[ 10167 10162 10161 10158 ] final  125.40 input  -65.29 | X-H torsion
[ 10718 10713 10712 10709 ] final   76.28 input   66.30 | X-H torsion
[ 10763 10752 10751 10750 ] final  -74.54 input  -60.55 | X-H torsion
[ 11005 11000 10999 10996 ] final  106.11 input  -57.11 | X-H torsion

> <Gold.Protein.ActiveResidues>
 VAL166  LYS551  ARG553  GLY616  TRP617  ASP618  TYR619  PRO620  LYS621  CYS622 
 ASP623  PHE694  ASN695  SER759  ASP760  ASP761  ALA762  ILE779  LEU786  VAL792 
 PHE793  MET794  SER795  GLU796  ALA797  LYS798  CYS799  TRP800  GLU811  SER814 

> <Gold.Protein.RotatedAtoms>
  151.0048  134.9351  159.7973 H   0  0  0  0  0  0  0  0  0  0  0  0  # atno 6907 bound_to 6896
  152.5287  134.3106  159.9122 H   0  0  0  0  0  0  0  0  0  0  0  0  # atno 6908 bound_to 6896
  151.3112  133.4038  159.2681 H   0  0  0  0  0  0  0  0  0  0  0  0  # atno 6909 bound_to 6896
  146.1636  139.6843  142.9016 H   0  0  0  0  0  0  0  0  0  0  0  0  # atno 7974 bound_to 7965
  156.2853  140.2701  156.2050 H   0  0  0  0  0  0  0  0  0  0  0  0  # atno 8008 bound_to 7997
  155.0322  140.0386  157.2496 H   0  0  0  0  0  0  0  0  0  0  0  0  # atno 8009 bound_to 7997
  154.7345  140.2713  155.6432 H   0  0  0  0  0  0  0  0  0  0  0  0  # atno 8010 bound_to 7997
  139.5688  144.6927  151.3837 H   0  0  0  0  0  0  0  0  0  0  0  0  # atno 10167 bound_to 10162
  157.6667  130.9767  150.1475 H   0  0  0  0  0  0  0  0  0  0  0  0  # atno 10718 bound_to 10713
  154.4745  135.5861  153.6345 H   0  0  0  0  0  0  0  0  0  0  0  0  # atno 10763 bound_to 10752
  152.9839  135.6075  154.3325 H   0  0  0  0  0  0  0  0  0  0  0  0  # atno 10764 bound_to 10752
  154.3210  135.2843  155.2499 H   0  0  0  0  0  0  0  0  0  0  0  0  # atno 10765 bound_to 10752
  139.8810  134.9358  156.5617 H   0  0  0  0  0  0  0  0  0  0  0  0  # atno 11005 bound_to 11000
  145.4524  141.0429  143.2797 LP  0  0  0  0  0  0  0  0  0  0  0  0  # atno 17320 bound_to 7965
  144.8061  139.6048  143.7050 LP  0  0  0  0  0  0  0  0  0  0  0  0  # atno 17321 bound_to 7965
  140.6972  143.7721  150.7345 LP  0  0  0  0  0  0  0  0  0  0  0  0  # atno 17342 bound_to 10162
  140.1220  143.4603  152.2307 LP  0  0  0  0  0  0  0  0  0  0  0  0  # atno 17343 bound_to 10162
  156.2282  130.3680  149.8475 LP  0  0  0  0  0  0  0  0  0  0  0  0  # atno 17370 bound_to 10713
  156.6310  130.8665  151.3495 LP  0  0  0  0  0  0  0  0  0  0  0  0  # atno 17371 bound_to 10713
  140.8165  133.8388  155.8856 LP  0  0  0  0  0  0  0  0  0  0  0  0  # atno 17394 bound_to 11000
  140.9458  134.1842  157.4764 LP  0  0  0  0  0  0  0  0  0  0  0  0  # atno 17395 bound_to 11000

$$$$
