AV-unprocessed.smi:709|AV-procd|sdf|3459|dock3
  -GOLD-   22720 0443D 1   1.00000     0.00000
 Structure written by MMmdl.
 48 50  0  0  0  0  0  0  0  0  1 V2000
  152.4733  144.1995  159.9267 C   0  0  0  0  0  0  0  0  0  0  0  0
  152.7503  142.7688  159.4600 C   0  0  0  0  0  0  0  0  0  0  0  0
  151.7093  142.3645  158.5875 O   0  0  0  0  0  0  0  0  0  0  0  0
  151.9024  141.0606  158.0636 C   0  0  1  0  0  0  0  0  0  0  0  0
  151.5009  139.9266  159.0133 C   0  0  0  0  0  0  0  0  0  0  0  0
  151.0060  139.2064  157.7582 C   0  0  1  0  0  0  0  0  0  0  0  0
  149.7989  138.4217  157.9931 N   0  0  0  0  0  0  0  0  0  0  0  0
  149.7017  137.4366  158.8955 C   0  0  0  0  0  0  0  0  0  0  0  0
  150.6228  137.1189  159.6476 O   0  0  0  0  0  0  0  0  0  0  0  0
  148.4821  136.8699  158.8593 N   0  0  0  0  0  0  0  0  0  0  0  0
  147.9867  135.7804  159.5965 C   0  0  0  0  0  0  0  0  0  0  0  0
  147.9610  134.4987  159.1515 C   0  0  0  0  0  0  0  0  0  0  0  0
  147.4227  133.4395  159.9706 C   0  0  0  0  0  0  0  0  0  0  0  0
  146.9360  133.7535  161.1791 C   0  0  0  0  0  0  0  0  0  0  0  0
  146.9400  135.0759  161.6550 N   0  0  0  0  0  0  0  0  0  0  0  0
  146.3831  135.3183  162.9884 C   0  0  0  0  0  0  0  0  0  0  0  0
  147.4404  136.1174  160.9256 C   0  0  0  0  0  0  0  0  0  0  0  0
  147.4294  137.2691  161.3676 O   0  0  0  0  0  0  0  0  0  0  0  0
  150.7690  140.6008  157.1148 C   0  0  0  0  0  0  0  0  0  0  0  0
  151.0037  140.7244  155.6128 C   0  0  0  0  0  0  0  0  0  0  0  0
  149.6385  140.6359  154.9218 C   0  0  0  0  0  0  0  0  0  0  0  0
  148.5956  140.9567  155.9963 C   0  0  0  0  0  0  0  0  0  0  0  0
  149.3902  141.2613  157.2683 C   0  0  0  0  0  0  0  0  0  0  0  0
  153.2587  144.5502  160.5963 H   0  0  0  0  0  0  0  0  0  0  0  0
  151.5253  144.2591  160.4616 H   0  0  0  0  0  0  0  0  0  0  0  0
  152.4242  144.8847  159.0800 H   0  0  0  0  0  0  0  0  0  0  0  0
  153.7109  142.7249  158.9447 H   0  0  0  0  0  0  0  0  0  0  0  0
  152.8059  142.1011  160.3209 H   0  0  0  0  0  0  0  0  0  0  0  0
  152.8912  140.9156  157.6214 H   0  0  0  0  0  0  0  0  0  0  0  0
  152.3335  139.4406  159.5224 H   0  0  0  0  0  0  0  0  0  0  0  0
  150.7060  140.2078  159.7069 H   0  0  0  0  0  0  0  0  0  0  0  0
  151.8134  138.6488  157.2764 H   0  0  0  0  0  0  0  0  0  0  0  0
  148.9965  138.6281  157.4165 H   0  0  0  0  0  0  0  0  0  0  0  0
  147.8092  137.2945  158.2375 H   0  0  0  0  0  0  0  0  0  0  0  0
  148.3220  134.2292  158.1721 H   0  0  0  0  0  0  0  0  0  0  0  0
  147.4140  132.4185  159.6185 H   0  0  0  0  0  0  0  0  0  0  0  0
  146.5178  133.0183  161.8511 H   0  0  0  0  0  0  0  0  0  0  0  0
  145.5525  136.0240  162.9357 H   0  0  0  0  0  0  0  0  0  0  0  0
  147.1433  135.7361  163.6501 H   0  0  0  0  0  0  0  0  0  0  0  0
  146.0064  134.4097  163.4595 H   0  0  0  0  0  0  0  0  0  0  0  0
  151.4596  141.6899  155.3896 H   0  0  0  0  0  0  0  0  0  0  0  0
  151.6854  139.9616  155.2352 H   0  0  0  0  0  0  0  0  0  0  0  0
  149.5776  141.3242  154.0783 H   0  0  0  0  0  0  0  0  0  0  0  0
  149.4735  139.6302  154.5338 H   0  0  0  0  0  0  0  0  0  0  0  0
  147.9590  141.7952  155.7120 H   0  0  0  0  0  0  0  0  0  0  0  0
  147.9470  140.0943  156.1529 H   0  0  0  0  0  0  0  0  0  0  0  0
  148.8550  140.9387  158.1616 H   0  0  0  0  0  0  0  0  0  0  0  0
  149.5013  142.3428  157.3527 H   0  0  0  0  0  0  0  0  0  0  0  0
  1  2  1  0  0  0  0
  1 24  1  0  0  0  0
  1 25  1  0  0  0  0
  1 26  1  0  0  0  0
  2  3  1  0  0  0  0
  2 27  1  0  0  0  0
  2 28  1  0  0  0  0
  3  4  1  0  0  0  0
  4 19  1  0  0  0  0
  4  5  1  0  0  0  0
  4 29  1  0  0  0  0
  5  6  1  0  0  0  0
  5 30  1  0  0  0  0
  5 31  1  0  0  0  0
  6  7  1  0  0  0  0
  6 19  1  0  0  0  0
  6 32  1  0  0  0  0
  7  8  1  0  0  0  0
  7 33  1  0  0  0  0
  8  9  2  0  0  0  0
  8 10  1  0  0  0  0
 10 11  1  0  0  0  0
 10 34  1  0  0  0  0
 11 17  1  0  0  0  0
 11 12  2  0  0  0  0
 12 13  1  0  0  0  0
 12 35  1  0  0  0  0
 13 14  2  0  0  0  0
 13 36  1  0  0  0  0
 14 15  1  0  0  0  0
 14 37  1  0  0  0  0
 15 16  1  0  0  0  0
 15 17  1  0  0  0  0
 16 38  1  0  0  0  0
 16 39  1  0  0  0  0
 16 40  1  0  0  0  0
 17 18  2  0  0  0  0
 19 23  1  0  0  0  0
 19 20  1  0  0  0  0
 20 21  1  0  0  0  0
 20 41  1  0  0  0  0
 20 42  1  0  0  0  0
 21 22  1  0  0  0  0
 21 43  1  0  0  0  0
 21 44  1  0  0  0  0
 22 23  1  0  0  0  0
 22 45  1  0  0  0  0
 22 46  1  0  0  0  0
 23 47  1  0  0  0  0
 23 48  1  0  0  0  0
M  END
> <s_m_source_file>
AV-unprocessed.smi

> <i_m_source_file_index>
709

> <i_lp_mmshare_version>
43012

> <i_f3d_flags>
0

> <s_epik_input>
W0NIMl0xW0NIMl1bQ0gyXVtDSDJdQzEyW0NASF0oT1tDSDJdW0NIM10pW0NIMl1bQ0BIXTJbTkhdQyg9TylbTkhdYzNbY0hdW2NIXVtjSF1uKFtDSDNdKWMzPU8=

> <s_epik_cmdline>
J2VwaWtfcHl0aG9uJywgJy1waCcsICc3LjAnLCAnLXRuJywgJzgnLCAnLW1hJywgJzIwMCcsICctbWV0YWxfYmluZGluZycsICctaW1hZScsICc8aW5maWxlLm1hZT4nLCAnLW9tYWUnLCAnPG91dGZpbGUubWFlPic=

> <r_lp_tautomer_probability>
1

> <r_epik_Ionization_Penalty>
2.50859e-05

> <r_epik_Ionization_Penalty_Charging>
5.10493e-06

> <r_epik_Ionization_Penalty_Neutral>
1.9981e-05

> <r_epik_State_Penalty>
-0

> <r_epik_Charging_Adjusted_Penalty>
5.10493e-06

> <i_epik_Tot_Q>
0

> <i_epik_Tot_abs_Q>
0

> <r_epik_Metal_State_Penalty>
-0

> <b_epik_Metal_Only>
0

> <s_lp_Force_Field>
OPLS_2005

> <r_lp_Energy>
49.4881

> <b_lp_Chiralities_Consistent>
1

> <s_lp_Variant>
AV-unprocessed.smi:709-2

> <Gold.Version>
5.8.1

> <Gold.Id.Protein>
6NUR|6NUR_protein|mol2

> <Gold.PLP.Fitness>
47.5545

> <Gold.PLP.PLP>
-40.8761

> <Gold.PLP.part.hbond>
-2.9941

> <Gold.PLP.part.metal>
0.0000

> <Gold.PLP.part.buried>
-4.3696

> <Gold.PLP.part.nonpolar>
-33.8902

> <Gold.PLP.part.repulsive>
0.2627

> <Gold.PLP.ligand.clash>
0.0000

> <Gold.PLP.ligand.torsion>
1.0066

> <Gold.PLP.Chemscore.Hbond>
2.7840

> <Gold.PLP.Chemscore.CHOScore>
0.0000

> <Gold.PLP.Chemscore.Metal>
0.0000

> <Gold.Chemscore.Hbonds>
donor molecule, donor type, donor heavy atom, donor atom, acceptor molecule, acceptor atom, score
      P1  H  6896  6908       L1     9  0.83
      P1  H  6931  6943       L1    18  0.86
      P1  H  6934  6947       L1    18  0.93

> <Gold.PLP.Chemscore.Internal.Correction>
0.3397

> <Gold.Rescore>
     Score         DG    S(hbond)    S(metal)    S(lipo)     H(rot)  DE(clash)    DE(int)     intcor
     19.96     -22.01       2.77        0.00      91.99       1.36       0.05       2.00       ----

> <Gold.Chemscore.Fitness>
19.9629

> <Gold.Chemscore.DG>
-22.0121

> <Gold.Chemscore.ZeroCoef>
-5.4800

> <Gold.Chemscore.Hbond>
2.7695

> <Gold.Chemscore.Metal>
0.0000

> <Gold.Chemscore.Lipo>
91.9947

> <Gold.Chemscore.Internal_Hbond>
0.0000

> <Gold.Chemscore.DEClash>
0.0451

> <Gold.Chemscore.DEInternal>
2.0041

> <Gold.Chemscore.Rot>
1.3599

> <Gold.Chemscore.Internal.Correction>
   9.000000E+99

> <Gold.Chemscore.Hbonds>
donor molecule, donor type, donor heavy atom, donor atom, acceptor molecule, acceptor atom, score
      P1  H  6896  6908       L1     9  0.81
      P1  H  6931  6943       L1    18  0.84
      P1  H  6934  6947       L1    18  0.90

> <Gold.Chemscore.Hbond.Weighted>
-9.2500

> <Gold.Chemscore.Metal.Weighted>
-0.0000

> <Gold.Chemscore.Lipo.Weighted>
-10.7634

> <Gold.Chemscore.Internal_Hbond.Weighted>
0.0000

> <Gold.Chemscore.DEClash.Weighted>
0.0451

> <Gold.Chemscore.DEInternal.Weighted>
2.0041

> <Gold.Chemscore.Rot.Weighted>
3.4813

> <Gold.Chemscore.Internal.Correction.Weighted>
   9.000000E+99

> <Gold.Protein.RotatedTorsions>
[ 6907 6896 6895 6894 ] final -140.64 input  -60.11 | X-H torsion
[ 7974 7965 7964 7962 ] final   26.61 input  175.53 | X-H torsion
[ 8008 7997 7996 7995 ] final -130.19 input   59.86 | X-H torsion
[ 10167 10162 10161 10158 ] final  -16.16 input  -65.29 | X-H torsion
[ 10718 10713 10712 10709 ] final   39.30 input   66.30 | X-H torsion
[ 10763 10752 10751 10750 ] final   40.62 input  -60.55 | X-H torsion
[ 11005 11000 10999 10996 ] final -173.73 input  -57.11 | X-H torsion

> <Gold.Protein.ActiveResidues>
 VAL166  LYS551  ARG553  GLY616  TRP617  ASP618  TYR619  PRO620  LYS621  CYS622 
 ASP623  PHE694  ASN695  SER759  ASP760  ASP761  ALA762  ILE779  LEU786  VAL792 
 PHE793  MET794  SER795  GLU796  ALA797  LYS798  CYS799  TRP800  GLU811  SER814 

> <Gold.Protein.RotatedAtoms>
  151.0634  133.5525  159.2632 H   0  0  0  0  0  0  0  0  0  0  0  0  # atno 6907 bound_to 6896
  151.2492  135.0615  159.9065 H   0  0  0  0  0  0  0  0  0  0  0  0  # atno 6908 bound_to 6896
  152.5401  134.0397  159.8115 H   0  0  0  0  0  0  0  0  0  0  0  0  # atno 6909 bound_to 6896
  146.1828  139.7305  142.8888 H   0  0  0  0  0  0  0  0  0  0  0  0  # atno 7974 bound_to 7965
  155.2917  140.0448  157.3023 H   0  0  0  0  0  0  0  0  0  0  0  0  # atno 8008 bound_to 7997
  154.5538  140.2325  155.8411 H   0  0  0  0  0  0  0  0  0  0  0  0  # atno 8009 bound_to 7997
  156.1989  140.3031  155.9492 H   0  0  0  0  0  0  0  0  0  0  0  0  # atno 8010 bound_to 7997
  140.7229  143.5144  150.9710 H   0  0  0  0  0  0  0  0  0  0  0  0  # atno 10167 bound_to 10162
  157.3689  130.7690  149.7104 H   0  0  0  0  0  0  0  0  0  0  0  0  # atno 10718 bound_to 10713
  152.9931  135.6186  154.2655 H   0  0  0  0  0  0  0  0  0  0  0  0  # atno 10763 bound_to 10752
  154.2390  135.2789  155.2863 H   0  0  0  0  0  0  0  0  0  0  0  0  # atno 10764 bound_to 10752
  154.5386  135.5767  153.6877 H   0  0  0  0  0  0  0  0  0  0  0  0  # atno 10765 bound_to 10752
  140.4825  134.6062  157.4924 H   0  0  0  0  0  0  0  0  0  0  0  0  # atno 11005 bound_to 11000
  145.4025  141.0387  143.3062 LP  0  0  0  0  0  0  0  0  0  0  0  0  # atno 17320 bound_to 7965
  144.8345  139.5573  143.6928 LP  0  0  0  0  0  0  0  0  0  0  0  0  # atno 17321 bound_to 7965
  139.8859  143.7013  152.3151 LP  0  0  0  0  0  0  0  0  0  0  0  0  # atno 17342 bound_to 10162
  139.7312  144.7582  151.0799 LP  0  0  0  0  0  0  0  0  0  0  0  0  # atno 17343 bound_to 10162
  155.9751  130.4093  150.3870 LP  0  0  0  0  0  0  0  0  0  0  0  0  # atno 17370 bound_to 10713
  157.1958  131.0426  151.2676 LP  0  0  0  0  0  0  0  0  0  0  0  0  # atno 17371 bound_to 10713
  139.9818  134.7125  155.9846 LP  0  0  0  0  0  0  0  0  0  0  0  0  # atno 17394 bound_to 11000
  141.1524  133.6547  156.4055 LP  0  0  0  0  0  0  0  0  0  0  0  0  # atno 17395 bound_to 11000

$$$$
