AV-unprocessed.smi:2609|AV-procd|sdf|10207|dock1
  -GOLD-   2272014213D 1   1.00000     0.00000
 Structure written by MMmdl.
 24 25  0  0  0  0  0  0  0  0  2 V2000
  153.2200  137.8515  154.4007 O   0  0  0  0  0  0  0  0  0  0  0  0
  152.3239  138.6087  154.7676 C   0  0  0  0  0  0  0  0  0  0  0  0
  150.9959  138.4983  154.1651 C   0  0  0  0  0  0  0  0  0  0  0  0
  150.0312  139.3458  154.5901 C   0  0  0  0  0  0  0  0  0  0  0  0
  150.2701  140.3115  155.5781 N   0  0  0  0  0  0  0  0  0  0  0  0
  151.4449  140.3876  156.0910 C   0  0  0  0  0  0  0  0  0  0  0  0
  151.7282  141.4316  157.1683 C   0  0  0  0  0  0  0  0  0  0  0  0
  152.2643  140.8030  158.4674 C   0  0  0  0  0  0  0  0  0  0  0  0
  152.4940  141.8882  159.5320 C   0  0  0  0  0  0  0  0  0  0  0  0
  151.2868  142.6073  159.7653 O   0  0  0  0  0  0  0  0  0  0  0  0
  150.8166  143.2950  158.6099 C   0  0  0  0  0  0  0  0  0  0  0  0
  150.4920  142.2894  157.4932 C   0  0  0  0  0  0  0  0  0  0  0  0
  152.4975  139.5678  155.7248 N   0  5  0  0  0  0  0  0  0  0  0  0
  150.7928  137.7607  153.4027 H   0  0  0  0  0  0  0  0  0  0  0  0
  149.0309  139.3155  154.1853 H   0  0  0  0  0  0  0  0  0  0  0  0
  152.5005  142.1063  156.7931 H   0  0  0  0  0  0  0  0  0  0  0  0
  151.5564  140.0689  158.8556 H   0  0  0  0  0  0  0  0  0  0  0  0
  153.1956  140.2690  158.2744 H   0  0  0  0  0  0  0  0  0  0  0  0
  152.8183  141.4315  160.4672 H   0  0  0  0  0  0  0  0  0  0  0  0
  153.2840  142.5748  159.2237 H   0  0  0  0  0  0  0  0  0  0  0  0
  149.9229  143.8599  158.8756 H   0  0  0  0  0  0  0  0  0  0  0  0
  151.5620  144.0190  158.2772 H   0  0  0  0  0  0  0  0  0  0  0  0
  150.1537  142.8203  156.6023 H   0  0  0  0  0  0  0  0  0  0  0  0
  149.6632  141.6568  157.8149 H   0  0  0  0  0  0  0  0  0  0  0  0
  1  2  2  0  0  0  0
  2  3  1  0  0  0  0
  2 13  1  0  0  0  0
  3 14  1  0  0  0  0
  3  4  2  0  0  0  0
  4 15  1  0  0  0  0
  4  5  1  0  0  0  0
  5  6  2  0  0  0  0
  6  7  1  0  0  0  0
  6 13  1  0  0  0  0
  7 12  1  0  0  0  0
  7  8  1  0  0  0  0
  7 16  1  0  0  0  0
  8  9  1  0  0  0  0
  8 17  1  0  0  0  0
  8 18  1  0  0  0  0
  9 10  1  0  0  0  0
  9 19  1  0  0  0  0
  9 20  1  0  0  0  0
 10 11  1  0  0  0  0
 11 12  1  0  0  0  0
 11 21  1  0  0  0  0
 11 22  1  0  0  0  0
 12 23  1  0  0  0  0
 12 24  1  0  0  0  0
M  CHG  1  13  -1
M  END
> <s_m_source_file>
AV-unprocessed.smi

> <i_m_source_file_index>
2609

> <i_lp_mmshare_version>
43012

> <i_f3d_flags>
0

> <s_epik_input>
Tz1jMVtjSF1bY0hdW25IXWMobjEpW0NIXTJbQ0gyXVtDSDJdT1tDSDJdW0NIMl0y

> <s_epik_cmdline>
J2VwaWtfcHl0aG9uJywgJy1waCcsICc3LjAnLCAnLXRuJywgJzgnLCAnLW1hJywgJzIwMCcsICctbWV0YWxfYmluZGluZycsICctaW1hZScsICc8aW5maWxlLm1hZT4nLCAnLW9tYWUnLCAnPG91dGZpbGUubWFlPic=

> <r_lp_tautomer_probability>
0.839158

> <r_epik_Ionization_Penalty>
6.39496

> <r_epik_Ionization_Penalty_Charging>
1.06807e-07

> <r_epik_Ionization_Penalty_Neutral>
6.39496

> <r_epik_State_Penalty>
4.27873

> <r_epik_Charging_Adjusted_Penalty>
4.27873

> <i_epik_Tot_Q>
-1

> <i_epik_Tot_abs_Q>
1

> <r_epik_Metal_State_Penalty>
0.734171

> <b_epik_Metal_Only>
1

> <s_lp_Force_Field>
OPLS_2005

> <r_lp_Energy>
16.3076

> <b_lp_Chiralities_Consistent>
1

> <s_lp_Variant>
AV-unprocessed.smi:2609-3

> <Gold.Version>
5.8.1

> <Gold.Id.Protein>
6NUR|6NUR_protein|mol2

> <Gold.PLP.Fitness>
32.9376

> <Gold.PLP.PLP>
-26.4125

> <Gold.PLP.part.hbond>
-2.7922

> <Gold.PLP.part.metal>
0.0000

> <Gold.PLP.part.buried>
-5.5916

> <Gold.PLP.part.nonpolar>
-17.8654

> <Gold.PLP.part.repulsive>
0.1007

> <Gold.PLP.ligand.clash>
0.0000

> <Gold.PLP.ligand.torsion>
0.0127

> <Gold.PLP.Chemscore.Hbond>
2.1789

> <Gold.PLP.Chemscore.CHOScore>
0.0000

> <Gold.PLP.Chemscore.Metal>
0.0000

> <Gold.Chemscore.Hbonds>
donor molecule, donor type, donor heavy atom, donor atom, acceptor molecule, acceptor atom, score
      P1  H  7997  8010       L1    13  2.00
      P1  H 10752 10765       L1     1  0.18

> <Gold.PLP.Chemscore.Internal.Correction>
0.0139

> <Gold.Rescore>
     Score         DG    S(hbond)    S(metal)    S(lipo)     H(rot)  DE(clash)    DE(int)     intcor
     12.61     -12.81       1.05        0.00      54.67       1.00       0.19       0.01       ----

> <Gold.Chemscore.Fitness>
12.6100

> <Gold.Chemscore.DG>
-12.8072

> <Gold.Chemscore.ZeroCoef>
-5.4800

> <Gold.Chemscore.Hbond>
1.0452

> <Gold.Chemscore.Metal>
0.0000

> <Gold.Chemscore.Lipo>
54.6699

> <Gold.Chemscore.Internal_Hbond>
0.0000

> <Gold.Chemscore.DEClash>
0.1889

> <Gold.Chemscore.DEInternal>
0.0083

> <Gold.Chemscore.Rot>
1.0000

> <Gold.Chemscore.Internal.Correction>
   9.000000E+99

> <Gold.Chemscore.Hbonds>
donor molecule, donor type, donor heavy atom, donor atom, acceptor molecule, acceptor atom, score
      P1  H  7997  8010       L1    13  0.87
      P1  H 10752 10765       L1     1  0.17

> <Gold.Chemscore.Hbond.Weighted>
-3.4908

> <Gold.Chemscore.Metal.Weighted>
-0.0000

> <Gold.Chemscore.Lipo.Weighted>
-6.3964

> <Gold.Chemscore.Internal_Hbond.Weighted>
0.0000

> <Gold.Chemscore.DEClash.Weighted>
0.1889

> <Gold.Chemscore.DEInternal.Weighted>
0.0083

> <Gold.Chemscore.Rot.Weighted>
2.5600

> <Gold.Chemscore.Internal.Correction.Weighted>
   9.000000E+99

> <Gold.Protein.RotatedTorsions>
[ 6907 6896 6895 6894 ] final   88.01 input  -60.11 | X-H torsion
[ 7974 7965 7964 7962 ] final  177.41 input  175.53 | X-H torsion
[ 8008 7997 7996 7995 ] final   74.42 input   59.86 | X-H torsion
[ 10167 10162 10161 10158 ] final   36.92 input  -65.29 | X-H torsion
[ 10718 10713 10712 10709 ] final -173.72 input   66.30 | X-H torsion
[ 10763 10752 10751 10750 ] final  139.41 input  -60.55 | X-H torsion
[ 11005 11000 10999 10996 ] final   -2.91 input  -57.11 | X-H torsion

> <Gold.Protein.ActiveResidues>
 VAL166  LYS551  ARG553  GLY616  TRP617  ASP618  TYR619  PRO620  LYS621  CYS622 
 ASP623  PHE694  ASN695  SER759  ASP760  ASP761  ALA762  ILE779  LEU786  VAL792 
 PHE793  MET794  SER795  GLU796  ALA797  LYS798  CYS799  TRP800  GLU811  SER814 

> <Gold.Protein.RotatedAtoms>
  152.5419  134.2188  159.8779 H   0  0  0  0  0  0  0  0  0  0  0  0  # atno 6907 bound_to 6896
  151.2167  133.4519  159.2607 H   0  0  0  0  0  0  0  0  0  0  0  0  # atno 6908 bound_to 6896
  151.0845  134.9891  159.8428 H   0  0  0  0  0  0  0  0  0  0  0  0  # atno 6909 bound_to 6896
  144.7169  140.0243  143.6439 H   0  0  0  0  0  0  0  0  0  0  0  0  # atno 7974 bound_to 7965
  155.7981  140.3477  155.5387 H   0  0  0  0  0  0  0  0  0  0  0  0  # atno 8008 bound_to 7997
  155.8566  140.0964  157.1661 H   0  0  0  0  0  0  0  0  0  0  0  0  # atno 8009 bound_to 7997
  154.4010  140.1366  156.3896 H   0  0  0  0  0  0  0  0  0  0  0  0  # atno 8010 bound_to 7997
  140.4082  144.1629  150.6137 H   0  0  0  0  0  0  0  0  0  0  0  0  # atno 10167 bound_to 10162
  156.7745  130.9461  151.3120 H   0  0  0  0  0  0  0  0  0  0  0  0  # atno 10718 bound_to 10713
  153.9057  135.3017  155.3448 H   0  0  0  0  0  0  0  0  0  0  0  0  # atno 10763 bound_to 10752
  154.7648  135.4916  153.9536 H   0  0  0  0  0  0  0  0  0  0  0  0  # atno 10764 bound_to 10752
  153.1220  135.6784  153.9420 H   0  0  0  0  0  0  0  0  0  0  0  0  # atno 10765 bound_to 10752
  140.6636  133.9299  155.8451 H   0  0  0  0  0  0  0  0  0  0  0  0  # atno 11005 bound_to 11000
  146.0155  139.3206  143.0844 LP  0  0  0  0  0  0  0  0  0  0  0  0  # atno 17320 bound_to 7965
  145.8631  140.9464  143.0690 LP  0  0  0  0  0  0  0  0  0  0  0  0  # atno 17321 bound_to 7965
  140.4666  143.2428  151.9146 LP  0  0  0  0  0  0  0  0  0  0  0  0  # atno 17342 bound_to 10162
  139.4783  144.5412  151.8525 LP  0  0  0  0  0  0  0  0  0  0  0  0  # atno 17343 bound_to 10162
  157.6675  130.9021  149.9965 LP  0  0  0  0  0  0  0  0  0  0  0  0  # atno 17370 bound_to 10713
  156.1257  130.3644  149.9814 LP  0  0  0  0  0  0  0  0  0  0  0  0  # atno 17371 bound_to 10713
  141.0446  134.0572  157.3859 LP  0  0  0  0  0  0  0  0  0  0  0  0  # atno 17394 bound_to 11000
  139.9005  135.0162  156.7244 LP  0  0  0  0  0  0  0  0  0  0  0  0  # atno 17395 bound_to 11000

$$$$
