AV-unprocessed.smi:2149|AV-procd|sdf|8753|dock3
  -GOLD-   2272011533D 1   1.00000     0.00000
 Structure written by MMmdl.
 42 43  0  0  0  0  0  0  0  0  1 V2000
  153.8247  132.2759  164.4094 C   0  0  0  0  0  0  0  0  0  0  0  0
  154.9113  132.8518  163.0402 S   0  0  0  0  0  0  0  0  0  0  0  0
  156.3054  132.6601  163.4690 O   0  0  0  0  0  0  0  0  0  0  0  0
  154.4449  132.2658  161.7745 O   0  0  0  0  0  0  0  0  0  0  0  0
  154.6034  134.5581  162.9793 N   0  0  0  0  0  0  0  0  0  0  0  0
  154.0126  135.1871  164.1781 C   0  0  0  0  0  0  0  0  0  0  0  0
  154.1715  136.7157  164.1495 C   0  0  0  0  0  0  0  0  0  0  0  0
  153.6013  137.3070  162.8574 C   0  0  0  0  0  0  0  0  0  0  0  0
  154.2940  136.6518  161.6522 C   0  0  2  0  0  0  0  0  0  0  0  0
  153.7626  137.2262  160.3320 C   0  0  0  0  0  0  0  0  0  0  0  0
  153.2253  136.4895  159.5045 O   0  0  0  0  0  0  0  0  0  0  0  0
  153.9212  138.5463  160.1489 N   0  0  0  0  0  0  0  0  0  0  0  0
  153.4925  139.2896  158.9699 C   0  0  0  0  0  0  0  0  0  0  0  0
  152.1468  139.9961  159.2035 C   0  0  0  0  0  0  0  0  0  0  0  0
  152.2440  141.4966  159.0000 C   0  0  0  0  0  0  0  0  0  0  0  0
  153.0609  142.2853  159.8381 C   0  0  0  0  0  0  0  0  0  0  0  0
  153.1099  143.6748  159.6128 C   0  0  0  0  0  0  0  0  0  0  0  0
  152.3431  144.2193  158.5646 C   0  0  0  0  0  0  0  0  0  0  0  0
  151.5583  143.3463  157.7848 C   0  0  0  0  0  0  0  0  0  0  0  0
  151.5042  142.0129  157.9928 N   0  0  0  0  0  0  0  0  0  0  0  0
  154.1164  135.1191  161.7015 C   0  0  0  0  0  0  0  0  0  0  0  0
  154.0123  131.2187  164.5951 H   0  0  0  0  0  0  0  0  0  0  0  0
  152.7782  132.4082  164.1393 H   0  0  0  0  0  0  0  0  0  0  0  0
  154.0448  132.8449  165.3124 H   0  0  0  0  0  0  0  0  0  0  0  0
  152.9568  134.9185  164.2337 H   0  0  0  0  0  0  0  0  0  0  0  0
  154.4844  134.7917  165.0762 H   0  0  0  0  0  0  0  0  0  0  0  0
  153.6716  137.1566  165.0123 H   0  0  0  0  0  0  0  0  0  0  0  0
  155.2272  136.9759  164.2386 H   0  0  0  0  0  0  0  0  0  0  0  0
  152.5238  137.1381  162.8201 H   0  0  0  0  0  0  0  0  0  0  0  0
  153.7520  138.3873  162.8458 H   0  0  0  0  0  0  0  0  0  0  0  0
  155.3623  136.8691  161.7136 H   0  0  0  0  0  0  0  0  0  0  0  0
  154.3733  139.0747  160.8810 H   0  0  0  0  0  0  0  0  0  0  0  0
  154.2601  140.0088  158.6785 H   0  0  0  0  0  0  0  0  0  0  0  0
  153.3999  138.5832  158.1445 H   0  0  0  0  0  0  0  0  0  0  0  0
  151.3915  139.5917  158.5281 H   0  0  0  0  0  0  0  0  0  0  0  0
  151.7880  139.8009  160.2152 H   0  0  0  0  0  0  0  0  0  0  0  0
  153.6359  141.8387  160.6362 H   0  0  0  0  0  0  0  0  0  0  0  0
  153.7235  144.3111  160.2335 H   0  0  0  0  0  0  0  0  0  0  0  0
  152.3556  145.2801  158.3631 H   0  0  0  0  0  0  0  0  0  0  0  0
  150.9573  143.7291  156.9731 H   0  0  0  0  0  0  0  0  0  0  0  0
  154.6627  134.6694  160.8724 H   0  0  0  0  0  0  0  0  0  0  0  0
  153.0685  134.8411  161.5758 H   0  0  0  0  0  0  0  0  0  0  0  0
  1  2  1  0  0  0  0
  1 22  1  0  0  0  0
  1 23  1  0  0  0  0
  1 24  1  0  0  0  0
  2  3  2  0  0  0  0
  2  4  2  0  0  0  0
  2  5  1  0  0  0  0
  5 21  1  0  0  0  0
  5  6  1  0  0  0  0
  6  7  1  0  0  0  0
  6 25  1  0  0  0  0
  6 26  1  0  0  0  0
  7  8  1  0  0  0  0
  7 27  1  0  0  0  0
  7 28  1  0  0  0  0
  8  9  1  0  0  0  0
  8 29  1  0  0  0  0
  8 30  1  0  0  0  0
  9 10  1  0  0  0  0
  9 21  1  0  0  0  0
  9 31  1  0  0  0  0
 10 11  2  0  0  0  0
 10 12  1  0  0  0  0
 12 13  1  0  0  0  0
 12 32  1  0  0  0  0
 13 14  1  0  0  0  0
 13 33  1  0  0  0  0
 13 34  1  0  0  0  0
 14 15  1  0  0  0  0
 14 35  1  0  0  0  0
 14 36  1  0  0  0  0
 15 20  1  0  0  0  0
 15 16  2  0  0  0  0
 16 17  1  0  0  0  0
 16 37  1  0  0  0  0
 17 18  2  0  0  0  0
 17 38  1  0  0  0  0
 18 19  1  0  0  0  0
 18 39  1  0  0  0  0
 19 20  2  0  0  0  0
 19 40  1  0  0  0  0
 21 41  1  0  0  0  0
 21 42  1  0  0  0  0
M  END
> <s_m_source_file>
AV-unprocessed.smi

> <i_m_source_file_index>
2149

> <i_lp_mmshare_version>
43012

> <i_f3d_flags>
0

> <s_epik_input>
W0NIM11TKD1PKSg9TylOMVtDSDJdW0NIMl1bQ0gyXVtDQEhdKFtDSDJdMSlDKD1PKVtOSF1bQ0gyXVtDSDJdYzJbY0hdW2NIXVtjSF1bY0hdbjI=

> <s_epik_cmdline>
J2VwaWtfcHl0aG9uJywgJy1waCcsICc3LjAnLCAnLXRuJywgJzgnLCAnLW1hJywgJzIwMCcsICctbWV0YWxfYmluZGluZycsICctaW1hZScsICc8aW5maWxlLm1hZT4nLCAnLW9tYWUnLCAnPG91dGZpbGUubWFlPic=

> <r_epik_Ionization_Penalty>
0.0273806

> <r_epik_Ionization_Penalty_Charging>
0

> <r_epik_Ionization_Penalty_Neutral>
0.0273806

> <r_epik_State_Penalty>
0.0224071

> <r_epik_Charging_Adjusted_Penalty>
0.0224071

> <i_epik_Tot_Q>
0

> <i_epik_Tot_abs_Q>
0

> <r_epik_Metal_State_Penalty>
0.0214134

> <b_epik_Metal_Only>
0

> <s_lp_Force_Field>
OPLS_2005

> <r_lp_Energy>
5.16122

> <b_lp_Chiralities_Consistent>
1

> <s_lp_Variant>
AV-unprocessed.smi:2149-2

> <Gold.Version>
5.8.1

> <Gold.Id.Protein>
6NUR|6NUR_protein|mol2

> <Gold.PLP.Fitness>
44.4031

> <Gold.PLP.PLP>
-39.6324

> <Gold.PLP.part.hbond>
-1.0000

> <Gold.PLP.part.metal>
0.0000

> <Gold.PLP.part.buried>
-4.6684

> <Gold.PLP.part.nonpolar>
-34.7266

> <Gold.PLP.part.repulsive>
0.0816

> <Gold.PLP.ligand.clash>
0.0000

> <Gold.PLP.ligand.torsion>
0.9965

> <Gold.PLP.Chemscore.Hbond>
0.9920

> <Gold.PLP.Chemscore.CHOScore>
1.0000

> <Gold.PLP.Chemscore.Metal>
0.0000

> <Gold.Chemscore.Hbonds>
donor molecule, donor type, donor heavy atom, donor atom, acceptor molecule, acceptor atom, score
      P1  H  6896  6907       L1    11  0.98
      L1  C    19    40       P1  8028  0.76

> <Gold.PLP.Chemscore.Internal.Correction>
0.7878

> <Gold.Rescore>
     Score         DG    S(hbond)    S(metal)    S(lipo)     H(rot)  DE(clash)    DE(int)     intcor
     16.73     -17.88       1.00        0.00     117.75       1.84       0.11       1.03       ----

> <Gold.Chemscore.Fitness>
16.7328

> <Gold.Chemscore.DG>
-17.8776

> <Gold.Chemscore.ZeroCoef>
-5.4800

> <Gold.Chemscore.Hbond>
0.9988

> <Gold.Chemscore.Metal>
0.0000

> <Gold.Chemscore.Lipo>
117.7511

> <Gold.Chemscore.Internal_Hbond>
0.0000

> <Gold.Chemscore.DEClash>
0.1116

> <Gold.Chemscore.DEInternal>
1.0332

> <Gold.Chemscore.Rot>
1.8419

> <Gold.Chemscore.Internal.Correction>
   9.000000E+99

> <Gold.Chemscore.Hbonds>
donor molecule, donor type, donor heavy atom, donor atom, acceptor molecule, acceptor atom, score
      P1  H  6896  6907       L1    11  0.90

> <Gold.Chemscore.Hbond.Weighted>
-3.3360

> <Gold.Chemscore.Metal.Weighted>
-0.0000

> <Gold.Chemscore.Lipo.Weighted>
-13.7769

> <Gold.Chemscore.Internal_Hbond.Weighted>
0.0000

> <Gold.Chemscore.DEClash.Weighted>
0.1116

> <Gold.Chemscore.DEInternal.Weighted>
1.0332

> <Gold.Chemscore.Rot.Weighted>
4.7153

> <Gold.Chemscore.Internal.Correction.Weighted>
   9.000000E+99

> <Gold.Protein.RotatedTorsions>
[ 6907 6896 6895 6894 ] final   18.53 input  -60.11 | X-H torsion
[ 7974 7965 7964 7962 ] final  -71.04 input  175.53 | X-H torsion
[ 8008 7997 7996 7995 ] final -132.30 input   59.86 | X-H torsion
[ 10167 10162 10161 10158 ] final  -68.22 input  -65.29 | X-H torsion
[ 10718 10713 10712 10709 ] final  -50.73 input   66.30 | X-H torsion
[ 10763 10752 10751 10750 ] final -171.36 input  -60.55 | X-H torsion
[ 11005 11000 10999 10996 ] final -171.97 input  -57.11 | X-H torsion

> <Gold.Protein.ActiveResidues>
 VAL166  LYS551  ARG553  GLY616  TRP617  ASP618  TYR619  PRO620  LYS621  CYS622 
 ASP623  PHE694  ASN695  SER759  ASP760  ASP761  ALA762  ILE779  LEU786  VAL792 
 PHE793  MET794  SER795  GLU796  ALA797  LYS798  CYS799  TRP800  GLU811  SER814 

> <Gold.Protein.RotatedAtoms>
  151.8668  135.0504  160.0474 H   0  0  0  0  0  0  0  0  0  0  0  0  # atno 6907 bound_to 6896
  152.2620  133.5301  159.5396 H   0  0  0  0  0  0  0  0  0  0  0  0  # atno 6908 bound_to 6896
  150.7120  134.0733  159.3914 H   0  0  0  0  0  0  0  0  0  0  0  0  # atno 6909 bound_to 6896
  145.6832  140.9180  143.0821 H   0  0  0  0  0  0  0  0  0  0  0  0  # atno 7974 bound_to 7965
  155.3266  140.0465  157.3041 H   0  0  0  0  0  0  0  0  0  0  0  0  # atno 8008 bound_to 7997
  154.5351  140.2269  155.8703 H   0  0  0  0  0  0  0  0  0  0  0  0  # atno 8009 bound_to 7997
  156.1827  140.3070  155.9185 H   0  0  0  0  0  0  0  0  0  0  0  0  # atno 8010 bound_to 7997
  140.5524  143.2312  151.6886 H   0  0  0  0  0  0  0  0  0  0  0  0  # atno 10167 bound_to 10162
  156.1774  130.4150  149.9557 H   0  0  0  0  0  0  0  0  0  0  0  0  # atno 10718 bound_to 10713
  154.6313  135.2887  155.0213 H   0  0  0  0  0  0  0  0  0  0  0  0  # atno 10763 bound_to 10752
  154.1372  135.6524  153.4938 H   0  0  0  0  0  0  0  0  0  0  0  0  # atno 10764 bound_to 10752
  153.0281  135.5324  154.7142 H   0  0  0  0  0  0  0  0  0  0  0  0  # atno 10765 bound_to 10752
  140.5023  134.5882  157.4992 H   0  0  0  0  0  0  0  0  0  0  0  0  # atno 11005 bound_to 11000
  144.7019  139.8724  143.7441 LP  0  0  0  0  0  0  0  0  0  0  0  0  # atno 17320 bound_to 7965
  146.0946  139.3938  143.0384 LP  0  0  0  0  0  0  0  0  0  0  0  0  # atno 17321 bound_to 7965
  139.5033  144.3796  152.0389 LP  0  0  0  0  0  0  0  0  0  0  0  0  # atno 17342 bound_to 10162
  140.2915  144.3749  150.6087 LP  0  0  0  0  0  0  0  0  0  0  0  0  # atno 17343 bound_to 10162
  156.7338  130.9053  151.3627 LP  0  0  0  0  0  0  0  0  0  0  0  0  # atno 17370 bound_to 10713
  157.6845  130.9172  150.0351 LP  0  0  0  0  0  0  0  0  0  0  0  0  # atno 17371 bound_to 10713
  139.9706  134.7299  156.0049 LP  0  0  0  0  0  0  0  0  0  0  0  0  # atno 17394 bound_to 11000
  141.1429  133.6561  156.3782 LP  0  0  0  0  0  0  0  0  0  0  0  0  # atno 17395 bound_to 11000

$$$$
