AV-unprocessed.smi:249|AV-procd|sdf|1898|dock7
  -GOLD-   2262020573D 1   1.00000     0.00000
 Structure written by MMmdl.
 64 67  0  0  0  0  0  0  0  0  2 V2000
  144.5285  135.5864  151.8399 C   0  0  0  0  0  0  0  0  0  0  0  0
  146.0003  135.5263  152.2804 C   0  0  0  0  0  0  0  0  0  0  0  0
  146.5520  136.8492  152.6942 N   0  3  2  0  0  0  0  0  0  0  0  0
  146.2138  137.1727  154.1104 C   0  0  0  0  0  0  0  0  0  0  0  0
  146.8883  138.4661  154.5861 C   0  0  0  0  0  0  0  0  0  0  0  0
  146.4884  139.6472  153.6873 C   0  0  1  0  0  0  0  0  0  0  0  0
  147.0339  140.9349  154.1381 N   0  0  0  0  0  0  0  0  0  0  0  0
  146.4475  142.1443  153.5712 C   0  0  0  0  0  0  0  0  0  0  0  0
  147.3609  141.0515  155.4473 C   0  0  0  0  0  0  0  0  0  0  0  0
  146.4087  141.3930  156.3550 N   0  0  0  0  0  0  0  0  0  0  0  0
  146.7268  141.5010  157.6487 C   0  0  0  0  0  0  0  0  0  0  0  0
  147.9113  141.3158  158.2352 N   0  0  0  0  0  0  0  0  0  0  0  0
  148.8700  140.9825  157.3241 C   0  0  0  0  0  0  0  0  0  0  0  0
  148.6818  140.8328  155.9220 C   0  0  0  0  0  0  0  0  0  0  0  0
  149.8829  140.4919  155.3127 N   0  0  0  0  0  0  0  0  0  0  0  0
  150.7349  140.4401  156.3004 C   0  0  0  0  0  0  0  0  0  0  0  0
  150.2093  140.7125  157.5434 N   0  0  0  0  0  0  0  0  0  0  0  0
  150.9300  140.7204  158.8045 C   0  0  0  0  0  0  0  0  0  0  0  0
  151.9931  141.8432  158.8937 C   0  0  2  0  0  0  0  0  0  0  0  0
  153.0998  141.5420  159.9342 C   0  0  0  0  0  0  0  0  0  0  0  0
  153.7665  140.3304  159.6449 O   0  0  0  0  0  0  0  0  0  0  0  0
  151.3395  143.2301  159.1190 C   0  0  2  0  0  0  0  0  0  0  0  0
  152.1869  144.4137  158.6863 C   0  0  0  0  0  0  0  0  0  0  0  0
  151.5265  145.5666  159.4331 C   0  0  0  0  0  0  0  0  0  0  0  0
  151.0774  145.0118  160.6633 O   0  0  0  0  0  0  0  0  0  0  0  0
  151.0862  143.5892  160.5879 C   0  0  0  0  0  0  0  0  0  0  0  0
  146.8470  139.2936  152.2327 C   0  0  0  0  0  0  0  0  0  0  0  0
  146.1873  137.9757  151.7736 C   0  0  1  0  0  0  0  0  0  0  0  0
  146.5825  137.7171  150.3045 C   0  0  0  0  0  0  0  0  0  0  0  0
  144.1297  134.5797  151.7120 H   0  0  0  0  0  0  0  0  0  0  0  0
  144.3994  136.0972  150.8862 H   0  0  0  0  0  0  0  0  0  0  0  0
  143.9124  136.0908  152.5850 H   0  0  0  0  0  0  0  0  0  0  0  0
  146.0286  134.8268  153.1125 H   0  0  0  0  0  0  0  0  0  0  0  0
  146.6171  135.0953  151.4906 H   0  0  0  0  0  0  0  0  0  0  0  0
  145.1307  137.2547  154.2168 H   0  0  0  0  0  0  0  0  0  0  0  0
  146.5345  136.3738  154.7766 H   0  0  0  0  0  0  0  0  0  0  0  0
  146.6021  138.6581  155.6202 H   0  0  0  0  0  0  0  0  0  0  0  0
  147.9702  138.3295  154.5815 H   0  0  0  0  0  0  0  0  0  0  0  0
  145.4035  139.7502  153.7367 H   0  0  0  0  0  0  0  0  0  0  0  0
  147.0623  143.0150  153.8027 H   0  0  0  0  0  0  0  0  0  0  0  0
  145.4440  142.3214  153.9592 H   0  0  0  0  0  0  0  0  0  0  0  0
  146.3826  142.0618  152.4861 H   0  0  0  0  0  0  0  0  0  0  0  0
  145.9170  141.7756  158.3086 H   0  0  0  0  0  0  0  0  0  0  0  0
  151.7767  140.1957  156.1504 H   0  0  0  0  0  0  0  0  0  0  0  0
  150.1931  140.8260  159.6009 H   0  0  0  0  0  0  0  0  0  0  0  0
  151.3975  139.7454  158.9471 H   0  0  0  0  0  0  0  0  0  0  0  0
  152.4912  141.8796  157.9235 H   0  0  0  0  0  0  0  0  0  0  0  0
  153.8345  142.3463  159.9711 H   0  0  0  0  0  0  0  0  0  0  0  0
  152.6799  141.4759  160.9378 H   0  0  0  0  0  0  0  0  0  0  0  0
  153.1456  139.6209  159.7104 H   0  0  0  0  0  0  0  0  0  0  0  0
  150.3906  143.2781  158.5818 H   0  0  0  0  0  0  0  0  0  0  0  0
  153.2176  144.2906  159.0222 H   0  0  0  0  0  0  0  0  0  0  0  0
  152.1945  144.5682  157.6068 H   0  0  0  0  0  0  0  0  0  0  0  0
  152.2046  146.4047  159.5950 H   0  0  0  0  0  0  0  0  0  0  0  0
  150.6605  145.9316  158.8793 H   0  0  0  0  0  0  0  0  0  0  0  0
  150.1502  143.1727  160.9608 H   0  0  0  0  0  0  0  0  0  0  0  0
  151.8941  143.2218  161.2220 H   0  0  0  0  0  0  0  0  0  0  0  0
  146.5308  140.1062  151.5776 H   0  0  0  0  0  0  0  0  0  0  0  0
  147.9286  139.2041  152.1192 H   0  0  0  0  0  0  0  0  0  0  0  0
  145.1043  138.1051  151.8139 H   0  0  0  0  0  0  0  0  0  0  0  0
  146.4505  138.6167  149.7022 H   0  0  0  0  0  0  0  0  0  0  0  0
  145.9656  136.9513  149.8358 H   0  0  0  0  0  0  0  0  0  0  0  0
  147.6278  137.4181  150.2191 H   0  0  0  0  0  0  0  0  0  0  0  0
  147.5574  136.7634  152.6496 H   0  0  0  0  0  0  0  0  0  0  0  0
  1  2  1  0  0  0  0
  1 30  1  0  0  0  0
  1 31  1  0  0  0  0
  1 32  1  0  0  0  0
  2  3  1  0  0  0  0
  2 33  1  0  0  0  0
  2 34  1  0  0  0  0
  3 28  1  0  0  0  0
  3  4  1  0  0  0  0
  3 64  1  0  0  0  0
  4  5  1  0  0  0  0
  4 35  1  0  0  0  0
  4 36  1  0  0  0  0
  5  6  1  0  0  0  0
  5 37  1  0  0  0  0
  5 38  1  0  0  0  0
  6  7  1  0  0  0  0
  6 27  1  0  0  0  0
  6 39  1  0  0  0  0
  7  8  1  0  0  0  0
  7  9  1  0  0  0  0
  8 40  1  0  0  0  0
  8 41  1  0  0  0  0
  8 42  1  0  0  0  0
  9 14  1  0  0  0  0
  9 10  2  0  0  0  0
 10 11  1  0  0  0  0
 11 12  2  0  0  0  0
 11 43  1  0  0  0  0
 12 13  1  0  0  0  0
 13 17  1  0  0  0  0
 13 14  2  0  0  0  0
 14 15  1  0  0  0  0
 15 16  2  0  0  0  0
 16 17  1  0  0  0  0
 16 44  1  0  0  0  0
 17 18  1  0  0  0  0
 18 19  1  0  0  0  0
 18 45  1  0  0  0  0
 18 46  1  0  0  0  0
 19 20  1  0  0  0  0
 19 22  1  0  0  0  0
 19 47  1  0  0  0  0
 20 21  1  0  0  0  0
 20 48  1  0  0  0  0
 20 49  1  0  0  0  0
 21 50  1  0  0  0  0
 22 26  1  0  0  0  0
 22 23  1  0  0  0  0
 22 51  1  0  0  0  0
 23 24  1  0  0  0  0
 23 52  1  0  0  0  0
 23 53  1  0  0  0  0
 24 25  1  0  0  0  0
 24 54  1  0  0  0  0
 24 55  1  0  0  0  0
 25 26  1  0  0  0  0
 26 56  1  0  0  0  0
 26 57  1  0  0  0  0
 27 28  1  0  0  0  0
 27 58  1  0  0  0  0
 27 59  1  0  0  0  0
 28 29  1  0  0  0  0
 28 60  1  0  0  0  0
 29 61  1  0  0  0  0
 29 62  1  0  0  0  0
 29 63  1  0  0  0  0
M  CHG  1   3   1
M  END
> <s_m_source_file>
AV-unprocessed.smi

> <i_m_source_file_index>
249

> <i_lp_mmshare_version>
43012

> <i_f3d_flags>
0

> <s_epik_input>
W0NIM11bQ0gyXU4xW0NIMl1bQ0gyXVtDQEhdKFtDSDJdW0NASF0xW0NIM10pTihbQ0gzXSljKG5bY0hdbjIpYyhjMjMpbltjSF1uM1tDSDJdW0NASF0oW0NIMl1bT0hdKVtDQEBIXTRbQ0gyXVtDSDJdT1tDSDJdNA==

> <s_epik_cmdline>
J2VwaWtfcHl0aG9uJywgJy1waCcsICc3LjAnLCAnLXRuJywgJzgnLCAnLW1hJywgJzIwMCcsICctbWV0YWxfYmluZGluZycsICctaW1hZScsICc8aW5maWxlLm1hZT4nLCAnLW9tYWUnLCAnPG91dGZpbGUubWFlPic=

> <r_lp_tautomer_probability>
1

> <r_epik_Ionization_Penalty>
0.00294688

> <r_epik_Ionization_Penalty_Charging>
0.00169971

> <r_epik_Ionization_Penalty_Neutral>
0.00124717

> <r_epik_State_Penalty>
-0

> <r_epik_Charging_Adjusted_Penalty>
0.00169971

> <i_epik_Tot_Q>
1

> <i_epik_Tot_abs_Q>
1

> <r_epik_Metal_State_Penalty>
-0

> <b_epik_Metal_Only>
0

> <s_lp_Force_Field>
OPLS_2005

> <r_lp_Energy>
53.6814

> <b_lp_Chiralities_Consistent>
1

> <s_lp_Variant>
AV-unprocessed.smi:249-1

> <Gold.Version>
5.8.1

> <Gold.Id.Protein>
6NUR|6NUR_protein|mol2

> <Gold.PLP.Fitness>
52.1696

> <Gold.PLP.PLP>
-45.4774

> <Gold.PLP.part.hbond>
-3.0431

> <Gold.PLP.part.metal>
0.0000

> <Gold.PLP.part.buried>
2.1858

> <Gold.PLP.part.nonpolar>
-43.4663

> <Gold.PLP.part.repulsive>
0.5177

> <Gold.PLP.ligand.clash>
0.0000

> <Gold.PLP.ligand.torsion>
1.7110

> <Gold.PLP.Chemscore.Hbond>
3.0893

> <Gold.PLP.Chemscore.CHOScore>
0.0000

> <Gold.PLP.Chemscore.Metal>
0.0000

> <Gold.Chemscore.Hbonds>
donor molecule, donor type, donor heavy atom, donor atom, acceptor molecule, acceptor atom, score
      L1  H     3    64       P1  7948  1.98

> <Gold.PLP.Chemscore.Internal.Correction>
0.8464

> <Gold.Rescore>
     Score         DG    S(hbond)    S(metal)    S(lipo)     H(rot)  DE(clash)    DE(int)     intcor
     14.39     -17.95       1.44        0.00     128.85       2.90       2.10       1.46       ----

> <Gold.Chemscore.Fitness>
14.3896

> <Gold.Chemscore.DG>
-17.9497

> <Gold.Chemscore.ZeroCoef>
-5.4800

> <Gold.Chemscore.Hbond>
1.4429

> <Gold.Chemscore.Metal>
0.0000

> <Gold.Chemscore.Lipo>
128.8548

> <Gold.Chemscore.Internal_Hbond>
0.0000

> <Gold.Chemscore.DEClash>
2.0961

> <Gold.Chemscore.DEInternal>
1.4640

> <Gold.Chemscore.Rot>
2.9006

> <Gold.Chemscore.Internal.Correction>
   9.000000E+99

> <Gold.Chemscore.Hbonds>
donor molecule, donor type, donor heavy atom, donor atom, acceptor molecule, acceptor atom, score
      L1  H     3    64       P1  7948  0.94

> <Gold.Chemscore.Hbond.Weighted>
-4.8193

> <Gold.Chemscore.Metal.Weighted>
-0.0000

> <Gold.Chemscore.Lipo.Weighted>
-15.0760

> <Gold.Chemscore.Internal_Hbond.Weighted>
0.0000

> <Gold.Chemscore.DEClash.Weighted>
2.0961

> <Gold.Chemscore.DEInternal.Weighted>
1.4640

> <Gold.Chemscore.Rot.Weighted>
7.4256

> <Gold.Chemscore.Internal.Correction.Weighted>
   9.000000E+99

> <Gold.Protein.RotatedTorsions>
[ 6907 6896 6895 6894 ] final   -3.31 input  -60.11 | X-H torsion
[ 7974 7965 7964 7962 ] final  -98.33 input  175.53 | X-H torsion
[ 8008 7997 7996 7995 ] final  125.86 input   59.86 | X-H torsion
[ 10167 10162 10161 10158 ] final -171.10 input  -65.29 | X-H torsion
[ 10718 10713 10712 10709 ] final   56.61 input   66.30 | X-H torsion
[ 10763 10752 10751 10750 ] final  108.35 input  -60.55 | X-H torsion
[ 11005 11000 10999 10996 ] final -101.42 input  -57.11 | X-H torsion

> <Gold.Protein.ActiveResidues>
 VAL166  LYS551  ARG553  GLY616  TRP617  ASP618  TYR619  PRO620  LYS621  CYS622 
 ASP623  PHE694  ASN695  SER759  ASP760  ASP761  ALA762  ILE779  LEU786  VAL792 
 PHE793  MET794  SER795  GLU796  ALA797  LYS798  CYS799  TRP800  GLU811  SER814 

> <Gold.Protein.RotatedAtoms>
  151.5159  135.1066  159.9865 H   0  0  0  0  0  0  0  0  0  0  0  0  # atno 6907 bound_to 6896
  152.4641  133.7882  159.6898 H   0  0  0  0  0  0  0  0  0  0  0  0  # atno 6908 bound_to 6896
  150.8617  133.7570  159.3015 H   0  0  0  0  0  0  0  0  0  0  0  0  # atno 6909 bound_to 6896
  145.3221  140.9424  143.2710 H   0  0  0  0  0  0  0  0  0  0  0  0  # atno 7974 bound_to 7965
  156.2847  140.2706  156.2018 H   0  0  0  0  0  0  0  0  0  0  0  0  # atno 8008 bound_to 7997
  155.0354  140.0386  157.2507 H   0  0  0  0  0  0  0  0  0  0  0  0  # atno 8009 bound_to 7997
  154.7319  140.2708  155.6454 H   0  0  0  0  0  0  0  0  0  0  0  0  # atno 8010 bound_to 7997
  139.5822  144.1397  152.1530 H   0  0  0  0  0  0  0  0  0  0  0  0  # atno 10167 bound_to 10162
  157.5445  130.8721  149.8871 H   0  0  0  0  0  0  0  0  0  0  0  0  # atno 10718 bound_to 10713
  153.4195  135.3815  155.2102 H   0  0  0  0  0  0  0  0  0  0  0  0  # atno 10763 bound_to 10752
  154.8743  135.3813  154.4402 H   0  0  0  0  0  0  0  0  0  0  0  0  # atno 10764 bound_to 10752
  153.4920  135.7088  153.5941 H   0  0  0  0  0  0  0  0  0  0  0  0  # atno 10765 bound_to 10752
  141.1232  133.8476  157.1229 H   0  0  0  0  0  0  0  0  0  0  0  0  # atno 11005 bound_to 11000
  144.8931  139.4748  143.6668 LP  0  0  0  0  0  0  0  0  0  0  0  0  # atno 17320 bound_to 7965
  146.3078  139.7641  142.9043 LP  0  0  0  0  0  0  0  0  0  0  0  0  # atno 17321 bound_to 7965
  140.0953  144.5586  150.7026 LP  0  0  0  0  0  0  0  0  0  0  0  0  # atno 17342 bound_to 10162
  140.7099  143.2497  151.4613 LP  0  0  0  0  0  0  0  0  0  0  0  0  # atno 17343 bound_to 10162
  156.0524  130.3715  150.1170 LP  0  0  0  0  0  0  0  0  0  0  0  0  # atno 17370 bound_to 10713
  156.9347  130.9725  151.3527 LP  0  0  0  0  0  0  0  0  0  0  0  0  # atno 17371 bound_to 10713
  140.0206  134.9947  157.0584 LP  0  0  0  0  0  0  0  0  0  0  0  0  # atno 17394 bound_to 11000
  140.4446  134.1645  155.7176 LP  0  0  0  0  0  0  0  0  0  0  0  0  # atno 17395 bound_to 11000

$$$$
