AV-unprocessed.smi:1831|AV-procd|sdf|7463|dock5
  -GOLD-   22720 9153D 1   1.00000     0.00000
 Structure written by MMmdl.
 40 41  0  0  0  0  0  0  0  0  3 V2000
  153.0191  142.0236  160.9076 C   0  0  0  0  0  0  0  0  0  0  0  0
  152.3919  141.3761  159.7210 C   0  0  0  0  0  0  0  0  0  0  0  0
  151.7751  142.0686  158.7604 N   0  0  0  0  0  0  0  0  0  0  0  0
  151.2743  141.2459  157.7621 N   0  0  0  0  0  0  0  0  0  0  0  0
  151.5282  139.9472  157.9746 C   0  0  0  0  0  0  0  0  0  0  0  0
  151.1293  138.9866  157.1246 N   0  5  0  0  0  0  0  0  0  0  0  0
  150.6432  139.3231  155.9096 C   0  0  0  0  0  0  0  0  0  0  0  0
  150.9949  140.2870  155.2242 O   0  0  0  0  0  0  0  0  0  0  0  0
  149.7094  138.4781  155.4464 N   0  0  0  0  0  0  0  0  0  0  0  0
  149.0304  138.5795  154.1574 C   0  0  0  0  0  0  0  0  0  0  0  0
  147.5025  138.7797  154.2962 C   0  0  1  0  0  0  0  0  0  0  0  0
  146.9535  139.6486  153.1630 C   0  0  0  0  0  0  0  0  0  0  0  0
  146.5555  138.6554  152.0589 C   0  0  0  0  0  0  0  0  0  0  0  0
  146.5961  137.2995  152.6614 N   0  3  2  0  0  0  0  0  0  0  0  0
  145.5452  136.3545  152.1920 C   0  0  0  0  0  0  0  0  0  0  0  0
  145.6363  136.1139  150.6730 C   0  0  0  0  0  0  0  0  0  0  0  0
  144.1388  136.8720  152.5469 C   0  0  0  0  0  0  0  0  0  0  0  0
  146.6723  137.5034  154.1219 C   0  0  0  0  0  0  0  0  0  0  0  0
  152.4103  139.6388  159.4704 S   0  0  0  0  0  0  0  0  0  0  0  0
  154.0549  142.2803  160.6861 H   0  0  0  0  0  0  0  0  0  0  0  0
  153.0003  141.3456  161.7610 H   0  0  0  0  0  0  0  0  0  0  0  0
  152.4801  142.9332  161.1743 H   0  0  0  0  0  0  0  0  0  0  0  0
  149.4518  137.7026  156.0398 H   0  0  0  0  0  0  0  0  0  0  0  0
  149.4578  139.4315  153.6282 H   0  0  0  0  0  0  0  0  0  0  0  0
  149.2516  137.7087  153.5380 H   0  0  0  0  0  0  0  0  0  0  0  0
  147.2974  139.2332  155.2669 H   0  0  0  0  0  0  0  0  0  0  0  0
  146.0654  140.1786  153.5103 H   0  0  0  0  0  0  0  0  0  0  0  0
  147.6642  140.4000  152.8162 H   0  0  0  0  0  0  0  0  0  0  0  0
  145.5618  138.9013  151.6817 H   0  0  0  0  0  0  0  0  0  0  0  0
  147.2512  138.6940  151.2201 H   0  0  0  0  0  0  0  0  0  0  0  0
  145.6965  135.3988  152.6960 H   0  0  0  0  0  0  0  0  0  0  0  0
  144.8231  135.4747  150.3285 H   0  0  0  0  0  0  0  0  0  0  0  0
  146.5652  135.6170  150.3929 H   0  0  0  0  0  0  0  0  0  0  0  0
  145.5772  137.0516  150.1185 H   0  0  0  0  0  0  0  0  0  0  0  0
  143.3689  136.1904  152.1844 H   0  0  0  0  0  0  0  0  0  0  0  0
  143.9528  137.8482  152.0976 H   0  0  0  0  0  0  0  0  0  0  0  0
  143.9956  136.9681  153.6229 H   0  0  0  0  0  0  0  0  0  0  0  0
  147.0772  136.6405  154.6473 H   0  0  0  0  0  0  0  0  0  0  0  0
  145.6668  137.6709  154.5119 H   0  0  0  0  0  0  0  0  0  0  0  0
  147.4880  136.9024  152.4006 H   0  0  0  0  0  0  0  0  0  0  0  0
  1  2  1  0  0  0  0
  1 20  1  0  0  0  0
  1 21  1  0  0  0  0
  1 22  1  0  0  0  0
  2 19  1  0  0  0  0
  2  3  2  0  0  0  0
  3  4  1  0  0  0  0
  4  5  2  0  0  0  0
  5  6  1  0  0  0  0
  5 19  1  0  0  0  0
  6  7  1  0  0  0  0
  7  8  2  0  0  0  0
  7  9  1  0  0  0  0
  9 10  1  0  0  0  0
  9 23  1  0  0  0  0
 10 11  1  0  0  0  0
 10 24  1  0  0  0  0
 10 25  1  0  0  0  0
 11 18  1  0  0  0  0
 11 12  1  0  0  0  0
 11 26  1  0  0  0  0
 12 13  1  0  0  0  0
 12 27  1  0  0  0  0
 12 28  1  0  0  0  0
 13 14  1  0  0  0  0
 13 29  1  0  0  0  0
 13 30  1  0  0  0  0
 14 15  1  0  0  0  0
 14 18  1  0  0  0  0
 14 40  1  0  0  0  0
 15 16  1  0  0  0  0
 15 17  1  0  0  0  0
 15 31  1  0  0  0  0
 16 32  1  0  0  0  0
 16 33  1  0  0  0  0
 16 34  1  0  0  0  0
 17 35  1  0  0  0  0
 17 36  1  0  0  0  0
 17 37  1  0  0  0  0
 18 38  1  0  0  0  0
 18 39  1  0  0  0  0
M  CHG  1   6  -1
M  CHG  1  14   1
M  END
> <s_m_source_file>
AV-unprocessed.smi

> <i_m_source_file_index>
1831

> <i_lp_mmshare_version>
43012

> <i_f3d_flags>
0

> <s_epik_input>
W0NIM11jMW5uYyhzMSlbTkhdQyg9TylbTkhdW0NIMl1bQ0BASF0yW0NIMl1bQ0gyXU4oW0NIMl0yKVtDSF0oW0NIM10pW0NIM10=

> <s_epik_cmdline>
J2VwaWtfcHl0aG9uJywgJy1waCcsICc3LjAnLCAnLXRuJywgJzgnLCAnLW1hJywgJzIwMCcsICctbWV0YWxfYmluZGluZycsICctaW1hZScsICc8aW5maWxlLm1hZT4nLCAnLW9tYWUnLCAnPG91dGZpbGUubWFlPic=

> <r_lp_tautomer_probability>
1

> <r_epik_Ionization_Penalty>
4.24531

> <r_epik_Ionization_Penalty_Charging>
4.11954

> <r_epik_Ionization_Penalty_Neutral>
0.125766

> <r_epik_State_Penalty>
4.11879

> <r_epik_Charging_Adjusted_Penalty>
8.23833

> <i_epik_Tot_Q>
0

> <i_epik_Tot_abs_Q>
2

> <r_epik_Metal_State_Penalty>
0.659341

> <b_epik_Metal_Only>
1

> <s_lp_Force_Field>
OPLS_2005

> <r_lp_Energy>
23.48

> <b_lp_Chiralities_Consistent>
1

> <s_lp_Variant>
AV-unprocessed.smi:1831-8

> <Gold.Version>
5.8.1

> <Gold.Id.Protein>
6NUR|6NUR_protein|mol2

> <Gold.PLP.Fitness>
39.1457

> <Gold.PLP.PLP>
-31.5338

> <Gold.PLP.part.hbond>
-2.0000

> <Gold.PLP.part.metal>
0.0000

> <Gold.PLP.part.buried>
-4.4986

> <Gold.PLP.part.nonpolar>
-26.1060

> <Gold.PLP.part.repulsive>
0.1713

> <Gold.PLP.ligand.clash>
0.0000

> <Gold.PLP.ligand.torsion>
0.7436

> <Gold.PLP.Chemscore.Hbond>
3.0000

> <Gold.PLP.Chemscore.CHOScore>
0.0000

> <Gold.PLP.Chemscore.Metal>
0.0000

> <Gold.Chemscore.Hbonds>
donor molecule, donor type, donor heavy atom, donor atom, acceptor molecule, acceptor atom, score
      L1  H    14    40       P1  7948  2.00
      P1  H  7989  7998       L1     8  1.00

> <Gold.PLP.Chemscore.Internal.Correction>
0.0990

> <Gold.Rescore>
     Score         DG    S(hbond)    S(metal)    S(lipo)     H(rot)  DE(clash)    DE(int)     intcor
     14.43     -16.66       1.95        0.00      73.05       1.51       0.05       2.18       ----

> <Gold.Chemscore.Fitness>
14.4348

> <Gold.Chemscore.DG>
-16.6615

> <Gold.Chemscore.ZeroCoef>
-5.4800

> <Gold.Chemscore.Hbond>
1.9486

> <Gold.Chemscore.Metal>
0.0000

> <Gold.Chemscore.Lipo>
73.0466

> <Gold.Chemscore.Internal_Hbond>
0.0000

> <Gold.Chemscore.DEClash>
0.0495

> <Gold.Chemscore.DEInternal>
2.1772

> <Gold.Chemscore.Rot>
1.5131

> <Gold.Chemscore.Internal.Correction>
   9.000000E+99

> <Gold.Chemscore.Hbonds>
donor molecule, donor type, donor heavy atom, donor atom, acceptor molecule, acceptor atom, score
      L1  H    14    40       P1  7948  1.00
      P1  H  7989  7998       L1     8  0.98

> <Gold.Chemscore.Hbond.Weighted>
-6.5085

> <Gold.Chemscore.Metal.Weighted>
-0.0000

> <Gold.Chemscore.Lipo.Weighted>
-8.5464

> <Gold.Chemscore.Internal_Hbond.Weighted>
0.0000

> <Gold.Chemscore.DEClash.Weighted>
0.0495

> <Gold.Chemscore.DEInternal.Weighted>
2.1772

> <Gold.Chemscore.Rot.Weighted>
3.8735

> <Gold.Chemscore.Internal.Correction.Weighted>
   9.000000E+99

> <Gold.Protein.RotatedTorsions>
[ 6907 6896 6895 6894 ] final  166.27 input  -60.11 | X-H torsion
[ 7974 7965 7964 7962 ] final  154.37 input  175.53 | X-H torsion
[ 8008 7997 7996 7995 ] final   23.99 input   59.86 | X-H torsion
[ 10167 10162 10161 10158 ] final -154.18 input  -65.29 | X-H torsion
[ 10718 10713 10712 10709 ] final  -90.31 input   66.30 | X-H torsion
[ 10763 10752 10751 10750 ] final -134.61 input  -60.55 | X-H torsion
[ 11005 11000 10999 10996 ] final  -41.18 input  -57.11 | X-H torsion

> <Gold.Protein.ActiveResidues>
 VAL166  LYS551  ARG553  GLY616  TRP617  ASP618  TYR619  PRO620  LYS621  CYS622 
 ASP623  PHE694  ASN695  SER759  ASP760  ASP761  ALA762  ILE779  LEU786  VAL792 
 PHE793  MET794  SER795  GLU796  ALA797  LYS798  CYS799  TRP800  GLU811  SER814 

> <Gold.Protein.RotatedAtoms>
  151.8815  133.3496  159.3767 H   0  0  0  0  0  0  0  0  0  0  0  0  # atno 6907 bound_to 6896
  150.7126  134.5014  159.5572 H   0  0  0  0  0  0  0  0  0  0  0  0  # atno 6908 bound_to 6896
  152.2567  134.8077  160.0488 H   0  0  0  0  0  0  0  0  0  0  0  0  # atno 6909 bound_to 6896
  144.8093  139.6925  143.6148 H   0  0  0  0  0  0  0  0  0  0  0  0  # atno 7974 bound_to 7965
  154.9894  140.3112  155.4912 H   0  0  0  0  0  0  0  0  0  0  0  0  # atno 8008 bound_to 7997
  156.2942  140.2252  156.4938 H   0  0  0  0  0  0  0  0  0  0  0  0  # atno 8009 bound_to 7997
  154.7717  140.0452  157.1044 H   0  0  0  0  0  0  0  0  0  0  0  0  # atno 8010 bound_to 7997
  139.7035  143.9225  152.2438 H   0  0  0  0  0  0  0  0  0  0  0  0  # atno 10167 bound_to 10162
  155.9987  130.4905  150.5304 H   0  0  0  0  0  0  0  0  0  0  0  0  # atno 10718 bound_to 10713
  154.8716  135.3729  154.4763 H   0  0  0  0  0  0  0  0  0  0  0  0  # atno 10763 bound_to 10752
  153.5420  135.7026  153.5637 H   0  0  0  0  0  0  0  0  0  0  0  0  # atno 10764 bound_to 10752
  153.3795  135.4000  155.1811 H   0  0  0  0  0  0  0  0  0  0  0  0  # atno 10765 bound_to 10752
  141.0227  133.6855  156.2422 H   0  0  0  0  0  0  0  0  0  0  0  0  # atno 11005 bound_to 11000
  146.2389  139.5962  142.9505 LP  0  0  0  0  0  0  0  0  0  0  0  0  # atno 17320 bound_to 7965
  145.5362  141.0424  143.2356 LP  0  0  0  0  0  0  0  0  0  0  0  0  # atno 17321 bound_to 7965
  139.9074  144.6876  150.8599 LP  0  0  0  0  0  0  0  0  0  0  0  0  # atno 17342 bound_to 10162
  140.7715  143.3469  151.2094 LP  0  0  0  0  0  0  0  0  0  0  0  0  # atno 17343 bound_to 10162
  157.3254  131.0689  151.1901 LP  0  0  0  0  0  0  0  0  0  0  0  0  # atno 17370 bound_to 10713
  157.2800  130.6745  149.6061 LP  0  0  0  0  0  0  0  0  0  0  0  0  # atno 17371 bound_to 10713
  140.6544  134.5033  157.5579 LP  0  0  0  0  0  0  0  0  0  0  0  0  # atno 17394 bound_to 11000
  139.9156  134.8253  156.1377 LP  0  0  0  0  0  0  0  0  0  0  0  0  # atno 17395 bound_to 11000

$$$$
