#       Name:                AV-unprocessed.smi:717
#       Creating user name   scv26
#       Creation time:       Fri Mar 27 00:48:36 2020


#       File generated by GOLD software.
#

@<TRIPOS>MOLECULE
AV-unprocessed.smi:717
    46    47     1
SMALL
NO_CHARGES


@<TRIPOS>ATOM
      1 ****        -1.2356   2.0532   1.6242 O.2            1 S1                 0.0000
      2 ****        -1.7348   2.3167   0.5299 C.2            1 S1                 0.0000
      3 ****        -2.2985   3.7133   0.2560 C.3            1 S1                 0.0000
      4 ****        -3.2985   4.1117   1.3269 C.ar           1 S1                 0.0000
      5 ****        -2.9049   4.8995   2.4287 C.ar           1 S1                 0.0000
      6 ****        -3.8679   5.2395   3.3979 C.ar           1 S1                 0.0000
      7 ****        -5.1873   4.7762   3.2236 C.ar           1 S1                 0.0000
      8 ****        -5.5762   4.0226   2.1725 N.ar           1 S1                 0.0000
      9 ****        -4.6464   3.7005   1.2477 C.ar           1 S1                 0.0000
     10 ****        -1.8173   1.4314  -0.4751 N.am           1 S1                 0.0000
     11 ****        -1.3405   0.0541  -0.4229 C.3            1 S1                 0.0000
     12 ****         0.1848  -0.0277  -0.6013 C.3            1 S1                 0.0000
     13 ****         0.7003  -1.4737  -0.5995 C.3            1 S1                 0.0000
     14 ****         2.2293  -1.5532  -0.7322 C.3            1 S1                 0.0000
     15 ****         2.7706  -2.9928  -0.6779 C.3            1 S1                 0.0000
     16 ****         4.2983  -3.0688  -0.6666 C.3            1 S1                 0.0000
     17 ****         4.6092  -4.5162  -1.0513 C.3            1 S1                 0.0000
     18 ****         3.4530  -4.9661  -1.9563 C.3            1 S1                 0.0000
     19 ****         2.3850  -3.8656  -1.8787 C.3            1 S1                 0.0000
     20 ****        -1.4768   4.4298   0.2289 H              1 S1                 0.0000
     21 ****        -2.7823   3.7493  -0.7217 H              1 S1                 0.0000
     22 ****        -1.8833   5.2350   2.5321 H              1 S1                 0.0000
     23 ****        -3.6015   5.8396   4.2553 H              1 S1                 0.0000
     24 ****        -5.9505   5.0178   3.9483 H              1 S1                 0.0000
     25 ****        -4.9879   3.0947   0.4212 H              1 S1                 0.0000
     26 ****        -2.2436   1.7332  -1.3394 H              1 S1                 0.0000
     27 ****        -1.6417  -0.4094   0.5180 H              1 S1                 0.0000
     28 ****        -1.8378  -0.5039  -1.2167 H              1 S1                 0.0000
     29 ****         0.4692   0.4579  -1.5357 H              1 S1                 0.0000
     30 ****         0.6768   0.5282   0.1978 H              1 S1                 0.0000
     31 ****         0.3922  -1.9657   0.3239 H              1 S1                 0.0000
     32 ****         0.2308  -2.0247  -1.4149 H              1 S1                 0.0000
     33 ****         2.5441  -1.0730  -1.6597 H              1 S1                 0.0000
     34 ****         2.6828  -0.9783   0.0762 H              1 S1                 0.0000
     35 ****         2.4065  -3.4756   0.2306 H              1 S1                 0.0000
     36 ****         4.7121  -2.3943  -1.4176 H              1 S1                 0.0000
     37 ****         4.7250  -2.7935   0.2985 H              1 S1                 0.0000
     38 ****         5.5802  -4.6114  -1.5383 H              1 S1                 0.0000
     39 ****         4.6308  -5.1357  -0.1538 H              1 S1                 0.0000
     40 ****         3.7861  -5.1042  -2.9855 H              1 S1                 0.0000
     41 ****         3.0547  -5.9214  -1.6126 H              1 S1                 0.0000
     42 ****         1.3786  -4.2751  -1.7858 H              1 S1                 0.0000
     43 ****         2.4130  -3.2730  -2.7943 H              1 S1                 0.0000
     44 ****        -1.1974   2.7527   2.3378 LP             1 S1                 0.0000
     45 ****        -0.8684   1.1397   1.7993 LP             1 S1                 0.0000
     46 ****        -6.5227   3.7129   2.0819 LP             1 S1                 0.0000
@<TRIPOS>BOND
    1    1    2 2     
    2    2    3 1     
    3    2   10 am    
    4    3    4 1     
    5    3   20 1     
    6    3   21 1     
    7    4    9 ar    
    8    4    5 ar    
    9    5    6 ar    
   10    5   22 1     
   11    6    7 ar    
   12    6   23 1     
   13    7    8 ar    
   14    7   24 1     
   15    8    9 ar    
   16    9   25 1     
   17   10   11 1     
   18   10   26 1     
   19   11   12 1     
   20   11   27 1     
   21   11   28 1     
   22   12   13 1     
   23   12   29 1     
   24   12   30 1     
   25   13   14 1     
   26   13   31 1     
   27   13   32 1     
   28   14   15 1     
   29   14   33 1     
   30   14   34 1     
   31   15   19 1     
   32   15   16 1     
   33   15   35 1     
   34   16   17 1     
   35   16   36 1     
   36   16   37 1     
   37   17   18 1     
   38   17   38 1     
   39   17   39 1     
   40   18   19 1     
   41   18   40 1     
   42   18   41 1     
   43   19   42 1     
   44   19   43 1     
   45    1   44 1     
   46    1   45 1     
   47    8   46 1     
@<TRIPOS>SUBSTRUCTURE
      1 S1             1
@<TRIPOS>SET
LONE_PAIRS      STATIC     ATOMS    <user>   **** ""
3 44 45 46
DONOR_HYDROGENS      STATIC     ATOMS    <user>   **** ""
1 26
ATOM$BLUE        STATIC     ATOMS    COLORGROUP SYSTEM
3 44 45 46
ATOM$RED        STATIC     ATOMS    COLORGROUP SYSTEM
1 26
