AV-unprocessed.smi:945|AV-procd|sdf|4233|dock2
  -GOLD-   22720 2143D 1   1.00000     0.00000
 Structure written by MMmdl.
 31 32  0  0  0  0  0  0  0  0  1 V2000
  153.2794  142.3118  161.9437 C   0  0  0  0  0  0  0  0  0  0  0  0
  152.3630  143.5187  161.7149 C   0  0  0  0  0  0  0  0  0  0  0  0
  151.8533  143.5923  160.3146 C   0  0  0  0  0  0  0  0  0  0  0  0
  151.3066  142.5547  159.6753 N   0  0  0  0  0  0  0  0  0  0  0  0
  150.9404  142.8635  158.3615 C   0  0  0  0  0  0  0  0  0  0  0  0
  150.3153  141.8142  157.4934 C   0  0  0  0  0  0  0  0  0  0  0  0
  151.0205  141.6968  156.1321 C   0  0  0  0  0  0  0  0  0  0  0  0
  150.6271  140.4861  155.4206 N   0  0  0  0  0  0  0  0  0  0  0  0
  151.4701  139.5362  154.9879 C   0  0  0  0  0  0  0  0  0  0  0  0
  152.6908  139.6014  155.1418 O   0  0  0  0  0  0  0  0  0  0  0  0
  150.7943  138.3919  154.3056 C   0  0  0  0  0  0  0  0  0  0  0  0
  149.6827  137.6868  155.0559 C   0  0  0  0  0  0  0  0  0  0  0  0
  151.0143  137.0036  154.8716 C   0  0  0  0  0  0  0  0  0  0  0  0
  151.2293  144.1584  158.0095 C   0  0  0  0  0  0  0  0  0  0  0  0
  151.9777  145.0356  159.3153 S   0  0  0  0  0  0  0  0  0  0  0  0
  153.6352  142.2837  162.9736 H   0  0  0  0  0  0  0  0  0  0  0  0
  154.1512  142.3498  161.2898 H   0  0  0  0  0  0  0  0  0  0  0  0
  152.7537  141.3768  161.7473 H   0  0  0  0  0  0  0  0  0  0  0  0
  151.5139  143.4765  162.3979 H   0  0  0  0  0  0  0  0  0  0  0  0
  152.8998  144.4405  161.9403 H   0  0  0  0  0  0  0  0  0  0  0  0
  150.3414  140.8492  158.0017 H   0  0  0  0  0  0  0  0  0  0  0  0
  149.2597  142.0430  157.3425 H   0  0  0  0  0  0  0  0  0  0  0  0
  150.8141  142.5755  155.5183 H   0  0  0  0  0  0  0  0  0  0  0  0
  152.1010  141.6659  156.2749 H   0  0  0  0  0  0  0  0  0  0  0  0
  149.6397  140.3562  155.2535 H   0  0  0  0  0  0  0  0  0  0  0  0
  150.6821  138.4672  153.2251 H   0  0  0  0  0  0  0  0  0  0  0  0
  149.4317  138.0304  156.0580 H   0  0  0  0  0  0  0  0  0  0  0  0
  148.8395  137.3295  154.4684 H   0  0  0  0  0  0  0  0  0  0  0  0
  151.0735  136.1843  154.1583 H   0  0  0  0  0  0  0  0  0  0  0  0
  151.6454  136.8933  155.7516 H   0  0  0  0  0  0  0  0  0  0  0  0
  151.0546  144.6451  157.0612 H   0  0  0  0  0  0  0  0  0  0  0  0
  1  2  1  0  0  0  0
  1 16  1  0  0  0  0
  1 17  1  0  0  0  0
  1 18  1  0  0  0  0
  2  3  1  0  0  0  0
  2 19  1  0  0  0  0
  2 20  1  0  0  0  0
  3 15  1  0  0  0  0
  3  4  2  0  0  0  0
  4  5  1  0  0  0  0
  5  6  1  0  0  0  0
  5 14  2  0  0  0  0
  6  7  1  0  0  0  0
  6 21  1  0  0  0  0
  6 22  1  0  0  0  0
  7  8  1  0  0  0  0
  7 23  1  0  0  0  0
  7 24  1  0  0  0  0
  8  9  1  0  0  0  0
  8 25  1  0  0  0  0
  9 10  2  0  0  0  0
  9 11  1  0  0  0  0
 11 13  1  0  0  0  0
 11 12  1  0  0  0  0
 11 26  1  0  0  0  0
 12 13  1  0  0  0  0
 12 27  1  0  0  0  0
 12 28  1  0  0  0  0
 13 29  1  0  0  0  0
 13 30  1  0  0  0  0
 14 15  1  0  0  0  0
 14 31  1  0  0  0  0
M  END
> <s_m_source_file>
AV-unprocessed.smi

> <i_m_source_file_index>
945

> <i_lp_mmshare_version>
43012

> <i_f3d_flags>
0

> <s_epik_input>
W0NIM11bQ0gyXWMxbmMoW2NIXXMxKVtDSDJdW0NIMl1bTkhdQyg9TylbQ0hdMltDSDJdW0NIMl0y

> <s_epik_cmdline>
J2VwaWtfcHl0aG9uJywgJy1waCcsICc3LjAnLCAnLXRuJywgJzgnLCAnLW1hJywgJzIwMCcsICctbWV0YWxfYmluZGluZycsICctaW1hZScsICc8aW5maWxlLm1hZT4nLCAnLW9tYWUnLCAnPG91dGZpbGUubWFlPic=

> <r_epik_Ionization_Penalty>
0.00109668

> <r_epik_Ionization_Penalty_Charging>
0

> <r_epik_Ionization_Penalty_Neutral>
0.00109668

> <r_epik_State_Penalty>
0.000719322

> <r_epik_Charging_Adjusted_Penalty>
0.000719322

> <i_epik_Tot_Q>
0

> <i_epik_Tot_abs_Q>
0

> <r_epik_Metal_State_Penalty>
-0

> <b_epik_Metal_Only>
0

> <s_lp_Force_Field>
OPLS_2005

> <r_lp_Energy>
-3.93776

> <b_lp_Chiralities_Consistent>
1

> <s_lp_Variant>
AV-unprocessed.smi:945-1

> <Gold.Version>
5.8.1

> <Gold.Id.Protein>
6NUR|6NUR_protein|mol2

> <Gold.PLP.Fitness>
44.2074

> <Gold.PLP.PLP>
-38.6801

> <Gold.PLP.part.hbond>
-2.4524

> <Gold.PLP.part.metal>
0.0000

> <Gold.PLP.part.buried>
-4.7577

> <Gold.PLP.part.nonpolar>
-31.7175

> <Gold.PLP.part.repulsive>
0.1622

> <Gold.PLP.ligand.clash>
0.0000

> <Gold.PLP.ligand.torsion>
0.2646

> <Gold.PLP.Chemscore.Hbond>
0.9913

> <Gold.PLP.Chemscore.CHOScore>
0.9903

> <Gold.PLP.Chemscore.Metal>
0.0000

> <Gold.Chemscore.Hbonds>
donor molecule, donor type, donor heavy atom, donor atom, acceptor molecule, acceptor atom, score
      P1  H  7997  8009       L1    10  1.00
      L1  C    14    31       P1  8028  0.95

> <Gold.PLP.Chemscore.Internal.Correction>
0.1118

> <Gold.Rescore>
     Score         DG    S(hbond)    S(metal)    S(lipo)     H(rot)  DE(clash)    DE(int)     intcor
     16.22     -16.53       1.00        0.00     100.36       1.58       0.01       0.30       ----

> <Gold.Chemscore.Fitness>
16.2153

> <Gold.Chemscore.DG>
-16.5265

> <Gold.Chemscore.ZeroCoef>
-5.4800

> <Gold.Chemscore.Hbond>
0.9999

> <Gold.Chemscore.Metal>
0.0000

> <Gold.Chemscore.Lipo>
100.3551

> <Gold.Chemscore.Internal_Hbond>
0.0000

> <Gold.Chemscore.DEClash>
0.0073

> <Gold.Chemscore.DEInternal>
0.3038

> <Gold.Chemscore.Rot>
1.5760

> <Gold.Chemscore.Internal.Correction>
   9.000000E+99

> <Gold.Chemscore.Hbonds>
donor molecule, donor type, donor heavy atom, donor atom, acceptor molecule, acceptor atom, score
      P1  H  7997  8009       L1    10  0.97

> <Gold.Chemscore.Hbond.Weighted>
-3.3395

> <Gold.Chemscore.Metal.Weighted>
-0.0000

> <Gold.Chemscore.Lipo.Weighted>
-11.7415

> <Gold.Chemscore.Internal_Hbond.Weighted>
0.0000

> <Gold.Chemscore.DEClash.Weighted>
0.0073

> <Gold.Chemscore.DEInternal.Weighted>
0.3038

> <Gold.Chemscore.Rot.Weighted>
4.0346

> <Gold.Chemscore.Internal.Correction.Weighted>
   9.000000E+99

> <Gold.Protein.RotatedTorsions>
[ 6907 6896 6895 6894 ] final -121.47 input  -60.11 | X-H torsion
[ 7974 7965 7964 7962 ] final -153.79 input  175.53 | X-H torsion
[ 8008 7997 7996 7995 ] final -144.45 input   59.86 | X-H torsion
[ 10167 10162 10161 10158 ] final  151.96 input  -65.29 | X-H torsion
[ 10718 10713 10712 10709 ] final  -65.27 input   66.30 | X-H torsion
[ 10763 10752 10751 10750 ] final   58.31 input  -60.55 | X-H torsion
[ 11005 11000 10999 10996 ] final  114.19 input  -57.11 | X-H torsion

> <Gold.Protein.ActiveResidues>
 VAL166  LYS551  ARG553  GLY616  TRP617  ASP618  TYR619  PRO620  LYS621  CYS622 
 ASP623  PHE694  ASN695  SER759  ASP760  ASP761  ALA762  ILE779  LEU786  VAL792 
 PHE793  MET794  SER795  GLU796  ALA797  LYS798  CYS799  TRP800  GLU811  SER814 

> <Gold.Protein.RotatedAtoms>
  150.8486  133.7822  159.3033 H   0  0  0  0  0  0  0  0  0  0  0  0  # atno 6907 bound_to 6896
  151.5501  135.1066  159.9957 H   0  0  0  0  0  0  0  0  0  0  0  0  # atno 6908 bound_to 6896
  152.4534  133.7632  159.6814 H   0  0  0  0  0  0  0  0  0  0  0  0  # atno 6909 bound_to 6896
  144.7722  140.4477  143.5899 H   0  0  0  0  0  0  0  0  0  0  0  0  # atno 7974 bound_to 7965
  155.5271  140.0596  157.2896 H   0  0  0  0  0  0  0  0  0  0  0  0  # atno 8008 bound_to 7997
  154.4497  140.1942  156.0502 H   0  0  0  0  0  0  0  0  0  0  0  0  # atno 8009 bound_to 7997
  156.0678  140.3264  155.7543 H   0  0  0  0  0  0  0  0  0  0  0  0  # atno 8010 bound_to 7997
  139.4836  144.5397  151.7585 H   0  0  0  0  0  0  0  0  0  0  0  0  # atno 10167 bound_to 10162
  156.0679  130.4245  150.1540 H   0  0  0  0  0  0  0  0  0  0  0  0  # atno 10718 bound_to 10713
  152.9868  135.5611  154.5531 H   0  0  0  0  0  0  0  0  0  0  0  0  # atno 10763 bound_to 10752
  154.4965  135.2795  155.1457 H   0  0  0  0  0  0  0  0  0  0  0  0  # atno 10764 bound_to 10752
  154.2905  135.6327  153.5436 H   0  0  0  0  0  0  0  0  0  0  0  0  # atno 10765 bound_to 10752
  139.8973  134.9563  156.6853 H   0  0  0  0  0  0  0  0  0  0  0  0  # atno 11005 bound_to 11000
  145.6289  139.1534  143.2980 LP  0  0  0  0  0  0  0  0  0  0  0  0  # atno 17320 bound_to 7965
  146.1877  140.6394  142.9160 LP  0  0  0  0  0  0  0  0  0  0  0  0  # atno 17321 bound_to 7965
  140.4935  144.1275  150.5955 LP  0  0  0  0  0  0  0  0  0  0  0  0  # atno 17342 bound_to 10162
  140.4144  143.2641  151.9793 LP  0  0  0  0  0  0  0  0  0  0  0  0  # atno 17343 bound_to 10162
  156.9596  130.9800  151.3482 LP  0  0  0  0  0  0  0  0  0  0  0  0  # atno 17370 bound_to 10713
  157.5733  130.8325  149.8421 LP  0  0  0  0  0  0  0  0  0  0  0  0  # atno 17371 bound_to 10713
  140.7267  133.9094  155.8183 LP  0  0  0  0  0  0  0  0  0  0  0  0  # atno 17394 bound_to 11000
  141.0185  134.0922  157.4146 LP  0  0  0  0  0  0  0  0  0  0  0  0  # atno 17395 bound_to 11000

$$$$
