AV-unprocessed.smi:3330|AV-procd|sdf|12803|dock5
  -GOLD-   2272019163D 1   1.00000     0.00000
 Structure written by MMmdl.
 39 40  0  0  0  0  0  0  0  0  2 V2000
  143.8991  135.3016  153.8548 C   0  0  0  0  0  0  0  0  0  0  0  0
  144.4850  136.7107  153.6503 C   0  0  2  0  0  0  0  0  0  0  0  0
  143.4697  137.5537  152.9794 N   0  3  0  0  0  0  0  0  0  0  0  0
  142.1620  137.6134  153.6626 C   0  0  0  0  0  0  0  0  0  0  0  0
  141.0406  137.9608  152.6724 C   0  0  0  0  0  0  0  0  0  0  0  0
  139.7199  137.7271  153.2617 N   0  0  0  0  0  0  0  0  0  0  0  0
  138.7353  138.6343  153.2936 C   0  0  0  0  0  0  0  0  0  0  0  0
  138.7631  139.7836  152.8555 O   0  0  0  0  0  0  0  0  0  0  0  0
  137.5300  138.0096  153.9621 C   0  0  0  0  0  0  0  0  0  0  0  0
  138.0669  136.6923  154.2298 N   0  0  0  0  0  0  0  0  0  0  0  0
  139.3309  136.5606  153.8078 C   0  0  0  0  0  0  0  0  0  0  0  0
  140.0089  135.5384  153.9016 O   0  0  0  0  0  0  0  0  0  0  0  0
  145.8108  136.7044  152.8410 C   0  0  1  0  0  0  0  0  0  0  0  0
  145.6621  136.0800  151.4403 C   0  0  0  0  0  0  0  0  0  0  0  0
  146.3909  138.0372  152.7317 N   0  0  0  0  0  0  0  0  0  0  0  0
  146.7147  138.7367  151.5873 C   0  0  0  0  0  0  0  0  0  0  0  0
  147.2305  139.9398  151.9758 C   0  0  0  0  0  0  0  0  0  0  0  0
  147.1792  139.8869  153.3964 C   0  0  0  0  0  0  0  0  0  0  0  0
  146.6763  138.7488  153.8459 N   0  0  0  0  0  0  0  0  0  0  0  0
  144.5619  134.6675  154.4438 H   0  0  0  0  0  0  0  0  0  0  0  0
  143.7223  134.8034  152.9010 H   0  0  0  0  0  0  0  0  0  0  0  0
  142.9480  135.3474  154.3864 H   0  0  0  0  0  0  0  0  0  0  0  0
  144.6842  137.1180  154.6433 H   0  0  0  0  0  0  0  0  0  0  0  0
  143.8376  138.4905  152.8944 H   0  0  0  0  0  0  0  0  0  0  0  0
  141.9624  136.6495  154.1334 H   0  0  0  0  0  0  0  0  0  0  0  0
  142.2010  138.3580  154.4584 H   0  0  0  0  0  0  0  0  0  0  0  0
  141.1260  139.0042  152.3628 H   0  0  0  0  0  0  0  0  0  0  0  0
  141.1517  137.3722  151.7599 H   0  0  0  0  0  0  0  0  0  0  0  0
  137.2628  138.5311  154.8817 H   0  0  0  0  0  0  0  0  0  0  0  0
  136.6729  137.9661  153.2893 H   0  0  0  0  0  0  0  0  0  0  0  0
  137.5330  135.9611  154.6774 H   0  0  0  0  0  0  0  0  0  0  0  0
  146.5331  136.0987  153.3908 H   0  0  0  0  0  0  0  0  0  0  0  0
  145.3873  135.0268  151.4980 H   0  0  0  0  0  0  0  0  0  0  0  0
  146.6001  136.1353  150.8867 H   0  0  0  0  0  0  0  0  0  0  0  0
  144.9001  136.5917  150.8518 H   0  0  0  0  0  0  0  0  0  0  0  0
  146.5548  138.3245  150.6019 H   0  0  0  0  0  0  0  0  0  0  0  0
  147.5886  140.7373  151.3418 H   0  0  0  0  0  0  0  0  0  0  0  0
  147.4901  140.6368  154.1089 H   0  0  0  0  0  0  0  0  0  0  0  0
  143.3171  137.1845  152.0518 H   0  0  0  0  0  0  0  0  0  0  0  0
  1  2  1  0  0  0  0
  1 20  1  0  0  0  0
  1 21  1  0  0  0  0
  1 22  1  0  0  0  0
  2  3  1  0  0  0  0
  2 13  1  0  0  0  0
  2 23  1  0  0  0  0
  3  4  1  0  0  0  0
  3 24  1  0  0  0  0
  3 39  1  0  0  0  0
  4  5  1  0  0  0  0
  4 25  1  0  0  0  0
  4 26  1  0  0  0  0
  5  6  1  0  0  0  0
  5 27  1  0  0  0  0
  5 28  1  0  0  0  0
  6 11  1  0  0  0  0
  6  7  1  0  0  0  0
  7  8  2  0  0  0  0
  7  9  1  0  0  0  0
  9 10  1  0  0  0  0
  9 29  1  0  0  0  0
  9 30  1  0  0  0  0
 10 11  1  0  0  0  0
 10 31  1  0  0  0  0
 11 12  2  0  0  0  0
 13 14  1  0  0  0  0
 13 15  1  0  0  0  0
 13 32  1  0  0  0  0
 14 33  1  0  0  0  0
 14 34  1  0  0  0  0
 14 35  1  0  0  0  0
 15 19  1  0  0  0  0
 15 16  1  0  0  0  0
 16 17  2  0  0  0  0
 16 36  1  0  0  0  0
 17 18  1  0  0  0  0
 17 37  1  0  0  0  0
 18 19  2  0  0  0  0
 18 38  1  0  0  0  0
M  CHG  1   3   1
M  END
> <s_m_source_file>
AV-unprocessed.smi

> <i_m_source_file_index>
3330

> <i_lp_mmshare_version>
43012

> <i_f3d_flags>
0

> <s_epik_input>
bjFbY0hdW2NIXVtjSF1uMVtDQEBIXShbQ0gzXSlbQ0BIXShbQ0gzXSlbTkhdW0NIMl1bQ0gyXU4yQyg9TylbQ0gyXVtOSF1DMj1P

> <s_epik_cmdline>
J2VwaWtfcHl0aG9uJywgJy1waCcsICc3LjAnLCAnLXRuJywgJzgnLCAnLW1hJywgJzIwMCcsICctbWV0YWxfYmluZGluZycsICctaW1hZScsICc8aW5maWxlLm1hZT4nLCAnLW9tYWUnLCAnPG91dGZpbGUubWFlPic=

> <r_lp_tautomer_probability>
1

> <r_epik_Ionization_Penalty>
0.0124905

> <r_epik_Ionization_Penalty_Charging>
0.0123685

> <r_epik_Ionization_Penalty_Neutral>
0.000122059

> <r_epik_State_Penalty>
0.00957041

> <r_epik_Charging_Adjusted_Penalty>
0.0219389

> <i_epik_Tot_Q>
1

> <i_epik_Tot_abs_Q>
1

> <r_epik_Metal_State_Penalty>
0.0858301

> <b_epik_Metal_Only>
0

> <s_lp_Force_Field>
OPLS_2005

> <r_lp_Energy>
25.3738

> <b_lp_Chiralities_Consistent>
1

> <s_lp_Variant>
AV-unprocessed.smi:3330-3

> <Gold.Version>
5.8.1

> <Gold.Id.Protein>
6NUR|6NUR_protein|mol2

> <Gold.PLP.Fitness>
42.0977

> <Gold.PLP.PLP>
-31.4908

> <Gold.PLP.part.hbond>
-2.6179

> <Gold.PLP.part.metal>
0.0000

> <Gold.PLP.part.buried>
0.1516

> <Gold.PLP.part.nonpolar>
-29.9685

> <Gold.PLP.part.repulsive>
1.3873

> <Gold.PLP.ligand.clash>
0.0000

> <Gold.PLP.ligand.torsion>
0.2561

> <Gold.PLP.Chemscore.Hbond>
3.0000

> <Gold.PLP.Chemscore.CHOScore>
0.6743

> <Gold.PLP.Chemscore.Metal>
0.0000

> <Gold.Chemscore.Hbonds>
donor molecule, donor type, donor heavy atom, donor atom, acceptor molecule, acceptor atom, score
      L1  H     3    24       P1 10175  2.00
      P1  H 11000 11005       L1    12  0.68
      L1  C    16    36       P1 10171  0.22

> <Gold.PLP.Chemscore.Internal.Correction>
0.0962

> <Gold.Rescore>
     Score         DG    S(hbond)    S(metal)    S(lipo)     H(rot)  DE(clash)    DE(int)     intcor
     10.48     -12.39       1.98        0.00      60.80       2.67       1.60       0.31       ----

> <Gold.Chemscore.Fitness>
10.4772

> <Gold.Chemscore.DG>
-12.3902

> <Gold.Chemscore.ZeroCoef>
-5.4800

> <Gold.Chemscore.Hbond>
1.9828

> <Gold.Chemscore.Metal>
0.0000

> <Gold.Chemscore.Lipo>
60.8032

> <Gold.Chemscore.Internal_Hbond>
0.0000

> <Gold.Chemscore.DEClash>
1.6042

> <Gold.Chemscore.DEInternal>
0.3088

> <Gold.Chemscore.Rot>
2.6666

> <Gold.Chemscore.Internal.Correction>
   9.000000E+99

> <Gold.Chemscore.Hbonds>
donor molecule, donor type, donor heavy atom, donor atom, acceptor molecule, acceptor atom, score
      L1  H     3    24       P1 10175  0.92
      P1  H 11000 11005       L1    12  0.67

> <Gold.Chemscore.Hbond.Weighted>
-6.6227

> <Gold.Chemscore.Metal.Weighted>
-0.0000

> <Gold.Chemscore.Lipo.Weighted>
-7.1140

> <Gold.Chemscore.Internal_Hbond.Weighted>
0.0000

> <Gold.Chemscore.DEClash.Weighted>
1.6042

> <Gold.Chemscore.DEInternal.Weighted>
0.3088

> <Gold.Chemscore.Rot.Weighted>
6.8265

> <Gold.Chemscore.Internal.Correction.Weighted>
   9.000000E+99

> <Gold.Protein.RotatedTorsions>
[ 6907 6896 6895 6894 ] final    3.81 input  -60.11 | X-H torsion
[ 7974 7965 7964 7962 ] final  175.90 input  175.53 | X-H torsion
[ 8008 7997 7996 7995 ] final -112.78 input   59.86 | X-H torsion
[ 10167 10162 10161 10158 ] final  109.93 input  -65.29 | X-H torsion
[ 10718 10713 10712 10709 ] final  140.12 input   66.30 | X-H torsion
[ 10763 10752 10751 10750 ] final  169.17 input  -60.55 | X-H torsion
[ 11005 11000 10999 10996 ] final   47.61 input  -57.11 | X-H torsion

> <Gold.Protein.ActiveResidues>
 VAL166  LYS551  ARG553  GLY616  TRP617  ASP618  TYR619  PRO620  LYS621  CYS622 
 ASP623  PHE694  ASN695  SER759  ASP760  ASP761  ALA762  ILE779  LEU786  VAL792 
 PHE793  MET794  SER795  GLU796  ALA797  LYS798  CYS799  TRP800  GLU811  SER814 

> <Gold.Protein.RotatedAtoms>
  151.6310  135.1023  160.0121 H   0  0  0  0  0  0  0  0  0  0  0  0  # atno 6907 bound_to 6896
  152.4106  133.6953  159.6403 H   0  0  0  0  0  0  0  0  0  0  0  0  # atno 6908 bound_to 6896
  150.7997  133.8548  159.3256 H   0  0  0  0  0  0  0  0  0  0  0  0  # atno 6909 bound_to 6896
  144.7193  140.0016  143.6440 H   0  0  0  0  0  0  0  0  0  0  0  0  # atno 7974 bound_to 7965
  155.0105  140.0393  157.2397 H   0  0  0  0  0  0  0  0  0  0  0  0  # atno 8008 bound_to 7997
  154.7464  140.2758  155.6306 H   0  0  0  0  0  0  0  0  0  0  0  0  # atno 8009 bound_to 7997
  156.2875  140.2655  156.2205 H   0  0  0  0  0  0  0  0  0  0  0  0  # atno 8010 bound_to 7997
  139.6728  144.7124  151.1657 H   0  0  0  0  0  0  0  0  0  0  0  0  # atno 10167 bound_to 10162
  157.4068  131.1023  151.0495 H   0  0  0  0  0  0  0  0  0  0  0  0  # atno 10718 bound_to 10713
  154.3792  135.2753  155.2221 H   0  0  0  0  0  0  0  0  0  0  0  0  # atno 10763 bound_to 10752
  154.4335  135.5971  153.6087 H   0  0  0  0  0  0  0  0  0  0  0  0  # atno 10764 bound_to 10752
  152.9835  135.6001  154.4033 H   0  0  0  0  0  0  0  0  0  0  0  0  # atno 10765 bound_to 10752
  140.1264  134.4763  155.8556 H   0  0  0  0  0  0  0  0  0  0  0  0  # atno 11005 bound_to 11000
  146.0331  139.3353  143.0743 LP  0  0  0  0  0  0  0  0  0  0  0  0  # atno 17320 bound_to 7965
  145.8428  140.9571  143.0790 LP  0  0  0  0  0  0  0  0  0  0  0  0  # atno 17321 bound_to 7965
  140.7624  143.5818  150.8887 LP  0  0  0  0  0  0  0  0  0  0  0  0  # atno 17342 bound_to 10162
  139.9484  143.6300  152.3035 LP  0  0  0  0  0  0  0  0  0  0  0  0  # atno 17343 bound_to 10162
  157.1474  130.6169  149.5572 LP  0  0  0  0  0  0  0  0  0  0  0  0  # atno 17370 bound_to 10713
  155.9839  130.4861  150.6955 LP  0  0  0  0  0  0  0  0  0  0  0  0  # atno 17371 bound_to 10713
  141.2162  133.6779  156.6986 LP  0  0  0  0  0  0  0  0  0  0  0  0  # atno 17394 bound_to 11000
  140.2899  134.8249  157.4007 LP  0  0  0  0  0  0  0  0  0  0  0  0  # atno 17395 bound_to 11000

$$$$
