AV-unprocessed.smi:229|AV-procd|sdf|1755|dock7
  -GOLD-   2262020283D 1   1.00000     0.00000
 Structure written by MMmdl.
 58 62  0  0  0  0  0  0  0  0  1 V2000
  146.2248  131.7753  158.0324 C   0  0  0  0  0  0  0  0  0  0  0  0
  146.9123  132.9776  157.3716 C   0  0  0  0  0  0  0  0  0  0  0  0
  146.4019  134.3369  157.8772 C   0  0  2  0  0  0  0  0  0  0  0  0
  147.3807  135.4902  157.5920 C   0  0  0  0  0  0  0  0  0  0  0  0
  146.8891  136.7207  158.1981 N   0  0  0  0  0  0  0  0  0  0  0  0
  147.4698  137.8610  157.7452 C   0  0  0  0  0  0  0  0  0  0  0  0
  146.7375  138.7598  157.0333 N   0  0  0  0  0  0  0  0  0  0  0  0
  147.2981  139.8886  156.5892 C   0  0  0  0  0  0  0  0  0  0  0  0
  148.5552  140.3106  156.7371 N   0  0  0  0  0  0  0  0  0  0  0  0
  149.2973  139.4095  157.4417 C   0  0  0  0  0  0  0  0  0  0  0  0
  148.8398  138.1726  157.9776 C   0  0  0  0  0  0  0  0  0  0  0  0
  149.8871  137.5219  158.6207 N   0  0  0  0  0  0  0  0  0  0  0  0
  150.9014  138.3315  158.4809 C   0  0  0  0  0  0  0  0  0  0  0  0
  150.6348  139.4874  157.7836 N   0  0  0  0  0  0  0  0  0  0  0  0
  151.5676  140.5562  157.4732 C   0  0  0  0  0  0  0  0  0  0  0  0
  150.9938  141.9505  157.8043 C   0  0  2  0  0  0  0  0  0  0  0  0
  150.7807  142.6372  156.5860 O   0  0  0  0  0  0  0  0  0  0  0  0
  151.9430  142.8061  158.6661 C   0  0  2  0  0  0  0  0  0  0  0  0
  152.2843  142.2044  160.0313 C   0  0  0  0  0  0  0  0  0  0  0  0
  152.6490  143.4133  160.8768 C   0  0  0  0  0  0  0  0  0  0  0  0
  152.0518  144.5929  160.1063 C   0  0  0  0  0  0  0  0  0  0  0  0
  151.2924  144.0059  159.0587 O   0  0  0  0  0  0  0  0  0  0  0  0
  146.6441  136.5921  159.6314 C   0  0  0  0  0  0  0  0  0  0  0  0
  145.7055  135.4005  159.9264 C   0  0  2  0  0  0  0  0  0  0  0  0
  144.2441  135.6581  159.5398 C   0  0  0  0  0  0  0  0  0  0  0  0
  143.5531  135.9167  160.8714 C   0  0  0  0  0  0  0  0  0  0  0  0
  144.2295  135.0264  161.7386 O   0  0  0  0  0  0  0  0  0  0  0  0
  145.6143  135.1280  161.4400 C   0  0  0  0  0  0  0  0  0  0  0  0
  146.2160  134.2251  159.2893 O   0  0  0  0  0  0  0  0  0  0  0  0
  146.6665  130.8409  157.6856 H   0  0  0  0  0  0  0  0  0  0  0  0
  145.1612  131.7414  157.7972 H   0  0  0  0  0  0  0  0  0  0  0  0
  146.3292  131.8090  159.1171 H   0  0  0  0  0  0  0  0  0  0  0  0
  147.9831  132.9103  157.5667 H   0  0  0  0  0  0  0  0  0  0  0  0
  146.7974  132.9177  156.2888 H   0  0  0  0  0  0  0  0  0  0  0  0
  145.4440  134.5463  157.3994 H   0  0  0  0  0  0  0  0  0  0  0  0
  148.3636  135.2613  158.0061 H   0  0  0  0  0  0  0  0  0  0  0  0
  147.5112  135.6055  156.5174 H   0  0  0  0  0  0  0  0  0  0  0  0
  146.6461  140.5472  156.0347 H   0  0  0  0  0  0  0  0  0  0  0  0
  151.8796  138.1032  158.8789 H   0  0  0  0  0  0  0  0  0  0  0  0
  152.4817  140.3702  158.0373 H   0  0  0  0  0  0  0  0  0  0  0  0
  151.8347  140.4932  156.4173 H   0  0  0  0  0  0  0  0  0  0  0  0
  150.0372  141.8369  158.3163 H   0  0  0  0  0  0  0  0  0  0  0  0
  150.5137  143.5214  156.7872 H   0  0  0  0  0  0  0  0  0  0  0  0
  152.8623  143.0417  158.1257 H   0  0  0  0  0  0  0  0  0  0  0  0
  151.4058  141.7161  160.4560 H   0  0  0  0  0  0  0  0  0  0  0  0
  153.0874  141.4684  159.9812 H   0  0  0  0  0  0  0  0  0  0  0  0
  152.2349  143.3300  161.8822 H   0  0  0  0  0  0  0  0  0  0  0  0
  153.7304  143.5235  160.9649 H   0  0  0  0  0  0  0  0  0  0  0  0
  151.4247  145.2279  160.7327 H   0  0  0  0  0  0  0  0  0  0  0  0
  152.8417  145.2108  159.6769 H   0  0  0  0  0  0  0  0  0  0  0  0
  147.5996  136.4426  160.1369 H   0  0  0  0  0  0  0  0  0  0  0  0
  146.2111  137.5125  160.0263 H   0  0  0  0  0  0  0  0  0  0  0  0
  144.1148  136.4789  158.8337 H   0  0  0  0  0  0  0  0  0  0  0  0
  143.8089  134.7638  159.0919 H   0  0  0  0  0  0  0  0  0  0  0  0
  143.7046  136.9456  161.2016 H   0  0  0  0  0  0  0  0  0  0  0  0
  142.4824  135.7149  160.8381 H   0  0  0  0  0  0  0  0  0  0  0  0
  146.1444  134.2243  161.7417 H   0  0  0  0  0  0  0  0  0  0  0  0
  146.0265  135.9580  162.0161 H   0  0  0  0  0  0  0  0  0  0  0  0
  1  2  1  0  0  0  0
  1 30  1  0  0  0  0
  1 31  1  0  0  0  0
  1 32  1  0  0  0  0
  2  3  1  0  0  0  0
  2 33  1  0  0  0  0
  2 34  1  0  0  0  0
  3 29  1  0  0  0  0
  3  4  1  0  0  0  0
  3 35  1  0  0  0  0
  4  5  1  0  0  0  0
  4 36  1  0  0  0  0
  4 37  1  0  0  0  0
  5  6  1  0  0  0  0
  5 23  1  0  0  0  0
  6 11  1  0  0  0  0
  6  7  2  0  0  0  0
  7  8  1  0  0  0  0
  8  9  2  0  0  0  0
  8 38  1  0  0  0  0
  9 10  1  0  0  0  0
 10 14  1  0  0  0  0
 10 11  2  0  0  0  0
 11 12  1  0  0  0  0
 12 13  2  0  0  0  0
 13 14  1  0  0  0  0
 13 39  1  0  0  0  0
 14 15  1  0  0  0  0
 15 16  1  0  0  0  0
 15 40  1  0  0  0  0
 15 41  1  0  0  0  0
 16 17  1  0  0  0  0
 16 18  1  0  0  0  0
 16 42  1  0  0  0  0
 17 43  1  0  0  0  0
 18 22  1  0  0  0  0
 18 19  1  0  0  0  0
 18 44  1  0  0  0  0
 19 20  1  0  0  0  0
 19 45  1  0  0  0  0
 19 46  1  0  0  0  0
 20 21  1  0  0  0  0
 20 47  1  0  0  0  0
 20 48  1  0  0  0  0
 21 22  1  0  0  0  0
 21 49  1  0  0  0  0
 21 50  1  0  0  0  0
 23 24  1  0  0  0  0
 23 51  1  0  0  0  0
 23 52  1  0  0  0  0
 24 28  1  0  0  0  0
 24 25  1  0  0  0  0
 24 29  1  0  0  0  0
 25 26  1  0  0  0  0
 25 53  1  0  0  0  0
 25 54  1  0  0  0  0
 26 27  1  0  0  0  0
 26 55  1  0  0  0  0
 26 56  1  0  0  0  0
 27 28  1  0  0  0  0
 28 57  1  0  0  0  0
 28 58  1  0  0  0  0
M  END
> <s_m_source_file>
AV-unprocessed.smi

> <i_m_source_file_index>
229

> <i_lp_mmshare_version>
43012

> <i_f3d_flags>
0

> <s_epik_input>
W0NIMl0xT1tDSDJdW0NIMl1bQ0BdMTJbQ0gyXU4oW0NIMl1bQ0BIXShPMilbQ0gyXVtDSDNdKWMobltjSF1uMyljKGMzNCluW2NIXW40W0NIMl1bQ0BIXShbT0hdKVtDQEBIXTVbQ0gyXVtDSDJdW0NIMl1PNQ==

> <s_epik_cmdline>
J2VwaWtfcHl0aG9uJywgJy1waCcsICc3LjAnLCAnLXRuJywgJzgnLCAnLW1hJywgJzIwMCcsICctbWV0YWxfYmluZGluZycsICctaW1hZScsICc8aW5maWxlLm1hZT4nLCAnLW9tYWUnLCAnPG91dGZpbGUubWFlPic=

> <r_lp_tautomer_probability>
1

> <r_epik_Ionization_Penalty>
0.00318402

> <r_epik_Ionization_Penalty_Charging>
0

> <r_epik_Ionization_Penalty_Neutral>
0.00318402

> <r_epik_State_Penalty>
0.00215642

> <r_epik_Charging_Adjusted_Penalty>
0.00215642

> <i_epik_Tot_Q>
0

> <i_epik_Tot_abs_Q>
0

> <r_epik_Metal_State_Penalty>
-0

> <b_epik_Metal_Only>
0

> <s_lp_Force_Field>
OPLS_2005

> <r_lp_Energy>
54.5162

> <b_lp_Chiralities_Consistent>
1

> <s_lp_Variant>
AV-unprocessed.smi:229-9

> <Gold.Version>
5.8.1

> <Gold.Id.Protein>
6NUR|6NUR_protein|mol2

> <Gold.PLP.Fitness>
43.1086

> <Gold.PLP.PLP>
-42.2621

> <Gold.PLP.part.hbond>
-2.0000

> <Gold.PLP.part.metal>
0.0000

> <Gold.PLP.part.buried>
-8.2733

> <Gold.PLP.part.nonpolar>
-32.1300

> <Gold.PLP.part.repulsive>
0.1605

> <Gold.PLP.ligand.clash>
0.0000

> <Gold.PLP.ligand.torsion>
1.2049

> <Gold.PLP.Chemscore.Hbond>
0.9440

> <Gold.PLP.Chemscore.CHOScore>
0.0000

> <Gold.PLP.Chemscore.Metal>
0.0000

> <Gold.Chemscore.Hbonds>
donor molecule, donor type, donor heavy atom, donor atom, acceptor molecule, acceptor atom, score
      L1  H    17    43       P1  8028  0.17

> <Gold.PLP.Chemscore.Internal.Correction>
0.4243

> <Gold.Rescore>
     Score         DG    S(hbond)    S(metal)    S(lipo)     H(rot)  DE(clash)    DE(int)     intcor
     12.97     -14.00       0.86        0.00     102.02       2.46       0.10       0.92       ----

> <Gold.Chemscore.Fitness>
12.9705

> <Gold.Chemscore.DG>
-13.9951

> <Gold.Chemscore.ZeroCoef>
-5.4800

> <Gold.Chemscore.Hbond>
0.8605

> <Gold.Chemscore.Metal>
0.0000

> <Gold.Chemscore.Lipo>
102.0214

> <Gold.Chemscore.Internal_Hbond>
0.0000

> <Gold.Chemscore.DEClash>
0.0998

> <Gold.Chemscore.DEInternal>
0.9248

> <Gold.Chemscore.Rot>
2.4591

> <Gold.Chemscore.Internal.Correction>
   9.000000E+99

> <Gold.Chemscore.Hbonds>
donor molecule, donor type, donor heavy atom, donor atom, acceptor molecule, acceptor atom, score
      L1  H    17    43       P1  8028  0.17

> <Gold.Chemscore.Hbond.Weighted>
-2.8739

> <Gold.Chemscore.Metal.Weighted>
-0.0000

> <Gold.Chemscore.Lipo.Weighted>
-11.9365

> <Gold.Chemscore.Internal_Hbond.Weighted>
0.0000

> <Gold.Chemscore.DEClash.Weighted>
0.0998

> <Gold.Chemscore.DEInternal.Weighted>
0.9248

> <Gold.Chemscore.Rot.Weighted>
6.2953

> <Gold.Chemscore.Internal.Correction.Weighted>
   9.000000E+99

> <Gold.Protein.RotatedTorsions>
[ 6907 6896 6895 6894 ] final -152.37 input  -60.11 | X-H torsion
[ 7974 7965 7964 7962 ] final  -70.20 input  175.53 | X-H torsion
[ 8008 7997 7996 7995 ] final  125.18 input   59.86 | X-H torsion
[ 10167 10162 10161 10158 ] final  -16.75 input  -65.29 | X-H torsion
[ 10718 10713 10712 10709 ] final   75.55 input   66.30 | X-H torsion
[ 10763 10752 10751 10750 ] final  -27.04 input  -60.55 | X-H torsion
[ 11005 11000 10999 10996 ] final  122.93 input  -57.11 | X-H torsion

> <Gold.Protein.ActiveResidues>
 VAL166  LYS551  ARG553  GLY616  TRP617  ASP618  TYR619  PRO620  LYS621  CYS622 
 ASP623  PHE694  ASN695  SER759  ASP760  ASP761  ALA762  ILE779  LEU786  VAL792 
 PHE793  MET794  SER795  GLU796  ALA797  LYS798  CYS799  TRP800  GLU811  SER814 

> <Gold.Protein.RotatedAtoms>
  151.2269  133.4472  159.2602 H   0  0  0  0  0  0  0  0  0  0  0  0  # atno 6907 bound_to 6896
  151.0832  134.9871  159.8376 H   0  0  0  0  0  0  0  0  0  0  0  0  # atno 6908 bound_to 6896
  152.5426  134.2207  159.8839 H   0  0  0  0  0  0  0  0  0  0  0  0  # atno 6909 bound_to 6896
  145.6940  140.9142  143.0766 H   0  0  0  0  0  0  0  0  0  0  0  0  # atno 7974 bound_to 7965
  156.2825  140.2722  156.1907 H   0  0  0  0  0  0  0  0  0  0  0  0  # atno 8008 bound_to 7997
  155.0461  140.0386  157.2545 H   0  0  0  0  0  0  0  0  0  0  0  0  # atno 8009 bound_to 7997
  154.7233  140.2692  155.6526 H   0  0  0  0  0  0  0  0  0  0  0  0  # atno 8010 bound_to 7997
  140.7238  143.5084  150.9780 H   0  0  0  0  0  0  0  0  0  0  0  0  # atno 10167 bound_to 10162
  157.6639  130.9732  150.1370 H   0  0  0  0  0  0  0  0  0  0  0  0  # atno 10718 bound_to 10713
  153.7257  135.6942  153.5001 H   0  0  0  0  0  0  0  0  0  0  0  0  # atno 10763 bound_to 10752
  153.2172  135.4382  155.0446 H   0  0  0  0  0  0  0  0  0  0  0  0  # atno 10764 bound_to 10752
  154.8270  135.3451  154.6789 H   0  0  0  0  0  0  0  0  0  0  0  0  # atno 10765 bound_to 10752
  139.9290  134.9641  156.8183 H   0  0  0  0  0  0  0  0  0  0  0  0  # atno 11005 bound_to 11000
  144.6988  139.8859  143.7450 LP  0  0  0  0  0  0  0  0  0  0  0  0  # atno 17320 bound_to 7965
  146.0856  139.3845  143.0437 LP  0  0  0  0  0  0  0  0  0  0  0  0  # atno 17321 bound_to 7965
  139.8797  143.7088  152.3158 LP  0  0  0  0  0  0  0  0  0  0  0  0  # atno 17342 bound_to 10162
  139.7366  144.7570  151.0718 LP  0  0  0  0  0  0  0  0  0  0  0  0  # atno 17343 bound_to 10162
  156.2202  130.3673  149.8565 LP  0  0  0  0  0  0  0  0  0  0  0  0  # atno 17370 bound_to 10713
  156.6419  130.8708  151.3515 LP  0  0  0  0  0  0  0  0  0  0  0  0  # atno 17371 bound_to 10713
  140.6255  133.9954  155.7638 LP  0  0  0  0  0  0  0  0  0  0  0  0  # atno 17394 bound_to 11000
  141.0867  133.9980  157.3303 LP  0  0  0  0  0  0  0  0  0  0  0  0  # atno 17395 bound_to 11000

$$$$
