AV-unprocessed.smi:2781|AV-procd|sdf|10718|dock3
  -GOLD-   2272015153D 1   1.00000     0.00000
 Structure written by MMmdl.
 35 38  0  0  0  0  0  0  0  0  1 V2000
  144.8871  137.3446  153.2857 O   0  0  0  0  0  0  0  0  0  0  0  0
  146.0488  137.1440  152.9295 C   0  0  0  0  0  0  0  0  0  0  0  0
  146.4691  136.0894  152.2084 N   0  0  0  0  0  0  0  0  0  0  0  0
  145.7012  135.0045  151.7076 C   0  0  0  0  0  0  0  0  0  0  0  0
  146.4542  133.9459  151.1500 C   0  0  0  0  0  0  0  0  0  0  0  0
  145.7871  132.8215  150.6257 C   0  0  0  0  0  0  0  0  0  0  0  0
  144.3822  132.7870  150.6725 C   0  0  0  0  0  0  0  0  0  0  0  0
  143.6971  131.7277  150.1802 F   0  0  0  0  0  0  0  0  0  0  0  0
  143.7073  133.8816  151.2434 C   0  0  0  0  0  0  0  0  0  0  0  0
  144.3458  134.9594  151.7469 N   0  0  0  0  0  0  0  0  0  0  0  0
  147.0665  137.9665  153.2200 N   0  0  0  0  0  0  0  0  0  0  0  0
  146.9680  139.1756  153.9721 C   0  0  2  0  0  0  0  0  0  0  0  0
  147.1011  140.4753  153.2053 C   0  0  1  0  0  0  0  0  0  0  0  0
  146.8102  141.8822  153.7225 C   0  0  1  0  0  0  0  0  0  0  0  0
  146.1322  141.8413  155.1077 C   0  0  0  0  0  0  0  0  0  0  0  0
  147.2788  141.3622  156.0256 C   0  0  0  0  0  0  0  0  0  0  0  0
  148.4505  141.1963  155.0359 C   0  0  2  0  0  0  0  0  0  0  0  0
  148.2036  142.3753  154.0999 C   0  0  0  0  0  0  0  0  0  0  0  0
  148.2290  140.0041  154.1078 C   0  0  1  0  0  0  0  0  0  0  0  0
  147.4544  136.0590  151.9928 H   0  0  0  0  0  0  0  0  0  0  0  0
  147.5333  133.9902  151.1227 H   0  0  0  0  0  0  0  0  0  0  0  0
  146.3438  132.0020  150.1956 H   0  0  0  0  0  0  0  0  0  0  0  0
  142.6288  133.8938  151.2980 H   0  0  0  0  0  0  0  0  0  0  0  0
  147.9858  137.7186  152.8845 H   0  0  0  0  0  0  0  0  0  0  0  0
  146.2844  139.1577  154.8172 H   0  0  0  0  0  0  0  0  0  0  0  0
  147.2966  140.4145  152.1359 H   0  0  0  0  0  0  0  0  0  0  0  0
  146.2887  142.4938  152.9859 H   0  0  0  0  0  0  0  0  0  0  0  0
  145.7995  142.8371  155.4038 H   0  0  0  0  0  0  0  0  0  0  0  0
  145.2619  141.1850  155.1301 H   0  0  0  0  0  0  0  0  0  0  0  0
  147.5106  142.1226  156.7725 H   0  0  0  0  0  0  0  0  0  0  0  0
  147.0456  140.4399  156.5584 H   0  0  0  0  0  0  0  0  0  0  0  0
  149.4345  141.1779  155.5050 H   0  0  0  0  0  0  0  0  0  0  0  0
  148.8936  142.4068  153.2547 H   0  0  0  0  0  0  0  0  0  0  0  0
  148.2069  143.3444  154.6026 H   0  0  0  0  0  0  0  0  0  0  0  0
  149.1238  139.6524  153.5969 H   0  0  0  0  0  0  0  0  0  0  0  0
  1  2  2  0  0  0  0
  2  3  1  0  0  0  0
  2 11  1  0  0  0  0
  3  4  1  0  0  0  0
  3 20  1  0  0  0  0
  4 10  1  0  0  0  0
  4  5  2  0  0  0  0
  5  6  1  0  0  0  0
  5 21  1  0  0  0  0
  6  7  2  0  0  0  0
  6 22  1  0  0  0  0
  7  8  1  0  0  0  0
  7  9  1  0  0  0  0
  9 10  2  0  0  0  0
  9 23  1  0  0  0  0
 11 12  1  0  0  0  0
 11 24  1  0  0  0  0
 12 19  1  0  0  0  0
 12 13  1  0  0  0  0
 12 25  1  0  0  0  0
 13 19  1  0  0  0  0
 13 14  1  0  0  0  0
 13 26  1  0  0  0  0
 14 18  1  0  0  0  0
 14 15  1  0  0  0  0
 14 27  1  0  0  0  0
 15 16  1  0  0  0  0
 15 28  1  0  0  0  0
 15 29  1  0  0  0  0
 16 17  1  0  0  0  0
 16 30  1  0  0  0  0
 16 31  1  0  0  0  0
 17 18  1  0  0  0  0
 17 19  1  0  0  0  0
 17 32  1  0  0  0  0
 18 33  1  0  0  0  0
 18 34  1  0  0  0  0
 19 35  1  0  0  0  0
M  END
> <s_m_source_file>
AV-unprocessed.smi

> <i_m_source_file_index>
2781

> <i_lp_mmshare_version>
43012

> <i_f3d_flags>
0

> <s_epik_input>
bjFbY0hdYyhGKVtjSF1bY0hdYzFbTkhdQyg9TylbTkhdW0NASF0yW0NAQEhdM1tDQEhdKFtDSDJdNClbQ0gyXVtDSDJdW0NASF00W0NASF0yMw==

> <s_epik_cmdline>
J2VwaWtfcHl0aG9uJywgJy1waCcsICc3LjAnLCAnLXRuJywgJzgnLCAnLW1hJywgJzIwMCcsICctbWV0YWxfYmluZGluZycsICctaW1hZScsICc8aW5maWxlLm1hZT4nLCAnLW9tYWUnLCAnPG91dGZpbGUubWFlPic=

> <r_lp_tautomer_probability>
1

> <r_epik_Ionization_Penalty>
4.05776e-05

> <r_epik_Ionization_Penalty_Charging>
0

> <r_epik_Ionization_Penalty_Neutral>
4.05776e-05

> <r_epik_State_Penalty>
-0

> <r_epik_Charging_Adjusted_Penalty>
0

> <i_epik_Tot_Q>
0

> <i_epik_Tot_abs_Q>
0

> <r_epik_Metal_State_Penalty>
-0

> <b_epik_Metal_Only>
0

> <s_lp_Force_Field>
OPLS_2005

> <r_lp_Energy>
79.6255

> <b_lp_Chiralities_Consistent>
1

> <s_lp_Variant>
AV-unprocessed.smi:2781-2

> <Gold.Version>
5.8.1

> <Gold.Id.Protein>
6NUR|6NUR_protein|mol2

> <Gold.PLP.Fitness>
36.6942

> <Gold.PLP.PLP>
-28.6778

> <Gold.PLP.part.hbond>
-1.8728

> <Gold.PLP.part.metal>
0.0000

> <Gold.PLP.part.buried>
1.7139

> <Gold.PLP.part.nonpolar>
-28.0714

> <Gold.PLP.part.repulsive>
0.3734

> <Gold.PLP.ligand.clash>
0.0000

> <Gold.PLP.ligand.torsion>
0.0924

> <Gold.PLP.Chemscore.Hbond>
1.7347

> <Gold.PLP.Chemscore.CHOScore>
0.9869

> <Gold.PLP.Chemscore.Metal>
0.0000

> <Gold.Chemscore.Hbonds>
donor molecule, donor type, donor heavy atom, donor atom, acceptor molecule, acceptor atom, score
      L1  H     3    20       P1  7948  0.89
      L1  H    11    24       P1  7948  0.82
      L1  C     9    23       P1 10186  0.99

> <Gold.PLP.Chemscore.Internal.Correction>
0.0365

> <Gold.Rescore>
     Score         DG    S(hbond)    S(metal)    S(lipo)     H(rot)  DE(clash)    DE(int)     intcor
     14.82     -17.92       1.85        0.00      75.49       1.00       1.65       1.44       ----

> <Gold.Chemscore.Fitness>
14.8210

> <Gold.Chemscore.DG>
-17.9191

> <Gold.Chemscore.ZeroCoef>
-5.4800

> <Gold.Chemscore.Hbond>
1.8463

> <Gold.Chemscore.Metal>
0.0000

> <Gold.Chemscore.Lipo>
75.4920

> <Gold.Chemscore.Internal_Hbond>
0.0000

> <Gold.Chemscore.DEClash>
1.6533

> <Gold.Chemscore.DEInternal>
1.4449

> <Gold.Chemscore.Rot>
1.0000

> <Gold.Chemscore.Internal.Correction>
   9.000000E+99

> <Gold.Chemscore.Hbonds>
donor molecule, donor type, donor heavy atom, donor atom, acceptor molecule, acceptor atom, score
      L1  H     3    20       P1  7948  0.87
      L1  H    11    24       P1  7948  0.75

> <Gold.Chemscore.Hbond.Weighted>
-6.1666

> <Gold.Chemscore.Metal.Weighted>
-0.0000

> <Gold.Chemscore.Lipo.Weighted>
-8.8326

> <Gold.Chemscore.Internal_Hbond.Weighted>
0.0000

> <Gold.Chemscore.DEClash.Weighted>
1.6533

> <Gold.Chemscore.DEInternal.Weighted>
1.4449

> <Gold.Chemscore.Rot.Weighted>
2.5600

> <Gold.Chemscore.Internal.Correction.Weighted>
   9.000000E+99

> <Gold.Protein.RotatedTorsions>
[ 6907 6896 6895 6894 ] final -163.75 input  -60.11 | X-H torsion
[ 7974 7965 7964 7962 ] final  158.18 input  175.53 | X-H torsion
[ 8008 7997 7996 7995 ] final   44.82 input   59.86 | X-H torsion
[ 10167 10162 10161 10158 ] final  -86.57 input  -65.29 | X-H torsion
[ 10718 10713 10712 10709 ] final    2.91 input   66.30 | X-H torsion
[ 10763 10752 10751 10750 ] final   31.74 input  -60.55 | X-H torsion
[ 11005 11000 10999 10996 ] final   -8.33 input  -57.11 | X-H torsion

> <Gold.Protein.ActiveResidues>
 VAL166  LYS551  ARG553  GLY616  TRP617  ASP618  TYR619  PRO620  LYS621  CYS622 
 ASP623  PHE694  ASN695  SER759  ASP760  ASP761  ALA762  ILE779  LEU786  VAL792 
 PHE793  MET794  SER795  GLU796  ALA797  LYS798  CYS799  TRP800  GLU811  SER814 

> <Gold.Protein.RotatedAtoms>
  151.4010  133.3757  159.2731 H   0  0  0  0  0  0  0  0  0  0  0  0  # atno 6907 bound_to 6896
  150.9434  134.8842  159.7637 H   0  0  0  0  0  0  0  0  0  0  0  0  # atno 6908 bound_to 6896
  152.5081  134.3961  159.9453 H   0  0  0  0  0  0  0  0  0  0  0  0  # atno 6909 bound_to 6896
  144.7861  139.7442  143.6240 H   0  0  0  0  0  0  0  0  0  0  0  0  # atno 7974 bound_to 7965
  155.3256  140.3399  155.4240 H   0  0  0  0  0  0  0  0  0  0  0  0  # atno 8008 bound_to 7997
  156.1887  140.1690  156.8171 H   0  0  0  0  0  0  0  0  0  0  0  0  # atno 8009 bound_to 7997
  154.5416  140.0723  156.8503 H   0  0  0  0  0  0  0  0  0  0  0  0  # atno 8010 bound_to 7997
  140.3928  143.2697  151.9242 H   0  0  0  0  0  0  0  0  0  0  0  0  # atno 10167 bound_to 10162
  156.8701  130.5617  149.5658 H   0  0  0  0  0  0  0  0  0  0  0  0  # atno 10718 bound_to 10713
  153.0299  135.6431  154.1246 H   0  0  0  0  0  0  0  0  0  0  0  0  # atno 10763 bound_to 10752
  154.0970  135.2862  155.3261 H   0  0  0  0  0  0  0  0  0  0  0  0  # atno 10764 bound_to 10752
  154.6425  135.5454  153.7869 H   0  0  0  0  0  0  0  0  0  0  0  0  # atno 10765 bound_to 10752
  140.7223  133.8818  155.8830 H   0  0  0  0  0  0  0  0  0  0  0  0  # atno 11005 bound_to 11000
  146.2093  139.5438  142.9692 LP  0  0  0  0  0  0  0  0  0  0  0  0  # atno 17320 bound_to 7965
  145.5919  141.0368  143.2065 LP  0  0  0  0  0  0  0  0  0  0  0  0  # atno 17321 bound_to 7965
  139.4788  144.5710  151.8088 LP  0  0  0  0  0  0  0  0  0  0  0  0  # atno 17342 bound_to 10162
  140.4821  144.1434  150.5934 LP  0  0  0  0  0  0  0  0  0  0  0  0  # atno 17343 bound_to 10162
  156.0731  130.5759  150.9422 LP  0  0  0  0  0  0  0  0  0  0  0  0  # atno 17370 bound_to 10713
  157.6201  131.0930  150.8638 LP  0  0  0  0  0  0  0  0  0  0  0  0  # atno 17371 bound_to 10713
  140.9992  134.1173  157.4333 LP  0  0  0  0  0  0  0  0  0  0  0  0  # atno 17394 bound_to 11000
  139.8845  135.0063  156.6373 LP  0  0  0  0  0  0  0  0  0  0  0  0  # atno 17395 bound_to 11000

$$$$
