AV-unprocessed.smi:742|AV-procd|sdf|3558|dock2
  -GOLD-   22720 0553D 1   1.00000     0.00000
 Structure written by MMmdl.
 25 25  0  0  0  0  0  0  0  0  2 V2000
  145.4580  138.3970  151.8921 N   0  3  0  0  0  0  0  0  0  0  0  0
  146.7952  138.9987  151.7630 C   0  0  0  0  0  0  0  0  0  0  0  0
  147.3567  139.4064  153.1329 C   0  0  0  0  0  0  0  0  0  0  0  0
  148.7270  138.9204  153.2967 N   0  0  0  0  0  0  0  0  0  0  0  0
  149.6498  139.2491  154.7202 S   0  0  0  0  0  0  0  0  0  0  0  0
  149.1479  138.3809  155.7969 O   0  0  0  0  0  0  0  0  0  0  0  0
  151.0659  139.2059  154.3270 O   0  0  0  0  0  0  0  0  0  0  0  0
  149.2133  141.0071  155.0865 C   0  0  0  0  0  0  0  0  0  0  0  0
  149.8642  141.4670  156.3610 C   0  0  0  0  0  0  0  0  0  0  0  0
  151.2500  141.4921  156.6825 C   0  0  0  0  0  0  0  0  0  0  0  0
  151.2737  141.9884  157.9540 C   0  0  0  0  0  0  0  0  0  0  0  0
  150.0140  142.2471  158.3863 O   0  0  0  0  0  0  0  0  0  0  0  0
  149.1207  141.9054  157.3647 N   0  0  0  0  0  0  0  0  0  0  0  0
  144.8452  139.0396  152.3735 H   0  0  0  0  0  0  0  0  0  0  0  0
  145.5227  137.5367  152.4171 H   0  0  0  0  0  0  0  0  0  0  0  0
  147.4475  138.2750  151.2742 H   0  0  0  0  0  0  0  0  0  0  0  0
  146.7299  139.8659  151.1052 H   0  0  0  0  0  0  0  0  0  0  0  0
  147.3553  140.4919  153.2358 H   0  0  0  0  0  0  0  0  0  0  0  0
  146.7359  139.0085  153.9362 H   0  0  0  0  0  0  0  0  0  0  0  0
  148.9825  138.0713  152.7927 H   0  0  0  0  0  0  0  0  0  0  0  0
  149.5478  141.6157  154.2457 H   0  0  0  0  0  0  0  0  0  0  0  0
  148.1280  141.0924  155.1377 H   0  0  0  0  0  0  0  0  0  0  0  0
  152.0925  141.1940  156.0763 H   0  0  0  0  0  0  0  0  0  0  0  0
  152.0690  142.2045  158.6520 H   0  0  0  0  0  0  0  0  0  0  0  0
  145.0858  138.2046  150.9729 H   0  0  0  0  0  0  0  0  0  0  0  0
  1  2  1  0  0  0  0
  1 14  1  0  0  0  0
  1 15  1  0  0  0  0
  1 25  1  0  0  0  0
  2  3  1  0  0  0  0
  2 16  1  0  0  0  0
  2 17  1  0  0  0  0
  3  4  1  0  0  0  0
  3 18  1  0  0  0  0
  3 19  1  0  0  0  0
  4  5  1  0  0  0  0
  4 20  1  0  0  0  0
  5  6  2  0  0  0  0
  5  7  2  0  0  0  0
  5  8  1  0  0  0  0
  8  9  1  0  0  0  0
  8 21  1  0  0  0  0
  8 22  1  0  0  0  0
  9 13  2  0  0  0  0
  9 10  1  0  0  0  0
 10 11  2  0  0  0  0
 10 23  1  0  0  0  0
 11 12  1  0  0  0  0
 11 24  1  0  0  0  0
 12 13  1  0  0  0  0
M  CHG  1   1   1
M  END
> <s_m_source_file>
AV-unprocessed.smi

> <i_m_source_file_index>
742

> <i_lp_mmshare_version>
43012

> <i_f3d_flags>
0

> <s_epik_input>
W05IMl1bQ0gyXVtDSDJdW05IXVMoPU8pKD1PKVtDSDJdYzFbY0hdW2NIXW9uMQ==

> <s_epik_cmdline>
J2VwaWtfcHl0aG9uJywgJy1waCcsICc3LjAnLCAnLXRuJywgJzgnLCAnLW1hJywgJzIwMCcsICctbWV0YWxfYmluZGluZycsICctaW1hZScsICc8aW5maWxlLm1hZT4nLCAnLW9tYWUnLCAnPG91dGZpbGUubWFlPic=

> <r_lp_tautomer_probability>
1

> <r_epik_Ionization_Penalty>
0.00734165

> <r_epik_Ionization_Penalty_Charging>
0.00580839

> <r_epik_Ionization_Penalty_Neutral>
0.00153326

> <r_epik_State_Penalty>
-0

> <r_epik_Charging_Adjusted_Penalty>
0.00580839

> <i_epik_Tot_Q>
1

> <i_epik_Tot_abs_Q>
1

> <r_epik_Metal_State_Penalty>
0.322493

> <b_epik_Metal_Only>
0

> <s_lp_Force_Field>
OPLS_2005

> <r_lp_Energy>
-3.29025

> <b_lp_Chiralities_Consistent>
1

> <s_lp_Variant>
AV-unprocessed.smi:742-1

> <Gold.Version>
5.8.1

> <Gold.Id.Protein>
6NUR|6NUR_protein|mol2

> <Gold.PLP.Fitness>
36.2668

> <Gold.PLP.PLP>
-22.3641

> <Gold.PLP.part.hbond>
-5.0000

> <Gold.PLP.part.metal>
0.0000

> <Gold.PLP.part.buried>
-0.8195

> <Gold.PLP.part.nonpolar>
-16.4271

> <Gold.PLP.part.repulsive>
0.5264

> <Gold.PLP.ligand.clash>
0.0000

> <Gold.PLP.ligand.torsion>
0.9903

> <Gold.PLP.Chemscore.Hbond>
4.9280

> <Gold.PLP.Chemscore.CHOScore>
0.0000

> <Gold.PLP.Chemscore.Metal>
0.0000

> <Gold.Chemscore.Hbonds>
donor molecule, donor type, donor heavy atom, donor atom, acceptor molecule, acceptor atom, score
      L1  H     1    14       P1 10175  2.00
      L1  H     1    25       P1 10171  0.91
      L1  H     4    20       P1  7948  1.00
      P1  H  7989  7998       L1     7  1.00

> <Gold.PLP.Chemscore.Internal.Correction>
1.0992

> <Gold.Rescore>
     Score         DG    S(hbond)    S(metal)    S(lipo)     H(rot)  DE(clash)    DE(int)     intcor
     16.14     -17.25       3.69        0.00      45.12       2.28       0.15       0.96       ----

> <Gold.Chemscore.Fitness>
16.1374

> <Gold.Chemscore.DG>
-17.2473

> <Gold.Chemscore.ZeroCoef>
-5.4800

> <Gold.Chemscore.Hbond>
3.6901

> <Gold.Chemscore.Metal>
0.0000

> <Gold.Chemscore.Lipo>
45.1166

> <Gold.Chemscore.Internal_Hbond>
0.0000

> <Gold.Chemscore.DEClash>
0.1537

> <Gold.Chemscore.DEInternal>
0.9562

> <Gold.Chemscore.Rot>
2.2798

> <Gold.Chemscore.Internal.Correction>
   9.000000E+99

> <Gold.Chemscore.Hbonds>
donor molecule, donor type, donor heavy atom, donor atom, acceptor molecule, acceptor atom, score
      L1  H     1    14       P1 10175  0.97
      L1  H     1    25       P1 10171  0.90
      L1  H     4    20       P1  7948  0.93
      P1  H  7989  7998       L1     7  0.81

> <Gold.Chemscore.Hbond.Weighted>
-12.3249

> <Gold.Chemscore.Metal.Weighted>
-0.0000

> <Gold.Chemscore.Lipo.Weighted>
-5.2786

> <Gold.Chemscore.Internal_Hbond.Weighted>
0.0000

> <Gold.Chemscore.DEClash.Weighted>
0.1537

> <Gold.Chemscore.DEInternal.Weighted>
0.9562

> <Gold.Chemscore.Rot.Weighted>
5.8362

> <Gold.Chemscore.Internal.Correction.Weighted>
   9.000000E+99

> <Gold.Protein.RotatedTorsions>
[ 6907 6896 6895 6894 ] final -157.81 input  -60.11 | X-H torsion
[ 7974 7965 7964 7962 ] final  173.16 input  175.53 | X-H torsion
[ 8008 7997 7996 7995 ] final  119.20 input   59.86 | X-H torsion
[ 10167 10162 10161 10158 ] final   -3.07 input  -65.29 | X-H torsion
[ 10718 10713 10712 10709 ] final   78.83 input   66.30 | X-H torsion
[ 10763 10752 10751 10750 ] final   92.24 input  -60.55 | X-H torsion
[ 11005 11000 10999 10996 ] final -126.49 input  -57.11 | X-H torsion

> <Gold.Protein.ActiveResidues>
 VAL166  LYS551  ARG553  GLY616  TRP617  ASP618  TYR619  PRO620  LYS621  CYS622 
 ASP623  PHE694  ASN695  SER759  ASP760  ASP761  ALA762  ILE779  LEU786  VAL792 
 PHE793  MET794  SER795  GLU796  ALA797  LYS798  CYS799  TRP800  GLU811  SER814 

> <Gold.Protein.RotatedAtoms>
  151.3085  133.4091  159.2644 H   0  0  0  0  0  0  0  0  0  0  0  0  # atno 6907 bound_to 6896
  151.0134  134.9415  159.8030 H   0  0  0  0  0  0  0  0  0  0  0  0  # atno 6908 bound_to 6896
  152.5306  134.3050  159.9145 H   0  0  0  0  0  0  0  0  0  0  0  0  # atno 6909 bound_to 6896
  144.7250  139.9607  143.6434 H   0  0  0  0  0  0  0  0  0  0  0  0  # atno 7974 bound_to 7965
  156.2584  140.2858  156.0954 H   0  0  0  0  0  0  0  0  0  0  0  0  # atno 8008 bound_to 7997
  155.1417  140.0395  157.2817 H   0  0  0  0  0  0  0  0  0  0  0  0  # atno 8009 bound_to 7997
  154.6525  140.2548  155.7205 H   0  0  0  0  0  0  0  0  0  0  0  0  # atno 8010 bound_to 7997
  140.6876  143.6583  150.8289 H   0  0  0  0  0  0  0  0  0  0  0  0  # atno 10167 bound_to 10162
  157.6757  130.9886  150.1843 H   0  0  0  0  0  0  0  0  0  0  0  0  # atno 10718 bound_to 10713
  153.2170  135.4369  155.0445 H   0  0  0  0  0  0  0  0  0  0  0  0  # atno 10763 bound_to 10752
  154.8230  135.3347  154.6984 H   0  0  0  0  0  0  0  0  0  0  0  0  # atno 10764 bound_to 10752
  153.7419  135.7004  153.5021 H   0  0  0  0  0  0  0  0  0  0  0  0  # atno 10765 bound_to 10752
  140.9677  134.0849  157.3902 H   0  0  0  0  0  0  0  0  0  0  0  0  # atno 11005 bound_to 11000
  146.0640  139.3632  143.0564 LP  0  0  0  0  0  0  0  0  0  0  0  0  # atno 17320 bound_to 7965
  145.8056  140.9750  143.0976 LP  0  0  0  0  0  0  0  0  0  0  0  0  # atno 17321 bound_to 7965
  140.0292  143.5461  152.2767 LP  0  0  0  0  0  0  0  0  0  0  0  0  # atno 17342 bound_to 10162
  139.6248  144.7635  151.2663 LP  0  0  0  0  0  0  0  0  0  0  0  0  # atno 17343 bound_to 10162
  156.2568  130.3706  149.8172 LP  0  0  0  0  0  0  0  0  0  0  0  0  # atno 17370 bound_to 10713
  156.5929  130.8514  151.3412 LP  0  0  0  0  0  0  0  0  0  0  0  0  # atno 17371 bound_to 10713
  139.8900  135.0109  156.6714 LP  0  0  0  0  0  0  0  0  0  0  0  0  # atno 17394 bound_to 11000
  140.7375  133.9006  155.8254 LP  0  0  0  0  0  0  0  0  0  0  0  0  # atno 17395 bound_to 11000

$$$$
