AV-unprocessed.smi:2027|AV-procd|sdf|8219|dock1
  -GOLD-   2272010483D 1   1.00000     0.00000
 Structure written by MMmdl.
 51 53  0  0  0  0  0  0  0  0  3 V2000
  152.6994  143.4804  160.3951 C   0  0  0  0  0  0  0  0  0  0  0  0
  152.0890  142.5832  159.3320 C   0  0  0  0  0  0  0  0  0  0  0  0
  151.3767  143.1845  158.2703 C   0  0  0  0  0  0  0  0  0  0  0  0
  150.8320  142.3383  157.3122 C   0  0  0  0  0  0  0  0  0  0  0  0
  150.0899  142.6189  156.1638 N   0  3  0  0  0  0  0  0  0  0  0  0
  149.7751  141.4558  155.5307 C   0  0  0  0  0  0  0  0  0  0  0  0
  150.2995  140.4333  156.2611 N   0  0  0  0  0  0  0  0  0  0  0  0
  150.2534  138.9825  156.0101 C   0  0  0  0  0  0  0  0  0  0  0  0
  149.6855  138.6028  154.6248 C   0  0  2  0  0  0  0  0  0  0  0  0
  150.5500  139.0990  153.6209 O   0  0  0  0  0  0  0  0  0  0  0  0
  148.2628  139.1447  154.3668 C   0  0  0  0  0  0  0  0  0  0  0  0
  147.4889  138.3291  153.3935 N   0  3  2  0  0  0  0  0  0  0  0  0
  146.8171  139.1728  152.3794 C   0  0  0  0  0  0  0  0  0  0  0  0
  146.5632  137.3419  154.0102 C   0  0  0  0  0  0  0  0  0  0  0  0
  145.6876  136.7156  152.9594 C   0  0  0  0  0  0  0  0  0  0  0  0
  144.3958  137.1335  152.5274 C   0  0  0  0  0  0  0  0  0  0  0  0
  143.8906  136.3549  151.5857 N   0  0  0  0  0  0  0  0  0  0  0  0
  144.8418  135.4230  151.3737 N   0  0  0  0  0  0  0  0  0  0  0  0
  144.6194  134.3889  150.3858 C   0  0  0  0  0  0  0  0  0  0  0  0
  145.9387  135.6177  152.1847 C   0  0  0  0  0  0  0  0  0  0  0  0
  150.9734  140.9379  157.3812 C   0  0  0  0  0  0  0  0  0  0  0  0
  151.6717  140.3301  158.4228 C   0  0  0  0  0  0  0  0  0  0  0  0
  152.2333  141.1738  159.4077 C   0  0  0  0  0  0  0  0  0  0  0  0
  153.0009  140.5380  160.5545 C   0  0  0  0  0  0  0  0  0  0  0  0
  152.5436  144.5347  160.1648 H   0  0  0  0  0  0  0  0  0  0  0  0
  153.7740  143.3121  160.4691 H   0  0  0  0  0  0  0  0  0  0  0  0
  152.2491  143.2809  161.3676 H   0  0  0  0  0  0  0  0  0  0  0  0
  151.2627  144.2572  158.2065 H   0  0  0  0  0  0  0  0  0  0  0  0
  149.2094  141.3615  154.6149 H   0  0  0  0  0  0  0  0  0  0  0  0
  151.2740  138.6092  156.1063 H   0  0  0  0  0  0  0  0  0  0  0  0
  149.6860  138.4971  156.8035 H   0  0  0  0  0  0  0  0  0  0  0  0
  149.6849  137.5161  154.5609 H   0  0  0  0  0  0  0  0  0  0  0  0
  150.0579  139.1917  152.8187 H   0  0  0  0  0  0  0  0  0  0  0  0
  147.7060  139.2079  155.3029 H   0  0  0  0  0  0  0  0  0  0  0  0
  148.3379  140.1641  153.9857 H   0  0  0  0  0  0  0  0  0  0  0  0
  146.0512  139.7994  152.8384 H   0  0  0  0  0  0  0  0  0  0  0  0
  146.3439  138.5538  151.6161 H   0  0  0  0  0  0  0  0  0  0  0  0
  147.5341  139.8216  151.8750 H   0  0  0  0  0  0  0  0  0  0  0  0
  147.1263  136.5868  154.5604 H   0  0  0  0  0  0  0  0  0  0  0  0
  145.9397  137.8275  154.7623 H   0  0  0  0  0  0  0  0  0  0  0  0
  143.8101  137.9727  152.8727 H   0  0  0  0  0  0  0  0  0  0  0  0
  145.5369  133.8230  150.2238 H   0  0  0  0  0  0  0  0  0  0  0  0
  144.3091  134.8373  149.4416 H   0  0  0  0  0  0  0  0  0  0  0  0
  143.8402  133.7102  150.7334 H   0  0  0  0  0  0  0  0  0  0  0  0
  146.7966  134.9623  152.1484 H   0  0  0  0  0  0  0  0  0  0  0  0
  151.7869  139.2585  158.4850 H   0  0  0  0  0  0  0  0  0  0  0  0
  152.9737  139.4493  160.4989 H   0  0  0  0  0  0  0  0  0  0  0  0
  152.5735  140.8318  161.5135 H   0  0  0  0  0  0  0  0  0  0  0  0
  154.0462  140.8471  160.5317 H   0  0  0  0  0  0  0  0  0  0  0  0
  148.1722  137.7883  152.8821 H   0  0  0  0  0  0  0  0  0  0  0  0
  149.8205  143.5363  155.8314 H   0  0  0  0  0  0  0  0  0  0  0  0
  1  2  1  0  0  0  0
  1 25  1  0  0  0  0
  1 26  1  0  0  0  0
  1 27  1  0  0  0  0
  2 23  1  0  0  0  0
  2  3  2  0  0  0  0
  3  4  1  0  0  0  0
  3 28  1  0  0  0  0
  4 21  2  0  0  0  0
  4  5  1  0  0  0  0
  5  6  2  0  0  0  0
  5 51  1  0  0  0  0
  6  7  1  0  0  0  0
  6 29  1  0  0  0  0
  7  8  1  0  0  0  0
  7 21  1  0  0  0  0
  8  9  1  0  0  0  0
  8 30  1  0  0  0  0
  8 31  1  0  0  0  0
  9 10  1  0  0  0  0
  9 11  1  0  0  0  0
  9 32  1  0  0  0  0
 10 33  1  0  0  0  0
 11 12  1  0  0  0  0
 11 34  1  0  0  0  0
 11 35  1  0  0  0  0
 12 13  1  0  0  0  0
 12 14  1  0  0  0  0
 12 50  1  0  0  0  0
 13 36  1  0  0  0  0
 13 37  1  0  0  0  0
 13 38  1  0  0  0  0
 14 15  1  0  0  0  0
 14 39  1  0  0  0  0
 14 40  1  0  0  0  0
 15 20  2  0  0  0  0
 15 16  1  0  0  0  0
 16 17  2  0  0  0  0
 16 41  1  0  0  0  0
 17 18  1  0  0  0  0
 18 19  1  0  0  0  0
 18 20  1  0  0  0  0
 19 42  1  0  0  0  0
 19 43  1  0  0  0  0
 19 44  1  0  0  0  0
 20 45  1  0  0  0  0
 21 22  1  0  0  0  0
 22 23  2  0  0  0  0
 22 46  1  0  0  0  0
 23 24  1  0  0  0  0
 24 47  1  0  0  0  0
 24 48  1  0  0  0  0
 24 49  1  0  0  0  0
M  CHG  1   5   1
M  CHG  1  12   1
M  END
> <s_m_source_file>
AV-unprocessed.smi

> <i_m_source_file_index>
2027

> <i_lp_mmshare_version>
43012

> <i_f3d_flags>
0

> <s_epik_input>
W0NIM11jKFtjSF0xKWMoW0NIM10pW2NIXWMoYzEyKW4oW2NIXW4yKVtDSDJdW0NASF0oW09IXSlbQ0gyXU4oW0NIM10pW0NIMl1jM1tjSF1ubihbQ0gzXSlbY0hdMw==

> <s_epik_cmdline>
J2VwaWtfcHl0aG9uJywgJy1waCcsICc3LjAnLCAnLXRuJywgJzgnLCAnLW1hJywgJzIwMCcsICctbWV0YWxfYmluZGluZycsICctaW1hZScsICc8aW5maWxlLm1hZT4nLCAnLW9tYWUnLCAnPG91dGZpbGUubWFlPic=

> <r_lp_tautomer_probability>
1

> <r_epik_Ionization_Penalty>
1.77469

> <r_epik_Ionization_Penalty_Charging>
1.77463

> <r_epik_Ionization_Penalty_Neutral>
6.41153e-05

> <r_epik_State_Penalty>
1.85225

> <r_epik_Charging_Adjusted_Penalty>
3.62688

> <i_epik_Tot_Q>
2

> <i_epik_Tot_abs_Q>
2

> <r_epik_Metal_State_Penalty>
1.92669

> <b_epik_Metal_Only>
0

> <s_lp_Force_Field>
OPLS_2005

> <r_lp_Energy>
22.3184

> <b_lp_Chiralities_Consistent>
1

> <s_lp_Variant>
AV-unprocessed.smi:2027-11

> <Gold.Version>
5.8.1

> <Gold.Id.Protein>
6NUR|6NUR_protein|mol2

> <Gold.PLP.Fitness>
61.6683

> <Gold.PLP.PLP>
-41.8130

> <Gold.PLP.part.hbond>
-4.0000

> <Gold.PLP.part.metal>
0.0000

> <Gold.PLP.part.buried>
-1.8803

> <Gold.PLP.part.nonpolar>
-37.0972

> <Gold.PLP.part.repulsive>
1.3196

> <Gold.PLP.ligand.clash>
0.0964

> <Gold.PLP.ligand.torsion>
1.4217

> <Gold.PLP.Chemscore.Hbond>
5.8480

> <Gold.PLP.Chemscore.CHOScore>
1.6746

> <Gold.PLP.Chemscore.Metal>
0.0000

> <Gold.Chemscore.Hbonds>
donor molecule, donor type, donor heavy atom, donor atom, acceptor molecule, acceptor atom, score
      L1  H     5    51       P1  8028  1.92
      L1  H    10    33       P1  7957  1.00
      L1  H    12    50       P1  7948  2.00
      P1  H  7989  7998       L1    10  0.72
      L1  C    16    41       P1 10175  1.00
      L1  C    20    45       P1  7948  0.66

> <Gold.PLP.Chemscore.Internal.Correction>
0.2273

> <Gold.Rescore>
     Score         DG    S(hbond)    S(metal)    S(lipo)     H(rot)  DE(clash)    DE(int)     intcor
     17.24     -22.00       2.98        0.00     112.63       2.58       1.41       3.36       ----

> <Gold.Chemscore.Fitness>
17.2390

> <Gold.Chemscore.DG>
-22.0049

> <Gold.Chemscore.ZeroCoef>
-5.4800

> <Gold.Chemscore.Hbond>
2.9822

> <Gold.Chemscore.Metal>
0.0000

> <Gold.Chemscore.Lipo>
112.6345

> <Gold.Chemscore.Internal_Hbond>
0.0000

> <Gold.Chemscore.DEClash>
1.4105

> <Gold.Chemscore.DEInternal>
3.3554

> <Gold.Chemscore.Rot>
2.5836

> <Gold.Chemscore.Internal.Correction>
   9.000000E+99

> <Gold.Chemscore.Hbonds>
donor molecule, donor type, donor heavy atom, donor atom, acceptor molecule, acceptor atom, score
      L1  H     5    51       P1  8028  0.90
      L1  H    10    33       P1  7957  0.86
      L1  H    12    50       P1  7948  0.95
      P1  H  7989  7998       L1    10  0.11

> <Gold.Chemscore.Hbond.Weighted>
-9.9606

> <Gold.Chemscore.Metal.Weighted>
-0.0000

> <Gold.Chemscore.Lipo.Weighted>
-13.1782

> <Gold.Chemscore.Internal_Hbond.Weighted>
0.0000

> <Gold.Chemscore.DEClash.Weighted>
1.4105

> <Gold.Chemscore.DEInternal.Weighted>
3.3554

> <Gold.Chemscore.Rot.Weighted>
6.6139

> <Gold.Chemscore.Internal.Correction.Weighted>
   9.000000E+99

> <Gold.Protein.RotatedTorsions>
[ 6907 6896 6895 6894 ] final -155.92 input  -60.11 | X-H torsion
[ 7974 7965 7964 7962 ] final    6.90 input  175.53 | X-H torsion
[ 8008 7997 7996 7995 ] final  153.84 input   59.86 | X-H torsion
[ 10167 10162 10161 10158 ] final -156.63 input  -65.29 | X-H torsion
[ 10718 10713 10712 10709 ] final  -59.35 input   66.30 | X-H torsion
[ 10763 10752 10751 10750 ] final  -54.59 input  -60.55 | X-H torsion
[ 11005 11000 10999 10996 ] final  -57.79 input  -57.11 | X-H torsion

> <Gold.Protein.ActiveResidues>
 VAL166  LYS551  ARG553  GLY616  TRP617  ASP618  TYR619  PRO620  LYS621  CYS622 
 ASP623  PHE694  ASN695  SER759  ASP760  ASP761  ALA762  ILE779  LEU786  VAL792 
 PHE793  MET794  SER795  GLU796  ALA797  LYS798  CYS799  TRP800  GLU811  SER814 

> <Gold.Protein.RotatedAtoms>
  151.2797  133.4215  159.2625 H   0  0  0  0  0  0  0  0  0  0  0  0  # atno 6907 bound_to 6896
  151.0371  134.9581  159.8152 H   0  0  0  0  0  0  0  0  0  0  0  0  # atno 6908 bound_to 6896
  152.5358  134.2756  159.9041 H   0  0  0  0  0  0  0  0  0  0  0  0  # atno 6909 bound_to 6896
  146.2431  140.0164  142.8402 H   0  0  0  0  0  0  0  0  0  0  0  0  # atno 7974 bound_to 7965
  156.2562  140.1983  156.6552 H   0  0  0  0  0  0  0  0  0  0  0  0  # atno 8008 bound_to 7997
  154.6506  140.0572  156.9976 H   0  0  0  0  0  0  0  0  0  0  0  0  # atno 8009 bound_to 7997
  155.1424  140.3244  155.4452 H   0  0  0  0  0  0  0  0  0  0  0  0  # atno 8010 bound_to 7997
  139.6835  143.9541  152.2349 H   0  0  0  0  0  0  0  0  0  0  0  0  # atno 10167 bound_to 10162
  156.1068  130.4179  150.0703 H   0  0  0  0  0  0  0  0  0  0  0  0  # atno 10718 bound_to 10713
  154.1773  135.6449  153.5025 H   0  0  0  0  0  0  0  0  0  0  0  0  # atno 10763 bound_to 10752
  153.0068  135.5397  154.6551 H   0  0  0  0  0  0  0  0  0  0  0  0  # atno 10764 bound_to 10752
  154.5906  135.2934  155.0612 H   0  0  0  0  0  0  0  0  0  0  0  0  # atno 10765 bound_to 10752
  141.1180  133.6611  156.4823 H   0  0  0  0  0  0  0  0  0  0  0  0  # atno 11005 bound_to 11000
  145.1281  140.9502  143.4560 LP  0  0  0  0  0  0  0  0  0  0  0  0  # atno 17320 bound_to 7965
  145.0414  139.3256  143.5974 LP  0  0  0  0  0  0  0  0  0  0  0  0  # atno 17321 bound_to 7965
  139.9338  144.6725  150.8336 LP  0  0  0  0  0  0  0  0  0  0  0  0  # atno 17342 bound_to 10162
  140.7660  143.3291  151.2451 LP  0  0  0  0  0  0  0  0  0  0  0  0  # atno 17343 bound_to 10162
  156.8676  130.9513  151.3612 LP  0  0  0  0  0  0  0  0  0  0  0  0  # atno 17370 bound_to 10713
  157.6246  130.8681  149.9166 LP  0  0  0  0  0  0  0  0  0  0  0  0  # atno 17371 bound_to 10713
  140.4590  134.6858  157.5076 LP  0  0  0  0  0  0  0  0  0  0  0  0  # atno 17394 bound_to 11000
  140.0116  134.6682  155.9372 LP  0  0  0  0  0  0  0  0  0  0  0  0  # atno 17395 bound_to 11000

$$$$
