AV-unprocessed.smi:1196|AV-procd|sdf|5006|dock7
  -GOLD-   22720 4 23D 1   1.00000     0.00000
 Structure written by MMmdl.
 36 37  0  0  0  0  0  0  0  0  2 V2000
  147.3562  133.2818  154.9207 C   0  0  0  0  0  0  0  0  0  0  0  0
  146.9539  134.1924  153.7529 C   0  0  2  0  0  0  0  0  0  0  0  0
  147.3026  133.5494  152.3933 C   0  0  0  0  0  0  0  0  0  0  0  0
  146.1304  133.0639  151.6857 N   0  0  0  0  0  0  0  0  0  0  0  0
  145.9308  131.8299  151.1036 C   0  0  0  0  0  0  0  0  0  0  0  0
  144.6712  131.8284  150.5764 C   0  0  0  0  0  0  0  0  0  0  0  0
  144.1722  133.1237  150.8897 C   0  0  0  0  0  0  0  0  0  0  0  0
  145.0502  133.8632  151.5474 N   0  0  0  0  0  0  0  0  0  0  0  0
  147.6223  135.4842  153.9067 N   0  0  0  0  0  0  0  0  0  0  0  0
  147.4286  136.3518  154.9129 C   0  0  0  0  0  0  0  0  0  0  0  0
  146.6730  136.1360  155.8607 O   0  0  0  0  0  0  0  0  0  0  0  0
  148.2014  137.6688  154.8338 C   0  0  0  0  0  0  0  0  0  0  0  0
  149.7173  137.4581  155.0020 C   0  0  0  0  0  0  0  0  0  0  0  0
  150.5437  138.6940  154.5953 C   0  0  1  0  0  0  0  0  0  0  0  0
  150.3649  139.7786  155.5367 N   0  0  0  0  0  0  0  0  0  0  0  0
  151.5276  140.1665  156.0568 C   0  0  0  0  0  0  0  0  0  0  0  0
  151.5989  141.0941  156.8599 O   0  0  0  0  0  0  0  0  0  0  0  0
  152.5288  139.4045  155.5753 N   0  5  0  0  0  0  0  0  0  0  0  0
  152.0541  138.4869  154.7054 C   0  0  0  0  0  0  0  0  0  0  0  0
  152.6437  137.6168  154.0663 O   0  0  0  0  0  0  0  0  0  0  0  0
  146.8495  132.3185  154.8591 H   0  0  0  0  0  0  0  0  0  0  0  0
  147.0921  133.7308  155.8787 H   0  0  0  0  0  0  0  0  0  0  0  0
  148.4304  133.0928  154.9257 H   0  0  0  0  0  0  0  0  0  0  0  0
  145.8719  134.3256  153.8071 H   0  0  0  0  0  0  0  0  0  0  0  0
  147.8369  134.2587  151.7587 H   0  0  0  0  0  0  0  0  0  0  0  0
  147.9733  132.7024  152.5433 H   0  0  0  0  0  0  0  0  0  0  0  0
  146.6904  131.0623  151.1195 H   0  0  0  0  0  0  0  0  0  0  0  0
  144.1793  131.0237  150.0508 H   0  0  0  0  0  0  0  0  0  0  0  0
  143.2057  133.5467  150.6586 H   0  0  0  0  0  0  0  0  0  0  0  0
  148.2592  135.7546  153.1714 H   0  0  0  0  0  0  0  0  0  0  0  0
  147.9954  138.1294  153.8672 H   0  0  0  0  0  0  0  0  0  0  0  0
  147.8312  138.3591  155.5931 H   0  0  0  0  0  0  0  0  0  0  0  0
  149.9411  137.1831  156.0347 H   0  0  0  0  0  0  0  0  0  0  0  0
  150.0300  136.6107  154.3899 H   0  0  0  0  0  0  0  0  0  0  0  0
  150.2916  139.0261  153.5872 H   0  0  0  0  0  0  0  0  0  0  0  0
  149.4704  140.1979  155.7425 H   0  0  0  0  0  0  0  0  0  0  0  0
  1  2  1  0  0  0  0
  1 21  1  0  0  0  0
  1 22  1  0  0  0  0
  1 23  1  0  0  0  0
  2  3  1  0  0  0  0
  2  9  1  0  0  0  0
  2 24  1  0  0  0  0
  3  4  1  0  0  0  0
  3 25  1  0  0  0  0
  3 26  1  0  0  0  0
  4  8  1  0  0  0  0
  4  5  1  0  0  0  0
  5  6  2  0  0  0  0
  5 27  1  0  0  0  0
  6  7  1  0  0  0  0
  6 28  1  0  0  0  0
  7  8  2  0  0  0  0
  7 29  1  0  0  0  0
  9 10  1  0  0  0  0
  9 30  1  0  0  0  0
 10 11  2  0  0  0  0
 10 12  1  0  0  0  0
 12 13  1  0  0  0  0
 12 31  1  0  0  0  0
 12 32  1  0  0  0  0
 13 14  1  0  0  0  0
 13 33  1  0  0  0  0
 13 34  1  0  0  0  0
 14 19  1  0  0  0  0
 14 15  1  0  0  0  0
 14 35  1  0  0  0  0
 15 16  1  0  0  0  0
 15 36  1  0  0  0  0
 16 17  2  0  0  0  0
 16 18  1  0  0  0  0
 18 19  1  0  0  0  0
 19 20  2  0  0  0  0
M  CHG  1  18  -1
M  END
> <s_m_source_file>
AV-unprocessed.smi

> <i_m_source_file_index>
1196

> <i_lp_mmshare_version>
43012

> <i_f3d_flags>
0

> <s_epik_input>
bjFbY0hdW2NIXVtjSF1uMVtDSDJdW0NAQEhdKFtDSDNdKVtOSF1DKD1PKVtDSDJdW0NIMl1bQ0BASF0yW05IXUMoPU8pW05IXUMyPU8=

> <s_epik_cmdline>
J2VwaWtfcHl0aG9uJywgJy1waCcsICc3LjAnLCAnLXRuJywgJzgnLCAnLW1hJywgJzIwMCcsICctbWV0YWxfYmluZGluZycsICctaW1hZScsICc8aW5maWxlLm1hZT4nLCAnLW9tYWUnLCAnPG91dGZpbGUubWFlPic=

> <r_lp_tautomer_probability>
1

> <r_epik_Ionization_Penalty>
2.57056

> <r_epik_Ionization_Penalty_Charging>
2.57023

> <r_epik_Ionization_Penalty_Neutral>
0.000331301

> <r_epik_State_Penalty>
2.56828

> <r_epik_Charging_Adjusted_Penalty>
5.13851

> <i_epik_Tot_Q>
-1

> <i_epik_Tot_abs_Q>
1

> <r_epik_Metal_State_Penalty>
0.444883

> <b_epik_Metal_Only>
1

> <s_lp_Force_Field>
OPLS_2005

> <r_lp_Energy>
7.37265

> <b_lp_Chiralities_Consistent>
1

> <s_lp_Variant>
AV-unprocessed.smi:1196-11

> <Gold.Version>
5.8.1

> <Gold.Id.Protein>
6NUR|6NUR_protein|mol2

> <Gold.PLP.Fitness>
43.7632

> <Gold.PLP.PLP>
-28.7579

> <Gold.PLP.part.hbond>
-2.9343

> <Gold.PLP.part.metal>
0.0000

> <Gold.PLP.part.buried>
-4.5784

> <Gold.PLP.part.nonpolar>
-21.5007

> <Gold.PLP.part.repulsive>
0.3348

> <Gold.PLP.ligand.clash>
0.0000

> <Gold.PLP.ligand.torsion>
0.9401

> <Gold.PLP.Chemscore.Hbond>
3.5905

> <Gold.PLP.Chemscore.CHOScore>
2.0000

> <Gold.PLP.Chemscore.Metal>
0.0000

> <Gold.Chemscore.Hbonds>
donor molecule, donor type, donor heavy atom, donor atom, acceptor molecule, acceptor atom, score
      L1  H     9    30       P1  7948  1.00
      P1  H  7997  8010       L1    18  1.89
      P1  H 10752 10765       L1    20  0.61
      L1  C     5    27       P1 10747  1.00
      L1  C     7    29       P1 10186  0.80

> <Gold.PLP.Chemscore.Internal.Correction>
0.1140

> <Gold.Rescore>
     Score         DG    S(hbond)    S(metal)    S(lipo)     H(rot)  DE(clash)    DE(int)     intcor
     10.87     -11.86       2.44        0.00      48.15       2.89       0.07       0.92       ----

> <Gold.Chemscore.Fitness>
10.8667

> <Gold.Chemscore.DG>
-11.8579

> <Gold.Chemscore.ZeroCoef>
-5.4800

> <Gold.Chemscore.Hbond>
2.4414

> <Gold.Chemscore.Metal>
0.0000

> <Gold.Chemscore.Lipo>
48.1505

> <Gold.Chemscore.Internal_Hbond>
0.0000

> <Gold.Chemscore.DEClash>
0.0712

> <Gold.Chemscore.DEInternal>
0.9200

> <Gold.Chemscore.Rot>
2.8946

> <Gold.Chemscore.Internal.Correction>
   9.000000E+99

> <Gold.Chemscore.Hbonds>
donor molecule, donor type, donor heavy atom, donor atom, acceptor molecule, acceptor atom, score
      L1  H     9    30       P1  7948  0.94
      P1  H  7997  8010       L1    18  0.71
      P1  H 10752 10765       L1    20  0.62

> <Gold.Chemscore.Hbond.Weighted>
-8.1544

> <Gold.Chemscore.Metal.Weighted>
-0.0000

> <Gold.Chemscore.Lipo.Weighted>
-5.6336

> <Gold.Chemscore.Internal_Hbond.Weighted>
0.0000

> <Gold.Chemscore.DEClash.Weighted>
0.0712

> <Gold.Chemscore.DEInternal.Weighted>
0.9200

> <Gold.Chemscore.Rot.Weighted>
7.4101

> <Gold.Chemscore.Internal.Correction.Weighted>
   9.000000E+99

> <Gold.Protein.RotatedTorsions>
[ 6907 6896 6895 6894 ] final  -84.90 input  -60.11 | X-H torsion
[ 7974 7965 7964 7962 ] final -178.32 input  175.53 | X-H torsion
[ 8008 7997 7996 7995 ] final   89.39 input   59.86 | X-H torsion
[ 10167 10162 10161 10158 ] final  -49.18 input  -65.29 | X-H torsion
[ 10718 10713 10712 10709 ] final -167.35 input   66.30 | X-H torsion
[ 10763 10752 10751 10750 ] final  147.09 input  -60.55 | X-H torsion
[ 11005 11000 10999 10996 ] final -152.67 input  -57.11 | X-H torsion

> <Gold.Protein.ActiveResidues>
 VAL166  LYS551  ARG553  GLY616  TRP617  ASP618  TYR619  PRO620  LYS621  CYS622 
 ASP623  PHE694  ASN695  SER759  ASP760  ASP761  ALA762  ILE779  LEU786  VAL792 
 PHE793  MET794  SER795  GLU796  ALA797  LYS798  CYS799  TRP800  GLU811  SER814 

> <Gold.Protein.RotatedAtoms>
  150.6873  134.3287  159.4817 H   0  0  0  0  0  0  0  0  0  0  0  0  # atno 6907 bound_to 6896
  152.1154  134.9241  160.0574 H   0  0  0  0  0  0  0  0  0  0  0  0  # atno 6908 bound_to 6896
  152.0468  133.3966  159.4397 H   0  0  0  0  0  0  0  0  0  0  0  0  # atno 6909 bound_to 6896
  144.7130  140.0886  143.6422 H   0  0  0  0  0  0  0  0  0  0  0  0  # atno 7974 bound_to 7965
  155.9994  140.3361  155.6830 H   0  0  0  0  0  0  0  0  0  0  0  0  # atno 8008 bound_to 7997
  155.6312  140.0685  157.2666 H   0  0  0  0  0  0  0  0  0  0  0  0  # atno 8009 bound_to 7997
  154.4244  140.1759  156.1461 H   0  0  0  0  0  0  0  0  0  0  0  0  # atno 8010 bound_to 7997
  140.6697  143.2708  151.4178 H   0  0  0  0  0  0  0  0  0  0  0  0  # atno 10167 bound_to 10162
  156.6811  130.9122  151.3057 H   0  0  0  0  0  0  0  0  0  0  0  0  # atno 10718 bound_to 10713
  154.0326  135.2896  155.3366 H   0  0  0  0  0  0  0  0  0  0  0  0  # atno 10763 bound_to 10752
  154.6979  135.5200  153.8487 H   0  0  0  0  0  0  0  0  0  0  0  0  # atno 10764 bound_to 10752
  153.0634  135.6622  154.0537 H   0  0  0  0  0  0  0  0  0  0  0  0  # atno 10765 bound_to 10752
  140.7164  134.3775  157.5190 H   0  0  0  0  0  0  0  0  0  0  0  0  # atno 11005 bound_to 11000
  145.9640  139.2821  143.1138 LP  0  0  0  0  0  0  0  0  0  0  0  0  # atno 17320 bound_to 7965
  145.9189  140.9129  143.0415 LP  0  0  0  0  0  0  0  0  0  0  0  0  # atno 17321 bound_to 7965
  139.5960  144.1397  152.2144 LP  0  0  0  0  0  0  0  0  0  0  0  0  # atno 17342 bound_to 10162
  140.0766  144.5735  150.7153 LP  0  0  0  0  0  0  0  0  0  0  0  0  # atno 17343 bound_to 10162
  157.7043  130.9368  150.0882 LP  0  0  0  0  0  0  0  0  0  0  0  0  # atno 17370 bound_to 10713
  156.1867  130.3652  149.8963 LP  0  0  0  0  0  0  0  0  0  0  0  0  # atno 17371 bound_to 10713
  139.8859  134.8925  156.2618 LP  0  0  0  0  0  0  0  0  0  0  0  0  # atno 17394 bound_to 11000
  141.0041  133.7134  156.1006 LP  0  0  0  0  0  0  0  0  0  0  0  0  # atno 17395 bound_to 11000

$$$$
