AV-unprocessed.smi:2513|AV-procd|sdf|9892|dock5
  -GOLD-   2272013533D 1   1.00000     0.00000
 Structure written by MMmdl.
 35 36  0  0  0  0  0  0  0  0  1 V2000
  145.5312  142.9860  154.3271 C   0  0  0  0  0  0  0  0  0  0  0  0
  146.9281  142.7516  154.4289 O   0  0  0  0  0  0  0  0  0  0  0  0
  147.4001  141.4832  154.1523 C   0  0  0  0  0  0  0  0  0  0  0  0
  146.7584  140.5847  153.2620 C   0  0  0  0  0  0  0  0  0  0  0  0
  147.3166  139.3135  153.0428 C   0  0  0  0  0  0  0  0  0  0  0  0
  148.4994  138.9819  153.7232 C   0  0  0  0  0  0  0  0  0  0  0  0
  149.1188  139.8249  154.5724 N   0  0  0  0  0  0  0  0  0  0  0  0
  148.5922  141.0554  154.7931 C   0  0  0  0  0  0  0  0  0  0  0  0
  149.1858  142.0028  155.6728 N   0  0  0  0  0  0  0  0  0  0  0  0
  150.2647  141.8518  156.4608 C   0  0  0  0  0  0  0  0  0  0  0  0
  150.9430  140.8283  156.5536 O   0  0  0  0  0  0  0  0  0  0  0  0
  150.5202  142.9726  157.1511 N   0  0  0  0  0  0  0  0  0  0  0  0
  151.6191  143.1466  158.0961 C   0  0  1  0  0  0  0  0  0  0  0  0
  151.3385  144.3538  159.0032 C   0  0  0  0  0  0  0  0  0  0  0  0
  152.4187  144.4585  160.0856 C   0  0  0  0  0  0  0  0  0  0  0  0
  152.5620  143.1228  160.8319 C   0  0  0  0  0  0  0  0  0  0  0  0
  152.8509  142.0805  159.9063 O   0  0  0  0  0  0  0  0  0  0  0  0
  151.8133  141.8772  158.9522 C   0  0  0  0  0  0  0  0  0  0  0  0
  145.3223  144.0262  154.5769 H   0  0  0  0  0  0  0  0  0  0  0  0
  144.9701  142.3613  155.0234 H   0  0  0  0  0  0  0  0  0  0  0  0
  145.1702  142.8118  153.3124 H   0  0  0  0  0  0  0  0  0  0  0  0
  145.8493  140.8443  152.7415 H   0  0  0  0  0  0  0  0  0  0  0  0
  146.8494  138.6104  152.3691 H   0  0  0  0  0  0  0  0  0  0  0  0
  148.9612  138.0157  153.5825 H   0  0  0  0  0  0  0  0  0  0  0  0
  148.7306  142.9031  155.7030 H   0  0  0  0  0  0  0  0  0  0  0  0
  149.9108  143.7654  157.0133 H   0  0  0  0  0  0  0  0  0  0  0  0
  152.5399  143.3421  157.5430 H   0  0  0  0  0  0  0  0  0  0  0  0
  151.3022  145.2731  158.4171 H   0  0  0  0  0  0  0  0  0  0  0  0
  150.3619  144.2445  159.4774 H   0  0  0  0  0  0  0  0  0  0  0  0
  153.3723  144.7231  159.6273 H   0  0  0  0  0  0  0  0  0  0  0  0
  152.1748  145.2581  160.7856 H   0  0  0  0  0  0  0  0  0  0  0  0
  153.3730  143.1842  161.5578 H   0  0  0  0  0  0  0  0  0  0  0  0
  151.6534  142.8882  161.3887 H   0  0  0  0  0  0  0  0  0  0  0  0
  150.8888  141.6039  159.4636 H   0  0  0  0  0  0  0  0  0  0  0  0
  152.0882  141.0310  158.3218 H   0  0  0  0  0  0  0  0  0  0  0  0
  1  2  1  0  0  0  0
  1 19  1  0  0  0  0
  1 20  1  0  0  0  0
  1 21  1  0  0  0  0
  2  3  1  0  0  0  0
  3  8  1  0  0  0  0
  3  4  2  0  0  0  0
  4  5  1  0  0  0  0
  4 22  1  0  0  0  0
  5  6  2  0  0  0  0
  5 23  1  0  0  0  0
  6  7  1  0  0  0  0
  6 24  1  0  0  0  0
  7  8  2  0  0  0  0
  8  9  1  0  0  0  0
  9 10  1  0  0  0  0
  9 25  1  0  0  0  0
 10 11  2  0  0  0  0
 10 12  1  0  0  0  0
 12 13  1  0  0  0  0
 12 26  1  0  0  0  0
 13 18  1  0  0  0  0
 13 14  1  0  0  0  0
 13 27  1  0  0  0  0
 14 15  1  0  0  0  0
 14 28  1  0  0  0  0
 14 29  1  0  0  0  0
 15 16  1  0  0  0  0
 15 30  1  0  0  0  0
 15 31  1  0  0  0  0
 16 17  1  0  0  0  0
 16 32  1  0  0  0  0
 16 33  1  0  0  0  0
 17 18  1  0  0  0  0
 18 34  1  0  0  0  0
 18 35  1  0  0  0  0
M  END
> <s_m_source_file>
AV-unprocessed.smi

> <i_m_source_file_index>
2513

> <i_lp_mmshare_version>
43012

> <i_f3d_flags>
0

> <s_epik_input>
W0NIM11PYzFbY0hdW2NIXVtjSF1uYzFbTkhdQyg9TylbTkhdW0NAQEhdMltDSDJdW0NIMl1bQ0gyXU9bQ0gyXTI=

> <s_epik_cmdline>
J2VwaWtfcHl0aG9uJywgJy1waCcsICc3LjAnLCAnLXRuJywgJzgnLCAnLW1hJywgJzIwMCcsICctbWV0YWxfYmluZGluZycsICctaW1hZScsICc8aW5maWxlLm1hZT4nLCAnLW9tYWUnLCAnPG91dGZpbGUubWFlPic=

> <r_lp_tautomer_probability>
1

> <r_epik_Ionization_Penalty>
3.98976e-05

> <r_epik_Ionization_Penalty_Charging>
0

> <r_epik_Ionization_Penalty_Neutral>
3.98976e-05

> <r_epik_State_Penalty>
-0

> <r_epik_Charging_Adjusted_Penalty>
0

> <i_epik_Tot_Q>
0

> <i_epik_Tot_abs_Q>
0

> <r_epik_Metal_State_Penalty>
-0

> <b_epik_Metal_Only>
0

> <s_lp_Force_Field>
OPLS_2005

> <r_lp_Energy>
12.9865

> <b_lp_Chiralities_Consistent>
1

> <s_lp_Variant>
AV-unprocessed.smi:2513-2

> <Gold.Version>
5.8.1

> <Gold.Id.Protein>
6NUR|6NUR_protein|mol2

> <Gold.PLP.Fitness>
44.2273

> <Gold.PLP.PLP>
-35.9828

> <Gold.PLP.part.hbond>
-2.8814

> <Gold.PLP.part.metal>
0.0000

> <Gold.PLP.part.buried>
-4.3546

> <Gold.PLP.part.nonpolar>
-31.0359

> <Gold.PLP.part.repulsive>
2.0806

> <Gold.PLP.ligand.clash>
0.0000

> <Gold.PLP.ligand.torsion>
0.6351

> <Gold.PLP.Chemscore.Hbond>
2.1778

> <Gold.PLP.Chemscore.CHOScore>
0.9925

> <Gold.PLP.Chemscore.Metal>
0.0000

> <Gold.Chemscore.Hbonds>
donor molecule, donor type, donor heavy atom, donor atom, acceptor molecule, acceptor atom, score
      L1  H     9    25       P1  8028  0.98
      L1  H    12    26       P1  8028  0.88
      L1  C     6    24       P1  7948  1.00

> <Gold.PLP.Chemscore.Internal.Correction>
0.0035

> <Gold.Rescore>
     Score         DG    S(hbond)    S(metal)    S(lipo)     H(rot)  DE(clash)    DE(int)     intcor
     16.48     -19.79       1.97        0.00      93.42       1.25       0.28       3.03       ----

> <Gold.Chemscore.Fitness>
16.4782

> <Gold.Chemscore.DG>
-19.7868

> <Gold.Chemscore.ZeroCoef>
-5.4800

> <Gold.Chemscore.Hbond>
1.9722

> <Gold.Chemscore.Metal>
0.0000

> <Gold.Chemscore.Lipo>
93.4226

> <Gold.Chemscore.Internal_Hbond>
0.0000

> <Gold.Chemscore.DEClash>
0.2764

> <Gold.Chemscore.DEInternal>
3.0322

> <Gold.Chemscore.Rot>
1.2542

> <Gold.Chemscore.Internal.Correction>
   9.000000E+99

> <Gold.Chemscore.Hbonds>
donor molecule, donor type, donor heavy atom, donor atom, acceptor molecule, acceptor atom, score
      L1  H     9    25       P1  8028  0.93
      L1  H    12    26       P1  8028  0.83

> <Gold.Chemscore.Hbond.Weighted>
-6.5871

> <Gold.Chemscore.Metal.Weighted>
-0.0000

> <Gold.Chemscore.Lipo.Weighted>
-10.9304

> <Gold.Chemscore.Internal_Hbond.Weighted>
0.0000

> <Gold.Chemscore.DEClash.Weighted>
0.2764

> <Gold.Chemscore.DEInternal.Weighted>
3.0322

> <Gold.Chemscore.Rot.Weighted>
3.2107

> <Gold.Chemscore.Internal.Correction.Weighted>
   9.000000E+99

> <Gold.Protein.RotatedTorsions>
[ 6907 6896 6895 6894 ] final  -95.53 input  -60.11 | X-H torsion
[ 7974 7965 7964 7962 ] final  135.72 input  175.53 | X-H torsion
[ 8008 7997 7996 7995 ] final   12.70 input   59.86 | X-H torsion
[ 10167 10162 10161 10158 ] final  133.79 input  -65.29 | X-H torsion
[ 10718 10713 10712 10709 ] final -120.04 input   66.30 | X-H torsion
[ 10763 10752 10751 10750 ] final  -27.14 input  -60.55 | X-H torsion
[ 11005 11000 10999 10996 ] final -144.29 input  -57.11 | X-H torsion

> <Gold.Protein.ActiveResidues>
 VAL166  LYS551  ARG553  GLY616  TRP617  ASP618  TYR619  PRO620  LYS621  CYS622 
 ASP623  PHE694  ASN695  SER759  ASP760  ASP761  ALA762  ILE779  LEU786  VAL792 
 PHE793  MET794  SER795  GLU796  ALA797  LYS798  CYS799  TRP800  GLU811  SER814 

> <Gold.Protein.RotatedAtoms>
  150.6966  134.1643  159.4187 H   0  0  0  0  0  0  0  0  0  0  0  0  # atno 6907 bound_to 6896
  151.9622  135.0115  160.0557 H   0  0  0  0  0  0  0  0  0  0  0  0  # atno 6908 bound_to 6896
  152.1916  133.4742  159.5048 H   0  0  0  0  0  0  0  0  0  0  0  0  # atno 6909 bound_to 6896
  144.9635  139.4684  143.5468 H   0  0  0  0  0  0  0  0  0  0  0  0  # atno 7974 bound_to 7965
  154.8242  140.2889  155.5766 H   0  0  0  0  0  0  0  0  0  0  0  0  # atno 8008 bound_to 7997
  156.3000  140.2544  156.3085 H   0  0  0  0  0  0  0  0  0  0  0  0  # atno 8009 bound_to 7997
  154.9304  140.0383  157.2034 H   0  0  0  0  0  0  0  0  0  0  0  0  # atno 8010 bound_to 7997
  139.5283  144.6599  151.5046 H   0  0  0  0  0  0  0  0  0  0  0  0  # atno 10167 bound_to 10162
  156.1227  130.6336  150.9492 H   0  0  0  0  0  0  0  0  0  0  0  0  # atno 10718 bound_to 10713
  153.7273  135.6941  153.4998 H   0  0  0  0  0  0  0  0  0  0  0  0  # atno 10763 bound_to 10752
  153.2161  135.4386  155.0434 H   0  0  0  0  0  0  0  0  0  0  0  0  # atno 10764 bound_to 10752
  154.8264  135.3449  154.6804 H   0  0  0  0  0  0  0  0  0  0  0  0  # atno 10765 bound_to 10752
  140.8039  134.2824  157.4968 H   0  0  0  0  0  0  0  0  0  0  0  0  # atno 11005 bound_to 11000
  146.3360  139.8801  142.8826 LP  0  0  0  0  0  0  0  0  0  0  0  0  # atno 17320 bound_to 7965
  145.2664  141.0094  143.3797 LP  0  0  0  0  0  0  0  0  0  0  0  0  # atno 17321 bound_to 7965
  140.6442  143.8828  150.6721 LP  0  0  0  0  0  0  0  0  0  0  0  0  # atno 17342 bound_to 10162
  140.2172  143.3837  152.1672 LP  0  0  0  0  0  0  0  0  0  0  0  0  # atno 17343 bound_to 10162
  157.6410  131.0910  150.8250 LP  0  0  0  0  0  0  0  0  0  0  0  0  # atno 17370 bound_to 10713
  156.8345  130.5027  149.5328 LP  0  0  0  0  0  0  0  0  0  0  0  0  # atno 17371 bound_to 10713
  139.8719  134.9445  156.3883 LP  0  0  0  0  0  0  0  0  0  0  0  0  # atno 17394 bound_to 11000
  140.9267  133.7607  155.9973 LP  0  0  0  0  0  0  0  0  0  0  0  0  # atno 17395 bound_to 11000

$$$$
