AV-unprocessed.smi:1501|AV-procd|sdf|6064|dock2
  -GOLD-   22720 6183D 1   1.00000     0.00000
 Structure written by MMmdl.
 49 50  0  0  0  0  0  0  0  0  1 V2000
  152.0587  138.3494  156.4778 C   0  0  0  0  0  0  0  0  0  0  0  0
  151.4255  139.7196  156.3132 C   0  0  0  0  0  0  0  0  0  0  0  0
  151.7518  140.6607  157.2976 N   0  0  0  0  0  0  0  0  0  0  0  0
  151.2655  141.8611  157.2433 C   0  0  0  0  0  0  0  0  0  0  0  0
  151.5090  142.8840  158.1641 N   0  0  0  0  0  0  0  0  0  0  0  0
  152.2960  142.6072  159.3663 C   0  0  0  0  0  0  0  0  0  0  0  0
  151.9846  143.6124  160.4877 C   0  0  0  0  0  0  0  0  0  0  0  0
  152.1910  144.9361  160.0147 O   0  0  0  0  0  0  0  0  0  0  0  0
  151.3241  145.2374  158.9300 C   0  0  0  0  0  0  0  0  0  0  0  0
  151.6126  144.2879  157.7551 C   0  0  0  0  0  0  0  0  0  0  0  0
  150.4013  142.2201  156.2024 N   0  0  0  0  0  0  0  0  0  0  0  0
  150.0304  141.3892  155.2034 C   0  0  0  0  0  0  0  0  0  0  0  0
  149.2751  141.7810  154.3150 O   0  0  0  0  0  0  0  0  0  0  0  0
  150.5975  140.0332  155.2781 C   0  0  0  0  0  0  0  0  0  0  0  0
  150.2064  139.0361  154.1910 C   0  0  0  0  0  0  0  0  0  0  0  0
  148.6789  138.8847  154.0696 C   0  0  0  0  0  0  0  0  0  0  0  0
  148.1207  137.8025  154.9966 C   0  0  0  0  0  0  0  0  0  0  0  0
  147.4757  138.1129  155.9983 O   0  0  0  0  0  0  0  0  0  0  0  0
  148.3684  136.5323  154.6467 N   0  0  0  0  0  0  0  0  0  0  0  0
  147.9091  135.3660  155.3903 C   0  0  0  0  0  0  0  0  0  0  0  0
  148.2399  134.0536  154.6533 C   0  0  0  0  0  0  0  0  0  0  0  0
  149.7432  133.9070  154.3591 C   0  0  0  0  0  0  0  0  0  0  0  0
  147.4210  133.9361  153.3594 C   0  0  0  0  0  0  0  0  0  0  0  0
  150.0290  143.1582  156.1882 H   0  0  0  0  0  0  0  0  0  0  0  0
  152.5751  138.0511  155.5650 H   0  0  0  0  0  0  0  0  0  0  0  0
  151.2974  137.6035  156.7065 H   0  0  0  0  0  0  0  0  0  0  0  0
  152.7874  138.3447  157.2892 H   0  0  0  0  0  0  0  0  0  0  0  0
  152.0981  141.5987  159.7318 H   0  0  0  0  0  0  0  0  0  0  0  0
  153.3557  142.6503  159.1112 H   0  0  0  0  0  0  0  0  0  0  0  0
  150.9593  143.4940  160.8423 H   0  0  0  0  0  0  0  0  0  0  0  0
  152.6384  143.4350  161.3418 H   0  0  0  0  0  0  0  0  0  0  0  0
  150.2829  145.1583  159.2467 H   0  0  0  0  0  0  0  0  0  0  0  0
  151.4856  146.2712  158.6244 H   0  0  0  0  0  0  0  0  0  0  0  0
  152.6202  144.4645  157.3761 H   0  0  0  0  0  0  0  0  0  0  0  0
  150.9271  144.5264  156.9420 H   0  0  0  0  0  0  0  0  0  0  0  0
  150.6225  139.3469  153.2329 H   0  0  0  0  0  0  0  0  0  0  0  0
  150.6706  138.0711  154.4015 H   0  0  0  0  0  0  0  0  0  0  0  0
  148.1890  139.8277  154.3146 H   0  0  0  0  0  0  0  0  0  0  0  0
  148.4127  138.6561  153.0365 H   0  0  0  0  0  0  0  0  0  0  0  0
  148.9040  136.3619  153.8081 H   0  0  0  0  0  0  0  0  0  0  0  0
  148.3797  135.3654  156.3751 H   0  0  0  0  0  0  0  0  0  0  0  0
  146.8330  135.4462  155.5521 H   0  0  0  0  0  0  0  0  0  0  0  0
  147.9473  133.2244  155.2991 H   0  0  0  0  0  0  0  0  0  0  0  0
  150.1061  134.7259  153.7373 H   0  0  0  0  0  0  0  0  0  0  0  0
  149.9496  132.9748  153.8328 H   0  0  0  0  0  0  0  0  0  0  0  0
  150.3343  133.8970  155.2751 H   0  0  0  0  0  0  0  0  0  0  0  0
  147.6680  134.7358  152.6601 H   0  0  0  0  0  0  0  0  0  0  0  0
  146.3514  133.9916  153.5638 H   0  0  0  0  0  0  0  0  0  0  0  0
  147.6103  132.9860  152.8589 H   0  0  0  0  0  0  0  0  0  0  0  0
  1  2  1  0  0  0  0
  1 25  1  0  0  0  0
  1 26  1  0  0  0  0
  1 27  1  0  0  0  0
  2 14  2  0  0  0  0
  2  3  1  0  0  0  0
  3  4  2  0  0  0  0
  4  5  1  0  0  0  0
  4 11  1  0  0  0  0
  5 10  1  0  0  0  0
  5  6  1  0  0  0  0
  6  7  1  0  0  0  0
  6 28  1  0  0  0  0
  6 29  1  0  0  0  0
  7  8  1  0  0  0  0
  7 30  1  0  0  0  0
  7 31  1  0  0  0  0
  8  9  1  0  0  0  0
  9 10  1  0  0  0  0
  9 32  1  0  0  0  0
  9 33  1  0  0  0  0
 10 34  1  0  0  0  0
 10 35  1  0  0  0  0
 11 24  1  0  0  0  0
 11 12  1  0  0  0  0
 12 13  2  0  0  0  0
 12 14  1  0  0  0  0
 14 15  1  0  0  0  0
 15 16  1  0  0  0  0
 15 36  1  0  0  0  0
 15 37  1  0  0  0  0
 16 17  1  0  0  0  0
 16 38  1  0  0  0  0
 16 39  1  0  0  0  0
 17 18  2  0  0  0  0
 17 19  1  0  0  0  0
 19 20  1  0  0  0  0
 19 40  1  0  0  0  0
 20 21  1  0  0  0  0
 20 41  1  0  0  0  0
 20 42  1  0  0  0  0
 21 22  1  0  0  0  0
 21 23  1  0  0  0  0
 21 43  1  0  0  0  0
 22 44  1  0  0  0  0
 22 45  1  0  0  0  0
 22 46  1  0  0  0  0
 23 47  1  0  0  0  0
 23 48  1  0  0  0  0
 23 49  1  0  0  0  0
M  END
> <s_m_source_file>
AV-unprocessed.smi

> <i_m_source_file_index>
1501

> <i_lp_mmshare_version>
43012

> <i_f3d_flags>
0

> <s_epik_input>
W0NIMl0xW0NIMl1PW0NIMl1bQ0gyXU4xYyhuYzJbQ0gzXSlbbkhdYyg9TyljMltDSDJdW0NIMl1DKD1PKVtOSF1bQ0gyXVtDSF0oW0NIM10pW0NIM10=

> <s_epik_cmdline>
J2VwaWtfcHl0aG9uJywgJy1waCcsICc3LjAnLCAnLXRuJywgJzgnLCAnLW1hJywgJzIwMCcsICctbWV0YWxfYmluZGluZycsICctaW1hZScsICc8aW5maWxlLm1hZT4nLCAnLW9tYWUnLCAnPG91dGZpbGUubWFlPic=

> <r_lp_tautomer_probability>
0.878553

> <r_epik_Ionization_Penalty>
0.00122307

> <r_epik_Ionization_Penalty_Charging>
0.0011975

> <r_epik_Ionization_Penalty_Neutral>
2.55789e-05

> <r_epik_State_Penalty>
0.0424099

> <r_epik_Charging_Adjusted_Penalty>
0.0436074

> <i_epik_Tot_Q>
0

> <i_epik_Tot_abs_Q>
0

> <r_epik_Metal_State_Penalty>
1.02628

> <b_epik_Metal_Only>
0

> <s_lp_Force_Field>
OPLS_2005

> <r_lp_Energy>
24.4519

> <b_lp_Chiralities_Consistent>
1

> <s_lp_Variant>
AV-unprocessed.smi:1501-1

> <Gold.Version>
5.8.1

> <Gold.Id.Protein>
6NUR|6NUR_protein|mol2

> <Gold.PLP.Fitness>
47.7433

> <Gold.PLP.PLP>
-41.8416

> <Gold.PLP.part.hbond>
-3.5444

> <Gold.PLP.part.metal>
0.0000

> <Gold.PLP.part.buried>
-2.7639

> <Gold.PLP.part.nonpolar>
-34.9947

> <Gold.PLP.part.repulsive>
0.3785

> <Gold.PLP.ligand.clash>
0.0000

> <Gold.PLP.ligand.torsion>
0.6377

> <Gold.PLP.Chemscore.Hbond>
2.3143

> <Gold.PLP.Chemscore.CHOScore>
0.0000

> <Gold.PLP.Chemscore.Metal>
0.0000

> <Gold.Chemscore.Hbonds>
donor molecule, donor type, donor heavy atom, donor atom, acceptor molecule, acceptor atom, score
      L1  H    11    24       P1  8028  1.00
      L1  H    19    40       P1  7948  0.99
      P1  H  8011  8017       L1    13  0.35

> <Gold.PLP.Chemscore.Internal.Correction>
0.2342

> <Gold.Rescore>
     Score         DG    S(hbond)    S(metal)    S(lipo)     H(rot)  DE(clash)    DE(int)     intcor
     18.44     -20.57       2.51        0.00      97.50       1.83       0.29       1.84       ----

> <Gold.Chemscore.Fitness>
18.4404

> <Gold.Chemscore.DG>
-20.5684

> <Gold.Chemscore.ZeroCoef>
-5.4800

> <Gold.Chemscore.Hbond>
2.5074

> <Gold.Chemscore.Metal>
0.0000

> <Gold.Chemscore.Lipo>
97.4986

> <Gold.Chemscore.Internal_Hbond>
0.0000

> <Gold.Chemscore.DEClash>
0.2867

> <Gold.Chemscore.DEInternal>
1.8413

> <Gold.Chemscore.Rot>
1.8335

> <Gold.Chemscore.Internal.Correction>
   9.000000E+99

> <Gold.Chemscore.Hbonds>
donor molecule, donor type, donor heavy atom, donor atom, acceptor molecule, acceptor atom, score
      L1  H    11    24       P1  8028  0.96
      L1  H    19    40       P1  7948  0.94
      P1  H  8011  8017       L1    13  0.35

> <Gold.Chemscore.Hbond.Weighted>
-8.3749

> <Gold.Chemscore.Metal.Weighted>
-0.0000

> <Gold.Chemscore.Lipo.Weighted>
-11.4073

> <Gold.Chemscore.Internal_Hbond.Weighted>
0.0000

> <Gold.Chemscore.DEClash.Weighted>
0.2867

> <Gold.Chemscore.DEInternal.Weighted>
1.8413

> <Gold.Chemscore.Rot.Weighted>
4.6938

> <Gold.Chemscore.Internal.Correction.Weighted>
   9.000000E+99

> <Gold.Protein.RotatedTorsions>
[ 6907 6896 6895 6894 ] final  -91.68 input  -60.11 | X-H torsion
[ 7974 7965 7964 7962 ] final  -15.35 input  175.53 | X-H torsion
[ 8008 7997 7996 7995 ] final   76.55 input   59.86 | X-H torsion
[ 10167 10162 10161 10158 ] final -123.57 input  -65.29 | X-H torsion
[ 10718 10713 10712 10709 ] final   49.09 input   66.30 | X-H torsion
[ 10763 10752 10751 10750 ] final   97.69 input  -60.55 | X-H torsion
[ 11005 11000 10999 10996 ] final  148.33 input  -57.11 | X-H torsion

> <Gold.Protein.ActiveResidues>
 VAL166  LYS551  ARG553  GLY616  TRP617  ASP618  TYR619  PRO620  LYS621  CYS622 
 ASP623  PHE694  ASN695  SER759  ASP760  ASP761  ALA762  ILE779  LEU786  VAL792 
 PHE793  MET794  SER795  GLU796  ALA797  LYS798  CYS799  TRP800  GLU811  SER814 

> <Gold.Protein.RotatedAtoms>
  150.6896  134.2239  159.4407 H   0  0  0  0  0  0  0  0  0  0  0  0  # atno 6907 bound_to 6896
  152.0194  134.9829  160.0579 H   0  0  0  0  0  0  0  0  0  0  0  0  # atno 6908 bound_to 6896
  152.1412  133.4430  159.4804 H   0  0  0  0  0  0  0  0  0  0  0  0  # atno 6909 bound_to 6896
  146.2035  140.3480  142.8415 H   0  0  0  0  0  0  0  0  0  0  0  0  # atno 7974 bound_to 7965
  155.8289  140.3467  155.5560 H   0  0  0  0  0  0  0  0  0  0  0  0  # atno 8008 bound_to 7997
  155.8263  140.0920  157.1839 H   0  0  0  0  0  0  0  0  0  0  0  0  # atno 8009 bound_to 7997
  154.4004  140.1420  156.3547 H   0  0  0  0  0  0  0  0  0  0  0  0  # atno 8010 bound_to 7997
  140.0021  143.5529  152.2299 H   0  0  0  0  0  0  0  0  0  0  0  0  # atno 10167 bound_to 10162
  157.4752  130.8280  149.8032 H   0  0  0  0  0  0  0  0  0  0  0  0  # atno 10718 bound_to 10713
  153.2800  135.4174  155.1069 H   0  0  0  0  0  0  0  0  0  0  0  0  # atno 10763 bound_to 10752
  154.8486  135.3493  154.6125 H   0  0  0  0  0  0  0  0  0  0  0  0  # atno 10764 bound_to 10752
  153.6546  135.7051  153.5255 H   0  0  0  0  0  0  0  0  0  0  0  0  # atno 10765 bound_to 10752
  140.0951  134.9017  157.1710 H   0  0  0  0  0  0  0  0  0  0  0  0  # atno 11005 bound_to 11000
  144.8739  140.7309  143.6029 LP  0  0  0  0  0  0  0  0  0  0  0  0  # atno 17320 bound_to 7965
  145.3400  139.1735  143.4491 LP  0  0  0  0  0  0  0  0  0  0  0  0  # atno 17321 bound_to 7965
  139.6264  144.7638  151.2629 LP  0  0  0  0  0  0  0  0  0  0  0  0  # atno 17342 bound_to 10162
  140.7414  143.6556  150.8209 LP  0  0  0  0  0  0  0  0  0  0  0  0  # atno 17343 bound_to 10162
  156.0093  130.3840  150.2319 LP  0  0  0  0  0  0  0  0  0  0  0  0  # atno 17370 bound_to 10713
  157.0503  131.0061  151.3255 LP  0  0  0  0  0  0  0  0  0  0  0  0  # atno 17371 bound_to 10713
  140.3298  134.2823  155.7230 LP  0  0  0  0  0  0  0  0  0  0  0  0  # atno 17394 bound_to 11000
  141.2089  133.7763  157.0027 LP  0  0  0  0  0  0  0  0  0  0  0  0  # atno 17395 bound_to 11000

$$$$
