AV-unprocessed.smi:1517|AV-procd|sdf|6121|dock9
  -GOLD-   22720 6253D 1   1.00000     0.00000
 Structure written by MMmdl.
 42 44  0  0  0  0  0  0  0  0  2 V2000
  148.1307  140.7085  153.0886 O   0  0  0  0  0  0  0  0  0  0  0  0
  147.0516  139.8247  153.3053 C   0  0  0  0  0  0  0  0  0  0  0  0
  146.7732  139.0164  152.0314 C   0  0  0  0  0  0  0  0  0  0  0  0
  146.5283  137.6144  152.3292 N   0  0  0  0  0  0  0  0  0  0  0  0
  145.2222  137.1957  152.6026 C   0  0  0  0  0  0  0  0  0  0  0  0
  144.1520  138.0060  152.8213 N   0  3  0  0  0  0  0  0  0  0  0  0
  143.0319  137.2022  153.0537 C   0  0  0  0  0  0  0  0  0  0  0  0
  141.7096  137.5423  153.3227 C   0  0  0  0  0  0  0  0  0  0  0  0
  140.8065  136.4751  153.5098 C   0  0  0  0  0  0  0  0  0  0  0  0
  141.2270  135.1317  153.4256 C   0  0  0  0  0  0  0  0  0  0  0  0
  142.5692  134.7956  153.1521 C   0  0  0  0  0  0  0  0  0  0  0  0
  143.4579  135.8546  152.9705 C   0  0  0  0  0  0  0  0  0  0  0  0
  144.8291  135.8986  152.6911 N   0  0  0  0  0  0  0  0  0  0  0  0
  145.5818  134.6450  152.5362 C   0  0  0  0  0  0  0  0  0  0  0  0
  146.0543  134.0628  153.8825 C   0  0  1  0  0  0  0  0  0  0  0  0
  144.9554  133.9576  154.7686 O   0  0  0  0  0  0  0  0  0  0  0  0
  146.7788  132.7385  153.6828 C   0  0  0  0  0  0  0  0  0  0  0  0
  146.0705  131.5843  153.2780 C   0  0  0  0  0  0  0  0  0  0  0  0
  146.7472  130.3641  153.0874 C   0  0  0  0  0  0  0  0  0  0  0  0
  148.1374  130.2897  153.2946 C   0  0  0  0  0  0  0  0  0  0  0  0
  148.7884  129.1167  153.1108 F   0  0  0  0  0  0  0  0  0  0  0  0
  148.8511  131.4373  153.6888 C   0  0  0  0  0  0  0  0  0  0  0  0
  148.1762  132.6589  153.8804 C   0  0  0  0  0  0  0  0  0  0  0  0
  148.8796  133.7567  154.2499 F   0  0  0  0  0  0  0  0  0  0  0  0
  148.7855  140.2632  152.5725 H   0  0  0  0  0  0  0  0  0  0  0  0
  147.2505  139.1785  154.1613 H   0  0  0  0  0  0  0  0  0  0  0  0
  146.1785  140.4282  153.5545 H   0  0  0  0  0  0  0  0  0  0  0  0
  145.8784  139.4122  151.5495 H   0  0  0  0  0  0  0  0  0  0  0  0
  147.5923  139.1216  151.3185 H   0  0  0  0  0  0  0  0  0  0  0  0
  147.2384  136.9324  152.1025 H   0  0  0  0  0  0  0  0  0  0  0  0
  141.3829  138.5700  153.3865 H   0  0  0  0  0  0  0  0  0  0  0  0
  139.7692  136.6914  153.7215 H   0  0  0  0  0  0  0  0  0  0  0  0
  140.5049  134.3419  153.5736 H   0  0  0  0  0  0  0  0  0  0  0  0
  142.8806  133.7631  153.0879 H   0  0  0  0  0  0  0  0  0  0  0  0
  144.9400  133.9319  152.0170 H   0  0  0  0  0  0  0  0  0  0  0  0
  146.4278  134.8333  151.8741 H   0  0  0  0  0  0  0  0  0  0  0  0
  146.7476  134.7641  154.3479 H   0  0  0  0  0  0  0  0  0  0  0  0
  144.4247  133.2221  154.5024 H   0  0  0  0  0  0  0  0  0  0  0  0
  145.0047  131.6286  153.1081 H   0  0  0  0  0  0  0  0  0  0  0  0
  146.1992  129.4856  152.7802 H   0  0  0  0  0  0  0  0  0  0  0  0
  149.9188  131.3813  153.8427 H   0  0  0  0  0  0  0  0  0  0  0  0
  144.1855  139.0170  152.8091 H   0  0  0  0  0  0  0  0  0  0  0  0
  1  2  1  0  0  0  0
  1 25  1  0  0  0  0
  2  3  1  0  0  0  0
  2 26  1  0  0  0  0
  2 27  1  0  0  0  0
  3  4  1  0  0  0  0
  3 28  1  0  0  0  0
  3 29  1  0  0  0  0
  4  5  1  0  0  0  0
  4 30  1  0  0  0  0
  5 13  1  0  0  0  0
  5  6  2  0  0  0  0
  6  7  1  0  0  0  0
  6 42  1  0  0  0  0
  7 12  2  0  0  0  0
  7  8  1  0  0  0  0
  8  9  2  0  0  0  0
  8 31  1  0  0  0  0
  9 10  1  0  0  0  0
  9 32  1  0  0  0  0
 10 11  2  0  0  0  0
 10 33  1  0  0  0  0
 11 12  1  0  0  0  0
 11 34  1  0  0  0  0
 12 13  1  0  0  0  0
 13 14  1  0  0  0  0
 14 15  1  0  0  0  0
 14 35  1  0  0  0  0
 14 36  1  0  0  0  0
 15 16  1  0  0  0  0
 15 17  1  0  0  0  0
 15 37  1  0  0  0  0
 16 38  1  0  0  0  0
 17 23  1  0  0  0  0
 17 18  2  0  0  0  0
 18 19  1  0  0  0  0
 18 39  1  0  0  0  0
 19 20  2  0  0  0  0
 19 40  1  0  0  0  0
 20 21  1  0  0  0  0
 20 22  1  0  0  0  0
 22 23  2  0  0  0  0
 22 41  1  0  0  0  0
 23 24  1  0  0  0  0
M  CHG  1   6   1
M  END
> <s_m_source_file>
AV-unprocessed.smi

> <i_m_source_file_index>
1517

> <i_lp_mmshare_version>
43012

> <i_f3d_flags>
0

> <s_epik_input>
W09IXVtDSDJdW0NIMl1bTkhdYyhuMSluKGMoYzEyKVtjSF1bY0hdW2NIXVtjSF0yKVtDSDJdW0NASF0oW09IXSljM1tjSF1bY0hdYyhGKVtjSF1jM0Y=

> <s_epik_cmdline>
J2VwaWtfcHl0aG9uJywgJy1waCcsICc3LjAnLCAnLXRuJywgJzgnLCAnLW1hJywgJzIwMCcsICctbWV0YWxfYmluZGluZycsICctaW1hZScsICc8aW5maWxlLm1hZT4nLCAnLW9tYWUnLCAnPG91dGZpbGUubWFlPic=

> <r_epik_Ionization_Penalty>
0.0688096

> <r_epik_Ionization_Penalty_Charging>
0.0688055

> <r_epik_Ionization_Penalty_Neutral>
4.12262e-06

> <r_epik_State_Penalty>
0.0602293

> <r_epik_Charging_Adjusted_Penalty>
0.129035

> <i_epik_Tot_Q>
1

> <i_epik_Tot_abs_Q>
1

> <r_epik_Metal_State_Penalty>
2.77411

> <b_epik_Metal_Only>
0

> <s_lp_Force_Field>
OPLS_2005

> <r_lp_Energy>
23.6459

> <b_lp_Chiralities_Consistent>
1

> <s_lp_Variant>
AV-unprocessed.smi:1517-2

> <Gold.Version>
5.8.1

> <Gold.Id.Protein>
6NUR|6NUR_protein|mol2

> <Gold.PLP.Fitness>
57.8687

> <Gold.PLP.PLP>
-43.7684

> <Gold.PLP.part.hbond>
-4.2859

> <Gold.PLP.part.metal>
0.0000

> <Gold.PLP.part.buried>
-5.9965

> <Gold.PLP.part.nonpolar>
-34.5920

> <Gold.PLP.part.repulsive>
0.0681

> <Gold.PLP.ligand.clash>
0.0000

> <Gold.PLP.ligand.torsion>
0.9922

> <Gold.PLP.Chemscore.Hbond>
5.3412

> <Gold.PLP.Chemscore.CHOScore>
0.0000

> <Gold.PLP.Chemscore.Metal>
0.0000

> <Gold.Chemscore.Hbonds>
donor molecule, donor type, donor heavy atom, donor atom, acceptor molecule, acceptor atom, score
      L1  H     1    25       P1  7957  1.00
      L1  H     4    30       P1  7948  2.00
      L1  H     6    42       P1 10175  2.00
      L1  H    16    38       P1 10957  0.34

> <Gold.PLP.Chemscore.Internal.Correction>
0.0610

> <Gold.Rescore>
     Score         DG    S(hbond)    S(metal)    S(lipo)     H(rot)  DE(clash)    DE(int)     intcor
     17.41     -19.76       3.81        0.00      85.21       3.29       0.09       2.27       ----

> <Gold.Chemscore.Fitness>
17.4068

> <Gold.Chemscore.DG>
-19.7630

> <Gold.Chemscore.ZeroCoef>
-5.4800

> <Gold.Chemscore.Hbond>
3.8111

> <Gold.Chemscore.Metal>
0.0000

> <Gold.Chemscore.Lipo>
85.2124

> <Gold.Chemscore.Internal_Hbond>
0.0000

> <Gold.Chemscore.DEClash>
0.0861

> <Gold.Chemscore.DEInternal>
2.2702

> <Gold.Chemscore.Rot>
3.2874

> <Gold.Chemscore.Internal.Correction>
   9.000000E+99

> <Gold.Chemscore.Hbonds>
donor molecule, donor type, donor heavy atom, donor atom, acceptor molecule, acceptor atom, score
      L1  H     1    25       P1  7957  0.95
      L1  H     4    30       P1  7948  0.99
      L1  H     6    42       P1 10175  0.94
      L1  H    16    38       P1 10957  0.32

> <Gold.Chemscore.Hbond.Weighted>
-12.7290

> <Gold.Chemscore.Metal.Weighted>
-0.0000

> <Gold.Chemscore.Lipo.Weighted>
-9.9699

> <Gold.Chemscore.Internal_Hbond.Weighted>
0.0000

> <Gold.Chemscore.DEClash.Weighted>
0.0861

> <Gold.Chemscore.DEInternal.Weighted>
2.2702

> <Gold.Chemscore.Rot.Weighted>
8.4158

> <Gold.Chemscore.Internal.Correction.Weighted>
   9.000000E+99

> <Gold.Protein.RotatedTorsions>
[ 6907 6896 6895 6894 ] final  117.41 input  -60.11 | X-H torsion
[ 7974 7965 7964 7962 ] final  -26.71 input  175.53 | X-H torsion
[ 8008 7997 7996 7995 ] final  -95.66 input   59.86 | X-H torsion
[ 10167 10162 10161 10158 ] final -145.70 input  -65.29 | X-H torsion
[ 10718 10713 10712 10709 ] final -123.90 input   66.30 | X-H torsion
[ 10763 10752 10751 10750 ] final   35.10 input  -60.55 | X-H torsion
[ 11005 11000 10999 10996 ] final   63.65 input  -57.11 | X-H torsion

> <Gold.Protein.ActiveResidues>
 VAL166  LYS551  ARG553  GLY616  TRP617  ASP618  TYR619  PRO620  LYS621  CYS622 
 ASP623  PHE694  ASN695  SER759  ASP760  ASP761  ALA762  ILE779  LEU786  VAL792 
 PHE793  MET794  SER795  GLU796  ALA797  LYS798  CYS799  TRP800  GLU811  SER814 

> <Gold.Protein.RotatedAtoms>
  152.4614  133.7829  159.6860 H   0  0  0  0  0  0  0  0  0  0  0  0  # atno 6907 bound_to 6896
  150.8559  133.7706  159.3015 H   0  0  0  0  0  0  0  0  0  0  0  0  # atno 6908 bound_to 6896
  151.5287  135.1071  159.9949 H   0  0  0  0  0  0  0  0  0  0  0  0  # atno 6909 bound_to 6896
  146.1407  140.5056  142.8653 H   0  0  0  0  0  0  0  0  0  0  0  0  # atno 7974 bound_to 7965
  154.7643  140.0478  157.0999 H   0  0  0  0  0  0  0  0  0  0  0  0  # atno 8008 bound_to 7997
  154.9899  140.3112  155.4891 H   0  0  0  0  0  0  0  0  0  0  0  0  # atno 8009 bound_to 7997
  156.2910  140.2220  156.5003 H   0  0  0  0  0  0  0  0  0  0  0  0  # atno 8010 bound_to 7997
  139.7781  143.8140  152.2635 H   0  0  0  0  0  0  0  0  0  0  0  0  # atno 10167 bound_to 10162
  156.1542  130.6556  150.9957 H   0  0  0  0  0  0  0  0  0  0  0  0  # atno 10718 bound_to 10713
  153.0134  135.6342  154.1774 H   0  0  0  0  0  0  0  0  0  0  0  0  # atno 10763 bound_to 10752
  154.1514  135.2829  155.3136 H   0  0  0  0  0  0  0  0  0  0  0  0  # atno 10764 bound_to 10752
  154.6050  135.5575  153.7474 H   0  0  0  0  0  0  0  0  0  0  0  0  # atno 10765 bound_to 10752
  140.0011  134.6441  155.9930 H   0  0  0  0  0  0  0  0  0  0  0  0  # atno 11005 bound_to 11000
  144.7789  140.5798  143.6619 LP  0  0  0  0  0  0  0  0  0  0  0  0  # atno 17320 bound_to 7965
  145.5054  139.1481  143.3634 LP  0  0  0  0  0  0  0  0  0  0  0  0  # atno 17321 bound_to 7965
  139.8195  144.7302  150.9591 LP  0  0  0  0  0  0  0  0  0  0  0  0  # atno 17342 bound_to 10162
  140.7817  143.4173  151.0897 LP  0  0  0  0  0  0  0  0  0  0  0  0  # atno 17343 bound_to 10162
  157.6681  131.0867  150.7679 LP  0  0  0  0  0  0  0  0  0  0  0  0  # atno 17370 bound_to 10713
  156.7745  130.4839  149.5412 LP  0  0  0  0  0  0  0  0  0  0  0  0  # atno 17371 bound_to 10713
  141.1642  133.6537  156.4422 LP  0  0  0  0  0  0  0  0  0  0  0  0  # atno 17394 bound_to 11000
  140.4727  134.6738  157.5136 LP  0  0  0  0  0  0  0  0  0  0  0  0  # atno 17395 bound_to 11000

$$$$
