AV-unprocessed.smi:3|AV-procd|sdf|31|dock9
  -GOLD-   2262015143D 1   1.00000     0.00000
 Structure written by MMmdl.
 33 35  0  0  0  0  0  0  0  0  1 V2000
  152.3011  138.7458  159.0898 C   0  0  0  0  0  0  0  0  0  0  0  0
  151.9095  140.0361  158.5413 N   0  0  0  0  0  0  0  0  0  0  0  0
  150.8793  140.0794  157.5062 C   0  0  0  0  0  0  0  0  0  0  0  0
  151.4250  139.6746  156.1387 C   0  0  1  0  0  0  0  0  0  0  0  0
  152.2893  138.4117  156.0023 C   0  0  0  0  0  0  0  0  0  0  0  0
  151.6397  138.1562  154.6389 C   0  0  1  0  0  0  0  0  0  0  0  0
  151.3411  136.8189  154.3070 O   0  0  0  0  0  0  0  0  0  0  0  0
  150.4784  139.0368  155.1126 C   0  0  0  0  0  0  0  0  0  0  0  0
  152.2070  141.2294  159.2349 C   0  0  0  0  0  0  0  0  0  0  0  0
  152.8760  141.1099  160.4098 N   0  0  0  0  0  0  0  0  0  0  0  0
  153.1713  142.2445  161.0922 C   0  0  0  0  0  0  0  0  0  0  0  0
  152.8841  143.5226  160.7464 N   0  0  0  0  0  0  0  0  0  0  0  0
  152.2209  143.6712  159.5622 C   0  0  0  0  0  0  0  0  0  0  0  0
  151.8397  144.8053  158.9841 N   0  0  0  0  0  0  0  0  0  0  0  0
  151.2501  144.4588  157.8287 C   0  0  0  0  0  0  0  0  0  0  0  0
  151.2264  143.0296  157.6045 C   0  0  0  0  0  0  0  0  0  0  0  0
  151.8685  142.5389  158.7853 C   0  0  0  0  0  0  0  0  0  0  0  0
  151.9377  140.5096  155.6564 H   0  0  0  0  0  0  0  0  0  0  0  0
  152.1982  138.6264  153.8276 H   0  0  0  0  0  0  0  0  0  0  0  0
  153.2301  138.8197  159.6556 H   0  0  0  0  0  0  0  0  0  0  0  0
  152.4654  138.0306  158.2835 H   0  0  0  0  0  0  0  0  0  0  0  0
  151.5191  138.3469  159.7357 H   0  0  0  0  0  0  0  0  0  0  0  0
  150.0262  139.4579  157.7786 H   0  0  0  0  0  0  0  0  0  0  0  0
  150.4891  141.0964  157.4593 H   0  0  0  0  0  0  0  0  0  0  0  0
  153.3621  138.6043  155.9689 H   0  0  0  0  0  0  0  0  0  0  0  0
  152.0450  137.6458  156.7408 H   0  0  0  0  0  0  0  0  0  0  0  0
  151.1983  136.7907  153.3731 H   0  0  0  0  0  0  0  0  0  0  0  0
  149.6720  138.4642  155.5748 H   0  0  0  0  0  0  0  0  0  0  0  0
  150.0959  139.7291  154.3620 H   0  0  0  0  0  0  0  0  0  0  0  0
  153.7012  142.1126  162.0239 H   0  0  0  0  0  0  0  0  0  0  0  0
  150.8511  145.2076  157.1557 H   0  0  0  0  0  0  0  0  0  0  0  0
  150.8255  142.4938  156.7547 H   0  0  0  0  0  0  0  0  0  0  0  0
  153.1701  144.2781  161.3524 H   0  0  0  0  0  0  0  0  0  0  0  0
  1  2  1  0  0  0  0
  1 20  1  0  0  0  0
  1 21  1  0  0  0  0
  1 22  1  0  0  0  0
  2  3  1  0  0  0  0
  2  9  1  0  0  0  0
  3  4  1  0  0  0  0
  3 23  1  0  0  0  0
  3 24  1  0  0  0  0
  4 18  1  0  0  0  0
  4  8  1  0  0  0  0
  4  5  1  0  0  0  0
  5  6  1  0  0  0  0
  5 25  1  0  0  0  0
  5 26  1  0  0  0  0
  6 19  1  0  0  0  0
  6  7  1  0  0  0  0
  6  8  1  0  0  0  0
  7 27  1  0  0  0  0
  8 28  1  0  0  0  0
  8 29  1  0  0  0  0
  9 17  2  0  0  0  0
  9 10  1  0  0  0  0
 10 11  2  0  0  0  0
 11 12  1  0  0  0  0
 11 30  1  0  0  0  0
 12 13  1  0  0  0  0
 12 33  1  0  0  0  0
 13 17  1  0  0  0  0
 13 14  2  0  0  0  0
 14 15  1  0  0  0  0
 15 16  2  0  0  0  0
 15 31  1  0  0  0  0
 16 17  1  0  0  0  0
 16 32  1  0  0  0  0
M  END
> <s_m_source_file>
AV-unprocessed.smi

> <i_m_source_file_index>
3

> <i_lp_mmshare_version>
43012

> <i_f3d_flags>
0

> <s_epik_input>
W25IXTFbY0hdW2NIXWMoYzEyKWMobltjSF1uMilOKFtDSDNdKVtDSDJdW0NASF0zW0NIMl1bQ0BASF0oW09IXSlbQ0gyXTM=

> <s_epik_cmdline>
J2VwaWtfcHl0aG9uJywgJy1waCcsICc3LjAnLCAnLXRuJywgJzgnLCAnLW1hJywgJzIwMCcsICctbWV0YWxfYmluZGluZycsICctaW1hZScsICc8aW5maWxlLm1hZT4nLCAnLW9tYWUnLCAnPG91dGZpbGUubWFlPic=

> <r_lp_tautomer_probability>
1.75997e-05

> <r_epik_Ionization_Penalty>
5.52529

> <r_epik_Ionization_Penalty_Charging>
0

> <r_epik_Ionization_Penalty_Neutral>
5.52529

> <r_epik_State_Penalty>
8.99615

> <r_epik_Charging_Adjusted_Penalty>
8.99615

> <i_epik_Tot_Q>
0

> <i_epik_Tot_abs_Q>
0

> <r_epik_Metal_State_Penalty>
6.01519

> <b_epik_Metal_Only>
1

> <s_lp_Force_Field>
OPLS_2005

> <r_lp_Energy>
25.1021

> <b_lp_Chiralities_Consistent>
1

> <s_lp_Variant>
AV-unprocessed.smi:3-5

> <Gold.Version>
5.8.1

> <Gold.Id.Protein>
6NUR|6NUR_protein|mol2

> <Gold.PLP.Fitness>
45.4611

> <Gold.PLP.PLP>
-37.8140

> <Gold.PLP.part.hbond>
-2.0000

> <Gold.PLP.part.metal>
0.0000

> <Gold.PLP.part.buried>
-6.0981

> <Gold.PLP.part.nonpolar>
-30.9428

> <Gold.PLP.part.repulsive>
0.1057

> <Gold.PLP.ligand.clash>
0.9229

> <Gold.PLP.ligand.torsion>
0.3994

> <Gold.PLP.Chemscore.Hbond>
1.9120

> <Gold.PLP.Chemscore.CHOScore>
0.7853

> <Gold.PLP.Chemscore.Metal>
0.0000

> <Gold.Chemscore.Hbonds>
donor molecule, donor type, donor heavy atom, donor atom, acceptor molecule, acceptor atom, score
      L1  H     7    27       P1  7949  0.96
      P1  H 10752 10765       L1     7  0.65
      L1  C    15    31       P1  8028  0.86

> <Gold.PLP.Chemscore.Internal.Correction>
1.2770

> <Gold.Rescore>
     Score         DG    S(hbond)    S(metal)    S(lipo)     H(rot)  DE(clash)    DE(int)     intcor
     13.52     -15.04       1.74        0.00      72.21       1.84       0.01       1.51       ----

> <Gold.Chemscore.Fitness>
13.5214

> <Gold.Chemscore.DG>
-15.0388

> <Gold.Chemscore.ZeroCoef>
-5.4800

> <Gold.Chemscore.Hbond>
1.7426

> <Gold.Chemscore.Metal>
0.0000

> <Gold.Chemscore.Lipo>
72.2057

> <Gold.Chemscore.Internal_Hbond>
0.0000

> <Gold.Chemscore.DEClash>
0.0073

> <Gold.Chemscore.DEInternal>
1.5100

> <Gold.Chemscore.Rot>
1.8396

> <Gold.Chemscore.Internal.Correction>
   9.000000E+99

> <Gold.Chemscore.Hbonds>
donor molecule, donor type, donor heavy atom, donor atom, acceptor molecule, acceptor atom, score
      L1  H     7    27       P1  7949  0.50
      P1  H 10752 10765       L1     7  0.05

> <Gold.Chemscore.Hbond.Weighted>
-5.8202

> <Gold.Chemscore.Metal.Weighted>
-0.0000

> <Gold.Chemscore.Lipo.Weighted>
-8.4481

> <Gold.Chemscore.Internal_Hbond.Weighted>
0.0000

> <Gold.Chemscore.DEClash.Weighted>
0.0073

> <Gold.Chemscore.DEInternal.Weighted>
1.5100

> <Gold.Chemscore.Rot.Weighted>
4.7095

> <Gold.Chemscore.Internal.Correction.Weighted>
   9.000000E+99

> <Gold.Protein.RotatedTorsions>
[ 6907 6896 6895 6894 ] final   65.16 input  -60.11 | X-H torsion
[ 7974 7965 7964 7962 ] final   97.50 input  175.53 | X-H torsion
[ 8008 7997 7996 7995 ] final -134.39 input   59.86 | X-H torsion
[ 10167 10162 10161 10158 ] final -175.60 input  -65.29 | X-H torsion
[ 10718 10713 10712 10709 ] final  104.14 input   66.30 | X-H torsion
[ 10763 10752 10751 10750 ] final  156.16 input  -60.55 | X-H torsion
[ 11005 11000 10999 10996 ] final  150.35 input  -57.11 | X-H torsion

> <Gold.Protein.ActiveResidues>
 VAL166  LYS551  ARG553  GLY616  TRP617  ASP618  TYR619  PRO620  LYS621  CYS622 
 ASP623  PHE694  ASN695  SER759  ASP760  ASP761  ALA762  ILE779  LEU786  VAL792 
 PHE793  MET794  SER795  GLU796  ALA797  LYS798  CYS799  TRP800  GLU811  SER814 

> <Gold.Protein.RotatedAtoms>
  152.4386  134.5636  159.9900 H   0  0  0  0  0  0  0  0  0  0  0  0  # atno 6907 bound_to 6896
  151.5740  133.3380  159.3003 H   0  0  0  0  0  0  0  0  0  0  0  0  # atno 6908 bound_to 6896
  150.8288  134.7566  159.6900 H   0  0  0  0  0  0  0  0  0  0  0  0  # atno 6909 bound_to 6896
  145.4246  139.2317  143.3177 H   0  0  0  0  0  0  0  0  0  0  0  0  # atno 7974 bound_to 7965
  155.3613  140.0483  157.3046 H   0  0  0  0  0  0  0  0  0  0  0  0  # atno 8008 bound_to 7997
  154.5176  140.2214  155.8999 H   0  0  0  0  0  0  0  0  0  0  0  0  # atno 8009 bound_to 7997
  156.1654  140.3107  155.8886 H   0  0  0  0  0  0  0  0  0  0  0  0  # atno 8010 bound_to 7997
  139.5572  144.1958  152.1180 H   0  0  0  0  0  0  0  0  0  0  0  0  # atno 10167 bound_to 10162
  157.6750  131.0796  150.5660 H   0  0  0  0  0  0  0  0  0  0  0  0  # atno 10718 bound_to 10713
  154.1798  135.2800  155.3055 H   0  0  0  0  0  0  0  0  0  0  0  0  # atno 10763 bound_to 10752
  154.6011  135.5529  153.7378 H   0  0  0  0  0  0  0  0  0  0  0  0  # atno 10764 bound_to 10752
  153.0141  135.6392  154.1938 H   0  0  0  0  0  0  0  0  0  0  0  0  # atno 10765 bound_to 10752
  140.1123  134.8916  157.1954 H   0  0  0  0  0  0  0  0  0  0  0  0  # atno 11005 bound_to 11000
  146.2639  140.4975  142.8842 LP  0  0  0  0  0  0  0  0  0  0  0  0  # atno 17320 bound_to 7965
  144.8222  140.6570  143.6345 LP  0  0  0  0  0  0  0  0  0  0  0  0  # atno 17321 bound_to 7965
  140.1465  144.5154  150.6713 LP  0  0  0  0  0  0  0  0  0  0  0  0  # atno 17342 bound_to 10162
  140.6847  143.2344  151.5291 LP  0  0  0  0  0  0  0  0  0  0  0  0  # atno 17343 bound_to 10162
  156.5963  130.4342  149.5916 LP  0  0  0  0  0  0  0  0  0  0  0  0  # atno 17370 bound_to 10713
  156.2543  130.6925  151.1673 LP  0  0  0  0  0  0  0  0  0  0  0  0  # atno 17371 bound_to 10713
  140.3074  134.3062  155.7275 LP  0  0  0  0  0  0  0  0  0  0  0  0  # atno 17394 bound_to 11000
  141.2133  133.7629  156.9728 LP  0  0  0  0  0  0  0  0  0  0  0  0  # atno 17395 bound_to 11000

$$$$
