AV-unprocessed.smi:676|AV-procd|sdf|3310|dock9
  -GOLD-   22720 0273D 1   1.00000     0.00000
 Structure written by MMmdl.
 42 43  0  0  0  0  0  0  0  0  1 V2000
  145.4612  137.5473  153.7715 C   0  0  0  0  0  0  0  0  0  0  0  0
  145.6840  138.8711  154.2395 O   0  0  0  0  0  0  0  0  0  0  0  0
  146.9421  139.4586  153.9034 C   0  0  2  0  0  0  0  0  0  0  0  0
  147.0616  139.6096  152.3787 C   0  0  0  0  0  0  0  0  0  0  0  0
  148.1120  138.7997  154.6573 C   0  0  0  0  0  0  0  0  0  0  0  0
  148.6362  140.2132  154.8993 C   0  0  2  0  0  0  0  0  0  0  0  0
  149.2546  140.3692  156.2112 N   0  0  0  0  0  0  0  0  0  0  0  0
  150.5476  140.6645  156.4061 C   0  0  0  0  0  0  0  0  0  0  0  0
  151.3460  140.8268  155.4818 O   0  0  0  0  0  0  0  0  0  0  0  0
  150.9865  140.8183  157.8693 C   0  0  0  0  0  0  0  0  0  0  0  0
  151.5168  142.1553  158.1840 N   0  0  0  0  0  0  0  0  0  0  0  0
  150.9530  143.2462  157.4924 C   0  0  0  0  0  0  0  0  0  0  0  0
  151.3677  144.5068  157.6957 C   0  0  0  0  0  0  0  0  0  0  0  0
  152.4222  144.7317  158.6560 C   0  0  0  0  0  0  0  0  0  0  0  0
  152.9710  143.6949  159.3201 C   0  0  0  0  0  0  0  0  0  0  0  0
  152.5237  142.3149  159.0976 C   0  0  0  0  0  0  0  0  0  0  0  0
  153.0236  141.3616  159.6956 O   0  0  0  0  0  0  0  0  0  0  0  0
  147.1718  140.7138  154.8069 C   0  0  0  0  0  0  0  0  0  0  0  0
  146.9750  142.0835  154.1495 C   0  0  0  0  0  0  0  0  0  0  0  0
  146.3683  140.7595  156.1225 C   0  0  0  0  0  0  0  0  0  0  0  0
  144.5212  137.1787  154.1820 H   0  0  0  0  0  0  0  0  0  0  0  0
  146.2489  136.8634  154.0875 H   0  0  0  0  0  0  0  0  0  0  0  0
  145.3763  137.5088  152.6858 H   0  0  0  0  0  0  0  0  0  0  0  0
  147.9517  140.1707  152.0948 H   0  0  0  0  0  0  0  0  0  0  0  0
  146.1998  140.1322  151.9634 H   0  0  0  0  0  0  0  0  0  0  0  0
  147.1368  138.6444  151.8787 H   0  0  0  0  0  0  0  0  0  0  0  0
  147.8103  138.2808  155.5692 H   0  0  0  0  0  0  0  0  0  0  0  0
  148.7608  138.1773  154.0403 H   0  0  0  0  0  0  0  0  0  0  0  0
  149.2605  140.5601  154.0727 H   0  0  0  0  0  0  0  0  0  0  0  0
  148.6597  140.2550  157.0190 H   0  0  0  0  0  0  0  0  0  0  0  0
  150.1301  140.5918  158.5061 H   0  0  0  0  0  0  0  0  0  0  0  0
  151.7269  140.0513  158.1037 H   0  0  0  0  0  0  0  0  0  0  0  0
  150.1756  142.9915  156.7865 H   0  0  0  0  0  0  0  0  0  0  0  0
  150.9275  145.3299  157.1523 H   0  0  0  0  0  0  0  0  0  0  0  0
  152.7738  145.7359  158.8420 H   0  0  0  0  0  0  0  0  0  0  0  0
  153.7597  143.8823  160.0342 H   0  0  0  0  0  0  0  0  0  0  0  0
  147.2325  142.8957  154.8302 H   0  0  0  0  0  0  0  0  0  0  0  0
  145.9406  142.2304  153.8379 H   0  0  0  0  0  0  0  0  0  0  0  0
  147.6022  142.2071  153.2669 H   0  0  0  0  0  0  0  0  0  0  0  0
  146.7194  141.5539  156.7820 H   0  0  0  0  0  0  0  0  0  0  0  0
  146.4371  139.8269  156.6828 H   0  0  0  0  0  0  0  0  0  0  0  0
  145.3094  140.9416  155.9363 H   0  0  0  0  0  0  0  0  0  0  0  0
  1  2  1  0  0  0  0
  1 21  1  0  0  0  0
  1 22  1  0  0  0  0
  1 23  1  0  0  0  0
  2  3  1  0  0  0  0
  3 18  1  0  0  0  0
  3  4  1  0  0  0  0
  3  5  1  0  0  0  0
  4 24  1  0  0  0  0
  4 25  1  0  0  0  0
  4 26  1  0  0  0  0
  5  6  1  0  0  0  0
  5 27  1  0  0  0  0
  5 28  1  0  0  0  0
  6  7  1  0  0  0  0
  6 18  1  0  0  0  0
  6 29  1  0  0  0  0
  7  8  1  0  0  0  0
  7 30  1  0  0  0  0
  8  9  2  0  0  0  0
  8 10  1  0  0  0  0
 10 11  1  0  0  0  0
 10 31  1  0  0  0  0
 10 32  1  0  0  0  0
 11 16  1  0  0  0  0
 11 12  1  0  0  0  0
 12 13  2  0  0  0  0
 12 33  1  0  0  0  0
 13 14  1  0  0  0  0
 13 34  1  0  0  0  0
 14 15  2  0  0  0  0
 14 35  1  0  0  0  0
 15 16  1  0  0  0  0
 15 36  1  0  0  0  0
 16 17  2  0  0  0  0
 18 19  1  0  0  0  0
 18 20  1  0  0  0  0
 19 37  1  0  0  0  0
 19 38  1  0  0  0  0
 19 39  1  0  0  0  0
 20 40  1  0  0  0  0
 20 41  1  0  0  0  0
 20 42  1  0  0  0  0
M  END
> <s_m_source_file>
AV-unprocessed.smi

> <i_m_source_file_index>
676

> <i_lp_mmshare_version>
43012

> <i_f3d_flags>
0

> <s_epik_input>
W0NIM11PW0NAQF0xKFtDSDNdKVtDSDJdW0NASF0oQzEoW0NIM10pW0NIM10pW05IXUMoPU8pW0NIMl1uMltjSF1bY0hdW2NIXVtjSF1jMj1P

> <s_epik_cmdline>
J2VwaWtfcHl0aG9uJywgJy1waCcsICc3LjAnLCAnLXRuJywgJzgnLCAnLW1hJywgJzIwMCcsICctbWV0YWxfYmluZGluZycsICctaW1hZScsICc8aW5maWxlLm1hZT4nLCAnLW9tYWUnLCAnPG91dGZpbGUubWFlPic=

> <r_lp_tautomer_probability>
1

> <r_epik_Ionization_Penalty>
4.09771e-07

> <r_epik_Ionization_Penalty_Charging>
3.90712e-07

> <r_epik_Ionization_Penalty_Neutral>
1.90591e-08

> <r_epik_State_Penalty>
-0

> <r_epik_Charging_Adjusted_Penalty>
3.90712e-07

> <i_epik_Tot_Q>
0

> <i_epik_Tot_abs_Q>
0

> <r_epik_Metal_State_Penalty>
-0

> <b_epik_Metal_Only>
0

> <s_lp_Force_Field>
OPLS_2005

> <r_lp_Energy>
31.4384

> <b_lp_Chiralities_Consistent>
1

> <s_lp_Variant>
AV-unprocessed.smi:676-4

> <Gold.Version>
5.8.1

> <Gold.Id.Protein>
6NUR|6NUR_protein|mol2

> <Gold.PLP.Fitness>
39.2203

> <Gold.PLP.PLP>
-35.2343

> <Gold.PLP.part.hbond>
-1.0000

> <Gold.PLP.part.metal>
0.0000

> <Gold.PLP.part.buried>
-2.6866

> <Gold.PLP.part.nonpolar>
-33.2295

> <Gold.PLP.part.repulsive>
0.9507

> <Gold.PLP.ligand.clash>
0.0000

> <Gold.PLP.ligand.torsion>
0.6302

> <Gold.PLP.Chemscore.Hbond>
0.7840

> <Gold.PLP.Chemscore.CHOScore>
0.8405

> <Gold.PLP.Chemscore.Metal>
0.0000

> <Gold.Chemscore.Hbonds>
donor molecule, donor type, donor heavy atom, donor atom, acceptor molecule, acceptor atom, score
      P1  H  7989  7998       L1     9  0.70
      L1  C    12    33       P1  8028  0.81

> <Gold.PLP.Chemscore.Internal.Correction>
0.3729

> <Gold.Rescore>
     Score         DG    S(hbond)    S(metal)    S(lipo)     H(rot)  DE(clash)    DE(int)     intcor
     14.00     -14.71       0.81        0.00      91.06       1.62       0.05       0.66       ----

> <Gold.Chemscore.Fitness>
13.9961

> <Gold.Chemscore.DG>
-14.7063

> <Gold.Chemscore.ZeroCoef>
-5.4800

> <Gold.Chemscore.Hbond>
0.8123

> <Gold.Chemscore.Metal>
0.0000

> <Gold.Chemscore.Lipo>
91.0589

> <Gold.Chemscore.Internal_Hbond>
0.0000

> <Gold.Chemscore.DEClash>
0.0540

> <Gold.Chemscore.DEInternal>
0.6562

> <Gold.Chemscore.Rot>
1.6175

> <Gold.Chemscore.Internal.Correction>
   9.000000E+99

> <Gold.Chemscore.Hbonds>
donor molecule, donor type, donor heavy atom, donor atom, acceptor molecule, acceptor atom, score
      P1  H  7989  7998       L1     9  0.68

> <Gold.Chemscore.Hbond.Weighted>
-2.7131

> <Gold.Chemscore.Metal.Weighted>
-0.0000

> <Gold.Chemscore.Lipo.Weighted>
-10.6539

> <Gold.Chemscore.Internal_Hbond.Weighted>
0.0000

> <Gold.Chemscore.DEClash.Weighted>
0.0540

> <Gold.Chemscore.DEInternal.Weighted>
0.6562

> <Gold.Chemscore.Rot.Weighted>
4.1408

> <Gold.Chemscore.Internal.Correction.Weighted>
   9.000000E+99

> <Gold.Protein.RotatedTorsions>
[ 6907 6896 6895 6894 ] final   20.34 input  -60.11 | X-H torsion
[ 7974 7965 7964 7962 ] final  126.54 input  175.53 | X-H torsion
[ 8008 7997 7996 7995 ] final   63.75 input   59.86 | X-H torsion
[ 10167 10162 10161 10158 ] final  -95.88 input  -65.29 | X-H torsion
[ 10718 10713 10712 10709 ] final  -13.77 input   66.30 | X-H torsion
[ 10763 10752 10751 10750 ] final -132.06 input  -60.55 | X-H torsion
[ 11005 11000 10999 10996 ] final -107.62 input  -57.11 | X-H torsion

> <Gold.Protein.ActiveResidues>
 VAL166  LYS551  ARG553  GLY616  TRP617  ASP618  TYR619  PRO620  LYS621  CYS622 
 ASP623  PHE694  ASN695  SER759  ASP760  ASP761  ALA762  ILE779  LEU786  VAL792 
 PHE793  MET794  SER795  GLU796  ALA797  LYS798  CYS799  TRP800  GLU811  SER814 

> <Gold.Protein.RotatedAtoms>
  151.8948  135.0402  160.0500 H   0  0  0  0  0  0  0  0  0  0  0  0  # atno 6907 bound_to 6896
  152.2406  133.5128  159.5276 H   0  0  0  0  0  0  0  0  0  0  0  0  # atno 6908 bound_to 6896
  150.7052  134.1010  159.4008 H   0  0  0  0  0  0  0  0  0  0  0  0  # atno 6909 bound_to 6896
  145.0606  139.3808  143.5008 H   0  0  0  0  0  0  0  0  0  0  0  0  # atno 7974 bound_to 7965
  155.6352  140.3496  155.4696 H   0  0  0  0  0  0  0  0  0  0  0  0  # atno 8008 bound_to 7997
  155.9971  140.1205  157.0607 H   0  0  0  0  0  0  0  0  0  0  0  0  # atno 8009 bound_to 7997
  154.4237  140.1108  156.5631 H   0  0  0  0  0  0  0  0  0  0  0  0  # atno 8010 bound_to 7997
  140.2995  143.3171  152.0262 H   0  0  0  0  0  0  0  0  0  0  0  0  # atno 10167 bound_to 10162
  156.6254  130.4887  149.6149 H   0  0  0  0  0  0  0  0  0  0  0  0  # atno 10718 bound_to 10713
  154.8746  135.3810  154.4348 H   0  0  0  0  0  0  0  0  0  0  0  0  # atno 10763 bound_to 10752
  153.5038  135.7030  153.5822 H   0  0  0  0  0  0  0  0  0  0  0  0  # atno 10764 bound_to 10752
  153.4142  135.3917  155.2036 H   0  0  0  0  0  0  0  0  0  0  0  0  # atno 10765 bound_to 10752
  141.0944  133.8997  157.1998 H   0  0  0  0  0  0  0  0  0  0  0  0  # atno 11005 bound_to 11000
  146.3524  140.0302  142.8651 LP  0  0  0  0  0  0  0  0  0  0  0  0  # atno 17320 bound_to 7965
  145.1413  140.9573  143.4487 LP  0  0  0  0  0  0  0  0  0  0  0  0  # atno 17321 bound_to 7965
  139.4918  144.6466  151.6765 LP  0  0  0  0  0  0  0  0  0  0  0  0  # atno 17342 bound_to 10162
  140.5663  144.0184  150.6194 LP  0  0  0  0  0  0  0  0  0  0  0  0  # atno 17343 bound_to 10162
  156.2277  130.6776  151.1432 LP  0  0  0  0  0  0  0  0  0  0  0  0  # atno 17370 bound_to 10713
  157.7215  131.0678  150.6114 LP  0  0  0  0  0  0  0  0  0  0  0  0  # atno 17371 bound_to 10713
  139.9777  135.0108  156.9673 LP  0  0  0  0  0  0  0  0  0  0  0  0  # atno 17394 bound_to 11000
  140.5175  134.0940  155.7284 LP  0  0  0  0  0  0  0  0  0  0  0  0  # atno 17395 bound_to 11000

$$$$
