AV-unprocessed.smi:1231|AV-procd|sdf|5162|dock4
  -GOLD-   22720 4233D 1   1.00000     0.00000
 Structure written by MMmdl.
 42 43  0  0  0  0  0  0  0  0  1 V2000
  150.9649  137.5216  155.7369 C   0  0  0  0  0  0  0  0  0  0  0  0
  151.1671  138.5813  154.6405 C   0  0  1  0  0  0  0  0  0  0  0  0
  149.9615  138.7183  153.6889 C   0  0  0  0  0  0  0  0  0  0  0  0
  148.8259  139.3994  154.3027 N   0  0  0  0  0  0  0  0  0  0  0  0
  147.7177  139.5174  153.3558 C   0  0  0  0  0  0  0  0  0  0  0  0
  146.5606  138.5251  153.5780 C   0  0  0  0  0  0  0  0  0  0  0  0
  146.7738  137.2879  152.8369 N   0  0  0  0  0  0  0  0  0  0  0  0
  145.8048  136.4663  152.4087 C   0  0  0  0  0  0  0  0  0  0  0  0
  144.6060  136.6741  152.5982 O   0  0  0  0  0  0  0  0  0  0  0  0
  146.3193  135.4062  151.7604 N   0  0  0  0  0  0  0  0  0  0  0  0
  145.6269  134.3180  151.1657 C   0  0  0  0  0  0  0  0  0  0  0  0
  146.4507  133.3540  150.5418 C   0  0  0  0  0  0  0  0  0  0  0  0
  145.8612  132.2344  149.9234 C   0  0  0  0  0  0  0  0  0  0  0  0
  144.4609  132.1082  149.9439 C   0  0  0  0  0  0  0  0  0  0  0  0
  143.7138  133.1130  150.5860 C   0  0  0  0  0  0  0  0  0  0  0  0
  144.2768  134.1864  151.1799 N   0  0  0  0  0  0  0  0  0  0  0  0
  149.2692  140.6950  154.8096 C   0  0  0  0  0  0  0  0  0  0  0  0
  150.4332  140.5573  155.8076 C   0  0  2  0  0  0  0  0  0  0  0  0
  150.9592  141.9201  156.2701 C   0  0  0  0  0  0  0  0  0  0  0  0
  151.5093  139.8542  155.1902 O   0  0  0  0  0  0  0  0  0  0  0  0
  150.8253  136.5333  155.2986 H   0  0  0  0  0  0  0  0  0  0  0  0
  150.0909  137.7302  156.3535 H   0  0  0  0  0  0  0  0  0  0  0  0
  151.8336  137.4717  156.3936 H   0  0  0  0  0  0  0  0  0  0  0  0
  152.0259  138.2642  154.0481 H   0  0  0  0  0  0  0  0  0  0  0  0
  150.2767  139.2718  152.8026 H   0  0  0  0  0  0  0  0  0  0  0  0
  149.6599  137.7298  153.3404 H   0  0  0  0  0  0  0  0  0  0  0  0
  147.3315  140.5379  153.3684 H   0  0  0  0  0  0  0  0  0  0  0  0
  148.1035  139.3569  152.3480 H   0  0  0  0  0  0  0  0  0  0  0  0
  146.4385  138.3114  154.6412 H   0  0  0  0  0  0  0  0  0  0  0  0
  145.6159  138.9432  153.2328 H   0  0  0  0  0  0  0  0  0  0  0  0
  147.7315  137.0391  152.6370 H   0  0  0  0  0  0  0  0  0  0  0  0
  147.3251  135.3722  151.6859 H   0  0  0  0  0  0  0  0  0  0  0  0
  147.5253  133.4665  150.5350 H   0  0  0  0  0  0  0  0  0  0  0  0
  146.4738  131.4863  149.4419 H   0  0  0  0  0  0  0  0  0  0  0  0
  143.9720  131.2642  149.4803 H   0  0  0  0  0  0  0  0  0  0  0  0
  142.6361  133.0541  150.6243 H   0  0  0  0  0  0  0  0  0  0  0  0
  149.5744  141.3317  153.9776 H   0  0  0  0  0  0  0  0  0  0  0  0
  148.4479  141.2065  155.3096 H   0  0  0  0  0  0  0  0  0  0  0  0
  150.0961  140.0049  156.6850 H   0  0  0  0  0  0  0  0  0  0  0  0
  150.1731  142.5009  156.7532 H   0  0  0  0  0  0  0  0  0  0  0  0
  151.3384  142.5024  155.4299 H   0  0  0  0  0  0  0  0  0  0  0  0
  151.7724  141.8008  156.9866 H   0  0  0  0  0  0  0  0  0  0  0  0
  1  2  1  0  0  0  0
  1 21  1  0  0  0  0
  1 22  1  0  0  0  0
  1 23  1  0  0  0  0
  2 20  1  0  0  0  0
  2  3  1  0  0  0  0
  2 24  1  0  0  0  0
  3  4  1  0  0  0  0
  3 25  1  0  0  0  0
  3 26  1  0  0  0  0
  4  5  1  0  0  0  0
  4 17  1  0  0  0  0
  5  6  1  0  0  0  0
  5 27  1  0  0  0  0
  5 28  1  0  0  0  0
  6  7  1  0  0  0  0
  6 29  1  0  0  0  0
  6 30  1  0  0  0  0
  7  8  1  0  0  0  0
  7 31  1  0  0  0  0
  8  9  2  0  0  0  0
  8 10  1  0  0  0  0
 10 11  1  0  0  0  0
 10 32  1  0  0  0  0
 11 16  1  0  0  0  0
 11 12  2  0  0  0  0
 12 13  1  0  0  0  0
 12 33  1  0  0  0  0
 13 14  2  0  0  0  0
 13 34  1  0  0  0  0
 14 15  1  0  0  0  0
 14 35  1  0  0  0  0
 15 16  2  0  0  0  0
 15 36  1  0  0  0  0
 17 18  1  0  0  0  0
 17 37  1  0  0  0  0
 17 38  1  0  0  0  0
 18 19  1  0  0  0  0
 18 20  1  0  0  0  0
 18 39  1  0  0  0  0
 19 40  1  0  0  0  0
 19 41  1  0  0  0  0
 19 42  1  0  0  0  0
M  END
> <s_m_source_file>
AV-unprocessed.smi

> <i_m_source_file_index>
1231

> <i_lp_mmshare_version>
43012

> <i_f3d_flags>
0

> <s_epik_input>
W0NIM11bQ0BASF0xW0NIMl1OKFtDSDJdW0NASF0oTzEpW0NIM10pW0NIMl1bQ0gyXVtOSF1DKD1PKVtOSF1jMltjSF1bY0hdW2NIXVtjSF1uMg==

> <s_epik_cmdline>
J2VwaWtfcHl0aG9uJywgJy1waCcsICc3LjAnLCAnLXRuJywgJzgnLCAnLW1hJywgJzIwMCcsICctbWV0YWxfYmluZGluZycsICctaW1hZScsICc8aW5maWxlLm1hZT4nLCAnLW9tYWUnLCAnPG91dGZpbGUubWFlPic=

> <r_epik_Ionization_Penalty>
0.266037

> <r_epik_Ionization_Penalty_Charging>
0

> <r_epik_Ionization_Penalty_Neutral>
0.266037

> <r_epik_State_Penalty>
0.257924

> <r_epik_Charging_Adjusted_Penalty>
0.257924

> <i_epik_Tot_Q>
0

> <i_epik_Tot_abs_Q>
0

> <r_epik_Metal_State_Penalty>
0.257923

> <b_epik_Metal_Only>
0

> <s_lp_Force_Field>
OPLS_2005

> <r_lp_Energy>
24.2682

> <b_lp_Chiralities_Consistent>
1

> <s_lp_Variant>
AV-unprocessed.smi:1231-3

> <Gold.Version>
5.8.1

> <Gold.Id.Protein>
6NUR|6NUR_protein|mol2

> <Gold.PLP.Fitness>
43.9172

> <Gold.PLP.PLP>
-34.1509

> <Gold.PLP.part.hbond>
-3.0000

> <Gold.PLP.part.metal>
0.0000

> <Gold.PLP.part.buried>
-2.0775

> <Gold.PLP.part.nonpolar>
-29.8587

> <Gold.PLP.part.repulsive>
0.5686

> <Gold.PLP.ligand.clash>
0.0000

> <Gold.PLP.ligand.torsion>
0.9967

> <Gold.PLP.Chemscore.Hbond>
2.9420

> <Gold.PLP.Chemscore.CHOScore>
0.9726

> <Gold.PLP.Chemscore.Metal>
0.0000

> <Gold.Chemscore.Hbonds>
donor molecule, donor type, donor heavy atom, donor atom, acceptor molecule, acceptor atom, score
      L1  H     7    31       P1  7948  1.00
      L1  H    10    32       P1  7948  1.00
      P1  H  7989  7998       L1    20  0.95
      L1  C    15    36       P1 10186  1.00

> <Gold.PLP.Chemscore.Internal.Correction>
0.0159

> <Gold.Rescore>
     Score         DG    S(hbond)    S(metal)    S(lipo)     H(rot)  DE(clash)    DE(int)     intcor
     16.37     -18.76       2.02        0.00      88.92       1.52       0.16       2.23       ----

> <Gold.Chemscore.Fitness>
16.3743

> <Gold.Chemscore.DG>
-18.7649

> <Gold.Chemscore.ZeroCoef>
-5.4800

> <Gold.Chemscore.Hbond>
2.0246

> <Gold.Chemscore.Metal>
0.0000

> <Gold.Chemscore.Lipo>
88.9241

> <Gold.Chemscore.Internal_Hbond>
0.0000

> <Gold.Chemscore.DEClash>
0.1638

> <Gold.Chemscore.DEInternal>
2.2268

> <Gold.Chemscore.Rot>
1.5162

> <Gold.Chemscore.Internal.Correction>
   9.000000E+99

> <Gold.Chemscore.Hbonds>
donor molecule, donor type, donor heavy atom, donor atom, acceptor molecule, acceptor atom, score
      L1  H     7    31       P1  7948  0.98
      L1  H    10    32       P1  7948  0.91
      P1  H  7989  7998       L1    20  0.05

> <Gold.Chemscore.Hbond.Weighted>
-6.7622

> <Gold.Chemscore.Metal.Weighted>
-0.0000

> <Gold.Chemscore.Lipo.Weighted>
-10.4041

> <Gold.Chemscore.Internal_Hbond.Weighted>
0.0000

> <Gold.Chemscore.DEClash.Weighted>
0.1638

> <Gold.Chemscore.DEInternal.Weighted>
2.2268

> <Gold.Chemscore.Rot.Weighted>
3.8814

> <Gold.Chemscore.Internal.Correction.Weighted>
   9.000000E+99

> <Gold.Protein.RotatedTorsions>
[ 6907 6896 6895 6894 ] final   21.69 input  -60.11 | X-H torsion
[ 7974 7965 7964 7962 ] final  -44.86 input  175.53 | X-H torsion
[ 8008 7997 7996 7995 ] final  109.40 input   59.86 | X-H torsion
[ 10167 10162 10161 10158 ] final  -58.22 input  -65.29 | X-H torsion
[ 10718 10713 10712 10709 ] final  135.31 input   66.30 | X-H torsion
[ 10763 10752 10751 10750 ] final  112.57 input  -60.55 | X-H torsion
[ 11005 11000 10999 10996 ] final    3.23 input  -57.11 | X-H torsion

> <Gold.Protein.ActiveResidues>
 VAL166  LYS551  ARG553  GLY616  TRP617  ASP618  TYR619  PRO620  LYS621  CYS622 
 ASP623  PHE694  ASN695  SER759  ASP760  ASP761  ALA762  ILE779  LEU786  VAL792 
 PHE793  MET794  SER795  GLU796  ALA797  LYS798  CYS799  TRP800  GLU811  SER814 

> <Gold.Protein.RotatedAtoms>
  151.9157  135.0320  160.0517 H   0  0  0  0  0  0  0  0  0  0  0  0  # atno 6907 bound_to 6896
  152.2242  133.5002  159.5187 H   0  0  0  0  0  0  0  0  0  0  0  0  # atno 6908 bound_to 6896
  150.7008  134.1219  159.4080 H   0  0  0  0  0  0  0  0  0  0  0  0  # atno 6909 bound_to 6896
  145.9878  140.7213  142.9331 H   0  0  0  0  0  0  0  0  0  0  0  0  # atno 7974 bound_to 7965
  156.1976  140.3058  155.9460 H   0  0  0  0  0  0  0  0  0  0  0  0  # atno 8008 bound_to 7997
  155.3029  140.0447  157.3047 H   0  0  0  0  0  0  0  0  0  0  0  0  # atno 8009 bound_to 7997
  154.5530  140.2297  155.8464 H   0  0  0  0  0  0  0  0  0  0  0  0  # atno 8010 bound_to 7997
  140.6210  143.2420  151.5480 H   0  0  0  0  0  0  0  0  0  0  0  0  # atno 10167 bound_to 10162
  157.4584  131.1071  150.9950 H   0  0  0  0  0  0  0  0  0  0  0  0  # atno 10718 bound_to 10713
  153.4797  135.3682  155.2435 H   0  0  0  0  0  0  0  0  0  0  0  0  # atno 10763 bound_to 10752
  154.8755  135.3951  154.3714 H   0  0  0  0  0  0  0  0  0  0  0  0  # atno 10764 bound_to 10752
  153.4316  135.7082  153.6292 H   0  0  0  0  0  0  0  0  0  0  0  0  # atno 10765 bound_to 10752
  140.5955  133.9884  155.8108 H   0  0  0  0  0  0  0  0  0  0  0  0  # atno 11005 bound_to 11000
  144.6880  140.3019  143.7262 LP  0  0  0  0  0  0  0  0  0  0  0  0  # atno 17320 bound_to 7965
  145.7674  139.1845  143.2232 LP  0  0  0  0  0  0  0  0  0  0  0  0  # atno 17321 bound_to 7965
  139.5439  144.2574  152.1404 LP  0  0  0  0  0  0  0  0  0  0  0  0  # atno 17342 bound_to 10162
  140.1794  144.4859  150.6536 LP  0  0  0  0  0  0  0  0  0  0  0  0  # atno 17343 bound_to 10162
  157.0756  130.5882  149.5410 LP  0  0  0  0  0  0  0  0  0  0  0  0  # atno 17370 bound_to 10713
  156.0017  130.5098  150.7688 LP  0  0  0  0  0  0  0  0  0  0  0  0  # atno 17371 bound_to 10713
  141.0907  133.9921  157.3242 LP  0  0  0  0  0  0  0  0  0  0  0  0  # atno 17394 bound_to 11000
  139.9255  135.0201  156.8219 LP  0  0  0  0  0  0  0  0  0  0  0  0  # atno 17395 bound_to 11000

$$$$
