AV-unprocessed.smi:3166|AV-procd|sdf|12094|dock4
  -GOLD-   2272017523D 1   1.00000     0.00000
 Structure written by MMmdl.
 41 42  0  0  0  0  0  0  0  0  2 V2000
  143.9102  136.1731  152.9793 C   0  0  0  0  0  0  0  0  0  0  0  0
  145.2227  135.8588  152.2422 C   0  0  1  0  0  0  0  0  0  0  0  0
  144.9351  135.3760  150.8058 C   0  0  0  0  0  0  0  0  0  0  0  0
  144.9178  133.9277  150.6854 N   0  0  0  0  0  0  0  0  0  0  0  0
  143.8264  133.0883  150.6038 C   0  0  0  0  0  0  0  0  0  0  0  0
  144.3010  131.8104  150.5252 C   0  0  0  0  0  0  0  0  0  0  0  0
  145.7137  131.9702  150.5763 C   0  0  0  0  0  0  0  0  0  0  0  0
  146.0793  133.2381  150.6764 N   0  0  0  0  0  0  0  0  0  0  0  0
  146.1153  137.0399  152.2112 N   0  3  0  0  0  0  0  0  0  0  0  0
  146.1875  137.8183  153.4673 C   0  0  0  0  0  0  0  0  0  0  0  0
  147.2150  138.9684  153.3815 C   0  0  0  0  0  0  0  0  0  0  0  0
  147.6237  139.0630  152.0283 O   0  0  0  0  0  0  0  0  0  0  0  0
  146.6116  140.3221  153.8333 C   0  0  0  0  0  0  0  0  0  0  0  0
  147.6528  141.4547  153.8811 C   0  0  0  0  0  0  0  0  0  0  0  0
  148.8513  141.0766  154.7620 C   0  0  0  0  0  0  0  0  0  0  0  0
  149.4914  139.7658  154.2848 C   0  0  0  0  0  0  0  0  0  0  0  0
  148.4599  138.6244  154.2338 C   0  0  0  0  0  0  0  0  0  0  0  0
  143.2427  135.3109  152.9697 H   0  0  0  0  0  0  0  0  0  0  0  0
  143.3818  137.0051  152.5125 H   0  0  0  0  0  0  0  0  0  0  0  0
  144.0823  136.4299  154.0242 H   0  0  0  0  0  0  0  0  0  0  0  0
  145.7323  135.0564  152.7780 H   0  0  0  0  0  0  0  0  0  0  0  0
  143.9674  135.7503  150.4692 H   0  0  0  0  0  0  0  0  0  0  0  0
  145.6804  135.7744  150.1155 H   0  0  0  0  0  0  0  0  0  0  0  0
  142.8137  133.4641  150.6085 H   0  0  0  0  0  0  0  0  0  0  0  0
  143.7266  130.8990  150.4483 H   0  0  0  0  0  0  0  0  0  0  0  0
  146.4783  131.2080  150.5466 H   0  0  0  0  0  0  0  0  0  0  0  0
  147.0509  136.7068  152.0235 H   0  0  0  0  0  0  0  0  0  0  0  0
  145.2025  138.2241  153.6983 H   0  0  0  0  0  0  0  0  0  0  0  0
  146.4517  137.1462  154.2853 H   0  0  0  0  0  0  0  0  0  0  0  0
  148.3448  139.6725  151.9754 H   0  0  0  0  0  0  0  0  0  0  0  0
  145.7927  140.6178  153.1767 H   0  0  0  0  0  0  0  0  0  0  0  0
  146.1754  140.2072  154.8268 H   0  0  0  0  0  0  0  0  0  0  0  0
  147.9976  141.6835  152.8719 H   0  0  0  0  0  0  0  0  0  0  0  0
  147.1897  142.3665  154.2595 H   0  0  0  0  0  0  0  0  0  0  0  0
  149.5904  141.8783  154.7490 H   0  0  0  0  0  0  0  0  0  0  0  0
  148.5267  140.9713  155.7980 H   0  0  0  0  0  0  0  0  0  0  0  0
  149.9340  139.9109  153.2987 H   0  0  0  0  0  0  0  0  0  0  0  0
  150.3111  139.4924  154.9498 H   0  0  0  0  0  0  0  0  0  0  0  0
  148.1449  138.3981  155.2536 H   0  0  0  0  0  0  0  0  0  0  0  0
  148.9373  137.7175  153.8600 H   0  0  0  0  0  0  0  0  0  0  0  0
  145.8361  137.6489  151.4559 H   0  0  0  0  0  0  0  0  0  0  0  0
  1  2  1  0  0  0  0
  1 18  1  0  0  0  0
  1 19  1  0  0  0  0
  1 20  1  0  0  0  0
  2  3  1  0  0  0  0
  2  9  1  0  0  0  0
  2 21  1  0  0  0  0
  3  4  1  0  0  0  0
  3 22  1  0  0  0  0
  3 23  1  0  0  0  0
  4  8  1  0  0  0  0
  4  5  1  0  0  0  0
  5  6  2  0  0  0  0
  5 24  1  0  0  0  0
  6  7  1  0  0  0  0
  6 25  1  0  0  0  0
  7  8  2  0  0  0  0
  7 26  1  0  0  0  0
  9 10  1  0  0  0  0
  9 27  1  0  0  0  0
  9 41  1  0  0  0  0
 10 11  1  0  0  0  0
 10 28  1  0  0  0  0
 10 29  1  0  0  0  0
 11 17  1  0  0  0  0
 11 12  1  0  0  0  0
 11 13  1  0  0  0  0
 12 30  1  0  0  0  0
 13 14  1  0  0  0  0
 13 31  1  0  0  0  0
 13 32  1  0  0  0  0
 14 15  1  0  0  0  0
 14 33  1  0  0  0  0
 14 34  1  0  0  0  0
 15 16  1  0  0  0  0
 15 35  1  0  0  0  0
 15 36  1  0  0  0  0
 16 17  1  0  0  0  0
 16 37  1  0  0  0  0
 16 38  1  0  0  0  0
 17 39  1  0  0  0  0
 17 40  1  0  0  0  0
M  CHG  1   9   1
M  END
> <s_m_source_file>
AV-unprocessed.smi

> <i_m_source_file_index>
3166

> <i_lp_mmshare_version>
43012

> <i_f3d_flags>
0

> <s_epik_input>
bjFbY0hdW2NIXVtjSF1uMVtDSDJdW0NAQEhdKFtDSDNdKVtOSF1bQ0gyXUMyKFtPSF0pW0NIMl1bQ0gyXVtDSDJdW0NIMl1bQ0gyXTI=

> <s_epik_cmdline>
J2VwaWtfcHl0aG9uJywgJy1waCcsICc3LjAnLCAnLXRuJywgJzgnLCAnLW1hJywgJzIwMCcsICctbWV0YWxfYmluZGluZycsICctaW1hZScsICc8aW5maWxlLm1hZT4nLCAnLW9tYWUnLCAnPG91dGZpbGUubWFlPic=

> <r_lp_tautomer_probability>
1

> <r_epik_Ionization_Penalty>
0.0111521

> <r_epik_Ionization_Penalty_Charging>
0.0111472

> <r_epik_Ionization_Penalty_Neutral>
4.96355e-06

> <r_epik_State_Penalty>
0.00856328

> <r_epik_Charging_Adjusted_Penalty>
0.0197104

> <i_epik_Tot_Q>
1

> <i_epik_Tot_abs_Q>
1

> <r_epik_Metal_State_Penalty>
0.00856387

> <b_epik_Metal_Only>
0

> <s_lp_Force_Field>
OPLS_2005

> <r_lp_Energy>
16.9358

> <b_lp_Chiralities_Consistent>
1

> <s_lp_Variant>
AV-unprocessed.smi:3166-2

> <Gold.Version>
5.8.1

> <Gold.Id.Protein>
6NUR|6NUR_protein|mol2

> <Gold.PLP.Fitness>
44.6932

> <Gold.PLP.PLP>
-34.2298

> <Gold.PLP.part.hbond>
-2.3707

> <Gold.PLP.part.metal>
0.0000

> <Gold.PLP.part.buried>
-5.6228

> <Gold.PLP.part.nonpolar>
-27.7170

> <Gold.PLP.part.repulsive>
0.2295

> <Gold.PLP.ligand.clash>
0.0000

> <Gold.PLP.ligand.torsion>
1.9391

> <Gold.PLP.Chemscore.Hbond>
2.7582

> <Gold.PLP.Chemscore.CHOScore>
2.0000

> <Gold.PLP.Chemscore.Metal>
0.0000

> <Gold.Chemscore.Hbonds>
donor molecule, donor type, donor heavy atom, donor atom, acceptor molecule, acceptor atom, score
      L1  H     9    27       P1  7948  2.00
      L1  H    12    30       P1  7957  0.84
      L1  C     5    24       P1 10186  1.00
      L1  C     7    26       P1 10747  1.00

> <Gold.PLP.Chemscore.Internal.Correction>
0.0672

> <Gold.Rescore>
     Score         DG    S(hbond)    S(metal)    S(lipo)     H(rot)  DE(clash)    DE(int)     intcor
     14.15     -15.91       1.81        0.00      85.48       2.20       0.02       1.75       ----

> <Gold.Chemscore.Fitness>
14.1452

> <Gold.Chemscore.DG>
-15.9097

> <Gold.Chemscore.ZeroCoef>
-5.4800

> <Gold.Chemscore.Hbond>
1.8137

> <Gold.Chemscore.Metal>
0.0000

> <Gold.Chemscore.Lipo>
85.4841

> <Gold.Chemscore.Internal_Hbond>
0.0000

> <Gold.Chemscore.DEClash>
0.0176

> <Gold.Chemscore.DEInternal>
1.7469

> <Gold.Chemscore.Rot>
2.1991

> <Gold.Chemscore.Internal.Correction>
   9.000000E+99

> <Gold.Chemscore.Hbonds>
donor molecule, donor type, donor heavy atom, donor atom, acceptor molecule, acceptor atom, score
      L1  H     9    27       P1  7948  0.99
      L1  H    12    30       P1  7957  0.77

> <Gold.Chemscore.Hbond.Weighted>
-6.0579

> <Gold.Chemscore.Metal.Weighted>
-0.0000

> <Gold.Chemscore.Lipo.Weighted>
-10.0016

> <Gold.Chemscore.Internal_Hbond.Weighted>
0.0000

> <Gold.Chemscore.DEClash.Weighted>
0.0176

> <Gold.Chemscore.DEInternal.Weighted>
1.7469

> <Gold.Chemscore.Rot.Weighted>
5.6298

> <Gold.Chemscore.Internal.Correction.Weighted>
   9.000000E+99

> <Gold.Protein.RotatedTorsions>
[ 6907 6896 6895 6894 ] final  152.64 input  -60.11 | X-H torsion
[ 7974 7965 7964 7962 ] final  110.41 input  175.53 | X-H torsion
[ 8008 7997 7996 7995 ] final  160.02 input   59.86 | X-H torsion
[ 10167 10162 10161 10158 ] final -109.61 input  -65.29 | X-H torsion
[ 10718 10713 10712 10709 ] final   64.07 input   66.30 | X-H torsion
[ 10763 10752 10751 10750 ] final  -15.89 input  -60.55 | X-H torsion
[ 11005 11000 10999 10996 ] final  173.78 input  -57.11 | X-H torsion

> <Gold.Protein.ActiveResidues>
 VAL166  LYS551  ARG553  GLY616  TRP617  ASP618  TYR619  PRO620  LYS621  CYS622 
 ASP623  PHE694  ASN695  SER759  ASP760  ASP761  ALA762  ILE779  LEU786  VAL792 
 PHE793  MET794  SER795  GLU796  ALA797  LYS798  CYS799  TRP800  GLU811  SER814 

> <Gold.Protein.RotatedAtoms>
  152.0839  133.4166  159.4513 H   0  0  0  0  0  0  0  0  0  0  0  0  # atno 6907 bound_to 6896
  150.6862  134.2950  159.4691 H   0  0  0  0  0  0  0  0  0  0  0  0  # atno 6908 bound_to 6896
  152.0794  134.9480  160.0624 H   0  0  0  0  0  0  0  0  0  0  0  0  # atno 6909 bound_to 6896
  145.2554  139.2723  143.4045 H   0  0  0  0  0  0  0  0  0  0  0  0  # atno 7974 bound_to 7965
  156.2200  140.1815  156.7499 H   0  0  0  0  0  0  0  0  0  0  0  0  # atno 8008 bound_to 7997
  154.5851  140.0660  156.9188 H   0  0  0  0  0  0  0  0  0  0  0  0  # atno 8009 bound_to 7997
  155.2434  140.3323  155.4292 H   0  0  0  0  0  0  0  0  0  0  0  0  # atno 8010 bound_to 7997
  140.1534  143.4180  152.1478 H   0  0  0  0  0  0  0  0  0  0  0  0  # atno 10167 bound_to 10162
  157.6014  130.9140  149.9798 H   0  0  0  0  0  0  0  0  0  0  0  0  # atno 10718 bound_to 10713
  153.5502  135.7012  153.5595 H   0  0  0  0  0  0  0  0  0  0  0  0  # atno 10763 bound_to 10752
  153.3522  135.3992  155.1655 H   0  0  0  0  0  0  0  0  0  0  0  0  # atno 10764 bound_to 10752
  154.8662  135.3768  154.5012 H   0  0  0  0  0  0  0  0  0  0  0  0  # atno 10765 bound_to 10752
  140.3442  134.7250  157.4223 H   0  0  0  0  0  0  0  0  0  0  0  0  # atno 11005 bound_to 11000
  146.3290  140.2956  142.8618 LP  0  0  0  0  0  0  0  0  0  0  0  0  # atno 17320 bound_to 7965
  144.9466  140.8134  143.5598 LP  0  0  0  0  0  0  0  0  0  0  0  0  # atno 17321 bound_to 7965
  139.5415  144.7260  151.4719 LP  0  0  0  0  0  0  0  0  0  0  0  0  # atno 17342 bound_to 10162
  140.6688  143.8339  150.6974 LP  0  0  0  0  0  0  0  0  0  0  0  0  # atno 17343 bound_to 10162
  156.1089  130.3651  150.0084 LP  0  0  0  0  0  0  0  0  0  0  0  0  # atno 17370 bound_to 10713
  156.8186  130.9350  151.3642 LP  0  0  0  0  0  0  0  0  0  0  0  0  # atno 17371 bound_to 10713
  140.0756  134.5802  155.8595 LP  0  0  0  0  0  0  0  0  0  0  0  0  # atno 17394 bound_to 11000
  141.2030  133.6629  156.6039 LP  0  0  0  0  0  0  0  0  0  0  0  0  # atno 17395 bound_to 11000

$$$$
