AV-unprocessed.smi:654|AV-procd|sdf|3213|dock3
  -GOLD-   22720 0153D 1   1.00000     0.00000
 Structure written by MMmdl.
 48 50  0  0  0  0  0  0  0  0  2 V2000
  147.7157  133.1793  155.2022 O   0  0  0  0  0  0  0  0  0  0  0  0
  148.6863  133.7478  154.7008 C   0  0  0  0  0  0  0  0  0  0  0  0
  148.8173  133.8915  153.3712 N   0  0  0  0  0  0  0  0  0  0  0  0
  147.8618  133.4261  152.3701 C   0  0  0  0  0  0  0  0  0  0  0  0
  146.4699  134.0728  152.5178 C   0  0  0  0  0  0  0  0  0  0  0  0
  145.4983  133.6837  151.4167 C   0  0  0  0  0  0  0  0  0  0  0  0
  145.9052  132.8312  150.3669 C   0  0  0  0  0  0  0  0  0  0  0  0
  144.9840  132.4942  149.3531 C   0  0  0  0  0  0  0  0  0  0  0  0
  143.6758  133.0170  149.4130 C   0  0  0  0  0  0  0  0  0  0  0  0
  143.3222  133.8288  150.4335 N   0  3  0  0  0  0  0  0  0  0  0  0
  144.1743  134.1747  151.4230 C   0  0  0  0  0  0  0  0  0  0  0  0
  149.7038  134.2697  155.4331 N   0  0  0  0  0  0  0  0  0  0  0  0
  149.9940  133.9796  156.8460 C   0  0  0  0  0  0  0  0  0  0  0  0
  149.5368  135.1675  157.7017 C   0  0  0  0  0  0  0  0  0  0  0  0
  150.4685  136.6694  157.2715 S   0  0  0  0  0  0  0  0  0  0  0  0
  150.2945  136.7033  155.4462 C   0  0  0  0  0  0  0  0  0  0  0  0
  148.8661  137.1594  155.0416 C   0  0  0  0  0  0  0  0  0  0  0  0
  148.5724  138.6306  155.3870 C   0  0  0  0  0  0  0  0  0  0  0  0
  149.6169  139.5692  154.7695 C   0  0  0  0  0  0  0  0  0  0  0  0
  151.0331  139.1683  155.2015 C   0  0  0  0  0  0  0  0  0  0  0  0
  151.3261  137.6971  154.8554 C   0  0  0  0  0  0  0  0  0  0  0  0
  150.6152  135.2883  154.8909 C   0  0  0  0  0  0  0  0  0  0  0  0
  149.6449  134.3574  153.0285 H   0  0  0  0  0  0  0  0  0  0  0  0
  148.2744  133.6747  151.3921 H   0  0  0  0  0  0  0  0  0  0  0  0
  147.7822  132.3383  152.4020 H   0  0  0  0  0  0  0  0  0  0  0  0
  146.0393  133.8000  153.4820 H   0  0  0  0  0  0  0  0  0  0  0  0
  146.5690  135.1588  152.5327 H   0  0  0  0  0  0  0  0  0  0  0  0
  146.9125  132.4419  150.3361 H   0  0  0  0  0  0  0  0  0  0  0  0
  145.2770  131.8443  148.5414 H   0  0  0  0  0  0  0  0  0  0  0  0
  142.9077  132.8120  148.6815 H   0  0  0  0  0  0  0  0  0  0  0  0
  143.7756  134.8336  152.1811 H   0  0  0  0  0  0  0  0  0  0  0  0
  149.5281  133.0620  157.2057 H   0  0  0  0  0  0  0  0  0  0  0  0
  151.0647  133.8173  156.9784 H   0  0  0  0  0  0  0  0  0  0  0  0
  148.4701  135.3502  157.5681 H   0  0  0  0  0  0  0  0  0  0  0  0
  149.6920  134.9549  158.7594 H   0  0  0  0  0  0  0  0  0  0  0  0
  148.7396  137.0247  153.9665 H   0  0  0  0  0  0  0  0  0  0  0  0
  148.1094  136.5312  155.5104 H   0  0  0  0  0  0  0  0  0  0  0  0
  147.5785  138.9009  155.0294 H   0  0  0  0  0  0  0  0  0  0  0  0
  148.5528  138.7637  156.4690 H   0  0  0  0  0  0  0  0  0  0  0  0
  149.5420  139.5363  153.6818 H   0  0  0  0  0  0  0  0  0  0  0  0
  149.4140  140.5993  155.0639 H   0  0  0  0  0  0  0  0  0  0  0  0
  151.7634  139.8135  154.7123 H   0  0  0  0  0  0  0  0  0  0  0  0
  151.1515  139.3337  156.2727 H   0  0  0  0  0  0  0  0  0  0  0  0
  152.3303  137.4385  155.1931 H   0  0  0  0  0  0  0  0  0  0  0  0
  151.3417  137.5983  153.7690 H   0  0  0  0  0  0  0  0  0  0  0  0
  151.6422  135.0164  155.1395 H   0  0  0  0  0  0  0  0  0  0  0  0
  150.5919  135.3049  153.8000 H   0  0  0  0  0  0  0  0  0  0  0  0
  142.3706  134.1964  150.4584 H   0  0  0  0  0  0  0  0  0  0  0  0
  1  2  2  0  0  0  0
  2  3  1  0  0  0  0
  2 12  1  0  0  0  0
  3  4  1  0  0  0  0
  3 23  1  0  0  0  0
  4  5  1  0  0  0  0
  4 24  1  0  0  0  0
  4 25  1  0  0  0  0
  5  6  1  0  0  0  0
  5 26  1  0  0  0  0
  5 27  1  0  0  0  0
  6 11  1  0  0  0  0
  6  7  2  0  0  0  0
  7  8  1  0  0  0  0
  7 28  1  0  0  0  0
  8  9  2  0  0  0  0
  8 29  1  0  0  0  0
  9 10  1  0  0  0  0
  9 30  1  0  0  0  0
 10 11  2  0  0  0  0
 10 48  1  0  0  0  0
 11 31  1  0  0  0  0
 12 22  1  0  0  0  0
 12 13  1  0  0  0  0
 13 14  1  0  0  0  0
 13 32  1  0  0  0  0
 13 33  1  0  0  0  0
 14 15  1  0  0  0  0
 14 34  1  0  0  0  0
 14 35  1  0  0  0  0
 15 16  1  0  0  0  0
 16 21  1  0  0  0  0
 16 17  1  0  0  0  0
 16 22  1  0  0  0  0
 17 18  1  0  0  0  0
 17 36  1  0  0  0  0
 17 37  1  0  0  0  0
 18 19  1  0  0  0  0
 18 38  1  0  0  0  0
 18 39  1  0  0  0  0
 19 20  1  0  0  0  0
 19 40  1  0  0  0  0
 19 41  1  0  0  0  0
 20 21  1  0  0  0  0
 20 42  1  0  0  0  0
 20 43  1  0  0  0  0
 21 44  1  0  0  0  0
 21 45  1  0  0  0  0
 22 46  1  0  0  0  0
 22 47  1  0  0  0  0
M  CHG  1  10   1
M  END
> <s_m_source_file>
AV-unprocessed.smi

> <i_m_source_file_index>
654

> <i_lp_mmshare_version>
43012

> <i_f3d_flags>
0

> <s_epik_input>
W2NIXTFuW2NIXVtjSF1bY0hdYzFbQ0gyXVtDSDJdW05IXUMoPU8pTihbQ0gyXTIpW0NIMl1bQ0gyXVNDMjNbQ0gyXVtDSDJdW0NIMl1bQ0gyXVtDSDJdMw==

> <s_epik_cmdline>
J2VwaWtfcHl0aG9uJywgJy1waCcsICc3LjAnLCAnLXRuJywgJzgnLCAnLW1hJywgJzIwMCcsICctbWV0YWxfYmluZGluZycsICctaW1hZScsICc8aW5maWxlLm1hZT4nLCAnLW9tYWUnLCAnPG91dGZpbGUubWFlPic=

> <r_epik_Ionization_Penalty>
2.2093

> <r_epik_Ionization_Penalty_Charging>
2.20925

> <r_epik_Ionization_Penalty_Neutral>
4.66963e-05

> <r_epik_State_Penalty>
2.35335

> <r_epik_Charging_Adjusted_Penalty>
4.5626

> <i_epik_Tot_Q>
1

> <i_epik_Tot_abs_Q>
1

> <r_epik_Metal_State_Penalty>
2.36748

> <b_epik_Metal_Only>
0

> <s_lp_Force_Field>
OPLS_2005

> <r_lp_Energy>
39.5462

> <b_lp_Chiralities_Consistent>
1

> <s_lp_Variant>
AV-unprocessed.smi:654-2

> <Gold.Version>
5.8.1

> <Gold.Id.Protein>
6NUR|6NUR_protein|mol2

> <Gold.PLP.Fitness>
42.6048

> <Gold.PLP.PLP>
-37.3517

> <Gold.PLP.part.hbond>
-2.0000

> <Gold.PLP.part.metal>
0.0000

> <Gold.PLP.part.buried>
-3.4289

> <Gold.PLP.part.nonpolar>
-32.8217

> <Gold.PLP.part.repulsive>
0.0448

> <Gold.PLP.ligand.clash>
0.4597

> <Gold.PLP.ligand.torsion>
0.1511

> <Gold.PLP.Chemscore.Hbond>
2.0000

> <Gold.PLP.Chemscore.CHOScore>
0.0000

> <Gold.PLP.Chemscore.Metal>
0.0000

> <Gold.Chemscore.Hbonds>
donor molecule, donor type, donor heavy atom, donor atom, acceptor molecule, acceptor atom, score
      L1  H    10    48       P1 10186  1.79

> <Gold.PLP.Chemscore.Internal.Correction>
0.0149

> <Gold.Rescore>
     Score         DG    S(hbond)    S(metal)    S(lipo)     H(rot)  DE(clash)    DE(int)     intcor
     17.31     -17.69       1.00        0.00     104.22       1.30       0.29       0.09       ----

> <Gold.Chemscore.Fitness>
17.3072

> <Gold.Chemscore.DG>
-17.6899

> <Gold.Chemscore.ZeroCoef>
-5.4800

> <Gold.Chemscore.Hbond>
0.9975

> <Gold.Chemscore.Metal>
0.0000

> <Gold.Chemscore.Lipo>
104.2231

> <Gold.Chemscore.Internal_Hbond>
0.0000

> <Gold.Chemscore.DEClash>
0.2896

> <Gold.Chemscore.DEInternal>
0.0930

> <Gold.Chemscore.Rot>
1.2953

> <Gold.Chemscore.Internal.Correction>
   9.000000E+99

> <Gold.Chemscore.Hbonds>
donor molecule, donor type, donor heavy atom, donor atom, acceptor molecule, acceptor atom, score
      L1  H    10    48       P1 10186  0.57

> <Gold.Chemscore.Hbond.Weighted>
-3.3316

> <Gold.Chemscore.Metal.Weighted>
-0.0000

> <Gold.Chemscore.Lipo.Weighted>
-12.1941

> <Gold.Chemscore.Internal_Hbond.Weighted>
0.0000

> <Gold.Chemscore.DEClash.Weighted>
0.2896

> <Gold.Chemscore.DEInternal.Weighted>
0.0930

> <Gold.Chemscore.Rot.Weighted>
3.3159

> <Gold.Chemscore.Internal.Correction.Weighted>
   9.000000E+99

> <Gold.Protein.RotatedTorsions>
[ 6907 6896 6895 6894 ] final  135.74 input  -60.11 | X-H torsion
[ 7974 7965 7964 7962 ] final   -8.53 input  175.53 | X-H torsion
[ 8008 7997 7996 7995 ] final -168.44 input   59.86 | X-H torsion
[ 10167 10162 10161 10158 ] final  160.13 input  -65.29 | X-H torsion
[ 10718 10713 10712 10709 ] final   24.33 input   66.30 | X-H torsion
[ 10763 10752 10751 10750 ] final -176.46 input  -60.55 | X-H torsion
[ 11005 11000 10999 10996 ] final  -40.37 input  -57.11 | X-H torsion

> <Gold.Protein.ActiveResidues>
 VAL166  LYS551  ARG553  GLY616  TRP617  ASP618  TYR619  PRO620  LYS621  CYS622 
 ASP623  PHE694  ASN695  SER759  ASP760  ASP761  ALA762  ILE779  LEU786  VAL792 
 PHE793  MET794  SER795  GLU796  ALA797  LYS798  CYS799  TRP800  GLU811  SER814 

> <Gold.Protein.RotatedAtoms>
  152.2971  133.5618  159.5594 H   0  0  0  0  0  0  0  0  0  0  0  0  # atno 6907 bound_to 6896
  150.7261  134.0345  159.3753 H   0  0  0  0  0  0  0  0  0  0  0  0  # atno 6908 bound_to 6896
  151.8247  135.0641  160.0480 H   0  0  0  0  0  0  0  0  0  0  0  0  # atno 6909 bound_to 6896
  146.2278  140.2482  142.8346 H   0  0  0  0  0  0  0  0  0  0  0  0  # atno 7974 bound_to 7965
  155.8914  140.1025  157.1416 H   0  0  0  0  0  0  0  0  0  0  0  0  # atno 8008 bound_to 7997
  154.4015  140.1310  156.4384 H   0  0  0  0  0  0  0  0  0  0  0  0  # atno 8009 bound_to 7997
  155.7529  140.3464  155.5162 H   0  0  0  0  0  0  0  0  0  0  0  0  # atno 8010 bound_to 7997
  139.4837  144.4663  151.8636 H   0  0  0  0  0  0  0  0  0  0  0  0  # atno 10167 bound_to 10162
  157.1782  130.6791  149.6103 H   0  0  0  0  0  0  0  0  0  0  0  0  # atno 10718 bound_to 10713
  154.5721  135.2829  155.0817 H   0  0  0  0  0  0  0  0  0  0  0  0  # atno 10763 bound_to 10752
  154.2186  135.6395  153.5141 H   0  0  0  0  0  0  0  0  0  0  0  0  # atno 10764 bound_to 10752
  153.0061  135.5509  154.6348 H   0  0  0  0  0  0  0  0  0  0  0  0  # atno 10765 bound_to 10752
  141.0169  133.6881  156.2312 H   0  0  0  0  0  0  0  0  0  0  0  0  # atno 11005 bound_to 11000
  144.9432  140.8100  143.5618 LP  0  0  0  0  0  0  0  0  0  0  0  0  # atno 17320 bound_to 7965
  145.2436  139.2062  143.4980 LP  0  0  0  0  0  0  0  0  0  0  0  0  # atno 17321 bound_to 7965
  140.4129  144.2345  150.5888 LP  0  0  0  0  0  0  0  0  0  0  0  0  # atno 17342 bound_to 10162
  140.4949  143.2336  151.8765 LP  0  0  0  0  0  0  0  0  0  0  0  0  # atno 17343 bound_to 10162
  155.9728  130.4655  150.6258 LP  0  0  0  0  0  0  0  0  0  0  0  0  # atno 17370 bound_to 10713
  157.3978  131.0805  151.1336 LP  0  0  0  0  0  0  0  0  0  0  0  0  # atno 17371 bound_to 10713
  140.6638  134.4939  157.5584 LP  0  0  0  0  0  0  0  0  0  0  0  0  # atno 17394 bound_to 11000
  139.9123  134.8320  156.1487 LP  0  0  0  0  0  0  0  0  0  0  0  0  # atno 17395 bound_to 11000

$$$$
