AV-unprocessed.smi:1995|AV-procd|sdf|8078|dock8
  -GOLD-   2272010293D 1   1.00000     0.00000
 Structure written by MMmdl.
 43 44  0  0  0  0  0  0  0  0  2 V2000
  148.7044  134.5382  157.7407 C   0  0  0  0  0  0  0  0  0  0  0  0
  149.3142  135.7132  156.9558 C   0  0  0  0  0  0  0  0  0  0  0  0
  149.1596  135.6548  155.4049 C   0  0  1  0  0  0  0  0  0  0  0  0
  149.9657  134.4473  154.8596 C   0  0  0  0  0  0  0  0  0  0  0  0
  147.6593  135.4250  155.0382 C   0  0  0  0  0  0  0  0  0  0  0  0
  147.4278  135.1421  153.6204 N   0  0  0  0  0  0  0  0  0  0  0  0
  146.4240  134.4041  153.1247 C   0  0  0  0  0  0  0  0  0  0  0  0
  145.5771  133.8512  153.8263 O   0  0  0  0  0  0  0  0  0  0  0  0
  146.4744  134.3546  151.7820 N   0  0  0  0  0  0  0  0  0  0  0  0
  145.6095  133.6578  150.8976 C   0  0  0  0  0  0  0  0  0  0  0  0
  144.2883  133.8567  150.8212 N   0  0  0  0  0  0  0  0  0  0  0  0
  143.6883  133.0314  149.8665 C   0  0  0  0  0  0  0  0  0  0  0  0
  144.5735  132.2022  149.2238 C   0  0  0  0  0  0  0  0  0  0  0  0
  146.2057  132.4268  149.7942 S   0  0  0  0  0  0  0  0  0  0  0  0
  149.6614  136.9265  154.7637 N   0  3  0  0  0  0  0  0  0  0  0  0
  148.8951  138.1620  155.0919 C   0  0  0  0  0  0  0  0  0  0  0  0
  149.3619  139.3327  154.2120 C   0  0  0  0  0  0  0  0  0  0  0  0
  150.7526  139.5472  154.4073 O   0  0  0  0  0  0  0  0  0  0  0  0
  151.5192  138.4120  154.0304 C   0  0  0  0  0  0  0  0  0  0  0  0
  151.1210  137.2014  154.8922 C   0  0  0  0  0  0  0  0  0  0  0  0
  148.8569  134.6791  158.8109 H   0  0  0  0  0  0  0  0  0  0  0  0
  149.1647  133.5872  157.4748 H   0  0  0  0  0  0  0  0  0  0  0  0
  147.6302  134.4528  157.5798 H   0  0  0  0  0  0  0  0  0  0  0  0
  148.8608  136.6256  157.3420 H   0  0  0  0  0  0  0  0  0  0  0  0
  150.3689  135.7697  157.2230 H   0  0  0  0  0  0  0  0  0  0  0  0
  149.4820  133.4987  155.0936 H   0  0  0  0  0  0  0  0  0  0  0  0
  150.9670  134.3942  155.2873 H   0  0  0  0  0  0  0  0  0  0  0  0
  150.0708  134.4889  153.7752 H   0  0  0  0  0  0  0  0  0  0  0  0
  147.2271  134.6283  155.6458 H   0  0  0  0  0  0  0  0  0  0  0  0
  147.0706  136.3080  155.2872 H   0  0  0  0  0  0  0  0  0  0  0  0
  148.0661  135.5680  152.9644 H   0  0  0  0  0  0  0  0  0  0  0  0
  147.2160  134.8762  151.3384 H   0  0  0  0  0  0  0  0  0  0  0  0
  142.6218  133.0996  149.7092 H   0  0  0  0  0  0  0  0  0  0  0  0
  144.3649  131.4759  148.4524 H   0  0  0  0  0  0  0  0  0  0  0  0
  147.8268  138.0243  154.9375 H   0  0  0  0  0  0  0  0  0  0  0  0
  149.0362  138.4273  156.1400 H   0  0  0  0  0  0  0  0  0  0  0  0
  149.1520  139.1385  153.1588 H   0  0  0  0  0  0  0  0  0  0  0  0
  148.8251  140.2424  154.4815 H   0  0  0  0  0  0  0  0  0  0  0  0
  151.3771  138.1979  152.9697 H   0  0  0  0  0  0  0  0  0  0  0  0
  152.5762  138.6401  154.1692 H   0  0  0  0  0  0  0  0  0  0  0  0
  151.3785  137.3966  155.9334 H   0  0  0  0  0  0  0  0  0  0  0  0
  151.7225  136.3557  154.5648 H   0  0  0  0  0  0  0  0  0  0  0  0
  149.5140  136.7782  153.7755 H   0  0  0  0  0  0  0  0  0  0  0  0
  1  2  1  0  0  0  0
  1 21  1  0  0  0  0
  1 22  1  0  0  0  0
  1 23  1  0  0  0  0
  2  3  1  0  0  0  0
  2 24  1  0  0  0  0
  2 25  1  0  0  0  0
  3  4  1  0  0  0  0
  3  5  1  0  0  0  0
  3 15  1  0  0  0  0
  4 26  1  0  0  0  0
  4 27  1  0  0  0  0
  4 28  1  0  0  0  0
  5  6  1  0  0  0  0
  5 29  1  0  0  0  0
  5 30  1  0  0  0  0
  6  7  1  0  0  0  0
  6 31  1  0  0  0  0
  7  8  2  0  0  0  0
  7  9  1  0  0  0  0
  9 10  1  0  0  0  0
  9 32  1  0  0  0  0
 10 14  1  0  0  0  0
 10 11  2  0  0  0  0
 11 12  1  0  0  0  0
 12 13  2  0  0  0  0
 12 33  1  0  0  0  0
 13 14  1  0  0  0  0
 13 34  1  0  0  0  0
 15 20  1  0  0  0  0
 15 16  1  0  0  0  0
 15 43  1  0  0  0  0
 16 17  1  0  0  0  0
 16 35  1  0  0  0  0
 16 36  1  0  0  0  0
 17 18  1  0  0  0  0
 17 37  1  0  0  0  0
 17 38  1  0  0  0  0
 18 19  1  0  0  0  0
 19 20  1  0  0  0  0
 19 39  1  0  0  0  0
 19 40  1  0  0  0  0
 20 41  1  0  0  0  0
 20 42  1  0  0  0  0
M  CHG  1  15   1
M  END
> <s_m_source_file>
AV-unprocessed.smi

> <i_m_source_file_index>
1995

> <i_lp_mmshare_version>
43012

> <i_f3d_flags>
0

> <s_epik_input>
W0NIMl0xW0NIMl1PW0NIMl1bQ0gyXU4xW0NAQF0oW0NIM10pKFtDSDJdW0NIM10pW0NIMl1bTkhdQyg9TylbTkhdYzJuW2NIXVtjSF1zMg==

> <s_epik_cmdline>
J2VwaWtfcHl0aG9uJywgJy1waCcsICc3LjAnLCAnLXRuJywgJzgnLCAnLW1hJywgJzIwMCcsICctbWV0YWxfYmluZGluZycsICctaW1hZScsICc8aW5maWxlLm1hZT4nLCAnLW9tYWUnLCAnPG91dGZpbGUubWFlPic=

> <r_lp_tautomer_probability>
0.999

> <r_epik_Ionization_Penalty>
0.55406

> <r_epik_Ionization_Penalty_Charging>
0.553838

> <r_epik_Ionization_Penalty_Neutral>
0.000222147

> <r_epik_State_Penalty>
0.564424

> <r_epik_Charging_Adjusted_Penalty>
1.11826

> <i_epik_Tot_Q>
1

> <i_epik_Tot_abs_Q>
1

> <r_epik_Metal_State_Penalty>
0.573776

> <b_epik_Metal_Only>
0

> <s_lp_Force_Field>
OPLS_2005

> <r_lp_Energy>
32.5614

> <b_lp_Chiralities_Consistent>
1

> <s_lp_Variant>
AV-unprocessed.smi:1995-3

> <Gold.Version>
5.8.1

> <Gold.Id.Protein>
6NUR|6NUR_protein|mol2

> <Gold.PLP.Fitness>
41.2259

> <Gold.PLP.PLP>
-26.5236

> <Gold.PLP.part.hbond>
-3.8459

> <Gold.PLP.part.metal>
0.0000

> <Gold.PLP.part.buried>
-1.7643

> <Gold.PLP.part.nonpolar>
-21.4633

> <Gold.PLP.part.repulsive>
0.4349

> <Gold.PLP.ligand.clash>
0.0000

> <Gold.PLP.ligand.torsion>
0.8649

> <Gold.PLP.Chemscore.Hbond>
4.4323

> <Gold.PLP.Chemscore.CHOScore>
1.0000

> <Gold.PLP.Chemscore.Metal>
0.0000

> <Gold.Chemscore.Hbonds>
donor molecule, donor type, donor heavy atom, donor atom, acceptor molecule, acceptor atom, score
      L1  H     6    31       P1  7948  1.00
      L1  H     9    32       P1  7948  0.46
      L1  H    15    43       P1  7948  1.95
      P1  H  7989  7998       L1    18  1.00
      L1  C    12    33       P1 10186  1.00

> <Gold.PLP.Chemscore.Internal.Correction>
0.1352

> <Gold.Rescore>
     Score         DG    S(hbond)    S(metal)    S(lipo)     H(rot)  DE(clash)    DE(int)     intcor
     17.05     -18.07       2.54        0.00      74.39       1.79       0.18       0.85       ----

> <Gold.Chemscore.Fitness>
17.0485

> <Gold.Chemscore.DG>
-18.0711

> <Gold.Chemscore.ZeroCoef>
-5.4800

> <Gold.Chemscore.Hbond>
2.5392

> <Gold.Chemscore.Metal>
0.0000

> <Gold.Chemscore.Lipo>
74.3855

> <Gold.Chemscore.Internal_Hbond>
0.0000

> <Gold.Chemscore.DEClash>
0.1762

> <Gold.Chemscore.DEInternal>
0.8464

> <Gold.Chemscore.Rot>
1.7942

> <Gold.Chemscore.Internal.Correction>
   9.000000E+99

> <Gold.Chemscore.Hbonds>
donor molecule, donor type, donor heavy atom, donor atom, acceptor molecule, acceptor atom, score
      L1  H     6    31       P1  7948  0.95
      L1  H     9    32       P1  7948  0.26
      L1  H    15    43       P1  7948  0.78
      P1  H  7989  7998       L1    18  0.25

> <Gold.Chemscore.Hbond.Weighted>
-8.4811

> <Gold.Chemscore.Metal.Weighted>
-0.0000

> <Gold.Chemscore.Lipo.Weighted>
-8.7031

> <Gold.Chemscore.Internal_Hbond.Weighted>
0.0000

> <Gold.Chemscore.DEClash.Weighted>
0.1762

> <Gold.Chemscore.DEInternal.Weighted>
0.8464

> <Gold.Chemscore.Rot.Weighted>
4.5931

> <Gold.Chemscore.Internal.Correction.Weighted>
   9.000000E+99

> <Gold.Protein.RotatedTorsions>
[ 6907 6896 6895 6894 ] final  -20.50 input  -60.11 | X-H torsion
[ 7974 7965 7964 7962 ] final   37.80 input  175.53 | X-H torsion
[ 8008 7997 7996 7995 ] final    7.30 input   59.86 | X-H torsion
[ 10167 10162 10161 10158 ] final   45.03 input  -65.29 | X-H torsion
[ 10718 10713 10712 10709 ] final  -14.31 input   66.30 | X-H torsion
[ 10763 10752 10751 10750 ] final    5.18 input  -60.55 | X-H torsion
[ 11005 11000 10999 10996 ] final  -50.73 input  -57.11 | X-H torsion

> <Gold.Protein.ActiveResidues>
 VAL166  LYS551  ARG553  GLY616  TRP617  ASP618  TYR619  PRO620  LYS621  CYS622 
 ASP623  PHE694  ASN695  SER759  ASP760  ASP761  ALA762  ILE779  LEU786  VAL792 
 PHE793  MET794  SER795  GLU796  ALA797  LYS798  CYS799  TRP800  GLU811  SER814 

> <Gold.Protein.RotatedAtoms>
  151.2473  135.0610  159.9047 H   0  0  0  0  0  0  0  0  0  0  0  0  # atno 6907 bound_to 6896
  152.5385  134.0370  159.8060 H   0  0  0  0  0  0  0  0  0  0  0  0  # atno 6908 bound_to 6896
  151.0573  133.5525  159.2668 H   0  0  0  0  0  0  0  0  0  0  0  0  # atno 6909 bound_to 6896
  146.1110  139.5849  142.9352 H   0  0  0  0  0  0  0  0  0  0  0  0  # atno 7974 bound_to 7965
  154.7520  140.2768  155.6284 H   0  0  0  0  0  0  0  0  0  0  0  0  # atno 8008 bound_to 7997
  156.2897  140.2676  156.2203 H   0  0  0  0  0  0  0  0  0  0  0  0  # atno 8009 bound_to 7997
  155.0125  140.0372  157.2394 H   0  0  0  0  0  0  0  0  0  0  0  0  # atno 8010 bound_to 7997
  140.3282  144.2621  150.6172 H   0  0  0  0  0  0  0  0  0  0  0  0  # atno 10167 bound_to 10162
  156.6178  130.4867  149.6176 H   0  0  0  0  0  0  0  0  0  0  0  0  # atno 10718 bound_to 10713
  153.2625  135.6924  153.7564 H   0  0  0  0  0  0  0  0  0  0  0  0  # atno 10763 bound_to 10752
  153.6618  135.3359  155.3130 H   0  0  0  0  0  0  0  0  0  0  0  0  # atno 10764 bound_to 10752
  154.8435  135.4479  154.1620 H   0  0  0  0  0  0  0  0  0  0  0  0  # atno 10765 bound_to 10752
  141.0832  133.6648  156.3774 H   0  0  0  0  0  0  0  0  0  0  0  0  # atno 11005 bound_to 11000
  145.5664  141.0399  143.2198 LP  0  0  0  0  0  0  0  0  0  0  0  0  # atno 17320 bound_to 7965
  144.7511  139.7191  143.7272 LP  0  0  0  0  0  0  0  0  0  0  0  0  # atno 17321 bound_to 7965
  140.5421  143.2221  151.8067 LP  0  0  0  0  0  0  0  0  0  0  0  0  # atno 17342 bound_to 10162
  139.4861  144.4587  151.9568 LP  0  0  0  0  0  0  0  0  0  0  0  0  # atno 17343 bound_to 10162
  156.2337  130.6809  151.1488 LP  0  0  0  0  0  0  0  0  0  0  0  0  # atno 17370 bound_to 10713
  157.7236  131.0665  150.6029 LP  0  0  0  0  0  0  0  0  0  0  0  0  # atno 17371 bound_to 10713
  140.5421  134.6110  157.5383 LP  0  0  0  0  0  0  0  0  0  0  0  0  # atno 17394 bound_to 11000
  139.9648  134.7392  156.0162 LP  0  0  0  0  0  0  0  0  0  0  0  0  # atno 17395 bound_to 11000

$$$$
