AV-unprocessed.smi:1650|AV-procd|sdf|6636|dock2
  -GOLD-   22720 7343D 1   1.00000     0.00000
 Structure written by MMmdl.
 30 31  0  0  0  0  0  0  0  0  1 V2000
  150.5191  134.1962  154.4356 C   0  0  0  0  0  0  0  0  0  0  0  0
  151.0180  135.5507  154.9281 C   0  0  0  0  0  0  0  0  0  0  0  0
  151.8006  135.6018  155.8759 O   0  0  0  0  0  0  0  0  0  0  0  0
  150.5512  136.6214  154.2631 N   0  0  0  0  0  0  0  0  0  0  0  0
  150.8463  137.9848  154.5129 C   0  0  0  0  0  0  0  0  0  0  0  0
  152.0495  138.7073  154.2734 C   0  0  0  0  0  0  0  0  0  0  0  0
  151.9279  139.9715  154.6495 N   0  0  0  0  0  0  0  0  0  0  0  0
  150.6633  140.0777  155.1289 N   0  0  0  0  0  0  0  0  0  0  0  0
  150.1920  141.3529  155.6389 C   0  0  0  0  0  0  0  0  0  0  0  0
  150.9706  141.7690  156.8877 C   0  0  0  0  0  0  0  0  0  0  0  0
  151.7913  140.9978  157.3845 O   0  0  0  0  0  0  0  0  0  0  0  0
  150.7024  142.9881  157.3795 N   0  0  0  0  0  0  0  0  0  0  0  0
  151.3204  143.5763  158.5229 C   0  0  0  0  0  0  0  0  0  0  0  0
  152.1057  144.8537  158.3184 C   0  0  0  0  0  0  0  0  0  0  0  0
  152.8327  143.5648  158.5857 C   0  0  0  0  0  0  0  0  0  0  0  0
  149.9770  138.8810  155.0582 C   0  0  0  0  0  0  0  0  0  0  0  0
  149.4410  134.2171  154.2740 H   0  0  0  0  0  0  0  0  0  0  0  0
  150.7379  133.4143  155.1636 H   0  0  0  0  0  0  0  0  0  0  0  0
  151.0046  133.9337  153.4954 H   0  0  0  0  0  0  0  0  0  0  0  0
  149.9167  136.4399  153.4990 H   0  0  0  0  0  0  0  0  0  0  0  0
  152.9870  138.3761  153.8526 H   0  0  0  0  0  0  0  0  0  0  0  0
  150.2879  142.1174  154.8662 H   0  0  0  0  0  0  0  0  0  0  0  0
  149.1303  141.2639  155.8728 H   0  0  0  0  0  0  0  0  0  0  0  0
  150.0139  143.5480  156.8971 H   0  0  0  0  0  0  0  0  0  0  0  0
  150.8022  143.4818  159.4764 H   0  0  0  0  0  0  0  0  0  0  0  0
  152.1610  145.2618  157.3109 H   0  0  0  0  0  0  0  0  0  0  0  0
  152.0788  145.5912  159.1182 H   0  0  0  0  0  0  0  0  0  0  0  0
  153.2937  143.4419  159.5638 H   0  0  0  0  0  0  0  0  0  0  0  0
  153.3730  143.1118  157.7565 H   0  0  0  0  0  0  0  0  0  0  0  0
  148.9567  138.7768  155.3972 H   0  0  0  0  0  0  0  0  0  0  0  0
  1  2  1  0  0  0  0
  1 17  1  0  0  0  0
  1 18  1  0  0  0  0
  1 19  1  0  0  0  0
  2  3  2  0  0  0  0
  2  4  1  0  0  0  0
  4  5  1  0  0  0  0
  4 20  1  0  0  0  0
  5 16  2  0  0  0  0
  5  6  1  0  0  0  0
  6  7  2  0  0  0  0
  6 21  1  0  0  0  0
  7  8  1  0  0  0  0
  8  9  1  0  0  0  0
  8 16  1  0  0  0  0
  9 10  1  0  0  0  0
  9 22  1  0  0  0  0
  9 23  1  0  0  0  0
 10 11  2  0  0  0  0
 10 12  1  0  0  0  0
 12 13  1  0  0  0  0
 12 24  1  0  0  0  0
 13 15  1  0  0  0  0
 13 14  1  0  0  0  0
 13 25  1  0  0  0  0
 14 15  1  0  0  0  0
 14 26  1  0  0  0  0
 14 27  1  0  0  0  0
 15 28  1  0  0  0  0
 15 29  1  0  0  0  0
 16 30  1  0  0  0  0
M  END
> <s_m_source_file>
AV-unprocessed.smi

> <i_m_source_file_index>
1650

> <i_lp_mmshare_version>
43012

> <i_f3d_flags>
0

> <s_epik_input>
W0NIM11DKD1PKVtOSF1jMVtjSF1ubihbY0hdMSlbQ0gyXUMoPU8pW05IXVtDSF0yW0NIMl1bQ0gyXTI=

> <s_epik_cmdline>
J2VwaWtfcHl0aG9uJywgJy1waCcsICc3LjAnLCAnLXRuJywgJzgnLCAnLW1hJywgJzIwMCcsICctbWV0YWxfYmluZGluZycsICctaW1hZScsICc8aW5maWxlLm1hZT4nLCAnLW9tYWUnLCAnPG91dGZpbGUubWFlPic=

> <r_lp_tautomer_probability>
1

> <r_epik_Ionization_Penalty>
3.66567e-06

> <r_epik_Ionization_Penalty_Charging>
0

> <r_epik_Ionization_Penalty_Neutral>
3.66567e-06

> <r_epik_State_Penalty>
-0

> <r_epik_Charging_Adjusted_Penalty>
0

> <i_epik_Tot_Q>
0

> <i_epik_Tot_abs_Q>
0

> <r_epik_Metal_State_Penalty>
-0

> <b_epik_Metal_Only>
0

> <s_lp_Force_Field>
OPLS_2005

> <r_lp_Energy>
20.9282

> <b_lp_Chiralities_Consistent>
1

> <s_lp_Variant>
AV-unprocessed.smi:1650-1

> <Gold.Version>
5.8.1

> <Gold.Id.Protein>
6NUR|6NUR_protein|mol2

> <Gold.PLP.Fitness>
44.8533

> <Gold.PLP.PLP>
-35.2219

> <Gold.PLP.part.hbond>
-4.5885

> <Gold.PLP.part.metal>
0.0000

> <Gold.PLP.part.buried>
-4.5533

> <Gold.PLP.part.nonpolar>
-25.3557

> <Gold.PLP.part.repulsive>
0.1550

> <Gold.PLP.ligand.clash>
0.0000

> <Gold.PLP.ligand.torsion>
0.7838

> <Gold.PLP.Chemscore.Hbond>
3.7206

> <Gold.PLP.Chemscore.CHOScore>
0.0000

> <Gold.PLP.Chemscore.Metal>
0.0000

> <Gold.Chemscore.Hbonds>
donor molecule, donor type, donor heavy atom, donor atom, acceptor molecule, acceptor atom, score
      L1  H     4    20       P1  7948  0.85
      L1  H    12    24       P1  8028  0.99
      P1  H  7989  7998       L1     7  0.54
      P1  H 10752 10763       L1     3  0.82

> <Gold.PLP.Chemscore.Internal.Correction>
0.0370

> <Gold.Rescore>
     Score         DG    S(hbond)    S(metal)    S(lipo)     H(rot)  DE(clash)    DE(int)     intcor
     16.16     -18.24       2.66        0.00      68.10       1.60       0.03       2.05       ----

> <Gold.Chemscore.Fitness>
16.1606

> <Gold.Chemscore.DG>
-18.2371

> <Gold.Chemscore.ZeroCoef>
-5.4800

> <Gold.Chemscore.Hbond>
2.6572

> <Gold.Chemscore.Metal>
0.0000

> <Gold.Chemscore.Lipo>
68.1008

> <Gold.Chemscore.Internal_Hbond>
0.0000

> <Gold.Chemscore.DEClash>
0.0304

> <Gold.Chemscore.DEInternal>
2.0461

> <Gold.Chemscore.Rot>
1.5960

> <Gold.Chemscore.Internal.Correction>
   9.000000E+99

> <Gold.Chemscore.Hbonds>
donor molecule, donor type, donor heavy atom, donor atom, acceptor molecule, acceptor atom, score
      L1  H     4    20       P1  7948  0.15
      L1  H    12    24       P1  8028  0.92
      P1  H  7989  7998       L1     7  0.04
      P1  H 10752 10763       L1     3  0.49

> <Gold.Chemscore.Hbond.Weighted>
-8.8749

> <Gold.Chemscore.Metal.Weighted>
-0.0000

> <Gold.Chemscore.Lipo.Weighted>
-7.9678

> <Gold.Chemscore.Internal_Hbond.Weighted>
0.0000

> <Gold.Chemscore.DEClash.Weighted>
0.0304

> <Gold.Chemscore.DEInternal.Weighted>
2.0461

> <Gold.Chemscore.Rot.Weighted>
4.0857

> <Gold.Chemscore.Internal.Correction.Weighted>
   9.000000E+99

> <Gold.Protein.RotatedTorsions>
[ 6907 6896 6895 6894 ] final  -57.38 input  -60.11 | X-H torsion
[ 7974 7965 7964 7962 ] final   -3.90 input  175.53 | X-H torsion
[ 8008 7997 7996 7995 ] final  -17.49 input   59.86 | X-H torsion
[ 10167 10162 10161 10158 ] final   77.64 input  -65.29 | X-H torsion
[ 10718 10713 10712 10709 ] final  104.21 input   66.30 | X-H torsion
[ 10763 10752 10751 10750 ] final  108.89 input  -60.55 | X-H torsion
[ 11005 11000 10999 10996 ] final -162.06 input  -57.11 | X-H torsion

> <Gold.Protein.ActiveResidues>
 VAL166  LYS551  ARG553  GLY616  TRP617  ASP618  TYR619  PRO620  LYS621  CYS622 
 ASP623  PHE694  ASN695  SER759  ASP760  ASP761  ALA762  ILE779  LEU786  VAL792 
 PHE793  MET794  SER795  GLU796  ALA797  LYS798  CYS799  TRP800  GLU811  SER814 

> <Gold.Protein.RotatedAtoms>
  150.8090  134.7234  159.6670 H   0  0  0  0  0  0  0  0  0  0  0  0  # atno 6907 bound_to 6896
  152.4210  134.5951  159.9994 H   0  0  0  0  0  0  0  0  0  0  0  0  # atno 6908 bound_to 6896
  151.6166  133.3305  159.3115 H   0  0  0  0  0  0  0  0  0  0  0  0  # atno 6909 bound_to 6896
  146.2382  140.1791  142.8332 H   0  0  0  0  0  0  0  0  0  0  0  0  # atno 7974 bound_to 7965
  154.4975  140.2141  155.9416 H   0  0  0  0  0  0  0  0  0  0  0  0  # atno 8008 bound_to 7997
  156.1389  140.3183  155.8433 H   0  0  0  0  0  0  0  0  0  0  0  0  # atno 8009 bound_to 7997
  155.4157  140.0493  157.3019 H   0  0  0  0  0  0  0  0  0  0  0  0  # atno 8010 bound_to 7997
  139.9794  144.5837  150.7914 H   0  0  0  0  0  0  0  0  0  0  0  0  # atno 10167 bound_to 10162
  157.6748  131.0798  150.5671 H   0  0  0  0  0  0  0  0  0  0  0  0  # atno 10718 bound_to 10713
  153.4270  135.3797  155.2147 H   0  0  0  0  0  0  0  0  0  0  0  0  # atno 10763 bound_to 10752
  154.8748  135.3831  154.4314 H   0  0  0  0  0  0  0  0  0  0  0  0  # atno 10764 bound_to 10752
  153.4841  135.7088  153.5984 H   0  0  0  0  0  0  0  0  0  0  0  0  # atno 10765 bound_to 10752
  140.6135  134.4825  157.5217 H   0  0  0  0  0  0  0  0  0  0  0  0  # atno 11005 bound_to 11000
  144.9949  140.8580  143.5317 LP  0  0  0  0  0  0  0  0  0  0  0  0  # atno 17320 bound_to 7965
  145.1802  139.2356  143.5296 LP  0  0  0  0  0  0  0  0  0  0  0  0  # atno 17321 bound_to 7965
  140.7494  143.2938  151.3258 LP  0  0  0  0  0  0  0  0  0  0  0  0  # atno 17342 bound_to 10162
  139.6421  144.0520  152.2562 LP  0  0  0  0  0  0  0  0  0  0  0  0  # atno 17343 bound_to 10162
  156.5973  130.4345  149.5911 LP  0  0  0  0  0  0  0  0  0  0  0  0  # atno 17370 bound_to 10713
  156.2535  130.6921  151.1666 LP  0  0  0  0  0  0  0  0  0  0  0  0  # atno 17371 bound_to 10713
  139.9182  134.8202  156.1295 LP  0  0  0  0  0  0  0  0  0  0  0  0  # atno 17394 bound_to 11000
  141.0792  133.6762  156.2300 LP  0  0  0  0  0  0  0  0  0  0  0  0  # atno 17395 bound_to 11000

$$$$
