AV-unprocessed.smi:2407|AV-procd|sdf|9519|dock10
  -GOLD-   2272013153D 1   1.00000     0.00000
 Structure written by MMmdl.
 38 39  0  0  0  0  0  0  0  0  1 V2000
  147.3824  137.2603  163.3078 C   0  0  0  0  0  0  0  0  0  0  0  0
  147.5262  136.5696  161.9837 C   0  0  0  0  0  0  0  0  0  0  0  0
  147.1408  135.1870  161.7733 C   0  0  0  0  0  0  0  0  0  0  0  0
  147.3069  134.6317  160.5537 C   0  0  0  0  0  0  0  0  0  0  0  0
  147.8672  135.3879  159.4357 C   0  0  0  0  0  0  0  0  0  0  0  0
  148.0488  134.9068  158.3173 O   0  0  0  0  0  0  0  0  0  0  0  0
  148.1801  136.6791  159.7494 N   0  0  0  0  0  0  0  0  0  0  0  0
  148.7658  137.5767  158.7482 C   0  0  0  0  0  0  0  0  0  0  0  0
  150.2901  137.7468  158.9571 C   0  0  1  0  0  0  0  0  0  0  0  0
  150.8956  136.4706  159.0036 O   0  0  0  0  0  0  0  0  0  0  0  0
  150.9633  138.5413  157.8283 C   0  0  0  0  0  0  0  0  0  0  0  0
  152.1990  139.0538  158.3083 O   0  0  0  0  0  0  0  0  0  0  0  0
  152.2354  140.3401  158.8055 C   0  0  0  0  0  0  0  0  0  0  0  0
  151.3792  141.3770  158.3540 C   0  0  0  0  0  0  0  0  0  0  0  0
  151.4698  142.6702  158.9011 C   0  0  0  0  0  0  0  0  0  0  0  0
  152.4134  142.9450  159.9053 C   0  0  0  0  0  0  0  0  0  0  0  0
  153.2662  141.9247  160.3631 C   0  0  0  0  0  0  0  0  0  0  0  0
  153.1846  140.6226  159.8192 C   0  0  0  0  0  0  0  0  0  0  0  0
  154.1034  139.5181  160.3314 C   0  0  0  0  0  0  0  0  0  0  0  0
  154.7292  139.8694  161.4555 F   0  0  0  0  0  0  0  0  0  0  0  0
  153.3818  138.4259  160.5812 F   0  0  0  0  0  0  0  0  0  0  0  0
  155.0294  139.2278  159.4169 F   0  0  0  0  0  0  0  0  0  0  0  0
  148.0176  137.2498  161.0002 N   0  0  0  0  0  0  0  0  0  0  0  0
  146.7694  136.6745  163.9930 H   0  0  0  0  0  0  0  0  0  0  0  0
  146.9105  138.2365  163.1917 H   0  0  0  0  0  0  0  0  0  0  0  0
  148.3565  137.4087  163.7741 H   0  0  0  0  0  0  0  0  0  0  0  0
  146.7267  134.6147  162.5903 H   0  0  0  0  0  0  0  0  0  0  0  0
  147.0201  133.6020  160.3987 H   0  0  0  0  0  0  0  0  0  0  0  0
  148.5388  137.2168  157.7425 H   0  0  0  0  0  0  0  0  0  0  0  0
  148.2682  138.5471  158.8029 H   0  0  0  0  0  0  0  0  0  0  0  0
  150.4992  138.2430  159.9063 H   0  0  0  0  0  0  0  0  0  0  0  0
  151.2521  136.2783  158.1492 H   0  0  0  0  0  0  0  0  0  0  0  0
  151.1445  137.8803  156.9789 H   0  0  0  0  0  0  0  0  0  0  0  0
  150.3142  139.3536  157.4959 H   0  0  0  0  0  0  0  0  0  0  0  0
  150.6410  141.2076  157.5854 H   0  0  0  0  0  0  0  0  0  0  0  0
  150.8131  143.4521  158.5490 H   0  0  0  0  0  0  0  0  0  0  0  0
  152.4824  143.9372  160.3262 H   0  0  0  0  0  0  0  0  0  0  0  0
  153.9813  142.1537  161.1388 H   0  0  0  0  0  0  0  0  0  0  0  0
  1  2  1  0  0  0  0
  1 24  1  0  0  0  0
  1 25  1  0  0  0  0
  1 26  1  0  0  0  0
  2 23  2  0  0  0  0
  2  3  1  0  0  0  0
  3  4  2  0  0  0  0
  3 27  1  0  0  0  0
  4  5  1  0  0  0  0
  4 28  1  0  0  0  0
  5  6  2  0  0  0  0
  5  7  1  0  0  0  0
  7  8  1  0  0  0  0
  7 23  1  0  0  0  0
  8  9  1  0  0  0  0
  8 29  1  0  0  0  0
  8 30  1  0  0  0  0
  9 10  1  0  0  0  0
  9 11  1  0  0  0  0
  9 31  1  0  0  0  0
 10 32  1  0  0  0  0
 11 12  1  0  0  0  0
 11 33  1  0  0  0  0
 11 34  1  0  0  0  0
 12 13  1  0  0  0  0
 13 18  1  0  0  0  0
 13 14  2  0  0  0  0
 14 15  1  0  0  0  0
 14 35  1  0  0  0  0
 15 16  2  0  0  0  0
 15 36  1  0  0  0  0
 16 17  1  0  0  0  0
 16 37  1  0  0  0  0
 17 18  2  0  0  0  0
 17 38  1  0  0  0  0
 18 19  1  0  0  0  0
 19 20  1  0  0  0  0
 19 21  1  0  0  0  0
 19 22  1  0  0  0  0
M  END
> <s_m_source_file>
AV-unprocessed.smi

> <i_m_source_file_index>
2407

> <i_lp_mmshare_version>
43012

> <i_f3d_flags>
0

> <s_epik_input>
W0NIM11jMVtjSF1bY0hdYyg9TyluKG4xKVtDSDJdW0NASF0oW09IXSlbQ0gyXU9jMltjSF1bY0hdW2NIXVtjSF1jMkMoRikoRilG

> <s_epik_cmdline>
J2VwaWtfcHl0aG9uJywgJy1waCcsICc3LjAnLCAnLXRuJywgJzgnLCAnLW1hJywgJzIwMCcsICctbWV0YWxfYmluZGluZycsICctaW1hZScsICc8aW5maWxlLm1hZT4nLCAnLW9tYWUnLCAnPG91dGZpbGUubWFlPic=

> <r_lp_tautomer_probability>
1

> <r_epik_Ionization_Penalty>
5.91655e-06

> <r_epik_Ionization_Penalty_Charging>
5.79937e-06

> <r_epik_Ionization_Penalty_Neutral>
1.17174e-07

> <r_epik_State_Penalty>
-0

> <r_epik_Charging_Adjusted_Penalty>
5.79937e-06

> <i_epik_Tot_Q>
0

> <i_epik_Tot_abs_Q>
0

> <r_epik_Metal_State_Penalty>
-0

> <b_epik_Metal_Only>
0

> <s_lp_Force_Field>
OPLS_2005

> <r_lp_Energy>
30.1001

> <b_lp_Chiralities_Consistent>
1

> <s_lp_Variant>
AV-unprocessed.smi:2407-2

> <Gold.Version>
5.8.1

> <Gold.Id.Protein>
6NUR|6NUR_protein|mol2

> <Gold.PLP.Fitness>
47.4382

> <Gold.PLP.PLP>
-41.7694

> <Gold.PLP.part.hbond>
-3.0000

> <Gold.PLP.part.metal>
0.0000

> <Gold.PLP.part.buried>
-4.2127

> <Gold.PLP.part.nonpolar>
-34.8821

> <Gold.PLP.part.repulsive>
0.0000

> <Gold.PLP.ligand.clash>
0.0310

> <Gold.PLP.ligand.torsion>
1.4739

> <Gold.PLP.Chemscore.Hbond>
2.6880

> <Gold.PLP.Chemscore.CHOScore>
0.0000

> <Gold.PLP.Chemscore.Metal>
0.0000

> <Gold.Chemscore.Hbonds>
donor molecule, donor type, donor heavy atom, donor atom, acceptor molecule, acceptor atom, score
      P1  H  6896  6909       L1    10  0.99
      P1  H  6931  6943       L1    23  0.82
      P1  H  6934  6947       L1    23  0.72

> <Gold.PLP.Chemscore.Internal.Correction>
0.5837

> <Gold.Rescore>
     Score         DG    S(hbond)    S(metal)    S(lipo)     H(rot)  DE(clash)    DE(int)     intcor
     12.85     -16.70       1.78        0.00     101.94       2.60       0.06       3.80       ----

> <Gold.Chemscore.Fitness>
12.8466

> <Gold.Chemscore.DG>
-16.7033

> <Gold.Chemscore.ZeroCoef>
-5.4800

> <Gold.Chemscore.Hbond>
1.7847

> <Gold.Chemscore.Metal>
0.0000

> <Gold.Chemscore.Lipo>
101.9439

> <Gold.Chemscore.Internal_Hbond>
0.0000

> <Gold.Chemscore.DEClash>
0.0610

> <Gold.Chemscore.DEInternal>
3.7958

> <Gold.Chemscore.Rot>
2.6035

> <Gold.Chemscore.Internal.Correction>
   9.000000E+99

> <Gold.Chemscore.Hbonds>
donor molecule, donor type, donor heavy atom, donor atom, acceptor molecule, acceptor atom, score
      P1  H  6896  6909       L1    10  0.37
      P1  H  6931  6943       L1    23  0.16
      P1  H  6934  6947       L1    23  0.45

> <Gold.Chemscore.Hbond.Weighted>
-5.9607

> <Gold.Chemscore.Metal.Weighted>
-0.0000

> <Gold.Chemscore.Lipo.Weighted>
-11.9274

> <Gold.Chemscore.Internal_Hbond.Weighted>
0.0000

> <Gold.Chemscore.DEClash.Weighted>
0.0610

> <Gold.Chemscore.DEInternal.Weighted>
3.7958

> <Gold.Chemscore.Rot.Weighted>
6.6649

> <Gold.Chemscore.Internal.Correction.Weighted>
   9.000000E+99

> <Gold.Protein.RotatedTorsions>
[ 6907 6896 6895 6894 ] final   85.42 input  -60.11 | X-H torsion
[ 7974 7965 7964 7962 ] final  -66.12 input  175.53 | X-H torsion
[ 8008 7997 7996 7995 ] final    2.49 input   59.86 | X-H torsion
[ 10167 10162 10161 10158 ] final   78.41 input  -65.29 | X-H torsion
[ 10718 10713 10712 10709 ] final -177.70 input   66.30 | X-H torsion
[ 10763 10752 10751 10750 ] final   44.73 input  -60.55 | X-H torsion
[ 11005 11000 10999 10996 ] final -102.68 input  -57.11 | X-H torsion

> <Gold.Protein.ActiveResidues>
 VAL166  LYS551  ARG553  GLY616  TRP617  ASP618  TYR619  PRO620  LYS621  CYS622 
 ASP623  PHE694  ASN695  SER759  ASP760  ASP761  ALA762  ILE779  LEU786  VAL792 
 PHE793  MET794  SER795  GLU796  ALA797  LYS798  CYS799  TRP800  GLU811  SER814 

> <Gold.Protein.RotatedAtoms>
  152.5374  134.2588  159.8927 H   0  0  0  0  0  0  0  0  0  0  0  0  # atno 6907 bound_to 6896
  151.2549  133.4325  159.2621 H   0  0  0  0  0  0  0  0  0  0  0  0  # atno 6908 bound_to 6896
  151.0506  134.9684  159.8265 H   0  0  0  0  0  0  0  0  0  0  0  0  # atno 6909 bound_to 6896
  145.7458  140.8932  143.0506 H   0  0  0  0  0  0  0  0  0  0  0  0  # atno 7974 bound_to 7965
  154.6922  140.2655  155.6801 H   0  0  0  0  0  0  0  0  0  0  0  0  # atno 8008 bound_to 7997
  156.2736  140.2789  156.1428 H   0  0  0  0  0  0  0  0  0  0  0  0  # atno 8009 bound_to 7997
  155.0880  140.0373  157.2650 H   0  0  0  0  0  0  0  0  0  0  0  0  # atno 8010 bound_to 7997
  139.9713  144.5892  150.7983 H   0  0  0  0  0  0  0  0  0  0  0  0  # atno 10167 bound_to 10162
  156.8334  130.9661  151.3105 H   0  0  0  0  0  0  0  0  0  0  0  0  # atno 10718 bound_to 10713
  152.9836  135.6062  154.3321 H   0  0  0  0  0  0  0  0  0  0  0  0  # atno 10763 bound_to 10752
  154.3023  135.2772  155.2607 H   0  0  0  0  0  0  0  0  0  0  0  0  # atno 10764 bound_to 10752
  154.4853  135.5906  153.6475 H   0  0  0  0  0  0  0  0  0  0  0  0  # atno 10765 bound_to 10752
  141.1179  133.8578  157.1390 H   0  0  0  0  0  0  0  0  0  0  0  0  # atno 11005 bound_to 11000
  144.6860  139.9523  143.7478 LP  0  0  0  0  0  0  0  0  0  0  0  0  # atno 17320 bound_to 7965
  146.0404  139.3416  143.0701 LP  0  0  0  0  0  0  0  0  0  0  0  0  # atno 17321 bound_to 7965
  140.7521  143.2984  151.3144 LP  0  0  0  0  0  0  0  0  0  0  0  0  # atno 17342 bound_to 10162
  139.6479  144.0416  152.2605 LP  0  0  0  0  0  0  0  0  0  0  0  0  # atno 17343 bound_to 10162
  157.6395  130.8794  149.9421 LP  0  0  0  0  0  0  0  0  0  0  0  0  # atno 17370 bound_to 10713
  156.0921  130.3662  150.0375 LP  0  0  0  0  0  0  0  0  0  0  0  0  # atno 17371 bound_to 10713
  140.0114  134.9986  157.0402 LP  0  0  0  0  0  0  0  0  0  0  0  0  # atno 17394 bound_to 11000
  140.4593  134.1500  155.7189 LP  0  0  0  0  0  0  0  0  0  0  0  0  # atno 17395 bound_to 11000

$$$$
