AV-unprocessed.smi:388|AV-procd|sdf|2475|dock8
  -GOLD-   2262022413D 1   1.00000     0.00000
 Structure written by MMmdl.
 34 35  0  0  0  0  0  0  0  0  1 V2000
  148.7329  132.8261  153.8787 C   0  0  0  0  0  0  0  0  0  0  0  0
  149.1522  134.2191  153.8787 N   0  0  0  0  0  0  0  0  0  0  0  0
  149.8882  134.7846  154.8451 C   0  0  0  0  0  0  0  0  0  0  0  0
  150.0743  134.2620  155.9462 O   0  0  0  0  0  0  0  0  0  0  0  0
  150.3758  135.9744  154.4466 N   0  0  0  0  0  0  0  0  0  0  0  0
  151.1539  136.8233  155.1487 C   0  0  0  0  0  0  0  0  0  0  0  0
  151.5672  136.6280  156.2931 O   0  0  0  0  0  0  0  0  0  0  0  0
  151.5284  138.1248  154.4294 C   0  0  0  0  0  0  0  0  0  0  0  0
  150.8295  139.2880  154.9584 N   0  0  0  0  0  0  0  0  0  0  0  0
  151.5390  140.1517  155.8328 C   0  0  0  0  0  0  0  0  0  0  0  0
  152.7155  139.9475  156.1387 O   0  0  0  0  0  0  0  0  0  0  0  0
  150.7624  141.2885  156.3228 C   0  0  0  0  0  0  0  0  0  0  0  0
  151.4059  142.1656  157.2440 C   0  0  0  0  0  0  0  0  0  0  0  0
  151.9102  142.8915  157.9910 N   0  0  0  0  0  0  0  0  0  0  0  0
  149.4901  141.4912  155.9182 C   0  0  0  0  0  0  0  0  0  0  0  0
  148.8511  140.6639  155.0178 N   0  0  0  0  0  0  0  0  0  0  0  0
  147.4582  140.8273  154.7097 C   0  0  0  0  0  0  0  0  0  0  0  0
  146.9921  140.8727  153.2671 C   0  0  0  0  0  0  0  0  0  0  0  0
  146.9901  142.1309  154.1001 C   0  0  0  0  0  0  0  0  0  0  0  0
  149.4919  139.4990  154.5418 C   0  0  0  0  0  0  0  0  0  0  0  0
  148.9082  138.7059  153.7986 O   0  0  0  0  0  0  0  0  0  0  0  0
  148.1611  132.6100  152.9762 H   0  0  0  0  0  0  0  0  0  0  0  0
  148.1017  132.6115  154.7420 H   0  0  0  0  0  0  0  0  0  0  0  0
  149.5960  132.1595  153.9033 H   0  0  0  0  0  0  0  0  0  0  0  0
  148.8616  134.7877  153.0965 H   0  0  0  0  0  0  0  0  0  0  0  0
  150.1221  136.2729  153.5160 H   0  0  0  0  0  0  0  0  0  0  0  0
  152.6006  138.3166  154.4977 H   0  0  0  0  0  0  0  0  0  0  0  0
  151.3262  138.0581  153.3593 H   0  0  0  0  0  0  0  0  0  0  0  0
  148.9496  142.3422  156.3073 H   0  0  0  0  0  0  0  0  0  0  0  0
  146.7708  140.3618  155.4139 H   0  0  0  0  0  0  0  0  0  0  0  0
  147.7403  140.8005  152.4799 H   0  0  0  0  0  0  0  0  0  0  0  0
  146.0304  140.4189  153.0376 H   0  0  0  0  0  0  0  0  0  0  0  0
  146.0260  142.5179  154.4231 H   0  0  0  0  0  0  0  0  0  0  0  0
  147.7385  142.8849  153.8630 H   0  0  0  0  0  0  0  0  0  0  0  0
  1  2  1  0  0  0  0
  1 22  1  0  0  0  0
  1 23  1  0  0  0  0
  1 24  1  0  0  0  0
  2  3  1  0  0  0  0
  2 25  1  0  0  0  0
  3  4  2  0  0  0  0
  3  5  1  0  0  0  0
  5  6  1  0  0  0  0
  5 26  1  0  0  0  0
  6  7  2  0  0  0  0
  6  8  1  0  0  0  0
  8  9  1  0  0  0  0
  8 27  1  0  0  0  0
  8 28  1  0  0  0  0
  9 20  1  0  0  0  0
  9 10  1  0  0  0  0
 10 11  2  0  0  0  0
 10 12  1  0  0  0  0
 12 13  1  0  0  0  0
 12 15  2  0  0  0  0
 13 14  3  0  0  0  0
 15 16  1  0  0  0  0
 15 29  1  0  0  0  0
 16 17  1  0  0  0  0
 16 20  1  0  0  0  0
 17 19  1  0  0  0  0
 17 18  1  0  0  0  0
 17 30  1  0  0  0  0
 18 19  1  0  0  0  0
 18 31  1  0  0  0  0
 18 32  1  0  0  0  0
 19 33  1  0  0  0  0
 19 34  1  0  0  0  0
 20 21  2  0  0  0  0
M  END
> <s_m_source_file>
AV-unprocessed.smi

> <i_m_source_file_index>
388

> <i_lp_mmshare_version>
43012

> <i_f3d_flags>
0

> <s_epik_input>
W0NIM11bTkhdQyg9TylbTkhdQyg9TylbQ0gyXW4xYyg9TyljKEMjTilbY0hdbihjMT1PKVtDSF0yW0NIMl1bQ0gyXTI=

> <s_epik_cmdline>
J2VwaWtfcHl0aG9uJywgJy1waCcsICc3LjAnLCAnLXRuJywgJzgnLCAnLW1hJywgJzIwMCcsICctbWV0YWxfYmluZGluZycsICctaW1hZScsICc8aW5maWxlLm1hZT4nLCAnLW9tYWUnLCAnPG91dGZpbGUubWFlPic=

> <r_lp_tautomer_probability>
1

> <r_epik_Ionization_Penalty>
2.95777e-05

> <r_epik_Ionization_Penalty_Charging>
6.31124e-11

> <r_epik_Ionization_Penalty_Neutral>
2.95776e-05

> <r_epik_State_Penalty>
-0

> <r_epik_Charging_Adjusted_Penalty>
6.31124e-11

> <i_epik_Tot_Q>
0

> <i_epik_Tot_abs_Q>
0

> <r_epik_Metal_State_Penalty>
-0

> <b_epik_Metal_Only>
0

> <s_lp_Force_Field>
OPLS_2005

> <r_lp_Energy>
33.5858

> <b_lp_Chiralities_Consistent>
1

> <s_lp_Variant>
AV-unprocessed.smi:388-1

> <Gold.Version>
5.8.1

> <Gold.Id.Protein>
6NUR|6NUR_protein|mol2

> <Gold.PLP.Fitness>
47.5515

> <Gold.PLP.PLP>
-37.3350

> <Gold.PLP.part.hbond>
-3.7981

> <Gold.PLP.part.metal>
0.0000

> <Gold.PLP.part.buried>
-4.8511

> <Gold.PLP.part.nonpolar>
-29.7839

> <Gold.PLP.part.repulsive>
1.1606

> <Gold.PLP.ligand.clash>
0.0000

> <Gold.PLP.ligand.torsion>
0.5403

> <Gold.PLP.Chemscore.Hbond>
2.7000

> <Gold.PLP.Chemscore.CHOScore>
1.0000

> <Gold.PLP.Chemscore.Metal>
0.0000

> <Gold.Chemscore.Hbonds>
donor molecule, donor type, donor heavy atom, donor atom, acceptor molecule, acceptor atom, score
      L1  H     2    25       P1  7948  0.85
      L1  H     5    26       P1  7948  0.55
      P1  H  7997  8008       L1    11  1.00
      L1  C    15    29       P1  8028  1.00

> <Gold.PLP.Chemscore.Internal.Correction>
0.1971

> <Gold.Rescore>
     Score         DG    S(hbond)    S(metal)    S(lipo)     H(rot)  DE(clash)    DE(int)     intcor
     11.16     -14.75       2.67        0.00      43.79       1.87       0.03       3.56       ----

> <Gold.Chemscore.Fitness>
11.1597

> <Gold.Chemscore.DG>
-14.7550

> <Gold.Chemscore.ZeroCoef>
-5.4800

> <Gold.Chemscore.Hbond>
2.6736

> <Gold.Chemscore.Metal>
0.0000

> <Gold.Chemscore.Lipo>
43.7934

> <Gold.Chemscore.Internal_Hbond>
0.0000

> <Gold.Chemscore.DEClash>
0.0344

> <Gold.Chemscore.DEInternal>
3.5608

> <Gold.Chemscore.Rot>
1.8667

> <Gold.Chemscore.Internal.Correction>
   9.000000E+99

> <Gold.Chemscore.Hbonds>
donor molecule, donor type, donor heavy atom, donor atom, acceptor molecule, acceptor atom, score
      L1  H     2    25       P1  7948  0.14
      L1  H     5    26       P1  7948  0.03
      P1  H  7997  8008       L1    11  0.99

> <Gold.Chemscore.Hbond.Weighted>
-8.9299

> <Gold.Chemscore.Metal.Weighted>
-0.0000

> <Gold.Chemscore.Lipo.Weighted>
-5.1238

> <Gold.Chemscore.Internal_Hbond.Weighted>
0.0000

> <Gold.Chemscore.DEClash.Weighted>
0.0344

> <Gold.Chemscore.DEInternal.Weighted>
3.5608

> <Gold.Chemscore.Rot.Weighted>
4.7787

> <Gold.Chemscore.Internal.Correction.Weighted>
   9.000000E+99

> <Gold.Protein.RotatedTorsions>
[ 6907 6896 6895 6894 ] final   21.39 input  -60.11 | X-H torsion
[ 7974 7965 7964 7962 ] final -157.95 input  175.53 | X-H torsion
[ 8008 7997 7996 7995 ] final  -32.37 input   59.86 | X-H torsion
[ 10167 10162 10161 10158 ] final   38.09 input  -65.29 | X-H torsion
[ 10718 10713 10712 10709 ] final    8.73 input   66.30 | X-H torsion
[ 10763 10752 10751 10750 ] final  117.99 input  -60.55 | X-H torsion
[ 11005 11000 10999 10996 ] final  136.01 input  -57.11 | X-H torsion

> <Gold.Protein.ActiveResidues>
 VAL166  LYS551  ARG553  GLY616  TRP617  ASP618  TYR619  PRO620  LYS621  CYS622 
 ASP623  PHE694  ASN695  SER759  ASP760  ASP761  ALA762  ILE779  LEU786  VAL792 
 PHE793  MET794  SER795  GLU796  ALA797  LYS798  CYS799  TRP800  GLU811  SER814 

> <Gold.Protein.RotatedAtoms>
  151.9110  135.0339  160.0514 H   0  0  0  0  0  0  0  0  0  0  0  0  # atno 6907 bound_to 6896
  152.2279  133.5030  159.5207 H   0  0  0  0  0  0  0  0  0  0  0  0  # atno 6908 bound_to 6896
  150.7017  134.1172  159.4064 H   0  0  0  0  0  0  0  0  0  0  0  0  # atno 6909 bound_to 6896
  144.7526  140.3897  143.6036 H   0  0  0  0  0  0  0  0  0  0  0  0  # atno 7974 bound_to 7965
  154.4182  140.1739  156.1716 H   0  0  0  0  0  0  0  0  0  0  0  0  # atno 8008 bound_to 7997
  155.9756  140.3382  155.6591 H   0  0  0  0  0  0  0  0  0  0  0  0  # atno 8009 bound_to 7997
  155.6568  140.0696  157.2558 H   0  0  0  0  0  0  0  0  0  0  0  0  # atno 8010 bound_to 7997
  140.3970  144.1775  150.6132 H   0  0  0  0  0  0  0  0  0  0  0  0  # atno 10167 bound_to 10162
  156.9559  130.5914  149.5659 H   0  0  0  0  0  0  0  0  0  0  0  0  # atno 10718 bound_to 10713
  153.5608  135.3521  155.2798 H   0  0  0  0  0  0  0  0  0  0  0  0  # atno 10763 bound_to 10752
  154.8695  135.4136  154.2833 H   0  0  0  0  0  0  0  0  0  0  0  0  # atno 10764 bound_to 10752
  153.3578  135.7058  153.6806 H   0  0  0  0  0  0  0  0  0  0  0  0  # atno 10765 bound_to 10752
  140.0017  134.9475  157.0087 H   0  0  0  0  0  0  0  0  0  0  0  0  # atno 11005 bound_to 11000
  145.6890  139.1635  143.2658 LP  0  0  0  0  0  0  0  0  0  0  0  0  # atno 17320 bound_to 7965
  146.1496  140.6943  142.9328 LP  0  0  0  0  0  0  0  0  0  0  0  0  # atno 17321 bound_to 7965
  140.4780  143.2389  151.8996 LP  0  0  0  0  0  0  0  0  0  0  0  0  # atno 17342 bound_to 10162
  139.4786  144.5300  151.8680 LP  0  0  0  0  0  0  0  0  0  0  0  0  # atno 17343 bound_to 10162
  156.0343  130.5432  150.8613 LP  0  0  0  0  0  0  0  0  0  0  0  0  # atno 17370 bound_to 10713
  157.5691  131.0946  150.9445 LP  0  0  0  0  0  0  0  0  0  0  0  0  # atno 17371 bound_to 10713
  140.4715  134.1381  155.7204 LP  0  0  0  0  0  0  0  0  0  0  0  0  # atno 17394 bound_to 11000
  141.1647  133.8726  157.1749 LP  0  0  0  0  0  0  0  0  0  0  0  0  # atno 17395 bound_to 11000

$$$$
