AV-unprocessed.smi:1965|AV-procd|sdf|7943|dock8
  -GOLD-   2272010113D 1   1.00000     0.00000
 Structure written by MMmdl.
 36 38  0  0  0  0  0  0  0  0  3 V2000
  150.8223  142.7747  157.5291 O   0  0  0  0  0  0  0  0  0  0  0  0
  151.3343  141.6613  157.6366 C   0  0  0  0  0  0  0  0  0  0  0  0
  150.9295  140.5758  156.9270 N   0  5  0  0  0  0  0  0  0  0  0  0
  149.9925  140.6510  155.9634 C   0  0  0  0  0  0  0  0  0  0  0  0
  149.1818  141.7046  155.8120 N   0  0  0  0  0  0  0  0  0  0  0  0
  148.2811  141.5649  154.7547 C   0  0  0  0  0  0  0  0  0  0  0  0
  148.4091  140.3770  154.0851 C   0  0  0  0  0  0  0  0  0  0  0  0
  149.6770  139.3955  154.7622 S   0  0  0  0  0  0  0  0  0  0  0  0
  152.3505  141.4935  158.5022 N   0  0  0  0  0  0  0  0  0  0  0  0
  152.9490  142.5179  159.3508 C   0  0  1  0  0  0  0  0  0  0  0  0
  151.9292  143.2472  160.2523 C   0  0  0  0  0  0  0  0  0  0  0  0
  152.5730  143.2703  161.6423 C   0  0  0  0  0  0  0  0  0  0  0  0
  153.3816  142.0451  161.6567 N   0  3  2  0  0  0  0  0  0  0  0  0
  154.3587  141.8647  162.7501 C   0  0  0  0  0  0  0  0  0  0  0  0
  154.9711  140.4518  162.6376 C   0  0  0  0  0  0  0  0  0  0  0  0
  155.5397  140.1717  161.2282 C   0  0  0  0  0  0  0  0  0  0  0  0
  154.5070  140.4890  160.1266 C   0  0  0  0  0  0  0  0  0  0  0  0
  153.9923  141.9276  160.3221 C   0  0  1  0  0  0  0  0  0  0  0  0
  147.5827  142.3625  154.5495 H   0  0  0  0  0  0  0  0  0  0  0  0
  147.8427  140.0233  153.2368 H   0  0  0  0  0  0  0  0  0  0  0  0
  152.7448  140.5664  158.5666 H   0  0  0  0  0  0  0  0  0  0  0  0
  153.4526  143.2414  158.7068 H   0  0  0  0  0  0  0  0  0  0  0  0
  151.6914  144.2474  159.8892 H   0  0  0  0  0  0  0  0  0  0  0  0
  150.9944  142.6860  160.2984 H   0  0  0  0  0  0  0  0  0  0  0  0
  153.2216  144.1413  161.7498 H   0  0  0  0  0  0  0  0  0  0  0  0
  151.8370  143.2840  162.4468 H   0  0  0  0  0  0  0  0  0  0  0  0
  155.1341  142.6300  162.6903 H   0  0  0  0  0  0  0  0  0  0  0  0
  153.8594  141.9828  163.7123 H   0  0  0  0  0  0  0  0  0  0  0  0
  155.7514  140.3216  163.3879 H   0  0  0  0  0  0  0  0  0  0  0  0
  154.2027  139.7111  162.8633 H   0  0  0  0  0  0  0  0  0  0  0  0
  156.4314  140.7804  161.0728 H   0  0  0  0  0  0  0  0  0  0  0  0
  155.8604  139.1324  161.1527 H   0  0  0  0  0  0  0  0  0  0  0  0
  154.9621  140.3765  159.1419 H   0  0  0  0  0  0  0  0  0  0  0  0
  153.6822  139.7765  160.1779 H   0  0  0  0  0  0  0  0  0  0  0  0
  154.8529  142.6000  160.2965 H   0  0  0  0  0  0  0  0  0  0  0  0
  152.7200  141.2850  161.7279 H   0  0  0  0  0  0  0  0  0  0  0  0
  1  2  2  0  0  0  0
  2  3  1  0  0  0  0
  2  9  1  0  0  0  0
  3  4  1  0  0  0  0
  4  8  1  0  0  0  0
  4  5  2  0  0  0  0
  5  6  1  0  0  0  0
  6  7  2  0  0  0  0
  6 19  1  0  0  0  0
  7  8  1  0  0  0  0
  7 20  1  0  0  0  0
  9 10  1  0  0  0  0
  9 21  1  0  0  0  0
 10 18  1  0  0  0  0
 10 11  1  0  0  0  0
 10 22  1  0  0  0  0
 11 12  1  0  0  0  0
 11 23  1  0  0  0  0
 11 24  1  0  0  0  0
 12 13  1  0  0  0  0
 12 25  1  0  0  0  0
 12 26  1  0  0  0  0
 13 18  1  0  0  0  0
 13 14  1  0  0  0  0
 13 36  1  0  0  0  0
 14 15  1  0  0  0  0
 14 27  1  0  0  0  0
 14 28  1  0  0  0  0
 15 16  1  0  0  0  0
 15 29  1  0  0  0  0
 15 30  1  0  0  0  0
 16 17  1  0  0  0  0
 16 31  1  0  0  0  0
 16 32  1  0  0  0  0
 17 18  1  0  0  0  0
 17 33  1  0  0  0  0
 17 34  1  0  0  0  0
 18 35  1  0  0  0  0
M  CHG  1   3  -1
M  CHG  1  13   1
M  END
> <s_m_source_file>
AV-unprocessed.smi

> <i_m_source_file_index>
1965

> <i_lp_mmshare_version>
43012

> <i_f3d_flags>
0

> <s_epik_input>
czFbY0hdW2NIXW5jMVtOSF1DKD1PKVtOSF1bQ0BIXShbQ0gyXVtDSDJdMilbQ0BASF0oTjIzKVtDSDJdW0NIMl1bQ0gyXVtDSDJdMw==

> <s_epik_cmdline>
J2VwaWtfcHl0aG9uJywgJy1waCcsICc3LjAnLCAnLXRuJywgJzgnLCAnLW1hJywgJzIwMCcsICctbWV0YWxfYmluZGluZycsICctaW1hZScsICc8aW5maWxlLm1hZT4nLCAnLW9tYWUnLCAnPG91dGZpbGUubWFlPic=

> <r_lp_tautomer_probability>
1

> <r_epik_Ionization_Penalty>
7.4116

> <r_epik_Ionization_Penalty_Charging>
6.13869

> <r_epik_Ionization_Penalty_Neutral>
1.27291

> <r_epik_State_Penalty>
6.13761

> <r_epik_Charging_Adjusted_Penalty>
12.2763

> <i_epik_Tot_Q>
0

> <i_epik_Tot_abs_Q>
2

> <r_epik_Metal_State_Penalty>
2.08142

> <b_epik_Metal_Only>
1

> <s_lp_Force_Field>
OPLS_2005

> <r_lp_Energy>
32.5812

> <b_lp_Chiralities_Consistent>
1

> <s_lp_Variant>
AV-unprocessed.smi:1965-12

> <Gold.Version>
5.8.1

> <Gold.Id.Protein>
6NUR|6NUR_protein|mol2

> <Gold.PLP.Fitness>
37.1425

> <Gold.PLP.PLP>
-34.7576

> <Gold.PLP.part.hbond>
0.0000

> <Gold.PLP.part.metal>
0.0000

> <Gold.PLP.part.buried>
3.0073

> <Gold.PLP.part.nonpolar>
-35.5123

> <Gold.PLP.part.repulsive>
1.4494

> <Gold.PLP.ligand.clash>
0.0000

> <Gold.PLP.ligand.torsion>
0.0847

> <Gold.PLP.Chemscore.Hbond>
0.0000

> <Gold.PLP.Chemscore.CHOScore>
0.8506

> <Gold.PLP.Chemscore.Metal>
0.0000

> <Gold.Chemscore.Hbonds>
donor molecule, donor type, donor heavy atom, donor atom, acceptor molecule, acceptor atom, score
      L1  C     6    19       P1  8028  0.06
      L1  C     7    20       P1  7957  0.27

> <Gold.PLP.Chemscore.Internal.Correction>
0.0025

> <Gold.Rescore>
     Score         DG    S(hbond)    S(metal)    S(lipo)     H(rot)  DE(clash)    DE(int)     intcor
     11.35     -14.62       0.00        0.00      99.99       1.00       0.16       3.10       ----

> <Gold.Chemscore.Fitness>
11.3527

> <Gold.Chemscore.DG>
-14.6184

> <Gold.Chemscore.ZeroCoef>
-5.4800

> <Gold.Chemscore.Hbond>
0.0000

> <Gold.Chemscore.Metal>
0.0000

> <Gold.Chemscore.Lipo>
99.9862

> <Gold.Chemscore.Internal_Hbond>
0.0000

> <Gold.Chemscore.DEClash>
0.1608

> <Gold.Chemscore.DEInternal>
3.1049

> <Gold.Chemscore.Rot>
1.0000

> <Gold.Chemscore.Internal.Correction>
   9.000000E+99

> <Gold.Chemscore.Hbond.Weighted>
-0.0000

> <Gold.Chemscore.Metal.Weighted>
-0.0000

> <Gold.Chemscore.Lipo.Weighted>
-11.6984

> <Gold.Chemscore.Internal_Hbond.Weighted>
0.0000

> <Gold.Chemscore.DEClash.Weighted>
0.1608

> <Gold.Chemscore.DEInternal.Weighted>
3.1049

> <Gold.Chemscore.Rot.Weighted>
2.5600

> <Gold.Chemscore.Internal.Correction.Weighted>
   9.000000E+99

> <Gold.Protein.RotatedTorsions>
[ 6907 6896 6895 6894 ] final -114.94 input  -60.11 | X-H torsion
[ 7974 7965 7964 7962 ] final   91.67 input  175.53 | X-H torsion
[ 8008 7997 7996 7995 ] final  159.70 input   59.86 | X-H torsion
[ 10167 10162 10161 10158 ] final   32.27 input  -65.29 | X-H torsion
[ 10718 10713 10712 10709 ] final  -24.55 input   66.30 | X-H torsion
[ 10763 10752 10751 10750 ] final  -34.36 input  -60.55 | X-H torsion
[ 11005 11000 10999 10996 ] final  131.85 input  -57.11 | X-H torsion

> <Gold.Protein.ActiveResidues>
 VAL166  LYS551  ARG553  GLY616  TRP617  ASP618  TYR619  PRO620  LYS621  CYS622 
 ASP623  PHE694  ASN695  SER759  ASP760  ASP761  ALA762  ILE779  LEU786  VAL792 
 PHE793  MET794  SER795  GLU796  ALA797  LYS798  CYS799  TRP800  GLU811  SER814 

> <Gold.Protein.RotatedAtoms>
  150.7940  133.8729  159.3263 H   0  0  0  0  0  0  0  0  0  0  0  0  # atno 6907 bound_to 6896
  151.6560  135.0994  160.0179 H   0  0  0  0  0  0  0  0  0  0  0  0  # atno 6908 bound_to 6896
  152.4019  133.6791  159.6358 H   0  0  0  0  0  0  0  0  0  0  0  0  # atno 6909 bound_to 6896
  145.5026  139.2276  143.2769 H   0  0  0  0  0  0  0  0  0  0  0  0  # atno 7974 bound_to 7965
  156.2222  140.1824  156.7450 H   0  0  0  0  0  0  0  0  0  0  0  0  # atno 8008 bound_to 7997
  154.5883  140.0655  156.9231 H   0  0  0  0  0  0  0  0  0  0  0  0  # atno 8009 bound_to 7997
  155.2381  140.3320  155.4298 H   0  0  0  0  0  0  0  0  0  0  0  0  # atno 8010 bound_to 7997
  140.4514  144.1043  150.6192 H   0  0  0  0  0  0  0  0  0  0  0  0  # atno 10167 bound_to 10162
  156.4761  130.4535  149.6839 H   0  0  0  0  0  0  0  0  0  0  0  0  # atno 10718 bound_to 10713
  153.8455  135.6854  153.4798 H   0  0  0  0  0  0  0  0  0  0  0  0  # atno 10763 bound_to 10752
  153.1428  135.4650  154.9520 H   0  0  0  0  0  0  0  0  0  0  0  0  # atno 10764 bound_to 10752
  154.7826  135.3274  154.7904 H   0  0  0  0  0  0  0  0  0  0  0  0  # atno 10765 bound_to 10752
  139.9755  134.9565  156.9497 H   0  0  0  0  0  0  0  0  0  0  0  0  # atno 11005 bound_to 11000
  146.2216  140.5828  142.9014 LP  0  0  0  0  0  0  0  0  0  0  0  0  # atno 17320 bound_to 7965
  144.7771  140.5763  143.6630 LP  0  0  0  0  0  0  0  0  0  0  0  0  # atno 17321 bound_to 7965
  140.4203  143.2615  151.9724 LP  0  0  0  0  0  0  0  0  0  0  0  0  # atno 17342 bound_to 10162
  139.4797  144.5837  151.7889 LP  0  0  0  0  0  0  0  0  0  0  0  0  # atno 17343 bound_to 10162
  156.3569  130.7461  151.2428 LP  0  0  0  0  0  0  0  0  0  0  0  0  # atno 17370 bound_to 10713
  157.7487  131.0361  150.4395 LP  0  0  0  0  0  0  0  0  0  0  0  0  # atno 17371 bound_to 10713
  140.5205  134.0913  155.7291 LP  0  0  0  0  0  0  0  0  0  0  0  0  # atno 17394 bound_to 11000
  141.1432  133.9102  157.2277 LP  0  0  0  0  0  0  0  0  0  0  0  0  # atno 17395 bound_to 11000

$$$$
