#       Name:                AV-unprocessed.smi:224
#       Creating user name   scv26
#       Creation time:       Thu Mar 26 20:19:11 2020


#       File generated by GOLD software.
#

@<TRIPOS>MOLECULE
AV-unprocessed.smi:224
    66    69     1
SMALL
NO_CHARGES


@<TRIPOS>ATOM
      1 ****        -4.8498   2.9327  -4.3859 C.3            1 S1                 0.0000
      2 ****        -3.3525   2.6602  -4.1919 C.3            1 S1                 0.0000
      3 ****        -2.7376   2.7022  -5.4643 O.3            1 S1                 0.0000
      4 ****        -3.0982   1.2824  -3.5483 C.3            1 S1                 0.0000
      5 ****        -1.6637   1.0776  -3.1986 N.4            1 S1                 1.0000
      6 ****        -1.3347   1.7240  -1.8964 C.3            1 S1                 0.0000
      7 ****         0.1520   1.5864  -1.5441 C.3            1 S1                 0.0000
      8 ****         0.5374   0.1824  -1.5435 N.3            1 S1                 0.0000
      9 ****         0.3544  -0.4943  -0.3781 C.ar           1 S1                 0.0000
     10 ****        -0.4299  -1.6050  -0.3565 N.ar           1 S1                 0.0000
     11 ****        -0.6327  -2.2697   0.7845 C.ar           1 S1                 0.0000
     12 ****        -0.1518  -2.0046   1.9996 N.ar           1 S1                 0.0000
     13 ****         0.6514  -0.9030   1.9851 C.ar           1 S1                 0.0000
     14 ****         0.9520  -0.0947   0.8519 C.ar           1 S1                 0.0000
     15 ****         1.8045   0.9382   1.2242 N.2            1 S1                 0.0000
     16 ****         1.9873   0.7579   2.5035 C.2            1 S1                 0.0000
     17 ****         1.3418  -0.3325   3.0410 N.pl3          1 S1                 0.0000
     18 ****         1.3699  -0.7664   4.4302 C.3            1 S1                 0.0000
     19 ****         2.4507  -1.8329   4.7442 C.3            1 S1                 0.0000
     20 ****         2.2365  -2.9719   3.9313 O.3            1 S1                 0.0000
     21 ****         3.8890  -1.3457   4.5518 C.3            1 S1                 0.0000
     22 ****         4.3294  -1.0050   5.9680 C.3            1 S1                 0.0000
     23 ****         3.7376  -2.0443   6.7259 O.3            1 S1                 0.0000
     24 ****         2.4203  -2.2479   6.2298 C.3            1 S1                 0.0000
     25 ****         0.2688  -0.4887  -2.8117 C.3            1 S1                 0.0000
     26 ****        -1.2056  -0.3475  -3.2680 C.3            1 S1                 0.0000
     27 ****        -1.3199  -0.9416  -4.6873 C.3            1 S1                 0.0000
     28 ****        -5.3744   2.9365  -3.4299 H              1 S1                 0.0000
     29 ****        -5.3148   2.1747  -5.0176 H              1 S1                 0.0000
     30 ****        -5.0156   3.9034  -4.8545 H              1 S1                 0.0000
     31 ****        -2.9348   3.4605  -3.5818 H              1 S1                 0.0000
     32 ****        -1.7995   2.6915  -5.3546 H              1 S1                 0.0000
     33 ****        -3.7040   1.1679  -2.6478 H              1 S1                 0.0000
     34 ****        -3.4682   0.5231  -4.2327 H              1 S1                 0.0000
     35 ****        -1.5941   2.7817  -1.9212 H              1 S1                 0.0000
     36 ****        -1.9375   1.2734  -1.1059 H              1 S1                 0.0000
     37 ****         0.7604   2.1141  -2.2796 H              1 S1                 0.0000
     38 ****         0.3474   2.0654  -0.5858 H              1 S1                 0.0000
     39 ****        -1.2709  -3.1382   0.7143 H              1 S1                 0.0000
     40 ****         2.6073   1.4178   3.0931 H              1 S1                 0.0000
     41 ****         1.5205   0.1144   5.0559 H              1 S1                 0.0000
     42 ****         0.3811  -1.1520   4.6828 H              1 S1                 0.0000
     43 ****         2.8808  -3.6256   4.1560 H              1 S1                 0.0000
     44 ****         4.5225  -2.1509   4.1756 H              1 S1                 0.0000
     45 ****         3.9961  -0.5056   3.8680 H              1 S1                 0.0000
     46 ****         5.4135  -0.9890   6.0820 H              1 S1                 0.0000
     47 ****         3.9307  -0.0397   6.2842 H              1 S1                 0.0000
     48 ****         1.7372  -1.6188   6.8023 H              1 S1                 0.0000
     49 ****         2.1135  -3.2833   6.3833 H              1 S1                 0.0000
     50 ****         0.9245  -0.0410  -3.5598 H              1 S1                 0.0000
     51 ****         0.5581  -1.5394  -2.7571 H              1 S1                 0.0000
     52 ****        -1.8372  -0.9311  -2.5971 H              1 S1                 0.0000
     53 ****        -0.8418  -1.9207  -4.7343 H              1 S1                 0.0000
     54 ****        -0.8305  -0.3039  -5.4243 H              1 S1                 0.0000
     55 ****        -2.3492  -1.0961  -5.0058 H              1 S1                 0.0000
     56 ****        -1.1281   1.5632  -3.9035 H              1 S1                 0.0000
     57 ****        -3.0096   3.5385  -5.9403 LP             1 S1                 0.0000
     58 ****        -3.0212   1.9067  -5.9998 LP             1 S1                 0.0000
     59 ****         1.5371   0.1704  -1.5225 LP             1 S1                 0.0000
     60 ****        -0.8581  -1.9267  -1.2010 LP             1 S1                 0.0000
     61 ****        -0.3543  -2.5445   2.8166 LP             1 S1                 0.0000
     62 ****         2.1898   1.6557   0.6439 LP             1 S1                 0.0000
     63 ****         2.3316  -2.7216   2.9678 LP             1 S1                 0.0000
     64 ****         1.3183  -3.3337   4.0926 LP             1 S1                 0.0000
     65 ****         3.7013  -1.7836   7.6906 LP             1 S1                 0.0000
     66 ****         4.2718  -2.8839   6.6273 LP             1 S1                 0.0000
@<TRIPOS>BOND
    1    1    2 1     
    2    1   28 1     
    3    1   29 1     
    4    1   30 1     
    5    2    3 1     
    6    2    4 1     
    7    2   31 1     
    8    3   32 1     
    9    4    5 1     
   10    4   33 1     
   11    4   34 1     
   12    5   26 1     
   13    5    6 1     
   14    5   56 1     
   15    6    7 1     
   16    6   35 1     
   17    6   36 1     
   18    7    8 1     
   19    7   37 1     
   20    7   38 1     
   21    8    9 1     
   22    8   25 1     
   23    9   14 ar    
   24    9   10 ar    
   25   10   11 ar    
   26   11   12 ar    
   27   11   39 1     
   28   12   13 ar    
   29   13   17 1     
   30   13   14 ar    
   31   14   15 1     
   32   15   16 2     
   33   16   17 1     
   34   16   40 1     
   35   17   18 1     
   36   18   19 1     
   37   18   41 1     
   38   18   42 1     
   39   19   24 1     
   40   19   20 1     
   41   19   21 1     
   42   20   43 1     
   43   21   22 1     
   44   21   44 1     
   45   21   45 1     
   46   22   23 1     
   47   22   46 1     
   48   22   47 1     
   49   23   24 1     
   50   24   48 1     
   51   24   49 1     
   52   25   26 1     
   53   25   50 1     
   54   25   51 1     
   55   26   27 1     
   56   26   52 1     
   57   27   53 1     
   58   27   54 1     
   59   27   55 1     
   60    3   57 1     
   61    3   58 1     
   62    8   59 1     
   63   10   60 1     
   64   12   61 1     
   65   15   62 1     
   66   20   63 1     
   67   20   64 1     
   68   23   65 1     
   69   23   66 1     
@<TRIPOS>SUBSTRUCTURE
      1 S1             1
@<TRIPOS>SET
LONE_PAIRS      STATIC     ATOMS    <user>   **** ""
10 57 58 59 60 61 62 63 64 65 66
DONOR_HYDROGENS      STATIC     ATOMS    <user>   **** ""
3 32 56 43
ATOM$BLUE        STATIC     ATOMS    COLORGROUP SYSTEM
10 57 58 59 60 61 62 63 64 65 66
ATOM$RED        STATIC     ATOMS    COLORGROUP SYSTEM
3 32 56 43
