AV-unprocessed.smi:3047|AV-procd|sdf|11621|dock10
  -GOLD-   2272017 03D 1   1.00000     0.00000
 Structure written by MMmdl.
 38 39  0  0  0  0  0  0  0  0  2 V2000
  154.1961  137.8106  157.8161 C   0  0  0  0  0  0  0  0  0  0  0  0
  152.7043  136.7393  157.7262 S   0  0  0  0  0  0  0  0  0  0  0  0
  153.1155  135.4173  157.2290 O   0  0  0  0  0  0  0  0  0  0  0  0
  151.9540  136.8479  158.9866 O   0  0  0  0  0  0  0  0  0  0  0  0
  151.7638  137.4926  156.4843 N   0  0  0  0  0  0  0  0  0  0  0  0
  151.1045  136.6440  155.4823 C   0  0  0  0  0  0  0  0  0  0  0  0
  150.9061  137.5321  154.2566 C   0  0  0  0  0  0  0  0  0  0  0  0
  152.0816  138.4962  154.3373 C   0  0  0  0  0  0  0  0  0  0  0  0
  152.2866  138.7123  155.8471 C   0  0  1  0  0  0  0  0  0  0  0  0
  151.6167  139.9877  156.3780 C   0  0  0  0  0  0  0  0  0  0  0  0
  150.5399  140.3713  155.9194 O   0  0  0  0  0  0  0  0  0  0  0  0
  152.2628  140.6309  157.3627 N   0  0  0  0  0  0  0  0  0  0  0  0
  151.7847  141.8345  158.0313 C   0  0  0  0  0  0  0  0  0  0  0  0
  152.8341  142.4031  159.0010 C   0  0  0  0  0  0  0  0  0  0  0  0
  152.3338  143.5852  159.7042 N   0  0  0  0  0  0  0  0  0  0  0  0
  151.9338  144.7725  159.1468 C   0  0  0  0  0  0  0  0  0  0  0  0
  151.5426  145.5788  160.1847 C   0  0  0  0  0  0  0  0  0  0  0  0
  151.7204  144.8499  161.3304 N   0  3  0  0  0  0  0  0  0  0  0  0
  152.2012  143.6374  161.0360 C   0  0  0  0  0  0  0  0  0  0  0  0
  154.8914  137.4006  158.5481 H   0  0  0  0  0  0  0  0  0  0  0  0
  153.9084  138.8172  158.1180 H   0  0  0  0  0  0  0  0  0  0  0  0
  154.6784  137.8469  156.8396 H   0  0  0  0  0  0  0  0  0  0  0  0
  151.7536  135.8037  155.2337 H   0  0  0  0  0  0  0  0  0  0  0  0
  150.1640  136.2484  155.8664 H   0  0  0  0  0  0  0  0  0  0  0  0
  150.8845  136.9673  153.3242 H   0  0  0  0  0  0  0  0  0  0  0  0
  149.9665  138.0797  154.3410 H   0  0  0  0  0  0  0  0  0  0  0  0
  152.9707  138.0292  153.9111 H   0  0  0  0  0  0  0  0  0  0  0  0
  151.9016  139.4162  153.7792 H   0  0  0  0  0  0  0  0  0  0  0  0
  153.3590  138.7861  156.0368 H   0  0  0  0  0  0  0  0  0  0  0  0
  153.1339  140.2387  157.6914 H   0  0  0  0  0  0  0  0  0  0  0  0
  151.5027  142.5824  157.2879 H   0  0  0  0  0  0  0  0  0  0  0  0
  150.8744  141.5797  158.5751 H   0  0  0  0  0  0  0  0  0  0  0  0
  153.1253  141.6564  159.7415 H   0  0  0  0  0  0  0  0  0  0  0  0
  153.7399  142.6975  158.4688 H   0  0  0  0  0  0  0  0  0  0  0  0
  151.9556  144.9496  158.0808 H   0  0  0  0  0  0  0  0  0  0  0  0
  151.1611  146.5896  160.1933 H   0  0  0  0  0  0  0  0  0  0  0  0
  152.4349  142.8555  161.7368 H   0  0  0  0  0  0  0  0  0  0  0  0
  151.5172  145.1784  162.2663 H   0  0  0  0  0  0  0  0  0  0  0  0
  1  2  1  0  0  0  0
  1 20  1  0  0  0  0
  1 21  1  0  0  0  0
  1 22  1  0  0  0  0
  2  3  2  0  0  0  0
  2  4  2  0  0  0  0
  2  5  1  0  0  0  0
  5  9  1  0  0  0  0
  5  6  1  0  0  0  0
  6  7  1  0  0  0  0
  6 23  1  0  0  0  0
  6 24  1  0  0  0  0
  7  8  1  0  0  0  0
  7 25  1  0  0  0  0
  7 26  1  0  0  0  0
  8  9  1  0  0  0  0
  8 27  1  0  0  0  0
  8 28  1  0  0  0  0
  9 10  1  0  0  0  0
  9 29  1  0  0  0  0
 10 11  2  0  0  0  0
 10 12  1  0  0  0  0
 12 13  1  0  0  0  0
 12 30  1  0  0  0  0
 13 14  1  0  0  0  0
 13 31  1  0  0  0  0
 13 32  1  0  0  0  0
 14 15  1  0  0  0  0
 14 33  1  0  0  0  0
 14 34  1  0  0  0  0
 15 19  1  0  0  0  0
 15 16  1  0  0  0  0
 16 17  2  0  0  0  0
 16 35  1  0  0  0  0
 17 18  1  0  0  0  0
 17 36  1  0  0  0  0
 18 19  2  0  0  0  0
 18 38  1  0  0  0  0
 19 37  1  0  0  0  0
M  CHG  1  18   1
M  END
> <s_m_source_file>
AV-unprocessed.smi

> <i_m_source_file_index>
3047

> <i_lp_mmshare_version>
43012

> <i_f3d_flags>
0

> <s_epik_input>
W0NIM11TKD1PKSg9TylOMVtDSDJdW0NIMl1bQ0gyXVtDQEhdMUMoPU8pW05IXVtDSDJdW0NIMl1uMltjSF1bY0hdbltjSF0y

> <s_epik_cmdline>
J2VwaWtfcHl0aG9uJywgJy1waCcsICc3LjAnLCAnLXRuJywgJzgnLCAnLW1hJywgJzIwMCcsICctbWV0YWxfYmluZGluZycsICctaW1hZScsICc8aW5maWxlLm1hZT4nLCAnLW9tYWUnLCAnPG91dGZpbGUubWFlPic=

> <r_lp_tautomer_probability>
1

> <r_epik_Ionization_Penalty>
0.281738

> <r_epik_Ionization_Penalty_Charging>
0

> <r_epik_Ionization_Penalty_Neutral>
0.281738

> <r_epik_State_Penalty>
0.274352

> <r_epik_Charging_Adjusted_Penalty>
0.274352

> <i_epik_Tot_Q>
1

> <i_epik_Tot_abs_Q>
1

> <r_epik_Metal_State_Penalty>
0.555562

> <b_epik_Metal_Only>
0

> <s_lp_Force_Field>
OPLS_2005

> <r_lp_Energy>
11.1573

> <b_lp_Chiralities_Consistent>
1

> <s_lp_Variant>
AV-unprocessed.smi:3047-1

> <Gold.Version>
5.8.1

> <Gold.Id.Protein>
6NUR|6NUR_protein|mol2

> <Gold.PLP.Fitness>
43.9651

> <Gold.PLP.PLP>
-39.6033

> <Gold.PLP.part.hbond>
-3.2812

> <Gold.PLP.part.metal>
0.0000

> <Gold.PLP.part.buried>
-4.5196

> <Gold.PLP.part.nonpolar>
-31.3389

> <Gold.PLP.part.repulsive>
0.2171

> <Gold.PLP.ligand.clash>
0.0000

> <Gold.PLP.ligand.torsion>
1.0872

> <Gold.PLP.Chemscore.Hbond>
1.9920

> <Gold.PLP.Chemscore.CHOScore>
0.0000

> <Gold.PLP.Chemscore.Metal>
0.0000

> <Gold.Chemscore.Hbonds>
donor molecule, donor type, donor heavy atom, donor atom, acceptor molecule, acceptor atom, score
      P1  H  6896  6908       L1     4  0.94
      P1  H 10752 10764       L1     3  1.00

> <Gold.PLP.Chemscore.Internal.Correction>
0.5603

> <Gold.Rescore>
     Score         DG    S(hbond)    S(metal)    S(lipo)     H(rot)  DE(clash)    DE(int)     intcor
     12.70     -14.08       1.84        0.00      75.15       2.47       0.15       1.23       ----

> <Gold.Chemscore.Fitness>
12.7023

> <Gold.Chemscore.DG>
-14.0832

> <Gold.Chemscore.ZeroCoef>
-5.4800

> <Gold.Chemscore.Hbond>
1.8358

> <Gold.Chemscore.Metal>
0.0000

> <Gold.Chemscore.Lipo>
75.1453

> <Gold.Chemscore.Internal_Hbond>
0.0000

> <Gold.Chemscore.DEClash>
0.1508

> <Gold.Chemscore.DEInternal>
1.2301

> <Gold.Chemscore.Rot>
2.4689

> <Gold.Chemscore.Internal.Correction>
   9.000000E+99

> <Gold.Chemscore.Hbonds>
donor molecule, donor type, donor heavy atom, donor atom, acceptor molecule, acceptor atom, score
      P1  H  6896  6908       L1     4  0.84
      P1  H 10752 10764       L1     3  0.92

> <Gold.Chemscore.Hbond.Weighted>
-6.1316

> <Gold.Chemscore.Metal.Weighted>
-0.0000

> <Gold.Chemscore.Lipo.Weighted>
-8.7920

> <Gold.Chemscore.Internal_Hbond.Weighted>
0.0000

> <Gold.Chemscore.DEClash.Weighted>
0.1508

> <Gold.Chemscore.DEInternal.Weighted>
1.2301

> <Gold.Chemscore.Rot.Weighted>
6.3204

> <Gold.Chemscore.Internal.Correction.Weighted>
   9.000000E+99

> <Gold.Protein.RotatedTorsions>
[ 6907 6896 6895 6894 ] final -117.59 input  -60.11 | X-H torsion
[ 7974 7965 7964 7962 ] final  137.14 input  175.53 | X-H torsion
[ 8008 7997 7996 7995 ] final   48.71 input   59.86 | X-H torsion
[ 10167 10162 10161 10158 ] final   -7.92 input  -65.29 | X-H torsion
[ 10718 10713 10712 10709 ] final  114.20 input   66.30 | X-H torsion
[ 10763 10752 10751 10750 ] final    4.46 input  -60.55 | X-H torsion
[ 11005 11000 10999 10996 ] final -128.83 input  -57.11 | X-H torsion

> <Gold.Protein.ActiveResidues>
 VAL166  LYS551  ARG553  GLY616  TRP617  ASP618  TYR619  PRO620  LYS621  CYS622 
 ASP623  PHE694  ASN695  SER759  ASP760  ASP761  ALA762  ILE779  LEU786  VAL792 
 PHE793  MET794  SER795  GLU796  ALA797  LYS798  CYS799  TRP800  GLU811  SER814 

> <Gold.Protein.RotatedAtoms>
  150.8150  133.8354  159.3164 H   0  0  0  0  0  0  0  0  0  0  0  0  # atno 6907 bound_to 6896
  151.6129  135.1037  160.0094 H   0  0  0  0  0  0  0  0  0  0  0  0  # atno 6908 bound_to 6896
  152.4241  133.7125  159.6543 H   0  0  0  0  0  0  0  0  0  0  0  0  # atno 6909 bound_to 6896
  144.9497  139.4833  143.5532 H   0  0  0  0  0  0  0  0  0  0  0  0  # atno 7974 bound_to 7965
  155.3901  140.3433  155.4251 H   0  0  0  0  0  0  0  0  0  0  0  0  # atno 8008 bound_to 7997
  156.1562  140.1586  156.8721 H   0  0  0  0  0  0  0  0  0  0  0  0  # atno 8009 bound_to 7997
  154.5097  140.0793  156.7947 H   0  0  0  0  0  0  0  0  0  0  0  0  # atno 8010 bound_to 7997
  140.7043  143.6027  150.8782 H   0  0  0  0  0  0  0  0  0  0  0  0  # atno 10167 bound_to 10162
  157.6295  131.0995  150.7151 H   0  0  0  0  0  0  0  0  0  0  0  0  # atno 10718 bound_to 10713
  153.2710  135.6932  153.7481 H   0  0  0  0  0  0  0  0  0  0  0  0  # atno 10763 bound_to 10752
  153.6504  135.3378  155.3099 H   0  0  0  0  0  0  0  0  0  0  0  0  # atno 10764 bound_to 10752
  154.8464  135.4453  154.1732 H   0  0  0  0  0  0  0  0  0  0  0  0  # atno 10765 bound_to 10752
  140.9483  134.1100  157.4086 H   0  0  0  0  0  0  0  0  0  0  0  0  # atno 11005 bound_to 11000
  146.3316  139.8574  142.8862 LP  0  0  0  0  0  0  0  0  0  0  0  0  # atno 17320 bound_to 7965
  145.2863  141.0154  143.3688 LP  0  0  0  0  0  0  0  0  0  0  0  0  # atno 17321 bound_to 7965
  139.9751  143.6013  152.2961 LP  0  0  0  0  0  0  0  0  0  0  0  0  # atno 17342 bound_to 10162
  139.6614  144.7662  151.1955 LP  0  0  0  0  0  0  0  0  0  0  0  0  # atno 17343 bound_to 10162
  156.7493  130.4763  149.5460 LP  0  0  0  0  0  0  0  0  0  0  0  0  # atno 17370 bound_to 10713
  156.1489  130.6296  151.0568 LP  0  0  0  0  0  0  0  0  0  0  0  0  # atno 17371 bound_to 10713
  139.8840  135.0058  156.6338 LP  0  0  0  0  0  0  0  0  0  0  0  0  # atno 17394 bound_to 11000
  140.7638  133.8795  155.8438 LP  0  0  0  0  0  0  0  0  0  0  0  0  # atno 17395 bound_to 11000

$$$$
