AV-unprocessed.smi:1314|AV-procd|sdf|5453|dock6
  -GOLD-   22720 5 23D 1   1.00000     0.00000
 Structure written by MMmdl.
 41 42  0  0  0  0  0  0  0  0  1 V2000
  153.5041  134.7034  163.4776 C   0  0  0  0  0  0  0  0  0  0  0  0
  153.9684  136.1233  163.3231 C   0  0  0  0  0  0  0  0  0  0  0  0
  154.3678  136.8008  164.3865 N   0  0  0  0  0  0  0  0  0  0  0  0
  154.7347  138.0663  163.9184 O   0  0  0  0  0  0  0  0  0  0  0  0
  154.5382  138.1013  162.5757 C   0  0  0  0  0  0  0  0  0  0  0  0
  154.8779  139.3763  161.8810 C   0  0  0  0  0  0  0  0  0  0  0  0
  154.0495  136.9026  162.1336 C   0  0  0  0  0  0  0  0  0  0  0  0
  153.6852  136.4917  160.7300 C   0  0  0  0  0  0  0  0  0  0  0  0
  152.4633  137.2810  160.2559 C   0  0  0  0  0  0  0  0  0  0  0  0
  151.3811  136.7122  160.1099 O   0  0  0  0  0  0  0  0  0  0  0  0
  152.6523  138.5880  160.0162 N   0  0  0  0  0  0  0  0  0  0  0  0
  151.6365  139.5211  159.5380 C   0  0  0  0  0  0  0  0  0  0  0  0
  152.2374  140.8843  159.1588 C   0  0  0  0  0  0  0  0  0  0  0  0
  152.7804  141.8362  160.6076 S   0  0  0  0  0  0  0  0  0  0  0  0
  152.8815  143.5017  159.8911 C   0  0  0  0  0  0  0  0  0  0  0  0
  152.3654  144.5789  160.8442 C   0  0  0  0  0  0  0  0  0  0  0  0
  152.0543  145.7730  159.9388 C   0  0  0  0  0  0  0  0  0  0  0  0
  151.7193  145.1846  158.5596 C   0  0  0  0  0  0  0  0  0  0  0  0
  152.0087  143.6799  158.6457 C   0  0  0  0  0  0  0  0  0  0  0  0
  153.9430  134.0645  162.7112 H   0  0  0  0  0  0  0  0  0  0  0  0
  152.4202  134.6367  163.3846 H   0  0  0  0  0  0  0  0  0  0  0  0
  153.7811  134.2908  164.4484 H   0  0  0  0  0  0  0  0  0  0  0  0
  155.4098  139.1791  160.9501 H   0  0  0  0  0  0  0  0  0  0  0  0
  155.5139  140.0056  162.5042 H   0  0  0  0  0  0  0  0  0  0  0  0
  153.9746  139.9376  161.6428 H   0  0  0  0  0  0  0  0  0  0  0  0
  154.5048  136.6795  160.0357 H   0  0  0  0  0  0  0  0  0  0  0  0
  153.4831  135.4210  160.6746 H   0  0  0  0  0  0  0  0  0  0  0  0
  153.5765  138.9646  160.1690 H   0  0  0  0  0  0  0  0  0  0  0  0
  151.1822  139.0746  158.6533 H   0  0  0  0  0  0  0  0  0  0  0  0
  150.8292  139.6441  160.2619 H   0  0  0  0  0  0  0  0  0  0  0  0
  153.0760  140.7560  158.4734 H   0  0  0  0  0  0  0  0  0  0  0  0
  151.4853  141.4710  158.6316 H   0  0  0  0  0  0  0  0  0  0  0  0
  153.9212  143.7184  159.6416 H   0  0  0  0  0  0  0  0  0  0  0  0
  151.4472  144.2411  161.3271 H   0  0  0  0  0  0  0  0  0  0  0  0
  153.0820  144.8243  161.6286 H   0  0  0  0  0  0  0  0  0  0  0  0
  151.2428  146.3837  160.3359 H   0  0  0  0  0  0  0  0  0  0  0  0
  152.9345  146.4121  159.8584 H   0  0  0  0  0  0  0  0  0  0  0  0
  150.6778  145.3632  158.2901 H   0  0  0  0  0  0  0  0  0  0  0  0
  152.3382  145.6532  157.7935 H   0  0  0  0  0  0  0  0  0  0  0  0
  152.4882  143.3005  157.7430 H   0  0  0  0  0  0  0  0  0  0  0  0
  151.0694  143.1394  158.7709 H   0  0  0  0  0  0  0  0  0  0  0  0
  1  2  1  0  0  0  0
  1 20  1  0  0  0  0
  1 21  1  0  0  0  0
  1 22  1  0  0  0  0
  2  7  1  0  0  0  0
  2  3  2  0  0  0  0
  3  4  1  0  0  0  0
  4  5  1  0  0  0  0
  5  6  1  0  0  0  0
  5  7  2  0  0  0  0
  6 23  1  0  0  0  0
  6 24  1  0  0  0  0
  6 25  1  0  0  0  0
  7  8  1  0  0  0  0
  8  9  1  0  0  0  0
  8 26  1  0  0  0  0
  8 27  1  0  0  0  0
  9 10  2  0  0  0  0
  9 11  1  0  0  0  0
 11 12  1  0  0  0  0
 11 28  1  0  0  0  0
 12 13  1  0  0  0  0
 12 29  1  0  0  0  0
 12 30  1  0  0  0  0
 13 14  1  0  0  0  0
 13 31  1  0  0  0  0
 13 32  1  0  0  0  0
 14 15  1  0  0  0  0
 15 19  1  0  0  0  0
 15 16  1  0  0  0  0
 15 33  1  0  0  0  0
 16 17  1  0  0  0  0
 16 34  1  0  0  0  0
 16 35  1  0  0  0  0
 17 18  1  0  0  0  0
 17 36  1  0  0  0  0
 17 37  1  0  0  0  0
 18 19  1  0  0  0  0
 18 38  1  0  0  0  0
 18 39  1  0  0  0  0
 19 40  1  0  0  0  0
 19 41  1  0  0  0  0
M  END
> <s_m_source_file>
AV-unprocessed.smi

> <i_m_source_file_index>
1314

> <i_lp_mmshare_version>
43012

> <i_f3d_flags>
0

> <s_epik_input>
W0NIM11jMW5vYyhbQ0gzXSljMVtDSDJdQyg9TylbTkhdW0NIMl1bQ0gyXVNbQ0hdMltDSDJdW0NIMl1bQ0gyXVtDSDJdMg==

> <s_epik_cmdline>
J2VwaWtfcHl0aG9uJywgJy1waCcsICc3LjAnLCAnLXRuJywgJzgnLCAnLW1hJywgJzIwMCcsICctbWV0YWxfYmluZGluZycsICctaW1hZScsICc8aW5maWxlLm1hZT4nLCAnLW9tYWUnLCAnPG91dGZpbGUubWFlPic=

> <r_lp_tautomer_probability>
1

> <r_epik_Ionization_Penalty>
2.75407e-08

> <r_epik_Ionization_Penalty_Charging>
0

> <r_epik_Ionization_Penalty_Neutral>
2.75407e-08

> <r_epik_State_Penalty>
-0

> <r_epik_Charging_Adjusted_Penalty>
0

> <i_epik_Tot_Q>
0

> <i_epik_Tot_abs_Q>
0

> <r_epik_Metal_State_Penalty>
-0

> <b_epik_Metal_Only>
0

> <s_lp_Force_Field>
OPLS_2005

> <r_lp_Energy>
14.7141

> <b_lp_Chiralities_Consistent>
1

> <s_lp_Variant>
AV-unprocessed.smi:1314-1

> <Gold.Version>
5.8.1

> <Gold.Id.Protein>
6NUR|6NUR_protein|mol2

> <Gold.PLP.Fitness>
43.0986

> <Gold.PLP.PLP>
-41.6805

> <Gold.PLP.part.hbond>
-1.0000

> <Gold.PLP.part.metal>
0.0000

> <Gold.PLP.part.buried>
-4.9613

> <Gold.PLP.part.nonpolar>
-35.4525

> <Gold.PLP.part.repulsive>
0.1770

> <Gold.PLP.ligand.clash>
0.0000

> <Gold.PLP.ligand.torsion>
0.8312

> <Gold.PLP.Chemscore.Hbond>
1.0000

> <Gold.PLP.Chemscore.CHOScore>
0.0000

> <Gold.PLP.Chemscore.Metal>
0.0000

> <Gold.Chemscore.Hbonds>
donor molecule, donor type, donor heavy atom, donor atom, acceptor molecule, acceptor atom, score
      P1  H  6896  6907       L1    10  1.00

> <Gold.PLP.Chemscore.Internal.Correction>
0.0805

> <Gold.Rescore>
     Score         DG    S(hbond)    S(metal)    S(lipo)     H(rot)  DE(clash)    DE(int)     intcor
     18.51     -19.06       0.99        0.00     124.18       1.66       0.05       0.50       ----

> <Gold.Chemscore.Fitness>
18.5109

> <Gold.Chemscore.DG>
-19.0592

> <Gold.Chemscore.ZeroCoef>
-5.4800

> <Gold.Chemscore.Hbond>
0.9915

> <Gold.Chemscore.Metal>
0.0000

> <Gold.Chemscore.Lipo>
124.1848

> <Gold.Chemscore.Internal_Hbond>
0.0000

> <Gold.Chemscore.DEClash>
0.0480

> <Gold.Chemscore.DEInternal>
0.5003

> <Gold.Chemscore.Rot>
1.6648

> <Gold.Chemscore.Internal.Correction>
   9.000000E+99

> <Gold.Chemscore.Hbonds>
donor molecule, donor type, donor heavy atom, donor atom, acceptor molecule, acceptor atom, score
      P1  H  6896  6907       L1    10  0.43

> <Gold.Chemscore.Hbond.Weighted>
-3.3115

> <Gold.Chemscore.Metal.Weighted>
-0.0000

> <Gold.Chemscore.Lipo.Weighted>
-14.5296

> <Gold.Chemscore.Internal_Hbond.Weighted>
0.0000

> <Gold.Chemscore.DEClash.Weighted>
0.0480

> <Gold.Chemscore.DEInternal.Weighted>
0.5003

> <Gold.Chemscore.Rot.Weighted>
4.2619

> <Gold.Chemscore.Internal.Correction.Weighted>
   9.000000E+99

> <Gold.Protein.RotatedTorsions>
[ 6907 6896 6895 6894 ] final   13.48 input  -60.11 | X-H torsion
[ 7974 7965 7964 7962 ] final   39.48 input  175.53 | X-H torsion
[ 8008 7997 7996 7995 ] final  -89.66 input   59.86 | X-H torsion
[ 10167 10162 10161 10158 ] final   95.93 input  -65.29 | X-H torsion
[ 10718 10713 10712 10709 ] final  163.49 input   66.30 | X-H torsion
[ 10763 10752 10751 10750 ] final  -36.97 input  -60.55 | X-H torsion
[ 11005 11000 10999 10996 ] final -136.69 input  -57.11 | X-H torsion

> <Gold.Protein.ActiveResidues>
 VAL166  LYS551  ARG553  GLY616  TRP617  ASP618  TYR619  PRO620  LYS621  CYS622 
 ASP623  PHE694  ASN695  SER759  ASP760  ASP761  ALA762  ILE779  LEU786  VAL792 
 PHE793  MET794  SER795  GLU796  ALA797  LYS798  CYS799  TRP800  GLU811  SER814 

> <Gold.Protein.RotatedAtoms>
  151.7870  135.0746  160.0381 H   0  0  0  0  0  0  0  0  0  0  0  0  # atno 6907 bound_to 6896
  152.3183  133.5822  159.5736 H   0  0  0  0  0  0  0  0  0  0  0  0  # atno 6908 bound_to 6896
  150.7356  133.9965  159.3666 H   0  0  0  0  0  0  0  0  0  0  0  0  # atno 6909 bound_to 6896
  146.0981  139.5646  142.9432 H   0  0  0  0  0  0  0  0  0  0  0  0  # atno 7974 bound_to 7965
  154.6893  140.0539  157.0347 H   0  0  0  0  0  0  0  0  0  0  0  0  # atno 8008 bound_to 7997
  155.0840  140.3212  155.4574 H   0  0  0  0  0  0  0  0  0  0  0  0  # atno 8009 bound_to 7997
  156.2722  140.2060  156.5967 H   0  0  0  0  0  0  0  0  0  0  0  0  # atno 8010 bound_to 7997
  139.7942  144.6840  150.9852 H   0  0  0  0  0  0  0  0  0  0  0  0  # atno 10167 bound_to 10162
  157.1077  131.0459  151.2471 H   0  0  0  0  0  0  0  0  0  0  0  0  # atno 10718 bound_to 10713
  153.8885  135.6814  153.4762 H   0  0  0  0  0  0  0  0  0  0  0  0  # atno 10763 bound_to 10752
  153.1194  135.4746  154.9168 H   0  0  0  0  0  0  0  0  0  0  0  0  # atno 10764 bound_to 10752
  154.7634  135.3217  154.8286 H   0  0  0  0  0  0  0  0  0  0  0  0  # atno 10765 bound_to 10752
  140.8782  134.1966  157.4608 H   0  0  0  0  0  0  0  0  0  0  0  0  # atno 11005 bound_to 11000
  145.5909  141.0369  143.2070 LP  0  0  0  0  0  0  0  0  0  0  0  0  # atno 17320 bound_to 7965
  144.7411  139.7447  143.7310 LP  0  0  0  0  0  0  0  0  0  0  0  0  # atno 17321 bound_to 7965
  140.7820  143.4349  151.0638 LP  0  0  0  0  0  0  0  0  0  0  0  0  # atno 17342 bound_to 10162
  139.8024  143.8065  152.3164 LP  0  0  0  0  0  0  0  0  0  0  0  0  # atno 17343 bound_to 10162
  157.4586  130.7640  149.7215 LP  0  0  0  0  0  0  0  0  0  0  0  0  # atno 17370 bound_to 10713
  155.9858  130.3980  150.3244 LP  0  0  0  0  0  0  0  0  0  0  0  0  # atno 17371 bound_to 10713
  139.8717  134.9805  156.5078 LP  0  0  0  0  0  0  0  0  0  0  0  0  # atno 17394 bound_to 11000
  140.8493  133.8144  155.9153 LP  0  0  0  0  0  0  0  0  0  0  0  0  # atno 17395 bound_to 11000

$$$$
