AV-unprocessed.smi:798|AV-procd|sdf|3780|dock3
  -GOLD-   22720 1213D 1   1.00000     0.00000
 Structure written by MMmdl.
 33 35  0  0  0  0  0  0  0  0  2 V2000
  147.8820  138.4283  158.8738 O   0  0  0  0  0  0  0  0  0  0  0  0
  148.6405  137.5147  158.5413 C   0  0  0  0  0  0  0  0  0  0  0  0
  148.8577  136.3661  159.2212 N   0  5  0  0  0  0  0  0  0  0  0  0
  148.0999  136.0633  160.2880 C   0  0  0  0  0  0  0  0  0  0  0  0
  147.6337  137.0020  161.1274 N   0  0  0  0  0  0  0  0  0  0  0  0
  146.8779  136.4777  162.1672 N   0  0  0  0  0  0  0  0  0  0  0  0
  146.7998  135.1492  162.0893 C   0  0  0  0  0  0  0  0  0  0  0  0
  147.6439  134.4182  160.7406 S   0  0  0  0  0  0  0  0  0  0  0  0
  149.3374  137.6038  157.3996 N   0  0  0  0  0  0  0  0  0  0  0  0
  149.3106  138.7208  156.4523 C   0  0  1  0  0  0  0  0  0  0  0  0
  150.0855  139.9556  156.9758 C   0  0  1  0  0  0  0  0  0  0  0  0
  151.5015  139.5708  157.4552 C   0  0  0  0  0  0  0  0  0  0  0  0
  152.2225  139.2377  156.1369 C   0  0  0  0  0  0  0  0  0  0  0  0
  151.1377  139.5053  155.0724 C   0  0  2  0  0  0  0  0  0  0  0  0
  150.4114  140.6977  155.6836 C   0  0  0  0  0  0  0  0  0  0  0  0
  150.0200  138.4337  155.0963 C   0  0  1  0  0  0  0  0  0  0  0  0
  150.4707  136.9812  154.8204 C   0  0  0  0  0  0  0  0  0  0  0  0
  151.4662  136.9562  153.8190 O   0  0  0  0  0  0  0  0  0  0  0  0
  146.2450  134.5963  162.8324 H   0  0  0  0  0  0  0  0  0  0  0  0
  149.9418  136.8293  157.1683 H   0  0  0  0  0  0  0  0  0  0  0  0
  148.2772  139.0175  156.2624 H   0  0  0  0  0  0  0  0  0  0  0  0
  149.5260  140.5392  157.7076 H   0  0  0  0  0  0  0  0  0  0  0  0
  151.9813  140.4206  157.9422 H   0  0  0  0  0  0  0  0  0  0  0  0
  151.5177  138.7435  158.1646 H   0  0  0  0  0  0  0  0  0  0  0  0
  153.0712  139.9077  155.9932 H   0  0  0  0  0  0  0  0  0  0  0  0
  152.6086  138.2196  156.1143 H   0  0  0  0  0  0  0  0  0  0  0  0
  151.5426  139.6868  154.0764 H   0  0  0  0  0  0  0  0  0  0  0  0
  149.5254  141.0023  155.1236 H   0  0  0  0  0  0  0  0  0  0  0  0
  151.0538  141.5677  155.8324 H   0  0  0  0  0  0  0  0  0  0  0  0
  149.3105  138.6900  154.3072 H   0  0  0  0  0  0  0  0  0  0  0  0
  150.8476  136.4883  155.7158 H   0  0  0  0  0  0  0  0  0  0  0  0
  149.6265  136.3884  154.4673 H   0  0  0  0  0  0  0  0  0  0  0  0
  151.0415  136.9916  152.9755 H   0  0  0  0  0  0  0  0  0  0  0  0
  1  2  2  0  0  0  0
  2  3  1  0  0  0  0
  2  9  1  0  0  0  0
  3  4  1  0  0  0  0
  4  8  1  0  0  0  0
  4  5  2  0  0  0  0
  5  6  1  0  0  0  0
  6  7  2  0  0  0  0
  7  8  1  0  0  0  0
  7 19  1  0  0  0  0
  9 10  1  0  0  0  0
  9 20  1  0  0  0  0
 10 16  1  0  0  0  0
 10 11  1  0  0  0  0
 10 21  1  0  0  0  0
 11 15  1  0  0  0  0
 11 12  1  0  0  0  0
 11 22  1  0  0  0  0
 12 13  1  0  0  0  0
 12 23  1  0  0  0  0
 12 24  1  0  0  0  0
 13 14  1  0  0  0  0
 13 25  1  0  0  0  0
 13 26  1  0  0  0  0
 14 15  1  0  0  0  0
 14 16  1  0  0  0  0
 14 27  1  0  0  0  0
 15 28  1  0  0  0  0
 15 29  1  0  0  0  0
 16 17  1  0  0  0  0
 16 30  1  0  0  0  0
 17 18  1  0  0  0  0
 17 31  1  0  0  0  0
 17 32  1  0  0  0  0
 18 33  1  0  0  0  0
M  CHG  1   3  -1
M  END
> <s_m_source_file>
AV-unprocessed.smi

> <i_m_source_file_index>
798

> <i_lp_mmshare_version>
43012

> <i_f3d_flags>
0

> <s_epik_input>
W0NIMl0xW0NIMl1bQ0BASF0oW0NIMl0yKVtDQEBIXShbQ0gyXVtPSF0pW0NAQEhdKFtDQEhdMTIpW05IXUMoPU8pW05IXWMzbm5bY0hdczM=

> <s_epik_cmdline>
J2VwaWtfcHl0aG9uJywgJy1waCcsICc3LjAnLCAnLXRuJywgJzgnLCAnLW1hJywgJzIwMCcsICctbWV0YWxfYmluZGluZycsICctaW1hZScsICc8aW5maWxlLm1hZT4nLCAnLW9tYWUnLCAnPG91dGZpbGUubWFlPic=

> <r_lp_tautomer_probability>
1

> <r_epik_Ionization_Penalty>
4.53732

> <r_epik_Ionization_Penalty_Charging>
4.48632

> <r_epik_Ionization_Penalty_Neutral>
0.0510007

> <r_epik_State_Penalty>
4.48602

> <r_epik_Charging_Adjusted_Penalty>
8.97234

> <i_epik_Tot_Q>
-1

> <i_epik_Tot_abs_Q>
1

> <r_epik_Metal_State_Penalty>
0.812492

> <b_epik_Metal_Only>
1

> <s_lp_Force_Field>
OPLS_2005

> <r_lp_Energy>
48.4262

> <b_lp_Chiralities_Consistent>
1

> <s_lp_Variant>
AV-unprocessed.smi:798-12

> <Gold.Version>
5.8.1

> <Gold.Id.Protein>
6NUR|6NUR_protein|mol2

> <Gold.PLP.Fitness>
39.0478

> <Gold.PLP.PLP>
-28.6865

> <Gold.PLP.part.hbond>
-5.0000

> <Gold.PLP.part.metal>
0.0000

> <Gold.PLP.part.buried>
-3.9947

> <Gold.PLP.part.nonpolar>
-19.6927

> <Gold.PLP.part.repulsive>
0.0327

> <Gold.PLP.ligand.clash>
0.0000

> <Gold.PLP.ligand.torsion>
0.5916

> <Gold.PLP.Chemscore.Hbond>
3.8400

> <Gold.PLP.Chemscore.CHOScore>
0.0000

> <Gold.PLP.Chemscore.Metal>
0.0000

> <Gold.Chemscore.Hbonds>
donor molecule, donor type, donor heavy atom, donor atom, acceptor molecule, acceptor atom, score
      L1  H    18    33       P1  7949  0.67
      P1  H  6931  6943       L1     5  0.99
      P1  H  6934  6947       L1     5  0.81
      P1  H 10752 10764       L1    18  1.00

> <Gold.PLP.Chemscore.Internal.Correction>
0.0246

> <Gold.Rescore>
     Score         DG    S(hbond)    S(metal)    S(lipo)     H(rot)  DE(clash)    DE(int)     intcor
     14.55     -16.71       2.85        0.00      56.56       1.92       0.02       2.14       ----

> <Gold.Chemscore.Fitness>
14.5507

> <Gold.Chemscore.DG>
-16.7056

> <Gold.Chemscore.ZeroCoef>
-5.4800

> <Gold.Chemscore.Hbond>
2.8516

> <Gold.Chemscore.Metal>
0.0000

> <Gold.Chemscore.Lipo>
56.5640

> <Gold.Chemscore.Internal_Hbond>
0.0000

> <Gold.Chemscore.DEClash>
0.0174

> <Gold.Chemscore.DEInternal>
2.1374

> <Gold.Chemscore.Rot>
1.9207

> <Gold.Chemscore.Internal.Correction>
   9.000000E+99

> <Gold.Chemscore.Hbonds>
donor molecule, donor type, donor heavy atom, donor atom, acceptor molecule, acceptor atom, score
      L1  H    18    33       P1  7949  0.20
      P1  H  6931  6943       L1     5  0.57
      P1  H  6934  6947       L1     5  0.54
      P1  H 10752 10764       L1    18  0.88

> <Gold.Chemscore.Hbond.Weighted>
-9.5245

> <Gold.Chemscore.Metal.Weighted>
-0.0000

> <Gold.Chemscore.Lipo.Weighted>
-6.6180

> <Gold.Chemscore.Internal_Hbond.Weighted>
0.0000

> <Gold.Chemscore.DEClash.Weighted>
0.0174

> <Gold.Chemscore.DEInternal.Weighted>
2.1374

> <Gold.Chemscore.Rot.Weighted>
4.9169

> <Gold.Chemscore.Internal.Correction.Weighted>
   9.000000E+99

> <Gold.Protein.RotatedTorsions>
[ 6907 6896 6895 6894 ] final   20.62 input  -60.11 | X-H torsion
[ 7974 7965 7964 7962 ] final   19.38 input  175.53 | X-H torsion
[ 8008 7997 7996 7995 ] final  -95.22 input   59.86 | X-H torsion
[ 10167 10162 10161 10158 ] final   -3.44 input  -65.29 | X-H torsion
[ 10718 10713 10712 10709 ] final   55.09 input   66.30 | X-H torsion
[ 10763 10752 10751 10750 ] final  -86.48 input  -60.55 | X-H torsion
[ 11005 11000 10999 10996 ] final   99.44 input  -57.11 | X-H torsion

> <Gold.Protein.ActiveResidues>
 VAL166  LYS551  ARG553  GLY616  TRP617  ASP618  TYR619  PRO620  LYS621  CYS622 
 ASP623  PHE694  ASN695  SER759  ASP760  ASP761  ALA762  ILE779  LEU786  VAL792 
 PHE793  MET794  SER795  GLU796  ALA797  LYS798  CYS799  TRP800  GLU811  SER814 

> <Gold.Protein.RotatedAtoms>
  151.8992  135.0385  160.0504 H   0  0  0  0  0  0  0  0  0  0  0  0  # atno 6907 bound_to 6896
  152.2372  133.5101  159.5258 H   0  0  0  0  0  0  0  0  0  0  0  0  # atno 6908 bound_to 6896
  150.7043  134.1054  159.4023 H   0  0  0  0  0  0  0  0  0  0  0  0  # atno 6909 bound_to 6896
  146.2151  139.8321  142.8658 H   0  0  0  0  0  0  0  0  0  0  0  0  # atno 7974 bound_to 7965
  154.7585  140.0482  157.0953 H   0  0  0  0  0  0  0  0  0  0  0  0  # atno 8008 bound_to 7997
  154.9967  140.3120  155.4864 H   0  0  0  0  0  0  0  0  0  0  0  0  # atno 8009 bound_to 7997
  156.2899  140.2209  156.5075 H   0  0  0  0  0  0  0  0  0  0  0  0  # atno 8010 bound_to 7997
  140.6890  143.6540  150.8325 H   0  0  0  0  0  0  0  0  0  0  0  0  # atno 10167 bound_to 10162
  157.5315  130.8633  149.8694 H   0  0  0  0  0  0  0  0  0  0  0  0  # atno 10718 bound_to 10713
  154.6230  135.5447  153.7596 H   0  0  0  0  0  0  0  0  0  0  0  0  # atno 10763 bound_to 10752
  153.0247  135.6417  154.1413 H   0  0  0  0  0  0  0  0  0  0  0  0  # atno 10764 bound_to 10752
  154.1347  135.2912  155.3156 H   0  0  0  0  0  0  0  0  0  0  0  0  # atno 10765 bound_to 10752
  139.8771  134.9095  156.4606 H   0  0  0  0  0  0  0  0  0  0  0  0  # atno 11005 bound_to 11000
  145.2986  141.0188  143.3622 LP  0  0  0  0  0  0  0  0  0  0  0  0  # atno 17320 bound_to 7965
  144.9023  139.4634  143.6626 LP  0  0  0  0  0  0  0  0  0  0  0  0  # atno 17321 bound_to 7965
  140.0250  143.5502  152.2784 LP  0  0  0  0  0  0  0  0  0  0  0  0  # atno 17342 bound_to 10162
  139.6275  144.7639  151.2608 LP  0  0  0  0  0  0  0  0  0  0  0  0  # atno 17343 bound_to 10162
  156.0426  130.3735  150.1397 LP  0  0  0  0  0  0  0  0  0  0  0  0  # atno 17370 bound_to 10713
  156.9582  130.9796  151.3484 LP  0  0  0  0  0  0  0  0  0  0  0  0  # atno 17371 bound_to 10713
  140.8866  133.7878  155.9525 LP  0  0  0  0  0  0  0  0  0  0  0  0  # atno 17394 bound_to 11000
  140.8797  134.2626  157.5150 LP  0  0  0  0  0  0  0  0  0  0  0  0  # atno 17395 bound_to 11000

$$$$
