AV-unprocessed.smi:2226|AV-procd|sdf|9003|dock3
  -GOLD-   2272012213D 1   1.00000     0.00000
 Structure written by MMmdl.
 40 42  0  0  0  0  0  0  0  0  2 V2000
  146.0373  141.6192  155.0885 C   0  0  0  0  0  0  0  0  0  0  0  0
  146.0315  140.4699  154.1525 N   0  3  2  0  0  0  0  0  0  0  0  0
  145.9847  139.1370  154.8015 C   0  0  2  0  0  0  0  0  0  0  0  0
  147.3197  138.8125  155.5187 C   0  0  0  0  0  0  0  0  0  0  0  0
  148.5674  138.9869  154.6322 C   0  0  0  0  0  0  0  0  0  0  0  0
  148.4935  140.2472  153.7493 C   0  0  0  0  0  0  0  0  0  0  0  0
  147.0983  140.4986  153.1227 C   0  0  1  0  0  0  0  0  0  0  0  0
  146.7156  139.5295  151.9801 C   0  0  0  0  0  0  0  0  0  0  0  0
  146.3620  138.0965  152.4466 C   0  0  2  0  0  0  0  0  0  0  0  0
  145.6021  137.4215  151.3950 N   0  0  0  0  0  0  0  0  0  0  0  0
  145.4425  136.0956  151.2653 C   0  0  0  0  0  0  0  0  0  0  0  0
  145.9303  135.2701  152.0373 O   0  0  0  0  0  0  0  0  0  0  0  0
  144.6887  135.7992  150.1933 N   0  0  0  0  0  0  0  0  0  0  0  0
  144.3068  134.5124  149.7371 C   0  0  0  0  0  0  0  0  0  0  0  0
  144.4703  133.3588  150.3862 N   0  0  0  0  0  0  0  0  0  0  0  0
  143.9410  132.4004  149.5342 C   0  0  0  0  0  0  0  0  0  0  0  0
  143.4835  133.0352  148.4082 C   0  0  0  0  0  0  0  0  0  0  0  0
  143.7097  134.3807  148.5232 O   0  0  0  0  0  0  0  0  0  0  0  0
  145.5373  138.0884  153.7566 C   0  0  0  0  0  0  0  0  0  0  0  0
  146.9349  141.6463  155.7054 H   0  0  0  0  0  0  0  0  0  0  0  0
  145.1733  141.5724  155.7519 H   0  0  0  0  0  0  0  0  0  0  0  0
  145.9787  142.5578  154.5369 H   0  0  0  0  0  0  0  0  0  0  0  0
  145.2052  139.1650  155.5642 H   0  0  0  0  0  0  0  0  0  0  0  0
  147.4204  139.4656  156.3859 H   0  0  0  0  0  0  0  0  0  0  0  0
  147.2930  137.7997  155.9219 H   0  0  0  0  0  0  0  0  0  0  0  0
  149.4563  139.0366  155.2620 H   0  0  0  0  0  0  0  0  0  0  0  0
  148.7217  138.1037  154.0184 H   0  0  0  0  0  0  0  0  0  0  0  0
  148.7655  141.1098  154.3583 H   0  0  0  0  0  0  0  0  0  0  0  0
  149.2523  140.1948  152.9681 H   0  0  0  0  0  0  0  0  0  0  0  0
  147.1140  141.4987  152.6870 H   0  0  0  0  0  0  0  0  0  0  0  0
  145.8486  139.9536  151.4706 H   0  0  0  0  0  0  0  0  0  0  0  0
  147.5083  139.4939  151.2318 H   0  0  0  0  0  0  0  0  0  0  0  0
  147.2864  137.5518  152.6178 H   0  0  0  0  0  0  0  0  0  0  0  0
  145.1601  138.0142  150.7076 H   0  0  0  0  0  0  0  0  0  0  0  0
  144.3507  136.5746  149.6430 H   0  0  0  0  0  0  0  0  0  0  0  0
  143.9315  131.3520  149.7934 H   0  0  0  0  0  0  0  0  0  0  0  0
  143.0062  132.6991  147.4995 H   0  0  0  0  0  0  0  0  0  0  0  0
  145.5428  137.0900  154.1956 H   0  0  0  0  0  0  0  0  0  0  0  0
  144.4942  138.2969  153.5127 H   0  0  0  0  0  0  0  0  0  0  0  0
  145.1617  140.5578  153.6468 H   0  0  0  0  0  0  0  0  0  0  0  0
  1  2  1  0  0  0  0
  1 20  1  0  0  0  0
  1 21  1  0  0  0  0
  1 22  1  0  0  0  0
  2  7  1  0  0  0  0
  2  3  1  0  0  0  0
  2 40  1  0  0  0  0
  3 19  1  0  0  0  0
  3  4  1  0  0  0  0
  3 23  1  0  0  0  0
  4  5  1  0  0  0  0
  4 24  1  0  0  0  0
  4 25  1  0  0  0  0
  5  6  1  0  0  0  0
  5 26  1  0  0  0  0
  5 27  1  0  0  0  0
  6  7  1  0  0  0  0
  6 28  1  0  0  0  0
  6 29  1  0  0  0  0
  7  8  1  0  0  0  0
  7 30  1  0  0  0  0
  8  9  1  0  0  0  0
  8 31  1  0  0  0  0
  8 32  1  0  0  0  0
  9 10  1  0  0  0  0
  9 19  1  0  0  0  0
  9 33  1  0  0  0  0
 10 11  1  0  0  0  0
 10 34  1  0  0  0  0
 11 12  2  0  0  0  0
 11 13  1  0  0  0  0
 13 14  1  0  0  0  0
 13 35  1  0  0  0  0
 14 18  1  0  0  0  0
 14 15  2  0  0  0  0
 15 16  1  0  0  0  0
 16 17  2  0  0  0  0
 16 36  1  0  0  0  0
 17 18  1  0  0  0  0
 17 37  1  0  0  0  0
 19 38  1  0  0  0  0
 19 39  1  0  0  0  0
M  CHG  1   2   1
M  END
> <s_m_source_file>
AV-unprocessed.smi

> <i_m_source_file_index>
2226

> <i_lp_mmshare_version>
43012

> <i_f3d_flags>
0

> <s_epik_input>
W0NIMl0xW0NIMl1bQ0gyXVtDQEhdKE4oW0NIM10pW0NIXTEyKVtDSDJdW0NASF0oW0NIMl0yKVtOSF1DKD1PKVtOSF1jM25bY0hdW2NIXW8z

> <s_epik_cmdline>
J2VwaWtfcHl0aG9uJywgJy1waCcsICc3LjAnLCAnLXRuJywgJzgnLCAnLW1hJywgJzIwMCcsICctbWV0YWxfYmluZGluZycsICctaW1hZScsICc8aW5maWxlLm1hZT4nLCAnLW9tYWUnLCAnPG91dGZpbGUubWFlPic=

> <r_lp_tautomer_probability>
0.785861

> <r_epik_Ionization_Penalty>
0.000929358

> <r_epik_Ionization_Penalty_Charging>
0.000890041

> <r_epik_Ionization_Penalty_Neutral>
3.93161e-05

> <r_epik_State_Penalty>
0.0312137

> <r_epik_Charging_Adjusted_Penalty>
0.0321037

> <i_epik_Tot_Q>
1

> <i_epik_Tot_abs_Q>
1

> <r_epik_Metal_State_Penalty>
0.0605703

> <b_epik_Metal_Only>
0

> <s_lp_Force_Field>
OPLS_2005

> <r_lp_Energy>
34.3269

> <b_lp_Chiralities_Consistent>
1

> <s_lp_Variant>
AV-unprocessed.smi:2226-3

> <Gold.Version>
5.8.1

> <Gold.Id.Protein>
6NUR|6NUR_protein|mol2

> <Gold.PLP.Fitness>
38.4336

> <Gold.PLP.PLP>
-23.5087

> <Gold.PLP.part.hbond>
-3.9406

> <Gold.PLP.part.metal>
0.0000

> <Gold.PLP.part.buried>
4.0044

> <Gold.PLP.part.nonpolar>
-30.0261

> <Gold.PLP.part.repulsive>
5.6261

> <Gold.PLP.ligand.clash>
0.0000

> <Gold.PLP.ligand.torsion>
0.2671

> <Gold.PLP.Chemscore.Hbond>
4.1512

> <Gold.PLP.Chemscore.CHOScore>
1.0000

> <Gold.PLP.Chemscore.Metal>
0.0000

> <Gold.Chemscore.Hbonds>
donor molecule, donor type, donor heavy atom, donor atom, acceptor molecule, acceptor atom, score
      L1  H     2    40       P1 10175  2.00
      L1  H    10    34       P1 10171  1.00
      L1  H    13    35       P1 10171  0.81
      P1  H 10192 10197       L1    18  0.29
      L1  C    17    37       P1 10195  1.00

> <Gold.PLP.Chemscore.Internal.Correction>
0.0057

> <Gold.Rescore>
     Score         DG    S(hbond)    S(metal)    S(lipo)     H(rot)  DE(clash)    DE(int)     intcor
     15.30     -20.43       2.85        0.00      68.27       1.00       3.62       1.50       ----

> <Gold.Chemscore.Fitness>
15.3025

> <Gold.Chemscore.DG>
-20.4271

> <Gold.Chemscore.ZeroCoef>
-5.4800

> <Gold.Chemscore.Hbond>
2.8500

> <Gold.Chemscore.Metal>
0.0000

> <Gold.Chemscore.Lipo>
68.2747

> <Gold.Chemscore.Internal_Hbond>
0.0000

> <Gold.Chemscore.DEClash>
3.6214

> <Gold.Chemscore.DEInternal>
1.5032

> <Gold.Chemscore.Rot>
1.0000

> <Gold.Chemscore.Internal.Correction>
   9.000000E+99

> <Gold.Chemscore.Hbonds>
donor molecule, donor type, donor heavy atom, donor atom, acceptor molecule, acceptor atom, score
      L1  H     2    40       P1 10175  0.99
      L1  H    10    34       P1 10171  0.98
      L1  H    13    35       P1 10171  0.77
      P1  H 10192 10197       L1    18  0.07

> <Gold.Chemscore.Hbond.Weighted>
-9.5190

> <Gold.Chemscore.Metal.Weighted>
-0.0000

> <Gold.Chemscore.Lipo.Weighted>
-7.9881

> <Gold.Chemscore.Internal_Hbond.Weighted>
0.0000

> <Gold.Chemscore.DEClash.Weighted>
3.6214

> <Gold.Chemscore.DEInternal.Weighted>
1.5032

> <Gold.Chemscore.Rot.Weighted>
2.5600

> <Gold.Chemscore.Internal.Correction.Weighted>
   9.000000E+99

> <Gold.Protein.RotatedTorsions>
[ 6907 6896 6895 6894 ] final  165.33 input  -60.11 | X-H torsion
[ 7974 7965 7964 7962 ] final  150.64 input  175.53 | X-H torsion
[ 8008 7997 7996 7995 ] final   91.12 input   59.86 | X-H torsion
[ 10167 10162 10161 10158 ] final  137.44 input  -65.29 | X-H torsion
[ 10718 10713 10712 10709 ] final   95.79 input   66.30 | X-H torsion
[ 10763 10752 10751 10750 ] final  -37.29 input  -60.55 | X-H torsion
[ 11005 11000 10999 10996 ] final  -97.87 input  -57.11 | X-H torsion

> <Gold.Protein.ActiveResidues>
 VAL166  LYS551  ARG553  GLY616  TRP617  ASP618  TYR619  PRO620  LYS621  CYS622 
 ASP623  PHE694  ASN695  SER759  ASP760  ASP761  ALA762  ILE779  LEU786  VAL792 
 PHE793  MET794  SER795  GLU796  ALA797  LYS798  CYS799  TRP800  GLU811  SER814 

> <Gold.Protein.RotatedAtoms>
  151.8961  133.3527  159.3814 H   0  0  0  0  0  0  0  0  0  0  0  0  # atno 6907 bound_to 6896
  150.7091  134.4875  159.5509 H   0  0  0  0  0  0  0  0  0  0  0  0  # atno 6908 bound_to 6896
  152.2455  134.8186  160.0505 H   0  0  0  0  0  0  0  0  0  0  0  0  # atno 6909 bound_to 6896
  144.8349  139.6435  143.6042 H   0  0  0  0  0  0  0  0  0  0  0  0  # atno 7974 bound_to 7965
  156.0200  140.3341  155.7029 H   0  0  0  0  0  0  0  0  0  0  0  0  # atno 8008 bound_to 7997
  155.6035  140.0658  157.2744 H   0  0  0  0  0  0  0  0  0  0  0  0  # atno 8009 bound_to 7997
  154.4312  140.1806  156.1186 H   0  0  0  0  0  0  0  0  0  0  0  0  # atno 8010 bound_to 7997
  139.5144  144.6410  151.5569 H   0  0  0  0  0  0  0  0  0  0  0  0  # atno 10167 bound_to 10162
  157.6935  131.0557  150.4393 H   0  0  0  0  0  0  0  0  0  0  0  0  # atno 10718 bound_to 10713
  153.8938  135.6809  153.4759 H   0  0  0  0  0  0  0  0  0  0  0  0  # atno 10763 bound_to 10752
  153.1166  135.4758  154.9124 H   0  0  0  0  0  0  0  0  0  0  0  0  # atno 10764 bound_to 10752
  154.7609  135.3210  154.8333 H   0  0  0  0  0  0  0  0  0  0  0  0  # atno 10765 bound_to 10752
  141.1364  133.8203  157.0764 H   0  0  0  0  0  0  0  0  0  0  0  0  # atno 11005 bound_to 11000
  146.2649  139.6496  142.9336 LP  0  0  0  0  0  0  0  0  0  0  0  0  # atno 17320 bound_to 7965
  145.4815  141.0438  143.2643 LP  0  0  0  0  0  0  0  0  0  0  0  0  # atno 17321 bound_to 7965
  140.6176  143.9319  150.6501 LP  0  0  0  0  0  0  0  0  0  0  0  0  # atno 17342 bound_to 10162
  140.2582  143.3543  152.1346 LP  0  0  0  0  0  0  0  0  0  0  0  0  # atno 17343 bound_to 10162
  156.4753  130.4061  149.6494 LP  0  0  0  0  0  0  0  0  0  0  0  0  # atno 17370 bound_to 10713
  156.3559  130.7456  151.2422 LP  0  0  0  0  0  0  0  0  0  0  0  0  # atno 17371 bound_to 10713
  140.0479  134.9821  157.1083 LP  0  0  0  0  0  0  0  0  0  0  0  0  # atno 17394 bound_to 11000
  140.4035  134.2058  155.7163 LP  0  0  0  0  0  0  0  0  0  0  0  0  # atno 17395 bound_to 11000

$$$$
