AV-unprocessed.smi:1095|AV-procd|sdf|4747|dock1
  -GOLD-   22720 3283D 1   1.00000     0.00000
 Structure written by MMmdl.
 50 51  0  0  0  0  0  0  0  0  1 V2000
  151.3839  145.5059  160.1405 C   0  0  0  0  0  0  0  0  0  0  0  0
  152.3055  145.2971  158.9307 C   0  0  0  0  0  0  0  0  0  0  0  0
  152.4791  143.8210  158.5190 C   0  0  2  0  0  0  0  0  0  0  0  0
  151.1229  143.1958  158.1378 C   0  0  0  0  0  0  0  0  0  0  0  0
  151.2706  141.7268  157.7113 C   0  0  0  0  0  0  0  0  0  0  0  0
  151.9374  140.8778  158.8098 C   0  0  1  0  0  0  0  0  0  0  0  0
  152.0571  139.4042  158.3675 C   0  0  0  0  0  0  0  0  0  0  0  0
  153.0940  138.7035  159.1166 N   0  0  0  0  0  0  0  0  0  0  0  0
  152.9473  137.5247  159.7412 C   0  0  0  0  0  0  0  0  0  0  0  0
  151.8718  136.9366  159.8506 O   0  0  0  0  0  0  0  0  0  0  0  0
  154.2246  136.8894  160.2868 C   0  0  0  0  0  0  0  0  0  0  0  0
  154.6114  137.5912  161.5651 C   0  0  0  0  0  0  0  0  0  0  0  0
  155.1235  138.9149  161.7145 C   0  0  0  0  0  0  0  0  0  0  0  0
  155.4059  139.9350  160.6488 C   0  0  0  0  0  0  0  0  0  0  0  0
  155.3796  139.2176  162.9759 N   0  0  0  0  0  0  0  0  0  0  0  0
  155.0442  138.1124  163.6706 N   0  0  0  0  0  0  0  0  0  0  0  0
  155.2069  138.1025  165.1114 C   0  0  0  0  0  0  0  0  0  0  0  0
  154.5805  137.1065  162.8454 C   0  0  0  0  0  0  0  0  0  0  0  0
  154.1584  135.7729  163.3727 C   0  0  0  0  0  0  0  0  0  0  0  0
  153.2945  141.5016  159.2031 C   0  0  0  0  0  0  0  0  0  0  0  0
  153.1504  142.9740  159.6200 C   0  0  0  0  0  0  0  0  0  0  0  0
  151.3631  146.5566  160.4306 H   0  0  0  0  0  0  0  0  0  0  0  0
  151.7268  144.9319  161.0017 H   0  0  0  0  0  0  0  0  0  0  0  0
  150.3580  145.2091  159.9233 H   0  0  0  0  0  0  0  0  0  0  0  0
  151.9357  145.8782  158.0851 H   0  0  0  0  0  0  0  0  0  0  0  0
  153.2827  145.7139  159.1773 H   0  0  0  0  0  0  0  0  0  0  0  0
  153.1149  143.7932  157.6326 H   0  0  0  0  0  0  0  0  0  0  0  0
  150.4356  143.2615  158.9824 H   0  0  0  0  0  0  0  0  0  0  0  0
  150.6661  143.7621  157.3254 H   0  0  0  0  0  0  0  0  0  0  0  0
  150.2880  141.3195  157.4711 H   0  0  0  0  0  0  0  0  0  0  0  0
  151.8587  141.6723  156.7942 H   0  0  0  0  0  0  0  0  0  0  0  0
  151.2909  140.9071  159.6885 H   0  0  0  0  0  0  0  0  0  0  0  0
  151.1147  138.8871  158.5498 H   0  0  0  0  0  0  0  0  0  0  0  0
  152.2331  139.3443  157.2922 H   0  0  0  0  0  0  0  0  0  0  0  0
  154.0199  139.1054  159.0875 H   0  0  0  0  0  0  0  0  0  0  0  0
  154.0617  135.8229  160.4458 H   0  0  0  0  0  0  0  0  0  0  0  0
  155.0102  136.9634  159.5339 H   0  0  0  0  0  0  0  0  0  0  0  0
  154.7256  139.8246  159.8050 H   0  0  0  0  0  0  0  0  0  0  0  0
  156.4230  139.8294  160.2711 H   0  0  0  0  0  0  0  0  0  0  0  0
  155.2945  140.9516  161.0278 H   0  0  0  0  0  0  0  0  0  0  0  0
  156.0190  137.4273  165.3819 H   0  0  0  0  0  0  0  0  0  0  0  0
  154.2857  137.7605  165.5836 H   0  0  0  0  0  0  0  0  0  0  0  0
  155.4400  139.1025  165.4800 H   0  0  0  0  0  0  0  0  0  0  0  0
  154.0648  135.0423  162.5694 H   0  0  0  0  0  0  0  0  0  0  0  0
  153.1948  135.8449  163.8771 H   0  0  0  0  0  0  0  0  0  0  0  0
  154.8870  135.3862  164.0854 H   0  0  0  0  0  0  0  0  0  0  0  0
  153.7448  140.9505  160.0287 H   0  0  0  0  0  0  0  0  0  0  0  0
  153.9909  141.4255  158.3671 H   0  0  0  0  0  0  0  0  0  0  0  0
  154.1382  143.3687  159.8560 H   0  0  0  0  0  0  0  0  0  0  0  0
  152.5672  143.0343  160.5400 H   0  0  0  0  0  0  0  0  0  0  0  0
  1  2  1  0  0  0  0
  1 22  1  0  0  0  0
  1 23  1  0  0  0  0
  1 24  1  0  0  0  0
  2  3  1  0  0  0  0
  2 25  1  0  0  0  0
  2 26  1  0  0  0  0
  3 21  1  0  0  0  0
  3  4  1  0  0  0  0
  3 27  1  0  0  0  0
  4  5  1  0  0  0  0
  4 28  1  0  0  0  0
  4 29  1  0  0  0  0
  5  6  1  0  0  0  0
  5 30  1  0  0  0  0
  5 31  1  0  0  0  0
  6  7  1  0  0  0  0
  6 20  1  0  0  0  0
  6 32  1  0  0  0  0
  7  8  1  0  0  0  0
  7 33  1  0  0  0  0
  7 34  1  0  0  0  0
  8  9  1  0  0  0  0
  8 35  1  0  0  0  0
  9 10  2  0  0  0  0
  9 11  1  0  0  0  0
 11 12  1  0  0  0  0
 11 36  1  0  0  0  0
 11 37  1  0  0  0  0
 12 18  2  0  0  0  0
 12 13  1  0  0  0  0
 13 14  1  0  0  0  0
 13 15  2  0  0  0  0
 14 38  1  0  0  0  0
 14 39  1  0  0  0  0
 14 40  1  0  0  0  0
 15 16  1  0  0  0  0
 16 17  1  0  0  0  0
 16 18  1  0  0  0  0
 17 41  1  0  0  0  0
 17 42  1  0  0  0  0
 17 43  1  0  0  0  0
 18 19  1  0  0  0  0
 19 44  1  0  0  0  0
 19 45  1  0  0  0  0
 19 46  1  0  0  0  0
 20 21  1  0  0  0  0
 20 47  1  0  0  0  0
 20 48  1  0  0  0  0
 21 49  1  0  0  0  0
 21 50  1  0  0  0  0
M  END
> <s_m_source_file>
AV-unprocessed.smi

> <i_m_source_file_index>
1095

> <i_lp_mmshare_version>
43012

> <i_f3d_flags>
0

> <s_epik_input>
W0NIM11bQ0gyXVtDQEBIXTFbQ0gyXVtDSDJdW0NASF0oW0NIMl1bQ0gyXTEpW0NIMl1bTkhdQyg9TylbQ0gyXWMyYyhbQ0gzXSlubihbQ0gzXSljMltDSDNd

> <s_epik_cmdline>
J2VwaWtfcHl0aG9uJywgJy1waCcsICc3LjAnLCAnLXRuJywgJzgnLCAnLW1hJywgJzIwMCcsICctbWV0YWxfYmluZGluZycsICctaW1hZScsICc8aW5maWxlLm1hZT4nLCAnLW9tYWUnLCAnPG91dGZpbGUubWFlPic=

> <r_lp_tautomer_probability>
1

> <r_epik_Ionization_Penalty>
0.00317479

> <r_epik_Ionization_Penalty_Charging>
0

> <r_epik_Ionization_Penalty_Neutral>
0.00317479

> <r_epik_State_Penalty>
0.00223767

> <r_epik_Charging_Adjusted_Penalty>
0.00223767

> <i_epik_Tot_Q>
0

> <i_epik_Tot_abs_Q>
0

> <r_epik_Metal_State_Penalty>
-0

> <b_epik_Metal_Only>
0

> <s_lp_Force_Field>
OPLS_2005

> <r_lp_Energy>
5.54232

> <b_lp_Chiralities_Consistent>
1

> <s_lp_Variant>
AV-unprocessed.smi:1095-1

> <Gold.Version>
5.8.1

> <Gold.Id.Protein>
6NUR|6NUR_protein|mol2

> <Gold.PLP.Fitness>
47.5472

> <Gold.PLP.PLP>
-45.6617

> <Gold.PLP.part.hbond>
-1.0000

> <Gold.PLP.part.metal>
0.0000

> <Gold.PLP.part.buried>
-5.8878

> <Gold.PLP.part.nonpolar>
-38.7448

> <Gold.PLP.part.repulsive>
0.0751

> <Gold.PLP.ligand.clash>
0.0000

> <Gold.PLP.ligand.torsion>
0.6049

> <Gold.PLP.Chemscore.Hbond>
1.0000

> <Gold.PLP.Chemscore.CHOScore>
0.0000

> <Gold.PLP.Chemscore.Metal>
0.0000

> <Gold.Chemscore.Hbonds>
donor molecule, donor type, donor heavy atom, donor atom, acceptor molecule, acceptor atom, score
      P1  H  6896  6909       L1    10  1.00

> <Gold.PLP.Chemscore.Internal.Correction>
0.0954

> <Gold.Rescore>
     Score         DG    S(hbond)    S(metal)    S(lipo)     H(rot)  DE(clash)    DE(int)     intcor
     20.53     -21.17       1.00        0.00     136.92       1.43       0.05       0.59       ----

> <Gold.Chemscore.Fitness>
20.5295

> <Gold.Chemscore.DG>
-21.1688

> <Gold.Chemscore.ZeroCoef>
-5.4800

> <Gold.Chemscore.Hbond>
0.9997

> <Gold.Chemscore.Metal>
0.0000

> <Gold.Chemscore.Lipo>
136.9213

> <Gold.Chemscore.Internal_Hbond>
0.0000

> <Gold.Chemscore.DEClash>
0.0524

> <Gold.Chemscore.DEInternal>
0.5869

> <Gold.Chemscore.Rot>
1.4336

> <Gold.Chemscore.Internal.Correction>
   9.000000E+99

> <Gold.Chemscore.Hbonds>
donor molecule, donor type, donor heavy atom, donor atom, acceptor molecule, acceptor atom, score
      P1  H  6896  6909       L1    10  1.00

> <Gold.Chemscore.Hbond.Weighted>
-3.3390

> <Gold.Chemscore.Metal.Weighted>
-0.0000

> <Gold.Chemscore.Lipo.Weighted>
-16.0198

> <Gold.Chemscore.Internal_Hbond.Weighted>
0.0000

> <Gold.Chemscore.DEClash.Weighted>
0.0524

> <Gold.Chemscore.DEInternal.Weighted>
0.5869

> <Gold.Chemscore.Rot.Weighted>
3.6700

> <Gold.Chemscore.Internal.Correction.Weighted>
   9.000000E+99

> <Gold.Protein.RotatedTorsions>
[ 6907 6896 6895 6894 ] final  128.86 input  -60.11 | X-H torsion
[ 7974 7965 7964 7962 ] final   -0.86 input  175.53 | X-H torsion
[ 8008 7997 7996 7995 ] final   83.87 input   59.86 | X-H torsion
[ 10167 10162 10161 10158 ] final -109.77 input  -65.29 | X-H torsion
[ 10718 10713 10712 10709 ] final  136.28 input   66.30 | X-H torsion
[ 10763 10752 10751 10750 ] final  149.86 input  -60.55 | X-H torsion
[ 11005 11000 10999 10996 ] final  100.86 input  -57.11 | X-H torsion

> <Gold.Protein.ActiveResidues>
 VAL166  LYS551  ARG553  GLY616  TRP617  ASP618  TYR619  PRO620  LYS621  CYS622 
 ASP623  PHE694  ASN695  SER759  ASP760  ASP761  ALA762  ILE779  LEU786  VAL792 
 PHE793  MET794  SER795  GLU796  ALA797  LYS798  CYS799  TRP800  GLU811  SER814 

> <Gold.Protein.RotatedAtoms>
  152.3679  133.6381  159.6064 H   0  0  0  0  0  0  0  0  0  0  0  0  # atno 6907 bound_to 6896
  150.7647  133.9317  159.3438 H   0  0  0  0  0  0  0  0  0  0  0  0  # atno 6908 bound_to 6896
  151.7145  135.0907  160.0324 H   0  0  0  0  0  0  0  0  0  0  0  0  # atno 6909 bound_to 6896
  146.2423  140.1334  142.8337 H   0  0  0  0  0  0  0  0  0  0  0  0  # atno 7974 bound_to 7965
  155.9296  140.3415  155.6238 H   0  0  0  0  0  0  0  0  0  0  0  0  # atno 8008 bound_to 7997
  155.7173  140.0779  157.2364 H   0  0  0  0  0  0  0  0  0  0  0  0  # atno 8009 bound_to 7997
  154.4083  140.1612  156.2350 H   0  0  0  0  0  0  0  0  0  0  0  0  # atno 8010 bound_to 7997
  140.1517  143.4193  152.1489 H   0  0  0  0  0  0  0  0  0  0  0  0  # atno 10167 bound_to 10162
  157.4483  131.1064  151.0063 H   0  0  0  0  0  0  0  0  0  0  0  0  # atno 10718 bound_to 10713
  154.0780  135.2861  155.3296 H   0  0  0  0  0  0  0  0  0  0  0  0  # atno 10763 bound_to 10752
  154.6703  135.5302  153.8133 H   0  0  0  0  0  0  0  0  0  0  0  0  # atno 10764 bound_to 10752
  153.0460  135.6556  154.0957 H   0  0  0  0  0  0  0  0  0  0  0  0  # atno 10765 bound_to 10752
  139.8772  134.9158  156.4820 H   0  0  0  0  0  0  0  0  0  0  0  0  # atno 11005 bound_to 11000
  145.0307  140.8868  143.5111 LP  0  0  0  0  0  0  0  0  0  0  0  0  # atno 17320 bound_to 7965
  145.1398  139.2579  143.5496 LP  0  0  0  0  0  0  0  0  0  0  0  0  # atno 17321 bound_to 7965
  139.5422  144.7267  151.4696 LP  0  0  0  0  0  0  0  0  0  0  0  0  # atno 17342 bound_to 10162
  140.6698  143.8319  150.6985 LP  0  0  0  0  0  0  0  0  0  0  0  0  # atno 17343 bound_to 10162
  157.0902  130.5939  149.5438 LP  0  0  0  0  0  0  0  0  0  0  0  0  # atno 17370 bound_to 10713
  155.9976  130.5048  150.7542 LP  0  0  0  0  0  0  0  0  0  0  0  0  # atno 17371 bound_to 10713
  140.8721  133.7981  155.9375 LP  0  0  0  0  0  0  0  0  0  0  0  0  # atno 17394 bound_to 11000
  140.8942  134.2458  157.5078 LP  0  0  0  0  0  0  0  0  0  0  0  0  # atno 17395 bound_to 11000

$$$$
