AV-unprocessed.smi:3167|AV-procd|sdf|12098|dock10
  -GOLD-   2272017533D 1   1.00000     0.00000
 Structure written by MMmdl.
 37 38  0  0  0  0  0  0  0  0  2 V2000
  142.8100  136.0839  153.0915 C   0  0  0  0  0  0  0  0  0  0  0  0
  143.6678  135.9848  151.8094 C   0  0  1  0  0  0  0  0  0  0  0  0
  145.1355  136.3816  152.0996 C   0  0  0  0  0  0  0  0  0  0  0  0
  145.2538  137.7739  152.5168 N   0  0  0  0  0  0  0  0  0  0  0  0
  146.3440  138.2980  153.0920 C   0  0  0  0  0  0  0  0  0  0  0  0
  147.3648  137.6500  153.3236 O   0  0  0  0  0  0  0  0  0  0  0  0
  146.1716  139.5997  153.3745 N   0  0  0  0  0  0  0  0  0  0  0  0
  147.1036  140.4792  153.9814 C   0  0  0  0  0  0  0  0  0  0  0  0
  148.3962  140.1007  154.4358 C   0  0  0  0  0  0  0  0  0  0  0  0
  149.0456  141.1302  154.9599 N   0  0  0  0  0  0  0  0  0  0  0  0
  148.1797  142.1623  154.8453 N   0  0  0  0  0  0  0  0  0  0  0  0
  146.9848  141.8128  154.2559 C   0  0  0  0  0  0  0  0  0  0  0  0
  143.5992  134.6170  151.2172 N   0  3  0  0  0  0  0  0  0  0  0  0
  144.5531  134.3420  150.1199 C   0  0  0  0  0  0  0  0  0  0  0  0
  144.6423  132.8227  150.0429 C   0  0  0  0  0  0  0  0  0  0  0  0
  144.5634  132.4007  151.5049 C   0  0  0  0  0  0  0  0  0  0  0  0
  143.7357  133.4991  152.1864 C   0  0  0  0  0  0  0  0  0  0  0  0
  148.4157  143.0888  155.1712 H   0  0  0  0  0  0  0  0  0  0  0  0
  142.8598  137.0778  153.5360 H   0  0  0  0  0  0  0  0  0  0  0  0
  143.1431  135.3703  153.8457 H   0  0  0  0  0  0  0  0  0  0  0  0
  141.7551  135.8943  152.8944 H   0  0  0  0  0  0  0  0  0  0  0  0
  143.2588  136.6838  151.0778 H   0  0  0  0  0  0  0  0  0  0  0  0
  145.5473  135.7378  152.8787 H   0  0  0  0  0  0  0  0  0  0  0  0
  145.7613  136.2468  151.2169 H   0  0  0  0  0  0  0  0  0  0  0  0
  144.4565  138.3737  152.3614 H   0  0  0  0  0  0  0  0  0  0  0  0
  145.2800  140.0058  153.1315 H   0  0  0  0  0  0  0  0  0  0  0  0
  148.8750  139.1332  154.4035 H   0  0  0  0  0  0  0  0  0  0  0  0
  146.1898  142.5253  154.0942 H   0  0  0  0  0  0  0  0  0  0  0  0
  144.2274  134.7786  149.1753 H   0  0  0  0  0  0  0  0  0  0  0  0
  145.5319  134.7552  150.3695 H   0  0  0  0  0  0  0  0  0  0  0  0
  143.7856  132.4274  149.4951 H   0  0  0  0  0  0  0  0  0  0  0  0
  145.5496  132.4744  149.5483 H   0  0  0  0  0  0  0  0  0  0  0  0
  144.1285  131.4086  151.6290 H   0  0  0  0  0  0  0  0  0  0  0  0
  145.5660  132.3779  151.9341 H   0  0  0  0  0  0  0  0  0  0  0  0
  144.2351  133.8160  153.1031 H   0  0  0  0  0  0  0  0  0  0  0  0
  142.7432  133.1372  152.4565 H   0  0  0  0  0  0  0  0  0  0  0  0
  142.6804  134.5183  150.8093 H   0  0  0  0  0  0  0  0  0  0  0  0
  1  2  1  0  0  0  0
  1 19  1  0  0  0  0
  1 20  1  0  0  0  0
  1 21  1  0  0  0  0
  2  3  1  0  0  0  0
  2 13  1  0  0  0  0
  2 22  1  0  0  0  0
  3  4  1  0  0  0  0
  3 23  1  0  0  0  0
  3 24  1  0  0  0  0
  4  5  1  0  0  0  0
  4 25  1  0  0  0  0
  5  6  2  0  0  0  0
  5  7  1  0  0  0  0
  7  8  1  0  0  0  0
  7 26  1  0  0  0  0
  8 12  2  0  0  0  0
  8  9  1  0  0  0  0
  9 10  2  0  0  0  0
  9 27  1  0  0  0  0
 10 11  1  0  0  0  0
 11 18  1  0  0  0  0
 11 12  1  0  0  0  0
 12 28  1  0  0  0  0
 13 17  1  0  0  0  0
 13 14  1  0  0  0  0
 13 37  1  0  0  0  0
 14 15  1  0  0  0  0
 14 29  1  0  0  0  0
 14 30  1  0  0  0  0
 15 16  1  0  0  0  0
 15 31  1  0  0  0  0
 15 32  1  0  0  0  0
 16 17  1  0  0  0  0
 16 33  1  0  0  0  0
 16 34  1  0  0  0  0
 17 35  1  0  0  0  0
 17 36  1  0  0  0  0
M  CHG  1  13   1
M  END
> <s_m_source_file>
AV-unprocessed.smi

> <i_m_source_file_index>
3167

> <i_lp_mmshare_version>
43012

> <i_f3d_flags>
0

> <s_epik_input>
W0NIMl0xW0NIMl1bQ0gyXVtDSDJdTjFbQ0BIXShbQ0gzXSlbQ0gyXVtOSF1DKD1PKVtOSF1jMltjSF1uW25IXVtjSF0y

> <s_epik_cmdline>
J2VwaWtfcHl0aG9uJywgJy1waCcsICc3LjAnLCAnLXRuJywgJzgnLCAnLW1hJywgJzIwMCcsICctbWV0YWxfYmluZGluZycsICctaW1hZScsICc8aW5maWxlLm1hZT4nLCAnLW9tYWUnLCAnPG91dGZpbGUubWFlPic=

> <r_lp_tautomer_probability>
0.5

> <r_epik_Ionization_Penalty>
0.000801258

> <r_epik_Ionization_Penalty_Charging>
0.000761583

> <r_epik_Ionization_Penalty_Neutral>
3.96747e-05

> <r_epik_State_Penalty>
0.000487427

> <r_epik_Charging_Adjusted_Penalty>
0.00124901

> <i_epik_Tot_Q>
1

> <i_epik_Tot_abs_Q>
1

> <r_epik_Metal_State_Penalty>
-0

> <b_epik_Metal_Only>
0

> <s_lp_Force_Field>
OPLS_2005

> <r_lp_Energy>
33.9812

> <b_lp_Chiralities_Consistent>
1

> <s_lp_Variant>
AV-unprocessed.smi:3167-2

> <Gold.Version>
5.8.1

> <Gold.Id.Protein>
6NUR|6NUR_protein|mol2

> <Gold.PLP.Fitness>
38.9985

> <Gold.PLP.PLP>
-25.9251

> <Gold.PLP.part.hbond>
-4.9212

> <Gold.PLP.part.metal>
0.0000

> <Gold.PLP.part.buried>
-3.7889

> <Gold.PLP.part.nonpolar>
-21.5417

> <Gold.PLP.part.repulsive>
4.6529

> <Gold.PLP.ligand.clash>
0.0000

> <Gold.PLP.ligand.torsion>
0.3142

> <Gold.PLP.Chemscore.Hbond>
4.5577

> <Gold.PLP.Chemscore.CHOScore>
0.0000

> <Gold.PLP.Chemscore.Metal>
0.0000

> <Gold.Chemscore.Hbonds>
donor molecule, donor type, donor heavy atom, donor atom, acceptor molecule, acceptor atom, score
      L1  H     4    25       P1 10175  0.50
      L1  H     7    26       P1 10175  1.00
      L1  H    11    18       P1  8028  1.00
      L1  H    13    37       P1 10186  1.55

> <Gold.PLP.Chemscore.Internal.Correction>
0.0288

> <Gold.Rescore>
     Score         DG    S(hbond)    S(metal)    S(lipo)     H(rot)  DE(clash)    DE(int)     intcor
     14.05     -18.22       2.87        0.00      62.70       1.63       2.32       1.85       ----

> <Gold.Chemscore.Fitness>
14.0520

> <Gold.Chemscore.DG>
-18.2175

> <Gold.Chemscore.ZeroCoef>
-5.4800

> <Gold.Chemscore.Hbond>
2.8675

> <Gold.Chemscore.Metal>
0.0000

> <Gold.Chemscore.Lipo>
62.6985

> <Gold.Chemscore.Internal_Hbond>
0.0000

> <Gold.Chemscore.DEClash>
2.3196

> <Gold.Chemscore.DEInternal>
1.8459

> <Gold.Chemscore.Rot>
1.6311

> <Gold.Chemscore.Internal.Correction>
   9.000000E+99

> <Gold.Chemscore.Hbonds>
donor molecule, donor type, donor heavy atom, donor atom, acceptor molecule, acceptor atom, score
      L1  H     4    25       P1 10175  0.49
      L1  H     7    26       P1 10175  1.00
      L1  H    11    18       P1  8028  1.00
      L1  H    13    37       P1 10186  0.15

> <Gold.Chemscore.Hbond.Weighted>
-9.5775

> <Gold.Chemscore.Metal.Weighted>
-0.0000

> <Gold.Chemscore.Lipo.Weighted>
-7.3357

> <Gold.Chemscore.Internal_Hbond.Weighted>
0.0000

> <Gold.Chemscore.DEClash.Weighted>
2.3196

> <Gold.Chemscore.DEInternal.Weighted>
1.8459

> <Gold.Chemscore.Rot.Weighted>
4.1757

> <Gold.Chemscore.Internal.Correction.Weighted>
   9.000000E+99

> <Gold.Protein.RotatedTorsions>
[ 6907 6896 6895 6894 ] final   93.66 input  -60.11 | X-H torsion
[ 7974 7965 7964 7962 ] final -178.16 input  175.53 | X-H torsion
[ 8008 7997 7996 7995 ] final  -42.76 input   59.86 | X-H torsion
[ 10167 10162 10161 10158 ] final  130.98 input  -65.29 | X-H torsion
[ 10718 10713 10712 10709 ] final -114.90 input   66.30 | X-H torsion
[ 10763 10752 10751 10750 ] final -142.57 input  -60.55 | X-H torsion
[ 11005 11000 10999 10996 ] final  -23.49 input  -57.11 | X-H torsion

> <Gold.Protein.ActiveResidues>
 VAL166  LYS551  ARG553  GLY616  TRP617  ASP618  TYR619  PRO620  LYS621  CYS622 
 ASP623  PHE694  ASN695  SER759  ASP760  ASP761  ALA762  ILE779  LEU786  VAL792 
 PHE793  MET794  SER795  GLU796  ALA797  LYS798  CYS799  TRP800  GLU811  SER814 

> <Gold.Protein.RotatedAtoms>
  152.5452  134.1313  159.8439 H   0  0  0  0  0  0  0  0  0  0  0  0  # atno 6907 bound_to 6896
  151.1358  133.4998  159.2605 H   0  0  0  0  0  0  0  0  0  0  0  0  # atno 6908 bound_to 6896
  151.1626  135.0290  159.8771 H   0  0  0  0  0  0  0  0  0  0  0  0  # atno 6909 bound_to 6896
  144.7130  140.0910  143.6421 H   0  0  0  0  0  0  0  0  0  0  0  0  # atno 7974 bound_to 7965
  154.3998  140.1465  156.3408 H   0  0  0  0  0  0  0  0  0  0  0  0  # atno 8008 bound_to 7997
  155.8358  140.3464  155.5579 H   0  0  0  0  0  0  0  0  0  0  0  0  # atno 8009 bound_to 7997
  155.8140  140.0888  157.1878 H   0  0  0  0  0  0  0  0  0  0  0  0  # atno 8010 bound_to 7997
  139.5405  144.6725  151.4641 H   0  0  0  0  0  0  0  0  0  0  0  0  # atno 10167 bound_to 10162
  156.0860  130.6052  150.8836 H   0  0  0  0  0  0  0  0  0  0  0  0  # atno 10718 bound_to 10713
  154.8504  135.3492  154.6049 H   0  0  0  0  0  0  0  0  0  0  0  0  # atno 10763 bound_to 10752
  153.6658  135.6987  153.5167 H   0  0  0  0  0  0  0  0  0  0  0  0  # atno 10764 bound_to 10752
  153.2782  135.4272  155.1010 H   0  0  0  0  0  0  0  0  0  0  0  0  # atno 10765 bound_to 10752
  140.8757  133.7689  156.0240 H   0  0  0  0  0  0  0  0  0  0  0  0  # atno 11005 bound_to 11000
  145.9620  139.2807  143.1150 LP  0  0  0  0  0  0  0  0  0  0  0  0  # atno 17320 bound_to 7965
  145.9210  140.9115  143.0405 LP  0  0  0  0  0  0  0  0  0  0  0  0  # atno 17321 bound_to 7965
  140.6632  143.8453  150.6912 LP  0  0  0  0  0  0  0  0  0  0  0  0  # atno 17342 bound_to 10162
  140.1854  143.4080  152.1902 LP  0  0  0  0  0  0  0  0  0  0  0  0  # atno 17343 bound_to 10162
  157.5994  131.0942  150.8985 LP  0  0  0  0  0  0  0  0  0  0  0  0  # atno 17370 bound_to 10713
  156.9145  130.5293  149.5280 LP  0  0  0  0  0  0  0  0  0  0  0  0  # atno 17371 bound_to 10713
  140.8521  134.2941  157.5271 LP  0  0  0  0  0  0  0  0  0  0  0  0  # atno 17394 bound_to 11000
  139.8715  134.9473  156.3964 LP  0  0  0  0  0  0  0  0  0  0  0  0  # atno 17395 bound_to 11000

$$$$
