#       Name:                AV-unprocessed.smi:2717
#       Creating user name   scv26
#       Creation time:       Fri Mar 27 14:53:02 2020


#       File generated by GOLD software.
#

@<TRIPOS>MOLECULE
AV-unprocessed.smi:2717
    48    49     1
SMALL
NO_CHARGES


@<TRIPOS>ATOM
      1 ****        -3.7763   2.7103   4.8540 C.3            1 S1                 0.0000
      2 ****        -2.3925   2.6785   4.1961 C.3            1 S1                 0.0000
      3 ****        -2.2675   1.5977   3.1751 C.2            1 S1                 0.0000
      4 ****        -1.8830   0.3516   3.4649 N.2            1 S1                 0.0000
      5 ****        -1.8734  -0.4827   2.3430 C.2            1 S1                 0.0000
      6 ****        -1.4419  -1.9144   2.4753 C.3            1 S1                 0.0000
      7 ****         0.0877  -2.0904   2.5671 C.3            1 S1                 0.0000
      8 ****         0.8072  -1.3844   1.5108 N.am           1 S1                 0.0000
      9 ****         0.8287  -1.7459   0.2209 C.2            1 S1                 0.0000
     10 ****         0.2678  -2.7473  -0.2248 O.2            1 S1                 0.0000
     11 ****         1.5159  -0.8719  -0.5273 N.am           1 S1                 0.0000
     12 ****         1.6740  -0.9477  -1.9760 C.3            1 S1                 0.0000
     13 ****         2.9610  -0.2135  -2.3933 C.3            1 S1                 0.0000
     14 ****         3.1437  -0.2168  -3.9213 C.3            1 S1                 0.0000
     15 ****         1.9159   0.3526  -4.6569 C.3            1 S1                 0.0000
     16 ****         1.8180   1.7452  -4.4327 O.3            1 S1                 0.0000
     17 ****         0.6160  -0.3442  -4.2133 C.3            1 S1                 0.0000
     18 ****         0.4452  -0.3418  -2.6841 C.3            1 S1                 0.0000
     19 ****        -2.2750   0.1509   1.1932 C.2            1 S1                 0.0000
     20 ****        -2.6757   1.8215   1.4778 S.3            1 S1                 0.0000
     21 ****        -3.8372   3.5096   5.5928 H              1 S1                 0.0000
     22 ****        -3.9923   1.7698   5.3619 H              1 S1                 0.0000
     23 ****        -4.5591   2.8797   4.1140 H              1 S1                 0.0000
     24 ****        -2.1865   3.6361   3.7171 H              1 S1                 0.0000
     25 ****        -1.6226   2.5369   4.9559 H              1 S1                 0.0000
     26 ****        -1.9050  -2.3633   3.3546 H              1 S1                 0.0000
     27 ****        -1.8174  -2.4880   1.6272 H              1 S1                 0.0000
     28 ****         0.4402  -1.6924   3.5189 H              1 S1                 0.0000
     29 ****         0.3513  -3.1490   2.5587 H              1 S1                 0.0000
     30 ****         1.2956  -0.5421   1.7780 H              1 S1                 0.0000
     31 ****         1.9382  -0.0798  -0.0654 H              1 S1                 0.0000
     32 ****         1.7708  -1.9950  -2.2699 H              1 S1                 0.0000
     33 ****         2.9336   0.8159  -2.0327 H              1 S1                 0.0000
     34 ****         3.8266  -0.6807  -1.9219 H              1 S1                 0.0000
     35 ****         4.0406   0.3410  -4.1932 H              1 S1                 0.0000
     36 ****         3.3124  -1.2418  -4.2537 H              1 S1                 0.0000
     37 ****         2.0467   0.2120  -5.7303 H              1 S1                 0.0000
     38 ****         2.6075   2.1569  -4.7489 H              1 S1                 0.0000
     39 ****        -0.2465   0.1260  -4.6871 H              1 S1                 0.0000
     40 ****         0.6290  -1.3766  -4.5649 H              1 S1                 0.0000
     41 ****        -0.4547  -0.8983  -2.4192 H              1 S1                 0.0000
     42 ****         0.2854   0.6802  -2.3373 H              1 S1                 0.0000
     43 ****        -2.3539  -0.2631   0.1987 H              1 S1                 0.0000
     44 ****        -1.6297   0.0487   4.3836 LP             1 S1                 0.0000
     45 ****        -0.2438  -3.3487   0.3888 LP             1 S1                 0.0000
     46 ****         0.3240  -2.9593  -1.2005 LP             1 S1                 0.0000
     47 ****         1.7140   1.9226  -3.4541 LP             1 S1                 0.0000
     48 ****         1.0273   2.1109  -4.9236 LP             1 S1                 0.0000
@<TRIPOS>BOND
    1    1    2 1     
    2    1   21 1     
    3    1   22 1     
    4    1   23 1     
    5    2    3 1     
    6    2   24 1     
    7    2   25 1     
    8    3   20 1     
    9    3    4 2     
   10    4    5 1     
   11    5    6 1     
   12    5   19 2     
   13    6    7 1     
   14    6   26 1     
   15    6   27 1     
   16    7    8 1     
   17    7   28 1     
   18    7   29 1     
   19    8    9 am    
   20    8   30 1     
   21    9   10 2     
   22    9   11 am    
   23   11   12 1     
   24   11   31 1     
   25   12   18 1     
   26   12   13 1     
   27   12   32 1     
   28   13   14 1     
   29   13   33 1     
   30   13   34 1     
   31   14   15 1     
   32   14   35 1     
   33   14   36 1     
   34   15   16 1     
   35   15   17 1     
   36   15   37 1     
   37   16   38 1     
   38   17   18 1     
   39   17   39 1     
   40   17   40 1     
   41   18   41 1     
   42   18   42 1     
   43   19   20 1     
   44   19   43 1     
   45    4   44 1     
   46   10   45 1     
   47   10   46 1     
   48   16   47 1     
   49   16   48 1     
@<TRIPOS>SUBSTRUCTURE
      1 S1             1
@<TRIPOS>SET
LONE_PAIRS      STATIC     ATOMS    <user>   **** ""
5 44 45 46 47 48
DONOR_HYDROGENS      STATIC     ATOMS    <user>   **** ""
3 30 31 38
ATOM$BLUE        STATIC     ATOMS    COLORGROUP SYSTEM
5 44 45 46 47 48
ATOM$RED        STATIC     ATOMS    COLORGROUP SYSTEM
3 30 31 38
