AV-unprocessed.smi:47|AV-procd|sdf|430|dock4
  -GOLD-   2262016303D 1   1.00000     0.00000
 Structure written by MMmdl.
 31 33  0  0  0  0  0  0  0  0  3 V2000
  144.9938  140.8371  155.0037 O   0  0  0  0  0  0  0  0  0  0  0  0
  146.3261  141.3021  155.0530 C   0  0  2  0  0  0  0  0  0  0  0  0
  146.4891  142.6654  154.3837 C   0  0  0  0  0  0  0  0  0  0  0  0
  147.9060  142.7329  153.9825 N   0  3  0  0  0  0  0  0  0  0  0  0
  148.4422  141.3571  153.9021 C   0  0  1  0  0  0  0  0  0  0  0  0
  149.6071  141.1947  154.8583 C   0  0  0  0  0  0  0  0  0  0  0  0
  150.6383  140.3523  154.6581 N   0  0  0  0  0  0  0  0  0  0  0  0
  151.4185  140.4721  155.7152 N   0  5  0  0  0  0  0  0  0  0  0  0
  150.8554  141.3665  156.5419 C   0  0  0  0  0  0  0  0  0  0  0  0
  151.4644  141.7411  157.8345 C   0  0  0  0  0  0  0  0  0  0  0  0
  152.3077  140.8343  158.5179 C   0  0  0  0  0  0  0  0  0  0  0  0
  152.8953  141.1768  159.7512 C   0  0  0  0  0  0  0  0  0  0  0  0
  152.6475  142.4379  160.3227 C   0  0  0  0  0  0  0  0  0  0  0  0
  151.8115  143.3527  159.6575 C   0  0  0  0  0  0  0  0  0  0  0  0
  151.2261  143.0053  158.4244 C   0  0  0  0  0  0  0  0  0  0  0  0
  149.7218  141.8308  156.0359 N   0  0  0  0  0  0  0  0  0  0  0  0
  147.2746  140.4202  154.2458 C   0  0  0  0  0  0  0  0  0  0  0  0
  146.6601  141.3538  156.0905 H   0  0  0  0  0  0  0  0  0  0  0  0
  148.7967  141.1651  152.8888 H   0  0  0  0  0  0  0  0  0  0  0  0
  144.6819  140.9098  154.1142 H   0  0  0  0  0  0  0  0  0  0  0  0
  145.8788  142.7241  153.4811 H   0  0  0  0  0  0  0  0  0  0  0  0
  146.2125  143.4945  155.0355 H   0  0  0  0  0  0  0  0  0  0  0  0
  148.0120  143.2190  153.1041 H   0  0  0  0  0  0  0  0  0  0  0  0
  152.5106  139.8611  158.0957 H   0  0  0  0  0  0  0  0  0  0  0  0
  153.5365  140.4708  160.2580 H   0  0  0  0  0  0  0  0  0  0  0  0
  153.0973  142.7025  161.2683 H   0  0  0  0  0  0  0  0  0  0  0  0
  151.6182  144.3225  160.0918 H   0  0  0  0  0  0  0  0  0  0  0  0
  150.5880  143.7243  157.9319 H   0  0  0  0  0  0  0  0  0  0  0  0
  147.5801  139.5129  154.7688 H   0  0  0  0  0  0  0  0  0  0  0  0
  146.7832  140.1150  153.3204 H   0  0  0  0  0  0  0  0  0  0  0  0
  148.4270  143.2122  154.7042 H   0  0  0  0  0  0  0  0  0  0  0  0
  1  2  1  0  0  0  0
  1 20  1  0  0  0  0
  2 18  1  0  0  0  0
  2 17  1  0  0  0  0
  2  3  1  0  0  0  0
  3  4  1  0  0  0  0
  3 21  1  0  0  0  0
  3 22  1  0  0  0  0
  4  5  1  0  0  0  0
  4 23  1  0  0  0  0
  4 31  1  0  0  0  0
  5 19  1  0  0  0  0
  5  6  1  0  0  0  0
  5 17  1  0  0  0  0
  6 16  1  0  0  0  0
  6  7  2  0  0  0  0
  7  8  1  0  0  0  0
  8  9  1  0  0  0  0
  9 10  1  0  0  0  0
  9 16  2  0  0  0  0
 10 15  1  0  0  0  0
 10 11  2  0  0  0  0
 11 12  1  0  0  0  0
 11 24  1  0  0  0  0
 12 13  2  0  0  0  0
 12 25  1  0  0  0  0
 13 14  1  0  0  0  0
 13 26  1  0  0  0  0
 14 15  2  0  0  0  0
 14 27  1  0  0  0  0
 15 28  1  0  0  0  0
 17 29  1  0  0  0  0
 17 30  1  0  0  0  0
M  CHG  1   4   1
M  CHG  1   8  -1
M  END
> <s_m_source_file>
AV-unprocessed.smi

> <i_m_source_file_index>
47

> <i_lp_mmshare_version>
43012

> <i_f3d_flags>
0

> <s_epik_input>
W09IXVtDQEhdMVtDSDJdW05IXVtDQEBIXShbQ0gyXTEpYzJuW25IXWMobjIpLWMzW2NIXVtjSF1bY0hdW2NIXVtjSF0z

> <s_epik_cmdline>
J2VwaWtfcHl0aG9uJywgJy1waCcsICc3LjAnLCAnLXRuJywgJzgnLCAnLW1hJywgJzIwMCcsICctbWV0YWxfYmluZGluZycsICctaW1hZScsICc8aW5maWxlLm1hZT4nLCAnLW9tYWUnLCAnPG91dGZpbGUubWFlPic=

> <r_lp_tautomer_probability>
1

> <r_epik_Ionization_Penalty>
1.09593

> <r_epik_Ionization_Penalty_Charging>
1.09593

> <r_epik_Ionization_Penalty_Neutral>
3.91329e-08

> <r_epik_State_Penalty>
0.690005

> <r_epik_Charging_Adjusted_Penalty>
1.78594

> <i_epik_Tot_Q>
0

> <i_epik_Tot_abs_Q>
2

> <r_epik_Metal_State_Penalty>
0.213596

> <b_epik_Metal_Only>
0

> <s_lp_Force_Field>
OPLS_2005

> <r_lp_Energy>
20.8085

> <b_lp_Chiralities_Consistent>
1

> <s_lp_Variant>
AV-unprocessed.smi:47-8

> <Gold.Version>
5.8.1

> <Gold.Id.Protein>
6NUR|6NUR_protein|mol2

> <Gold.PLP.Fitness>
44.0579

> <Gold.PLP.PLP>
-34.1317

> <Gold.PLP.part.hbond>
-3.8060

> <Gold.PLP.part.metal>
0.0000

> <Gold.PLP.part.buried>
-4.5418

> <Gold.PLP.part.nonpolar>
-27.5470

> <Gold.PLP.part.repulsive>
1.0876

> <Gold.PLP.ligand.clash>
0.0000

> <Gold.PLP.ligand.torsion>
1.0424

> <Gold.PLP.Chemscore.Hbond>
4.0000

> <Gold.PLP.Chemscore.CHOScore>
0.0000

> <Gold.PLP.Chemscore.Metal>
0.0000

> <Gold.Chemscore.Hbonds>
donor molecule, donor type, donor heavy atom, donor atom, acceptor molecule, acceptor atom, score
      L1  H     1    20       P1 10175  1.00
      L1  H     4    31       P1  8028  2.00
      P1  H  7989  7998       L1     7  1.00

> <Gold.PLP.Chemscore.Internal.Correction>
0.0110

> <Gold.Rescore>
     Score         DG    S(hbond)    S(metal)    S(lipo)     H(rot)  DE(clash)    DE(int)     intcor
     17.28     -18.76       2.40        0.00      77.49       1.48       0.57       0.90       ----

> <Gold.Chemscore.Fitness>
17.2836

> <Gold.Chemscore.DG>
-18.7559

> <Gold.Chemscore.ZeroCoef>
-5.4800

> <Gold.Chemscore.Hbond>
2.3952

> <Gold.Chemscore.Metal>
0.0000

> <Gold.Chemscore.Lipo>
77.4866

> <Gold.Chemscore.Internal_Hbond>
0.0000

> <Gold.Chemscore.DEClash>
0.5704

> <Gold.Chemscore.DEInternal>
0.9019

> <Gold.Chemscore.Rot>
1.4804

> <Gold.Chemscore.Internal.Correction>
   9.000000E+99

> <Gold.Chemscore.Hbonds>
donor molecule, donor type, donor heavy atom, donor atom, acceptor molecule, acceptor atom, score
      L1  H     1    20       P1 10175  0.93
      L1  H     4    31       P1  8028  0.95
      P1  H  7989  7998       L1     7  0.24

> <Gold.Chemscore.Hbond.Weighted>
-7.9999

> <Gold.Chemscore.Metal.Weighted>
-0.0000

> <Gold.Chemscore.Lipo.Weighted>
-9.0659

> <Gold.Chemscore.Internal_Hbond.Weighted>
0.0000

> <Gold.Chemscore.DEClash.Weighted>
0.5704

> <Gold.Chemscore.DEInternal.Weighted>
0.9019

> <Gold.Chemscore.Rot.Weighted>
3.7899

> <Gold.Chemscore.Internal.Correction.Weighted>
   9.000000E+99

> <Gold.Protein.RotatedTorsions>
[ 6907 6896 6895 6894 ] final   40.32 input  -60.11 | X-H torsion
[ 7974 7965 7964 7962 ] final -109.37 input  175.53 | X-H torsion
[ 8008 7997 7996 7995 ] final   25.57 input   59.86 | X-H torsion
[ 10167 10162 10161 10158 ] final -117.16 input  -65.29 | X-H torsion
[ 10718 10713 10712 10709 ] final  126.32 input   66.30 | X-H torsion
[ 10763 10752 10751 10750 ] final -117.19 input  -60.55 | X-H torsion
[ 11005 11000 10999 10996 ] final  -15.03 input  -57.11 | X-H torsion

> <Gold.Protein.ActiveResidues>
 VAL166  LYS551  ARG553  GLY616  TRP617  ASP618  TYR619  PRO620  LYS621  CYS622 
 ASP623  PHE694  ASN695  SER759  ASP760  ASP761  ALA762  ILE779  LEU786  VAL792 
 PHE793  MET794  SER795  GLU796  ALA797  LYS798  CYS799  TRP800  GLU811  SER814 

> <Gold.Protein.RotatedAtoms>
  152.1810  134.8754  160.0526 H   0  0  0  0  0  0  0  0  0  0  0  0  # atno 6907 bound_to 6896
  151.9679  133.3711  159.4068 H   0  0  0  0  0  0  0  0  0  0  0  0  # atno 6908 bound_to 6896
  150.6917  134.4095  159.5199 H   0  0  0  0  0  0  0  0  0  0  0  0  # atno 6909 bound_to 6896
  145.1814  140.8973  143.3478 H   0  0  0  0  0  0  0  0  0  0  0  0  # atno 7974 bound_to 7965
  155.0138  140.3139  155.4819 H   0  0  0  0  0  0  0  0  0  0  0  0  # atno 8008 bound_to 7997
  156.2904  140.2210  156.5195 H   0  0  0  0  0  0  0  0  0  0  0  0  # atno 8009 bound_to 7997
  154.7511  140.0466  157.0882 H   0  0  0  0  0  0  0  0  0  0  0  0  # atno 8010 bound_to 7997
  140.0713  143.4874  152.1978 H   0  0  0  0  0  0  0  0  0  0  0  0  # atno 10167 bound_to 10162
  157.5429  131.1096  150.8830 H   0  0  0  0  0  0  0  0  0  0  0  0  # atno 10718 bound_to 10713
  154.8546  135.4318  154.1941 H   0  0  0  0  0  0  0  0  0  0  0  0  # atno 10763 bound_to 10752
  153.3003  135.6968  153.7216 H   0  0  0  0  0  0  0  0  0  0  0  0  # atno 10764 bound_to 10752
  153.6348  135.3478  155.3027 H   0  0  0  0  0  0  0  0  0  0  0  0  # atno 10765 bound_to 10752
  140.7924  133.8277  155.9392 H   0  0  0  0  0  0  0  0  0  0  0  0  # atno 11005 bound_to 11000
  145.0133  139.3490  143.6109 LP  0  0  0  0  0  0  0  0  0  0  0  0  # atno 17320 bound_to 7965
  146.3452  139.9404  142.8742 LP  0  0  0  0  0  0  0  0  0  0  0  0  # atno 17321 bound_to 7965
  139.5834  144.7520  151.3581 LP  0  0  0  0  0  0  0  0  0  0  0  0  # atno 17342 bound_to 10162
  140.7124  143.7356  150.7591 LP  0  0  0  0  0  0  0  0  0  0  0  0  # atno 17343 bound_to 10162
  156.9377  130.5373  149.5280 LP  0  0  0  0  0  0  0  0  0  0  0  0  # atno 17370 bound_to 10713
  156.0511  130.5580  150.8991 LP  0  0  0  0  0  0  0  0  0  0  0  0  # atno 17371 bound_to 10713
  140.9376  134.1942  157.4820 LP  0  0  0  0  0  0  0  0  0  0  0  0  # atno 17394 bound_to 11000
  139.8730  134.9858  156.5299 LP  0  0  0  0  0  0  0  0  0  0  0  0  # atno 17395 bound_to 11000

$$$$
