AV-unprocessed.smi:583|AV-procd|sdf|2997|dock7
  -GOLD-   2262023503D 1   1.00000     0.00000
 Structure written by MMmdl.
 35 36  0  0  0  0  0  0  0  0  1 V2000
  148.9647  140.1173  156.6763 O   0  0  0  0  0  0  0  0  0  0  0  0
  149.4051  141.1672  156.2100 C   0  0  0  0  0  0  0  0  0  0  0  0
  150.9283  141.3785  156.1585 C   0  0  0  0  0  0  0  0  0  0  0  0
  151.5691  141.6246  157.4633 N   0  0  0  0  0  0  0  0  0  0  0  0
  151.2870  142.8532  158.0928 C   0  0  0  0  0  0  0  0  0  0  0  0
  151.7963  143.1966  159.2915 C   0  0  0  0  0  0  0  0  0  0  0  0
  151.5136  144.5509  159.9230 C   0  0  0  0  0  0  0  0  0  0  0  0
  151.9860  145.5208  159.1412 F   0  0  0  0  0  0  0  0  0  0  0  0
  150.2037  144.7436  160.0798 F   0  0  0  0  0  0  0  0  0  0  0  0
  152.0994  144.6577  161.1167 F   0  0  0  0  0  0  0  0  0  0  0  0
  152.6973  142.2420  159.9070 C   0  0  0  0  0  0  0  0  0  0  0  0
  152.9809  141.0645  159.3167 C   0  0  0  0  0  0  0  0  0  0  0  0
  152.3961  140.6932  158.0264 C   0  0  0  0  0  0  0  0  0  0  0  0
  152.6305  139.6114  157.4878 O   0  0  0  0  0  0  0  0  0  0  0  0
  148.6087  142.1420  155.7389 N   0  0  0  0  0  0  0  0  0  0  0  0
  147.1508  142.1036  155.7190 C   0  0  2  0  0  0  0  0  0  0  0  0
  146.5702  142.7290  154.4341 C   0  0  0  0  0  0  0  0  0  0  0  0
  145.0755  142.9950  154.6489 C   0  0  0  0  0  0  0  0  0  0  0  0
  144.8713  143.3407  156.4372 S   0  0  0  0  0  0  0  0  0  0  0  0
  144.6991  144.7867  156.6437 O   0  0  0  0  0  0  0  0  0  0  0  0
  143.9162  142.3756  157.0027 O   0  0  0  0  0  0  0  0  0  0  0  0
  146.5747  142.8674  156.9188 C   0  0  0  0  0  0  0  0  0  0  0  0
  151.3795  140.5121  155.6716 H   0  0  0  0  0  0  0  0  0  0  0  0
  151.1280  142.2109  155.4823 H   0  0  0  0  0  0  0  0  0  0  0  0
  150.6230  143.4998  157.5371 H   0  0  0  0  0  0  0  0  0  0  0  0
  153.1499  142.4722  160.8604 H   0  0  0  0  0  0  0  0  0  0  0  0
  153.6546  140.3763  159.8058 H   0  0  0  0  0  0  0  0  0  0  0  0
  149.0476  142.9736  155.3711 H   0  0  0  0  0  0  0  0  0  0  0  0
  146.8113  141.0681  155.7853 H   0  0  0  0  0  0  0  0  0  0  0  0
  147.0694  143.6798  154.2414 H   0  0  0  0  0  0  0  0  0  0  0  0
  146.7397  142.0988  153.5603 H   0  0  0  0  0  0  0  0  0  0  0  0
  144.7021  143.8310  154.0572 H   0  0  0  0  0  0  0  0  0  0  0  0
  144.4877  142.1086  154.4093 H   0  0  0  0  0  0  0  0  0  0  0  0
  146.5567  142.2756  157.8341 H   0  0  0  0  0  0  0  0  0  0  0  0
  147.1309  143.7860  157.1088 H   0  0  0  0  0  0  0  0  0  0  0  0
  1  2  2  0  0  0  0
  2  3  1  0  0  0  0
  2 15  1  0  0  0  0
  3  4  1  0  0  0  0
  3 23  1  0  0  0  0
  3 24  1  0  0  0  0
  4 13  1  0  0  0  0
  4  5  1  0  0  0  0
  5  6  2  0  0  0  0
  5 25  1  0  0  0  0
  6  7  1  0  0  0  0
  6 11  1  0  0  0  0
  7  8  1  0  0  0  0
  7  9  1  0  0  0  0
  7 10  1  0  0  0  0
 11 12  2  0  0  0  0
 11 26  1  0  0  0  0
 12 13  1  0  0  0  0
 12 27  1  0  0  0  0
 13 14  2  0  0  0  0
 15 16  1  0  0  0  0
 15 28  1  0  0  0  0
 16 22  1  0  0  0  0
 16 17  1  0  0  0  0
 16 29  1  0  0  0  0
 17 18  1  0  0  0  0
 17 30  1  0  0  0  0
 17 31  1  0  0  0  0
 18 19  1  0  0  0  0
 18 32  1  0  0  0  0
 18 33  1  0  0  0  0
 19 20  2  0  0  0  0
 19 21  2  0  0  0  0
 19 22  1  0  0  0  0
 22 34  1  0  0  0  0
 22 35  1  0  0  0  0
M  END
> <s_m_source_file>
AV-unprocessed.smi

> <i_m_source_file_index>
583

> <i_lp_mmshare_version>
43012

> <i_f3d_flags>
0

> <s_epik_input>
Tz1TMSg9TylbQ0gyXVtDSDJdW0NASF0oW0NIMl0xKVtOSF1DKD1PKVtDSDJdbjJbY0hdYyhDKEYpKEYpRilbY0hdW2NIXWMyPU8=

> <s_epik_cmdline>
J2VwaWtfcHl0aG9uJywgJy1waCcsICc3LjAnLCAnLXRuJywgJzgnLCAnLW1hJywgJzIwMCcsICctbWV0YWxfYmluZGluZycsICctaW1hZScsICc8aW5maWxlLm1hZT4nLCAnLW9tYWUnLCAnPG91dGZpbGUubWFlPic=

> <r_lp_tautomer_probability>
1

> <r_epik_Ionization_Penalty>
1.22016e-07

> <r_epik_Ionization_Penalty_Charging>
1.48237e-08

> <r_epik_Ionization_Penalty_Neutral>
1.07193e-07

> <r_epik_State_Penalty>
-0

> <r_epik_Charging_Adjusted_Penalty>
1.48237e-08

> <i_epik_Tot_Q>
0

> <i_epik_Tot_abs_Q>
0

> <r_epik_Metal_State_Penalty>
-0

> <b_epik_Metal_Only>
0

> <s_lp_Force_Field>
OPLS_2005

> <r_lp_Energy>
16.6381

> <b_lp_Chiralities_Consistent>
1

> <s_lp_Variant>
AV-unprocessed.smi:583-1

> <Gold.Version>
5.8.1

> <Gold.Id.Protein>
6NUR|6NUR_protein|mol2

> <Gold.PLP.Fitness>
47.9011

> <Gold.PLP.PLP>
-42.5411

> <Gold.PLP.part.hbond>
-2.0000

> <Gold.PLP.part.metal>
0.0000

> <Gold.PLP.part.buried>
-4.3009

> <Gold.PLP.part.nonpolar>
-35.7068

> <Gold.PLP.part.repulsive>
0.2185

> <Gold.PLP.ligand.clash>
0.0000

> <Gold.PLP.ligand.torsion>
0.5774

> <Gold.PLP.Chemscore.Hbond>
1.7840

> <Gold.PLP.Chemscore.CHOScore>
0.3765

> <Gold.PLP.Chemscore.Metal>
0.0000

> <Gold.Chemscore.Hbonds>
donor molecule, donor type, donor heavy atom, donor atom, acceptor molecule, acceptor atom, score
      L1  H    15    28       P1  8028  0.70
      P1  H  7997  8008       L1    14  0.80
      L1  C     5    25       P1  8028  0.28

> <Gold.PLP.Chemscore.Internal.Correction>
0.0335

> <Gold.Rescore>
     Score         DG    S(hbond)    S(metal)    S(lipo)     H(rot)  DE(clash)    DE(int)     intcor
     14.72     -15.79       1.90        0.00      71.87       1.73       0.68       0.39       ----

> <Gold.Chemscore.Fitness>
14.7235

> <Gold.Chemscore.DG>
-15.7948

> <Gold.Chemscore.ZeroCoef>
-5.4800

> <Gold.Chemscore.Hbond>
1.8976

> <Gold.Chemscore.Metal>
0.0000

> <Gold.Chemscore.Lipo>
71.8726

> <Gold.Chemscore.Internal_Hbond>
0.0000

> <Gold.Chemscore.DEClash>
0.6812

> <Gold.Chemscore.DEInternal>
0.3900

> <Gold.Chemscore.Rot>
1.7314

> <Gold.Chemscore.Internal.Correction>
   9.000000E+99

> <Gold.Chemscore.Hbonds>
donor molecule, donor type, donor heavy atom, donor atom, acceptor molecule, acceptor atom, score
      L1  H    15    28       P1  8028  0.70
      P1  H  7997  8008       L1    14  0.11

> <Gold.Chemscore.Hbond.Weighted>
-6.3381

> <Gold.Chemscore.Metal.Weighted>
-0.0000

> <Gold.Chemscore.Lipo.Weighted>
-8.4091

> <Gold.Chemscore.Internal_Hbond.Weighted>
0.0000

> <Gold.Chemscore.DEClash.Weighted>
0.6812

> <Gold.Chemscore.DEInternal.Weighted>
0.3900

> <Gold.Chemscore.Rot.Weighted>
4.4324

> <Gold.Chemscore.Internal.Correction.Weighted>
   9.000000E+99

> <Gold.Protein.RotatedTorsions>
[ 6907 6896 6895 6894 ] final  -58.27 input  -60.11 | X-H torsion
[ 7974 7965 7964 7962 ] final -124.36 input  175.53 | X-H torsion
[ 8008 7997 7996 7995 ] final  -76.06 input   59.86 | X-H torsion
[ 10167 10162 10161 10158 ] final  163.57 input  -65.29 | X-H torsion
[ 10718 10713 10712 10709 ] final  -28.05 input   66.30 | X-H torsion
[ 10763 10752 10751 10750 ] final   89.94 input  -60.55 | X-H torsion
[ 11005 11000 10999 10996 ] final  -86.82 input  -57.11 | X-H torsion

> <Gold.Protein.ActiveResidues>
 VAL166  LYS551  ARG553  GLY616  TRP617  ASP618  TYR619  PRO620  LYS621  CYS622 
 ASP623  PHE694  ASN695  SER759  ASP760  ASP761  ALA762  ILE779  LEU786  VAL792 
 PHE793  MET794  SER795  GLU796  ALA797  LYS798  CYS799  TRP800  GLU811  SER814 

> <Gold.Protein.RotatedAtoms>
  150.8020  134.7121  159.6609 H   0  0  0  0  0  0  0  0  0  0  0  0  # atno 6907 bound_to 6896
  152.4138  134.6075  160.0026 H   0  0  0  0  0  0  0  0  0  0  0  0  # atno 6908 bound_to 6896
  151.6310  133.3295  159.3145 H   0  0  0  0  0  0  0  0  0  0  0  0  # atno 6909 bound_to 6896
  145.0089  140.7888  143.4450 H   0  0  0  0  0  0  0  0  0  0  0  0  # atno 7974 bound_to 7965
  154.5472  140.0733  156.8608 H   0  0  0  0  0  0  0  0  0  0  0  0  # atno 8008 bound_to 7997
  155.3064  140.3387  155.4227 H   0  0  0  0  0  0  0  0  0  0  0  0  # atno 8009 bound_to 7997
  156.1928  140.1692  156.8043 H   0  0  0  0  0  0  0  0  0  0  0  0  # atno 8010 bound_to 7997
  139.4876  144.4324  151.9054 H   0  0  0  0  0  0  0  0  0  0  0  0  # atno 10167 bound_to 10162
  156.4303  130.4444  149.7122 H   0  0  0  0  0  0  0  0  0  0  0  0  # atno 10718 bound_to 10713
  153.1923  135.4452  155.0164 H   0  0  0  0  0  0  0  0  0  0  0  0  # atno 10763 bound_to 10752
  154.8098  135.3289  154.7339 H   0  0  0  0  0  0  0  0  0  0  0  0  # atno 10764 bound_to 10752
  153.7792  135.6979  153.4947 H   0  0  0  0  0  0  0  0  0  0  0  0  # atno 10765 bound_to 10752
  141.1625  133.7476  156.9216 H   0  0  0  0  0  0  0  0  0  0  0  0  # atno 11005 bound_to 11000
  145.2050  139.2233  143.5173 LP  0  0  0  0  0  0  0  0  0  0  0  0  # atno 17320 bound_to 7965
  146.3466  140.1876  142.8589 LP  0  0  0  0  0  0  0  0  0  0  0  0  # atno 17321 bound_to 7965
  140.3772  144.2781  150.5913 LP  0  0  0  0  0  0  0  0  0  0  0  0  # atno 17342 bound_to 10162
  140.5266  143.2253  151.8305 LP  0  0  0  0  0  0  0  0  0  0  0  0  # atno 17343 bound_to 10162
  156.4028  130.7683  151.2692 LP  0  0  0  0  0  0  0  0  0  0  0  0  # atno 17370 bound_to 10713
  157.7508  131.0235  150.3835 LP  0  0  0  0  0  0  0  0  0  0  0  0  # atno 17371 bound_to 10713
  140.1447  134.9270  157.2514 LP  0  0  0  0  0  0  0  0  0  0  0  0  # atno 17394 bound_to 11000
  140.2794  134.3368  155.7348 LP  0  0  0  0  0  0  0  0  0  0  0  0  # atno 17395 bound_to 11000

$$$$
