AV-unprocessed.smi:3079|AV-procd|sdf|11737|dock3
  -GOLD-   2272017133D 1   1.00000     0.00000
 Structure written by MMmdl.
 24 25  0  0  0  0  0  0  0  0  2 V2000
  151.4083  144.1821  157.2066 N   0  3  0  0  0  0  0  0  0  0  0  0
  151.7931  145.0458  158.3350 C   0  0  0  0  0  0  0  0  0  0  0  0
  151.1498  144.5745  159.6457 C   0  0  0  0  0  0  0  0  0  0  0  0
  152.0008  143.5888  160.3736 C   0  0  0  0  0  0  0  0  0  0  0  0
  152.5087  142.4940  159.8023 N   0  0  0  0  0  0  0  0  0  0  0  0
  153.2998  141.7466  160.6795 C   0  0  0  0  0  0  0  0  0  0  0  0
  153.9331  140.4751  160.2049 C   0  0  0  0  0  0  0  0  0  0  0  0
  154.7179  139.5938  161.1493 C   0  0  0  0  0  0  0  0  0  0  0  0
  155.4336  140.3656  160.0672 C   0  0  0  0  0  0  0  0  0  0  0  0
  153.3912  142.3011  161.9320 C   0  0  0  0  0  0  0  0  0  0  0  0
  152.4943  143.7898  162.0507 S   0  0  0  0  0  0  0  0  0  0  0  0
  151.1689  143.2637  157.5527 H   0  0  0  0  0  0  0  0  0  0  0  0
  152.1804  144.1064  156.5599 H   0  0  0  0  0  0  0  0  0  0  0  0
  152.8800  145.0419  158.4231 H   0  0  0  0  0  0  0  0  0  0  0  0
  151.4910  146.0695  158.1112 H   0  0  0  0  0  0  0  0  0  0  0  0
  150.9666  145.4245  160.3039 H   0  0  0  0  0  0  0  0  0  0  0  0
  150.1791  144.1179  159.4475 H   0  0  0  0  0  0  0  0  0  0  0  0
  153.3251  139.9794  159.4508 H   0  0  0  0  0  0  0  0  0  0  0  0
  154.8509  139.9332  162.1748 H   0  0  0  0  0  0  0  0  0  0  0  0
  154.6267  138.5171  161.0226 H   0  0  0  0  0  0  0  0  0  0  0  0
  155.8194  139.8037  159.2192 H   0  0  0  0  0  0  0  0  0  0  0  0
  156.0350  141.2190  160.3745 H   0  0  0  0  0  0  0  0  0  0  0  0
  153.9334  141.9270  162.7880 H   0  0  0  0  0  0  0  0  0  0  0  0
  150.6097  144.5806  156.7336 H   0  0  0  0  0  0  0  0  0  0  0  0
  1  2  1  0  0  0  0
  1 12  1  0  0  0  0
  1 13  1  0  0  0  0
  1 24  1  0  0  0  0
  2  3  1  0  0  0  0
  2 14  1  0  0  0  0
  2 15  1  0  0  0  0
  3  4  1  0  0  0  0
  3 16  1  0  0  0  0
  3 17  1  0  0  0  0
  4 11  1  0  0  0  0
  4  5  2  0  0  0  0
  5  6  1  0  0  0  0
  6  7  1  0  0  0  0
  6 10  2  0  0  0  0
  7  9  1  0  0  0  0
  7  8  1  0  0  0  0
  7 18  1  0  0  0  0
  8  9  1  0  0  0  0
  8 19  1  0  0  0  0
  8 20  1  0  0  0  0
  9 21  1  0  0  0  0
  9 22  1  0  0  0  0
 10 11  1  0  0  0  0
 10 23  1  0  0  0  0
M  CHG  1   1   1
M  END
> <s_m_source_file>
AV-unprocessed.smi

> <i_m_source_file_index>
3079

> <i_lp_mmshare_version>
43012

> <i_f3d_flags>
0

> <s_epik_input>
W05IMl1bQ0gyXVtDSDJdYzFuYyhbY0hdczEpW0NIXTJbQ0gyXVtDSDJdMg==

> <s_epik_cmdline>
J2VwaWtfcHl0aG9uJywgJy1waCcsICc3LjAnLCAnLXRuJywgJzgnLCAnLW1hJywgJzIwMCcsICctbWV0YWxfYmluZGluZycsICctaW1hZScsICc8aW5maWxlLm1hZT4nLCAnLW9tYWUnLCAnPG91dGZpbGUubWFlPic=

> <r_lp_tautomer_probability>
1

> <r_epik_Ionization_Penalty>
0.00466735

> <r_epik_Ionization_Penalty_Charging>
0.00465044

> <r_epik_Ionization_Penalty_Neutral>
1.6915e-05

> <r_epik_State_Penalty>
-0

> <r_epik_Charging_Adjusted_Penalty>
0.00465044

> <i_epik_Tot_Q>
1

> <i_epik_Tot_abs_Q>
1

> <r_epik_Metal_State_Penalty>
-0

> <b_epik_Metal_Only>
0

> <s_lp_Force_Field>
OPLS_2005

> <r_lp_Energy>
-1.43879

> <b_lp_Chiralities_Consistent>
1

> <s_lp_Variant>
AV-unprocessed.smi:3079-1

> <Gold.Version>
5.8.1

> <Gold.Id.Protein>
6NUR|6NUR_protein|mol2

> <Gold.PLP.Fitness>
37.3556

> <Gold.PLP.PLP>
-31.8386

> <Gold.PLP.part.hbond>
-1.0000

> <Gold.PLP.part.metal>
0.0000

> <Gold.PLP.part.buried>
-5.3360

> <Gold.PLP.part.nonpolar>
-25.0711

> <Gold.PLP.part.repulsive>
0.0211

> <Gold.PLP.ligand.clash>
0.0000

> <Gold.PLP.ligand.torsion>
0.3074

> <Gold.PLP.Chemscore.Hbond>
2.0000

> <Gold.PLP.Chemscore.CHOScore>
0.0000

> <Gold.PLP.Chemscore.Metal>
0.0000

> <Gold.Chemscore.Hbonds>
donor molecule, donor type, donor heavy atom, donor atom, acceptor molecule, acceptor atom, score
      L1  H     1    24       P1  8028  2.00

> <Gold.PLP.Chemscore.Internal.Correction>
0.1318

> <Gold.Rescore>
     Score         DG    S(hbond)    S(metal)    S(lipo)     H(rot)  DE(clash)    DE(int)     intcor
     15.72     -16.03       1.00        0.00      93.88       1.47       0.03       0.28       ----

> <Gold.Chemscore.Fitness>
15.7188

> <Gold.Chemscore.DG>
-16.0324

> <Gold.Chemscore.ZeroCoef>
-5.4800

> <Gold.Chemscore.Hbond>
0.9985

> <Gold.Chemscore.Metal>
0.0000

> <Gold.Chemscore.Lipo>
93.8815

> <Gold.Chemscore.Internal_Hbond>
0.0000

> <Gold.Chemscore.DEClash>
0.0348

> <Gold.Chemscore.DEInternal>
0.2789

> <Gold.Chemscore.Rot>
1.4714

> <Gold.Chemscore.Internal.Correction>
   9.000000E+99

> <Gold.Chemscore.Hbonds>
donor molecule, donor type, donor heavy atom, donor atom, acceptor molecule, acceptor atom, score
      L1  H     1    24       P1  8028  0.90

> <Gold.Chemscore.Hbond.Weighted>
-3.3351

> <Gold.Chemscore.Metal.Weighted>
-0.0000

> <Gold.Chemscore.Lipo.Weighted>
-10.9841

> <Gold.Chemscore.Internal_Hbond.Weighted>
0.0000

> <Gold.Chemscore.DEClash.Weighted>
0.0348

> <Gold.Chemscore.DEInternal.Weighted>
0.2789

> <Gold.Chemscore.Rot.Weighted>
3.7668

> <Gold.Chemscore.Internal.Correction.Weighted>
   9.000000E+99

> <Gold.Protein.RotatedTorsions>
[ 6907 6896 6895 6894 ] final -103.24 input  -60.11 | X-H torsion
[ 7974 7965 7964 7962 ] final   95.84 input  175.53 | X-H torsion
[ 8008 7997 7996 7995 ] final   -9.10 input   59.86 | X-H torsion
[ 10167 10162 10161 10158 ] final  -43.69 input  -65.29 | X-H torsion
[ 10718 10713 10712 10709 ] final  134.64 input   66.30 | X-H torsion
[ 10763 10752 10751 10750 ] final -177.35 input  -60.55 | X-H torsion
[ 11005 11000 10999 10996 ] final -172.29 input  -57.11 | X-H torsion

> <Gold.Protein.ActiveResidues>
 VAL166  LYS551  ARG553  GLY616  TRP617  ASP618  TYR619  PRO620  LYS621  CYS622 
 ASP623  PHE694  ASN695  SER759  ASP760  ASP761  ALA762  ILE779  LEU786  VAL792 
 PHE793  MET794  SER795  GLU796  ALA797  LYS798  CYS799  TRP800  GLU811  SER814 

> <Gold.Protein.RotatedAtoms>
  150.7231  134.0460  159.3781 H   0  0  0  0  0  0  0  0  0  0  0  0  # atno 6907 bound_to 6896
  151.8435  135.0580  160.0460 H   0  0  0  0  0  0  0  0  0  0  0  0  # atno 6908 bound_to 6896
  152.2845  133.5465  159.5555 H   0  0  0  0  0  0  0  0  0  0  0  0  # atno 6909 bound_to 6896
  145.4468  139.2296  143.3062 H   0  0  0  0  0  0  0  0  0  0  0  0  # atno 7974 bound_to 7965
  154.5679  140.2364  155.8236 H   0  0  0  0  0  0  0  0  0  0  0  0  # atno 8008 bound_to 7997
  156.2083  140.3033  155.9634 H   0  0  0  0  0  0  0  0  0  0  0  0  # atno 8009 bound_to 7997
  155.2767  140.0420  157.3002 H   0  0  0  0  0  0  0  0  0  0  0  0  # atno 8010 bound_to 7997
  140.6924  143.2969  151.3388 H   0  0  0  0  0  0  0  0  0  0  0  0  # atno 10167 bound_to 10162
  157.4652  131.1076  150.9871 H   0  0  0  0  0  0  0  0  0  0  0  0  # atno 10718 bound_to 10713
  154.5612  135.2820  155.0918 H   0  0  0  0  0  0  0  0  0  0  0  0  # atno 10763 bound_to 10752
  154.2326  135.6371  153.5184 H   0  0  0  0  0  0  0  0  0  0  0  0  # atno 10764 bound_to 10752
  153.0029  135.5541  154.6206 H   0  0  0  0  0  0  0  0  0  0  0  0  # atno 10765 bound_to 10752
  140.4986  134.5915  157.4980 H   0  0  0  0  0  0  0  0  0  0  0  0  # atno 11005 bound_to 11000
  146.2526  140.5222  142.8887 LP  0  0  0  0  0  0  0  0  0  0  0  0  # atno 17320 bound_to 7965
  144.8087  140.6346  143.6430 LP  0  0  0  0  0  0  0  0  0  0  0  0  # atno 17321 bound_to 7965
  139.6342  144.0663  152.2502 LP  0  0  0  0  0  0  0  0  0  0  0  0  # atno 17342 bound_to 10162
  140.0147  144.6198  150.7617 LP  0  0  0  0  0  0  0  0  0  0  0  0  # atno 17343 bound_to 10162
  157.0655  130.5843  149.5393 LP  0  0  0  0  0  0  0  0  0  0  0  0  # atno 17370 bound_to 10713
  156.0047  130.5132  150.7787 LP  0  0  0  0  0  0  0  0  0  0  0  0  # atno 17371 bound_to 10713
  139.9726  134.7267  156.0011 LP  0  0  0  0  0  0  0  0  0  0  0  0  # atno 17394 bound_to 11000
  141.1447  133.6558  156.3832 LP  0  0  0  0  0  0  0  0  0  0  0  0  # atno 17395 bound_to 11000

$$$$
