AV-unprocessed.smi:3104|AV-procd|sdf|11818|dock4
  -GOLD-   2272017193D 1   1.00000     0.00000
 Structure written by MMmdl.
 37 38  0  0  0  0  0  0  0  0  2 V2000
  147.0611  141.9300  154.0490 C   0  0  0  0  0  0  0  0  0  0  0  0
  148.2673  141.0674  154.2837 C   0  0  0  0  0  0  0  0  0  0  0  0
  149.5467  141.4640  154.7659 C   0  0  0  0  0  0  0  0  0  0  0  0
  150.3956  140.4539  154.8605 N   0  0  0  0  0  0  0  0  0  0  0  0
  149.6926  139.3778  154.4471 N   0  0  0  0  0  0  0  0  0  0  0  0
  150.3305  138.0677  154.4127 C   0  0  1  0  0  0  0  0  0  0  0  0
  151.8305  138.2107  154.7292 C   0  0  0  0  0  0  0  0  0  0  0  0
  149.6082  137.0501  155.3355 C   0  0  1  0  0  0  0  0  0  0  0  0
  149.2489  137.6306  156.7154 C   0  0  0  0  0  0  0  0  0  0  0  0
  148.3710  136.5572  154.6899 N   0  3  0  0  0  0  0  0  0  0  0  0
  148.0450  135.1449  154.9708 C   0  0  0  0  0  0  0  0  0  0  0  0
  149.0897  134.2183  154.3859 C   0  0  0  0  0  0  0  0  0  0  0  0
  148.7445  133.3337  153.2103 C   0  0  0  0  0  0  0  0  0  0  0  0
  148.9872  132.7209  154.5671 C   0  0  0  0  0  0  0  0  0  0  0  0
  148.4043  139.7225  154.0898 C   0  0  0  0  0  0  0  0  0  0  0  0
  147.2509  142.9721  154.3074 H   0  0  0  0  0  0  0  0  0  0  0  0
  146.2103  141.6014  154.6463 H   0  0  0  0  0  0  0  0  0  0  0  0
  146.7491  141.9101  153.0048 H   0  0  0  0  0  0  0  0  0  0  0  0
  149.8816  142.4514  155.0481 H   0  0  0  0  0  0  0  0  0  0  0  0
  150.2521  137.6990  153.3878 H   0  0  0  0  0  0  0  0  0  0  0  0
  152.3651  137.2746  154.5681 H   0  0  0  0  0  0  0  0  0  0  0  0
  151.9947  138.5140  155.7636 H   0  0  0  0  0  0  0  0  0  0  0  0
  152.2954  138.9590  154.0862 H   0  0  0  0  0  0  0  0  0  0  0  0
  150.2786  136.2070  155.5125 H   0  0  0  0  0  0  0  0  0  0  0  0
  150.1370  137.9101  157.2826 H   0  0  0  0  0  0  0  0  0  0  0  0
  148.7049  136.9012  157.3165 H   0  0  0  0  0  0  0  0  0  0  0  0
  148.6214  138.5178  156.6209 H   0  0  0  0  0  0  0  0  0  0  0  0
  147.5987  137.1250  155.0088 H   0  0  0  0  0  0  0  0  0  0  0  0
  147.9698  134.9793  156.0463 H   0  0  0  0  0  0  0  0  0  0  0  0
  147.0748  134.9056  154.5340 H   0  0  0  0  0  0  0  0  0  0  0  0
  150.0937  134.6387  154.3683 H   0  0  0  0  0  0  0  0  0  0  0  0
  147.7197  133.3530  152.8439 H   0  0  0  0  0  0  0  0  0  0  0  0
  149.5085  133.1867  152.4495 H   0  0  0  0  0  0  0  0  0  0  0  0
  149.9129  132.1671  154.7101 H   0  0  0  0  0  0  0  0  0  0  0  0
  148.1240  132.3307  155.1028 H   0  0  0  0  0  0  0  0  0  0  0  0
  147.6970  138.9895  153.7305 H   0  0  0  0  0  0  0  0  0  0  0  0
  148.4643  136.6775  153.6912 H   0  0  0  0  0  0  0  0  0  0  0  0
  1  2  1  0  0  0  0
  1 16  1  0  0  0  0
  1 17  1  0  0  0  0
  1 18  1  0  0  0  0
  2 15  2  0  0  0  0
  2  3  1  0  0  0  0
  3  4  2  0  0  0  0
  3 19  1  0  0  0  0
  4  5  1  0  0  0  0
  5  6  1  0  0  0  0
  5 15  1  0  0  0  0
  6  7  1  0  0  0  0
  6  8  1  0  0  0  0
  6 20  1  0  0  0  0
  7 21  1  0  0  0  0
  7 22  1  0  0  0  0
  7 23  1  0  0  0  0
  8  9  1  0  0  0  0
  8 10  1  0  0  0  0
  8 24  1  0  0  0  0
  9 25  1  0  0  0  0
  9 26  1  0  0  0  0
  9 27  1  0  0  0  0
 10 11  1  0  0  0  0
 10 28  1  0  0  0  0
 10 37  1  0  0  0  0
 11 12  1  0  0  0  0
 11 29  1  0  0  0  0
 11 30  1  0  0  0  0
 12 14  1  0  0  0  0
 12 13  1  0  0  0  0
 12 31  1  0  0  0  0
 13 14  1  0  0  0  0
 13 32  1  0  0  0  0
 13 33  1  0  0  0  0
 14 34  1  0  0  0  0
 14 35  1  0  0  0  0
 15 36  1  0  0  0  0
M  CHG  1  10   1
M  END
> <s_m_source_file>
AV-unprocessed.smi

> <i_m_source_file_index>
3104

> <i_lp_mmshare_version>
43012

> <i_f3d_flags>
0

> <s_epik_input>
W0NIM11jMVtjSF1ubihbY0hdMSlbQ0BIXShbQ0gzXSlbQ0BIXShbQ0gzXSlbTkhdW0NIMl1bQ0hdMltDSDJdW0NIMl0y

> <s_epik_cmdline>
J2VwaWtfcHl0aG9uJywgJy1waCcsICc3LjAnLCAnLXRuJywgJzgnLCAnLW1hJywgJzIwMCcsICctbWV0YWxfYmluZGluZycsICctaW1hZScsICc8aW5maWxlLm1hZT4nLCAnLW9tYWUnLCAnPG91dGZpbGUubWFlPic=

> <r_lp_tautomer_probability>
1

> <r_epik_Ionization_Penalty>
0.00120445

> <r_epik_Ionization_Penalty_Charging>
0.00118273

> <r_epik_Ionization_Penalty_Neutral>
2.17265e-05

> <r_epik_State_Penalty>
-0

> <r_epik_Charging_Adjusted_Penalty>
0.00118273

> <i_epik_Tot_Q>
1

> <i_epik_Tot_abs_Q>
1

> <r_epik_Metal_State_Penalty>
-0

> <b_epik_Metal_Only>
0

> <s_lp_Force_Field>
OPLS_2005

> <r_lp_Energy>
22.3414

> <b_lp_Chiralities_Consistent>
1

> <s_lp_Variant>
AV-unprocessed.smi:3104-4

> <Gold.Version>
5.8.1

> <Gold.Id.Protein>
6NUR|6NUR_protein|mol2

> <Gold.PLP.Fitness>
41.7459

> <Gold.PLP.PLP>
-31.4642

> <Gold.PLP.part.hbond>
-2.0000

> <Gold.PLP.part.metal>
0.0000

> <Gold.PLP.part.buried>
-1.3478

> <Gold.PLP.part.nonpolar>
-27.2545

> <Gold.PLP.part.repulsive>
0.0879

> <Gold.PLP.ligand.clash>
0.0000

> <Gold.PLP.ligand.torsion>
1.1794

> <Gold.PLP.Chemscore.Hbond>
3.0000

> <Gold.PLP.Chemscore.CHOScore>
1.0000

> <Gold.PLP.Chemscore.Metal>
0.0000

> <Gold.Chemscore.Hbonds>
donor molecule, donor type, donor heavy atom, donor atom, acceptor molecule, acceptor atom, score
      L1  H    10    37       P1  7948  2.00
      P1  H  7989  7998       L1     4  1.00
      L1  C     3    19       P1  8028  0.97

> <Gold.PLP.Chemscore.Internal.Correction>
0.6405

> <Gold.Rescore>
     Score         DG    S(hbond)    S(metal)    S(lipo)     H(rot)  DE(clash)    DE(int)     intcor
     14.88     -15.83       1.80        0.00      69.80       1.49       0.05       0.90       ----

> <Gold.Chemscore.Fitness>
14.8775

> <Gold.Chemscore.DG>
-15.8281

> <Gold.Chemscore.ZeroCoef>
-5.4800

> <Gold.Chemscore.Hbond>
1.7970

> <Gold.Chemscore.Metal>
0.0000

> <Gold.Chemscore.Lipo>
69.7987

> <Gold.Chemscore.Internal_Hbond>
0.0000

> <Gold.Chemscore.DEClash>
0.0493

> <Gold.Chemscore.DEInternal>
0.9013

> <Gold.Chemscore.Rot>
1.4923

> <Gold.Chemscore.Internal.Correction>
   9.000000E+99

> <Gold.Chemscore.Hbonds>
donor molecule, donor type, donor heavy atom, donor atom, acceptor molecule, acceptor atom, score
      L1  H    10    37       P1  7948  0.98
      P1  H  7989  7998       L1     4  0.17

> <Gold.Chemscore.Hbond.Weighted>
-6.0021

> <Gold.Chemscore.Metal.Weighted>
-0.0000

> <Gold.Chemscore.Lipo.Weighted>
-8.1664

> <Gold.Chemscore.Internal_Hbond.Weighted>
0.0000

> <Gold.Chemscore.DEClash.Weighted>
0.0493

> <Gold.Chemscore.DEInternal.Weighted>
0.9013

> <Gold.Chemscore.Rot.Weighted>
3.8204

> <Gold.Chemscore.Internal.Correction.Weighted>
   9.000000E+99

> <Gold.Protein.RotatedTorsions>
[ 6907 6896 6895 6894 ] final   20.07 input  -60.11 | X-H torsion
[ 7974 7965 7964 7962 ] final   88.61 input  175.53 | X-H torsion
[ 8008 7997 7996 7995 ] final  -57.76 input   59.86 | X-H torsion
[ 10167 10162 10161 10158 ] final   66.21 input  -65.29 | X-H torsion
[ 10718 10713 10712 10709 ] final   31.08 input   66.30 | X-H torsion
[ 10763 10752 10751 10750 ] final  104.68 input  -60.55 | X-H torsion
[ 11005 11000 10999 10996 ] final  -99.97 input  -57.11 | X-H torsion

> <Gold.Protein.ActiveResidues>
 VAL166  LYS551  ARG553  GLY616  TRP617  ASP618  TYR619  PRO620  LYS621  CYS622 
 ASP623  PHE694  ASN695  SER759  ASP760  ASP761  ALA762  ILE779  LEU786  VAL792 
 PHE793  MET794  SER795  GLU796  ALA797  LYS798  CYS799  TRP800  GLU811  SER814 

> <Gold.Protein.RotatedAtoms>
  151.8907  135.0418  160.0497 H   0  0  0  0  0  0  0  0  0  0  0  0  # atno 6907 bound_to 6896
  152.2438  133.5153  159.5294 H   0  0  0  0  0  0  0  0  0  0  0  0  # atno 6908 bound_to 6896
  150.7062  134.0969  159.3994 H   0  0  0  0  0  0  0  0  0  0  0  0  # atno 6909 bound_to 6896
  145.5434  139.2290  143.2553 H   0  0  0  0  0  0  0  0  0  0  0  0  # atno 7974 bound_to 7965
  154.4281  140.1099  156.5849 H   0  0  0  0  0  0  0  0  0  0  0  0  # atno 8008 bound_to 7997
  155.6073  140.3494  155.4593 H   0  0  0  0  0  0  0  0  0  0  0  0  # atno 8009 bound_to 7997
  156.0126  140.1222  157.0427 H   0  0  0  0  0  0  0  0  0  0  0  0  # atno 8010 bound_to 7997
  140.1029  144.4888  150.7026 H   0  0  0  0  0  0  0  0  0  0  0  0  # atno 10167 bound_to 10162
  157.2679  130.7193  149.6488 H   0  0  0  0  0  0  0  0  0  0  0  0  # atno 10718 bound_to 10713
  153.3692  135.3935  155.1776 H   0  0  0  0  0  0  0  0  0  0  0  0  # atno 10763 bound_to 10752
  154.8691  135.3698  154.5000 H   0  0  0  0  0  0  0  0  0  0  0  0  # atno 10764 bound_to 10752
  153.5466  135.7083  153.5672 H   0  0  0  0  0  0  0  0  0  0  0  0  # atno 10765 bound_to 10752
  141.1289  133.8362  157.1041 H   0  0  0  0  0  0  0  0  0  0  0  0  # atno 11005 bound_to 11000
  146.1965  140.6255  142.9121 LP  0  0  0  0  0  0  0  0  0  0  0  0  # atno 17320 bound_to 7965
  144.7565  140.5320  143.6765 LP  0  0  0  0  0  0  0  0  0  0  0  0  # atno 17321 bound_to 7965
  140.6968  143.2409  151.4978 LP  0  0  0  0  0  0  0  0  0  0  0  0  # atno 17342 bound_to 10162
  139.5661  144.2038  152.1767 LP  0  0  0  0  0  0  0  0  0  0  0  0  # atno 17343 bound_to 10162
  155.9663  130.4377  150.5186 LP  0  0  0  0  0  0  0  0  0  0  0  0  # atno 17370 bound_to 10713
  157.3104  131.0662  151.2005 LP  0  0  0  0  0  0  0  0  0  0  0  0  # atno 17371 bound_to 10713
  140.0315  134.9899  157.0790 LP  0  0  0  0  0  0  0  0  0  0  0  0  # atno 17394 bound_to 11000
  140.4277  134.1813  155.7167 LP  0  0  0  0  0  0  0  0  0  0  0  0  # atno 17395 bound_to 11000

$$$$
