AV-unprocessed.smi:1116|AV-procd|sdf|4807|dock9
  -GOLD-   22720 3353D 1   1.00000     0.00000
 Structure written by MMmdl.
 36 37  0  0  0  0  0  0  0  0  1 V2000
  152.2690  143.8390  162.0166 C   0  0  0  0  0  0  0  0  0  0  0  0
  152.0228  143.4478  160.5998 C   0  0  0  0  0  0  0  0  0  0  0  0
  151.5643  142.2484  160.2319 N   0  0  0  0  0  0  0  0  0  0  0  0
  151.4245  142.1272  158.8456 C   0  0  0  0  0  0  0  0  0  0  0  0
  150.9314  140.8433  158.2505 C   0  0  0  0  0  0  0  0  0  0  0  0
  150.7399  140.9470  156.7279 C   0  0  0  0  0  0  0  0  0  0  0  0
  150.2729  139.6917  156.1505 N   0  0  0  0  0  0  0  0  0  0  0  0
  150.9337  138.9678  155.2342 C   0  0  0  0  0  0  0  0  0  0  0  0
  152.0292  139.2937  154.7776 O   0  0  0  0  0  0  0  0  0  0  0  0
  150.2480  137.6848  154.7568 C   0  0  0  0  0  0  0  0  0  0  0  0
  150.2099  136.5948  155.8448 C   0  0  0  0  0  0  0  0  0  0  0  0
  150.2165  135.1648  155.2695 C   0  0  2  0  0  0  0  0  0  0  0  0
  149.1804  134.9533  154.2727 N   0  0  0  0  0  0  0  0  0  0  0  0
  148.3270  133.9800  154.6182 C   0  0  0  0  0  0  0  0  0  0  0  0
  147.3642  133.5967  153.9584 O   0  0  0  0  0  0  0  0  0  0  0  0
  148.7074  133.5007  155.8072 N   0  0  0  0  0  0  0  0  0  0  0  0
  149.7860  134.1199  156.2839 C   0  0  0  0  0  0  0  0  0  0  0  0
  150.3509  133.9041  157.3544 O   0  0  0  0  0  0  0  0  0  0  0  0
  151.7800  143.2652  158.1649 C   0  0  0  0  0  0  0  0  0  0  0  0
  152.3099  144.5281  159.2415 S   0  0  0  0  0  0  0  0  0  0  0  0
  152.1443  142.9826  162.6799 H   0  0  0  0  0  0  0  0  0  0  0  0
  151.5671  144.6181  162.3145 H   0  0  0  0  0  0  0  0  0  0  0  0
  153.2842  144.2207  162.1265 H   0  0  0  0  0  0  0  0  0  0  0  0
  151.6301  140.0384  158.4819 H   0  0  0  0  0  0  0  0  0  0  0  0
  149.9863  140.5600  158.7154 H   0  0  0  0  0  0  0  0  0  0  0  0
  149.9985  141.7137  156.5011 H   0  0  0  0  0  0  0  0  0  0  0  0
  151.6672  141.2586  156.2439 H   0  0  0  0  0  0  0  0  0  0  0  0
  149.3767  139.3511  156.4672 H   0  0  0  0  0  0  0  0  0  0  0  0
  149.2348  137.9172  154.4256 H   0  0  0  0  0  0  0  0  0  0  0  0
  150.7846  137.3166  153.8819 H   0  0  0  0  0  0  0  0  0  0  0  0
  151.0718  136.7101  156.5043 H   0  0  0  0  0  0  0  0  0  0  0  0
  149.3275  136.7378  156.4716 H   0  0  0  0  0  0  0  0  0  0  0  0
  151.1919  134.9054  154.8559 H   0  0  0  0  0  0  0  0  0  0  0  0
  149.1269  135.4822  153.4144 H   0  0  0  0  0  0  0  0  0  0  0  0
  148.2249  132.7588  156.2932 H   0  0  0  0  0  0  0  0  0  0  0  0
  151.7645  143.4360  157.0988 H   0  0  0  0  0  0  0  0  0  0  0  0
  1  2  1  0  0  0  0
  1 21  1  0  0  0  0
  1 22  1  0  0  0  0
  1 23  1  0  0  0  0
  2 20  1  0  0  0  0
  2  3  2  0  0  0  0
  3  4  1  0  0  0  0
  4  5  1  0  0  0  0
  4 19  2  0  0  0  0
  5  6  1  0  0  0  0
  5 24  1  0  0  0  0
  5 25  1  0  0  0  0
  6  7  1  0  0  0  0
  6 26  1  0  0  0  0
  6 27  1  0  0  0  0
  7  8  1  0  0  0  0
  7 28  1  0  0  0  0
  8  9  2  0  0  0  0
  8 10  1  0  0  0  0
 10 11  1  0  0  0  0
 10 29  1  0  0  0  0
 10 30  1  0  0  0  0
 11 12  1  0  0  0  0
 11 31  1  0  0  0  0
 11 32  1  0  0  0  0
 12 17  1  0  0  0  0
 12 13  1  0  0  0  0
 12 33  1  0  0  0  0
 13 14  1  0  0  0  0
 13 34  1  0  0  0  0
 14 15  2  0  0  0  0
 14 16  1  0  0  0  0
 16 17  1  0  0  0  0
 16 35  1  0  0  0  0
 17 18  2  0  0  0  0
 19 20  1  0  0  0  0
 19 36  1  0  0  0  0
M  END
> <s_m_source_file>
AV-unprocessed.smi

> <i_m_source_file_index>
1116

> <i_lp_mmshare_version>
43012

> <i_f3d_flags>
0

> <s_epik_input>
W0NIM11jMW5jKFtjSF1zMSlbQ0gyXVtDSDJdW05IXUMoPU8pW0NIMl1bQ0gyXVtDQEBIXTJbTkhdQyg9TylbTkhdQzI9Tw==

> <s_epik_cmdline>
J2VwaWtfcHl0aG9uJywgJy1waCcsICc3LjAnLCAnLXRuJywgJzgnLCAnLW1hJywgJzIwMCcsICctbWV0YWxfYmluZGluZycsICctaW1hZScsICc8aW5maWxlLm1hZT4nLCAnLW9tYWUnLCAnPG91dGZpbGUubWFlPic=

> <r_lp_tautomer_probability>
1

> <r_epik_Ionization_Penalty>
0.00889251

> <r_epik_Ionization_Penalty_Charging>
0

> <r_epik_Ionization_Penalty_Neutral>
0.00889251

> <r_epik_State_Penalty>
0.00583796

> <r_epik_Charging_Adjusted_Penalty>
0.00583796

> <i_epik_Tot_Q>
0

> <i_epik_Tot_abs_Q>
0

> <r_epik_Metal_State_Penalty>
0.408839

> <b_epik_Metal_Only>
0

> <s_lp_Force_Field>
OPLS_2005

> <r_lp_Energy>
12.4074

> <b_lp_Chiralities_Consistent>
1

> <s_lp_Variant>
AV-unprocessed.smi:1116-1

> <Gold.Version>
5.8.1

> <Gold.Id.Protein>
6NUR|6NUR_protein|mol2

> <Gold.PLP.Fitness>
44.3333

> <Gold.PLP.PLP>
-37.4441

> <Gold.PLP.part.hbond>
-3.7215

> <Gold.PLP.part.metal>
0.0000

> <Gold.PLP.part.buried>
-5.8439

> <Gold.PLP.part.nonpolar>
-28.0290

> <Gold.PLP.part.repulsive>
0.2333

> <Gold.PLP.ligand.clash>
0.0000

> <Gold.PLP.ligand.torsion>
0.3708

> <Gold.PLP.Chemscore.Hbond>
2.5200

> <Gold.PLP.Chemscore.CHOScore>
0.0000

> <Gold.PLP.Chemscore.Metal>
0.0000

> <Gold.Chemscore.Hbonds>
donor molecule, donor type, donor heavy atom, donor atom, acceptor molecule, acceptor atom, score
      L1  H    13    34       P1  7948  1.00
      P1  H  6896  6908       L1    18  0.72
      P1  H  7989  7998       L1     9  0.86

> <Gold.PLP.Chemscore.Internal.Correction>
0.0708

> <Gold.Rescore>
     Score         DG    S(hbond)    S(metal)    S(lipo)     H(rot)  DE(clash)    DE(int)     intcor
     16.05     -16.44       2.57        0.00      82.11       2.83       0.04       0.34       ----

> <Gold.Chemscore.Fitness>
16.0525

> <Gold.Chemscore.DG>
-16.4353

> <Gold.Chemscore.ZeroCoef>
-5.4800

> <Gold.Chemscore.Hbond>
2.5748

> <Gold.Chemscore.Metal>
0.0000

> <Gold.Chemscore.Lipo>
82.1061

> <Gold.Chemscore.Internal_Hbond>
0.0000

> <Gold.Chemscore.DEClash>
0.0431

> <Gold.Chemscore.DEInternal>
0.3396

> <Gold.Chemscore.Rot>
2.8324

> <Gold.Chemscore.Internal.Correction>
   9.000000E+99

> <Gold.Chemscore.Hbonds>
donor molecule, donor type, donor heavy atom, donor atom, acceptor molecule, acceptor atom, score
      L1  H    13    34       P1  7948  0.50
      P1  H  6896  6908       L1    18  0.70
      P1  H  7989  7998       L1     9  0.44

> <Gold.Chemscore.Hbond.Weighted>
-8.5998

> <Gold.Chemscore.Metal.Weighted>
-0.0000

> <Gold.Chemscore.Lipo.Weighted>
-9.6064

> <Gold.Chemscore.Internal_Hbond.Weighted>
0.0000

> <Gold.Chemscore.DEClash.Weighted>
0.0431

> <Gold.Chemscore.DEInternal.Weighted>
0.3396

> <Gold.Chemscore.Rot.Weighted>
7.2510

> <Gold.Chemscore.Internal.Correction.Weighted>
   9.000000E+99

> <Gold.Protein.RotatedTorsions>
[ 6907 6896 6895 6894 ] final  100.55 input  -60.11 | X-H torsion
[ 7974 7965 7964 7962 ] final   44.27 input  175.53 | X-H torsion
[ 8008 7997 7996 7995 ] final  -46.71 input   59.86 | X-H torsion
[ 10167 10162 10161 10158 ] final -123.86 input  -65.29 | X-H torsion
[ 10718 10713 10712 10709 ] final  179.80 input   66.30 | X-H torsion
[ 10763 10752 10751 10750 ] final -145.48 input  -60.55 | X-H torsion
[ 11005 11000 10999 10996 ] final  145.91 input  -57.11 | X-H torsion

> <Gold.Protein.ActiveResidues>
 VAL166  LYS551  ARG553  GLY616  TRP617  ASP618  TYR619  PRO620  LYS621  CYS622 
 ASP623  PHE694  ASN695  SER759  ASP760  ASP761  ALA762  ILE779  LEU786  VAL792 
 PHE793  MET794  SER795  GLU796  ALA797  LYS798  CYS799  TRP800  GLU811  SER814 

> <Gold.Protein.RotatedAtoms>
  152.5369  134.0260  159.8003 H   0  0  0  0  0  0  0  0  0  0  0  0  # atno 6907 bound_to 6896
  151.0439  133.5674  159.2655 H   0  0  0  0  0  0  0  0  0  0  0  0  # atno 6908 bound_to 6896
  151.2634  135.0669  159.9160 H   0  0  0  0  0  0  0  0  0  0  0  0  # atno 6909 bound_to 6896
  146.0583  139.5093  142.9674 H   0  0  0  0  0  0  0  0  0  0  0  0  # atno 7974 bound_to 7965
  154.4010  140.1364  156.4056 H   0  0  0  0  0  0  0  0  0  0  0  0  # atno 8008 bound_to 7997
  155.7782  140.3482  155.5263 H   0  0  0  0  0  0  0  0  0  0  0  0  # atno 8009 bound_to 7997
  155.8700  140.0970  157.1547 H   0  0  0  0  0  0  0  0  0  0  0  0  # atno 8010 bound_to 7997
  139.9990  143.5561  152.2311 H   0  0  0  0  0  0  0  0  0  0  0  0  # atno 10167 bound_to 10162
  156.8704  130.9782  151.3074 H   0  0  0  0  0  0  0  0  0  0  0  0  # atno 10718 bound_to 10713
  154.8381  135.3412  154.6510 H   0  0  0  0  0  0  0  0  0  0  0  0  # atno 10763 bound_to 10752
  153.7123  135.6963  153.5038 H   0  0  0  0  0  0  0  0  0  0  0  0  # atno 10764 bound_to 10752
  153.2442  135.4374  155.0684 H   0  0  0  0  0  0  0  0  0  0  0  0  # atno 10765 bound_to 10752
  140.0750  134.9130  157.1408 H   0  0  0  0  0  0  0  0  0  0  0  0  # atno 11005 bound_to 11000
  145.6604  141.0242  143.1712 LP  0  0  0  0  0  0  0  0  0  0  0  0  # atno 17320 bound_to 7965
  144.7160  139.8194  143.7398 LP  0  0  0  0  0  0  0  0  0  0  0  0  # atno 17321 bound_to 7965
  139.6285  144.7641  151.2586 LP  0  0  0  0  0  0  0  0  0  0  0  0  # atno 17342 bound_to 10162
  140.7426  143.6520  150.8240 LP  0  0  0  0  0  0  0  0  0  0  0  0  # atno 17343 bound_to 10162
  157.6199  130.8647  149.9091 LP  0  0  0  0  0  0  0  0  0  0  0  0  # atno 17370 bound_to 10713
  156.0729  130.3682  150.0737 LP  0  0  0  0  0  0  0  0  0  0  0  0  # atno 17371 bound_to 10713
  140.3570  134.2535  155.7191 LP  0  0  0  0  0  0  0  0  0  0  0  0  # atno 17394 bound_to 11000
  141.2026  133.7933  157.0381 LP  0  0  0  0  0  0  0  0  0  0  0  0  # atno 17395 bound_to 11000

$$$$
