AV-unprocessed.smi:2174|AV-procd|sdf|8842|dock2
  -GOLD-   2272012 33D 1   1.00000     0.00000
 Structure written by MMmdl.
 46 47  0  0  0  0  0  0  0  0  2 V2000
  149.1119  139.5161  154.2421 C   0  0  0  0  0  0  0  0  0  0  0  0
  150.5271  139.3235  154.7068 C   0  0  0  0  0  0  0  0  0  0  0  0
  151.2702  140.3780  154.9976 N   0  0  0  0  0  0  0  0  0  0  0  0
  152.5112  139.8741  155.3994 O   0  0  0  0  0  0  0  0  0  0  0  0
  152.4644  138.5193  155.3376 C   0  0  0  0  0  0  0  0  0  0  0  0
  153.6993  137.7854  155.7387 C   0  0  0  0  0  0  0  0  0  0  0  0
  151.2343  138.1034  154.9078 C   0  0  0  0  0  0  0  0  0  0  0  0
  150.7367  136.6934  154.7001 C   0  0  0  0  0  0  0  0  0  0  0  0
  149.3246  136.5091  155.2670 C   0  0  0  0  0  0  0  0  0  0  0  0
  149.1167  136.7063  156.4633 O   0  0  0  0  0  0  0  0  0  0  0  0
  148.3560  136.1597  154.4047 N   0  0  0  0  0  0  0  0  0  0  0  0
  146.9524  135.9558  154.7494 C   0  0  0  0  0  0  0  0  0  0  0  0
  146.0072  136.1398  153.5428 C   0  0  0  0  0  0  0  0  0  0  0  0
  146.3974  135.3376  152.3505 N   0  3  0  0  0  0  0  0  0  0  0  0
  145.6054  135.6935  151.1403 C   0  0  0  0  0  0  0  0  0  0  0  0
  144.2889  134.9096  150.9794 C   0  0  0  0  0  0  0  0  0  0  0  0
  144.4665  133.6174  150.1658 C   0  0  0  0  0  0  0  0  0  0  0  0
  145.2494  132.5169  150.8945 C   0  0  0  0  0  0  0  0  0  0  0  0
  146.6237  132.9607  151.4230 C   0  0  0  0  0  0  0  0  0  0  0  0
  146.5211  133.8828  152.6530 C   0  0  0  0  0  0  0  0  0  0  0  0
  148.8967  138.8927  153.3741 H   0  0  0  0  0  0  0  0  0  0  0  0
  148.9159  140.5515  153.9606 H   0  0  0  0  0  0  0  0  0  0  0  0
  148.4059  139.2457  155.0276 H   0  0  0  0  0  0  0  0  0  0  0  0
  153.4530  136.9244  156.3608 H   0  0  0  0  0  0  0  0  0  0  0  0
  154.3724  138.4291  156.3058 H   0  0  0  0  0  0  0  0  0  0  0  0
  154.2353  137.4257  154.8601 H   0  0  0  0  0  0  0  0  0  0  0  0
  150.7282  136.4370  153.6398 H   0  0  0  0  0  0  0  0  0  0  0  0
  151.3930  135.9666  155.1795 H   0  0  0  0  0  0  0  0  0  0  0  0
  148.6185  136.0025  153.4422 H   0  0  0  0  0  0  0  0  0  0  0  0
  146.8524  134.9474  155.1512 H   0  0  0  0  0  0  0  0  0  0  0  0
  146.6655  136.6296  155.5583 H   0  0  0  0  0  0  0  0  0  0  0  0
  144.9810  135.9058  153.8293 H   0  0  0  0  0  0  0  0  0  0  0  0
  146.0131  137.1979  153.2782 H   0  0  0  0  0  0  0  0  0  0  0  0
  145.3890  136.7623  151.1499 H   0  0  0  0  0  0  0  0  0  0  0  0
  146.2322  135.5516  150.2593 H   0  0  0  0  0  0  0  0  0  0  0  0
  143.8190  134.7114  151.9434 H   0  0  0  0  0  0  0  0  0  0  0  0
  143.5872  135.5421  150.4346 H   0  0  0  0  0  0  0  0  0  0  0  0
  143.4829  133.2260  149.9041 H   0  0  0  0  0  0  0  0  0  0  0  0
  144.9543  133.8461  149.2176 H   0  0  0  0  0  0  0  0  0  0  0  0
  144.6497  132.1233  151.7163 H   0  0  0  0  0  0  0  0  0  0  0  0
  145.3886  131.6825  150.2060 H   0  0  0  0  0  0  0  0  0  0  0  0
  147.1560  132.0596  151.7301 H   0  0  0  0  0  0  0  0  0  0  0  0
  147.2340  133.4046  150.6356 H   0  0  0  0  0  0  0  0  0  0  0  0
  147.4239  133.7505  153.2495 H   0  0  0  0  0  0  0  0  0  0  0  0
  145.6945  133.5600  153.2877 H   0  0  0  0  0  0  0  0  0  0  0  0
  147.3328  135.6475  152.1287 H   0  0  0  0  0  0  0  0  0  0  0  0
  1  2  1  0  0  0  0
  1 21  1  0  0  0  0
  1 22  1  0  0  0  0
  1 23  1  0  0  0  0
  2  7  1  0  0  0  0
  2  3  2  0  0  0  0
  3  4  1  0  0  0  0
  4  5  1  0  0  0  0
  5  6  1  0  0  0  0
  5  7  2  0  0  0  0
  6 24  1  0  0  0  0
  6 25  1  0  0  0  0
  6 26  1  0  0  0  0
  7  8  1  0  0  0  0
  8  9  1  0  0  0  0
  8 27  1  0  0  0  0
  8 28  1  0  0  0  0
  9 10  2  0  0  0  0
  9 11  1  0  0  0  0
 11 12  1  0  0  0  0
 11 29  1  0  0  0  0
 12 13  1  0  0  0  0
 12 30  1  0  0  0  0
 12 31  1  0  0  0  0
 13 14  1  0  0  0  0
 13 32  1  0  0  0  0
 13 33  1  0  0  0  0
 14 20  1  0  0  0  0
 14 15  1  0  0  0  0
 14 46  1  0  0  0  0
 15 16  1  0  0  0  0
 15 34  1  0  0  0  0
 15 35  1  0  0  0  0
 16 17  1  0  0  0  0
 16 36  1  0  0  0  0
 16 37  1  0  0  0  0
 17 18  1  0  0  0  0
 17 38  1  0  0  0  0
 17 39  1  0  0  0  0
 18 19  1  0  0  0  0
 18 40  1  0  0  0  0
 18 41  1  0  0  0  0
 19 20  1  0  0  0  0
 19 42  1  0  0  0  0
 19 43  1  0  0  0  0
 20 44  1  0  0  0  0
 20 45  1  0  0  0  0
M  CHG  1  14   1
M  END
> <s_m_source_file>
AV-unprocessed.smi

> <i_m_source_file_index>
2174

> <i_lp_mmshare_version>
43012

> <i_f3d_flags>
0

> <s_epik_input>
W0NIM11jMW5vYyhbQ0gzXSljMVtDSDJdQyg9TylbTkhdW0NIMl1bQ0gyXU4yW0NIMl1bQ0gyXVtDSDJdW0NIMl1bQ0gyXVtDSDJdMg==

> <s_epik_cmdline>
J2VwaWtfcHl0aG9uJywgJy1waCcsICc3LjAnLCAnLXRuJywgJzgnLCAnLW1hJywgJzIwMCcsICctbWV0YWxfYmluZGluZycsICctaW1hZScsICc8aW5maWxlLm1hZT4nLCAnLW9tYWUnLCAnPG91dGZpbGUubWFlPic=

> <r_epik_Ionization_Penalty>
0.0024041

> <r_epik_Ionization_Penalty_Charging>
0.00240401

> <r_epik_Ionization_Penalty_Neutral>
9.67143e-08

> <r_epik_State_Penalty>
0.00166275

> <r_epik_Charging_Adjusted_Penalty>
0.00406676

> <i_epik_Tot_Q>
1

> <i_epik_Tot_abs_Q>
1

> <r_epik_Metal_State_Penalty>
-0

> <b_epik_Metal_Only>
0

> <s_lp_Force_Field>
OPLS_2005

> <r_lp_Energy>
23.9456

> <b_lp_Chiralities_Consistent>
1

> <s_lp_Variant>
AV-unprocessed.smi:2174-1

> <Gold.Version>
5.8.1

> <Gold.Id.Protein>
6NUR|6NUR_protein|mol2

> <Gold.PLP.Fitness>
46.9901

> <Gold.PLP.PLP>
-32.7309

> <Gold.PLP.part.hbond>
-4.9532

> <Gold.PLP.part.metal>
0.0000

> <Gold.PLP.part.buried>
0.3886

> <Gold.PLP.part.nonpolar>
-27.9699

> <Gold.PLP.part.repulsive>
0.0836

> <Gold.PLP.ligand.clash>
0.0000

> <Gold.PLP.ligand.torsion>
0.4181

> <Gold.PLP.Chemscore.Hbond>
5.0000

> <Gold.PLP.Chemscore.CHOScore>
0.0000

> <Gold.PLP.Chemscore.Metal>
0.0000

> <Gold.Chemscore.Hbonds>
donor molecule, donor type, donor heavy atom, donor atom, acceptor molecule, acceptor atom, score
      L1  H    11    29       P1  7948  1.00
      L1  H    14    46       P1  7948  2.00
      P1  H  7989  7998       L1     3  1.00
      P1  H  7997  8010       L1     4  1.00

> <Gold.PLP.Chemscore.Internal.Correction>
0.0953

> <Gold.Rescore>
     Score         DG    S(hbond)    S(metal)    S(lipo)     H(rot)  DE(clash)    DE(int)     intcor
     19.16     -21.05       3.03        0.00      83.32       1.69       1.58       0.30       ----

> <Gold.Chemscore.Fitness>
19.1617

> <Gold.Chemscore.DG>
-21.0454

> <Gold.Chemscore.ZeroCoef>
-5.4800

> <Gold.Chemscore.Hbond>
3.0341

> <Gold.Chemscore.Metal>
0.0000

> <Gold.Chemscore.Lipo>
83.3223

> <Gold.Chemscore.Internal_Hbond>
0.0000

> <Gold.Chemscore.DEClash>
1.5849

> <Gold.Chemscore.DEInternal>
0.2988

> <Gold.Chemscore.Rot>
1.6865

> <Gold.Chemscore.Internal.Correction>
   9.000000E+99

> <Gold.Chemscore.Hbonds>
donor molecule, donor type, donor heavy atom, donor atom, acceptor molecule, acceptor atom, score
      L1  H    11    29       P1  7948  0.99
      L1  H    14    46       P1  7948  1.00
      P1  H  7989  7998       L1     3  0.06
      P1  H  7997  8010       L1     4  0.33

> <Gold.Chemscore.Hbond.Weighted>
-10.1340

> <Gold.Chemscore.Metal.Weighted>
-0.0000

> <Gold.Chemscore.Lipo.Weighted>
-9.7487

> <Gold.Chemscore.Internal_Hbond.Weighted>
0.0000

> <Gold.Chemscore.DEClash.Weighted>
1.5849

> <Gold.Chemscore.DEInternal.Weighted>
0.2988

> <Gold.Chemscore.Rot.Weighted>
4.3174

> <Gold.Chemscore.Internal.Correction.Weighted>
   9.000000E+99

> <Gold.Protein.RotatedTorsions>
[ 6907 6896 6895 6894 ] final   90.78 input  -60.11 | X-H torsion
[ 7974 7965 7964 7962 ] final   61.48 input  175.53 | X-H torsion
[ 8008 7997 7996 7995 ] final  101.56 input   59.86 | X-H torsion
[ 10167 10162 10161 10158 ] final    5.81 input  -65.29 | X-H torsion
[ 10718 10713 10712 10709 ] final   46.67 input   66.30 | X-H torsion
[ 10763 10752 10751 10750 ] final  -52.15 input  -60.55 | X-H torsion
[ 11005 11000 10999 10996 ] final   59.21 input  -57.11 | X-H torsion

> <Gold.Protein.ActiveResidues>
 VAL166  LYS551  ARG553  GLY616  TRP617  ASP618  TYR619  PRO620  LYS621  CYS622 
 ASP623  PHE694  ASN695  SER759  ASP760  ASP761  ALA762  ILE779  LEU786  VAL792 
 PHE793  MET794  SER795  GLU796  ALA797  LYS798  CYS799  TRP800  GLU811  SER814 

> <Gold.Protein.RotatedAtoms>
  152.5446  134.1759  159.8615 H   0  0  0  0  0  0  0  0  0  0  0  0  # atno 6907 bound_to 6896
  151.1765  133.4744  159.2601 H   0  0  0  0  0  0  0  0  0  0  0  0  # atno 6908 bound_to 6896
  151.1221  135.0096  159.8599 H   0  0  0  0  0  0  0  0  0  0  0  0  # atno 6909 bound_to 6896
  145.8842  139.3465  143.0688 H   0  0  0  0  0  0  0  0  0  0  0  0  # atno 7974 bound_to 7965
  156.1311  140.3195  155.8350 H   0  0  0  0  0  0  0  0  0  0  0  0  # atno 8008 bound_to 7997
  155.4330  140.0520  157.3034 H   0  0  0  0  0  0  0  0  0  0  0  0  # atno 8009 bound_to 7997
  154.4900  140.2088  155.9583 H   0  0  0  0  0  0  0  0  0  0  0  0  # atno 8010 bound_to 7997
  140.6462  143.7656  150.7503 H   0  0  0  0  0  0  0  0  0  0  0  0  # atno 10167 bound_to 10162
  157.4506  130.8136  149.7784 H   0  0  0  0  0  0  0  0  0  0  0  0  # atno 10718 bound_to 10713
  154.1380  135.6509  153.4936 H   0  0  0  0  0  0  0  0  0  0  0  0  # atno 10763 bound_to 10752
  153.0174  135.5309  154.6933 H   0  0  0  0  0  0  0  0  0  0  0  0  # atno 10764 bound_to 10752
  154.6187  135.2962  155.0321 H   0  0  0  0  0  0  0  0  0  0  0  0  # atno 10765 bound_to 10752
  140.0321  134.5997  155.9493 H   0  0  0  0  0  0  0  0  0  0  0  0  # atno 11005 bound_to 11000
  145.8986  140.9257  143.0514 LP  0  0  0  0  0  0  0  0  0  0  0  0  # atno 17320 bound_to 7965
  144.6728  140.1003  143.7461 LP  0  0  0  0  0  0  0  0  0  0  0  0  # atno 17321 bound_to 7965
  140.1297  143.4537  152.2262 LP  0  0  0  0  0  0  0  0  0  0  0  0  # atno 17342 bound_to 10162
  139.5673  144.7442  151.3987 LP  0  0  0  0  0  0  0  0  0  0  0  0  # atno 17343 bound_to 10162
  155.9985  130.3894  150.2698 LP  0  0  0  0  0  0  0  0  0  0  0  0  # atno 17370 bound_to 10713
  157.0869  131.0159  151.3136 LP  0  0  0  0  0  0  0  0  0  0  0  0  # atno 17371 bound_to 10713
  141.1836  133.6551  156.5125 LP  0  0  0  0  0  0  0  0  0  0  0  0  # atno 17394 bound_to 11000
  140.4209  134.7188  157.4889 LP  0  0  0  0  0  0  0  0  0  0  0  0  # atno 17395 bound_to 11000

$$$$
