AV-unprocessed.smi:2453|AV-procd|sdf|9688|dock8
  -GOLD-   2272013323D 1   1.00000     0.00000
 Structure written by MMmdl.
 40 41  0  0  0  0  0  0  0  0  1 V2000
  151.2291  145.0493  158.2843 C   0  0  0  0  0  0  0  0  0  0  0  0
  151.6865  143.6653  158.7113 C   0  0  0  0  0  0  0  0  0  0  0  0
  152.8276  143.5230  159.5298 C   0  0  0  0  0  0  0  0  0  0  0  0
  153.3006  142.3319  159.9505 N   0  0  0  0  0  0  0  0  0  0  0  0
  152.6433  141.2214  159.5590 C   0  0  0  0  0  0  0  0  0  0  0  0
  151.4954  141.2462  158.7433 C   0  0  0  0  0  0  0  0  0  0  0  0
  150.9904  142.4976  158.3142 C   0  0  0  0  0  0  0  0  0  0  0  0
  149.8517  142.6331  157.4704 N   0  0  0  0  0  0  0  0  0  0  0  0
  148.8441  141.7673  157.2664 C   0  0  0  0  0  0  0  0  0  0  0  0
  148.7099  140.6834  157.8338 O   0  0  0  0  0  0  0  0  0  0  0  0
  147.9784  142.2474  156.3618 N   0  0  0  0  0  0  0  0  0  0  0  0
  146.7711  141.5758  155.8752 C   0  0  1  0  0  0  0  0  0  0  0  0
  145.5171  142.3436  156.3398 C   0  0  0  0  0  0  0  0  0  0  0  0
  145.3704  143.7017  155.6325 C   0  0  0  0  0  0  0  0  0  0  0  0
  145.3885  143.5375  154.1058 C   0  0  0  0  0  0  0  0  0  0  0  0
  146.6491  142.7921  153.6378 C   0  0  0  0  0  0  0  0  0  0  0  0
  146.7918  141.4197  154.3306 C   0  0  1  0  0  0  0  0  0  0  0  0
  148.0248  140.6557  153.8027 C   0  0  0  0  0  0  0  0  0  0  0  0
  149.1790  141.4676  153.8587 O   0  0  0  0  0  0  0  0  0  0  0  0
  151.8810  145.8246  158.6880 H   0  0  0  0  0  0  0  0  0  0  0  0
  150.2166  145.2415  158.6403 H   0  0  0  0  0  0  0  0  0  0  0  0
  151.2366  145.1351  157.1974 H   0  0  0  0  0  0  0  0  0  0  0  0
  153.3819  144.3903  159.8572 H   0  0  0  0  0  0  0  0  0  0  0  0
  153.0491  140.2807  159.9006 H   0  0  0  0  0  0  0  0  0  0  0  0
  151.0394  140.3116  158.4560 H   0  0  0  0  0  0  0  0  0  0  0  0
  149.7722  143.5212  156.9976 H   0  0  0  0  0  0  0  0  0  0  0  0
  148.1750  143.1525  155.9608 H   0  0  0  0  0  0  0  0  0  0  0  0
  146.7112  140.5771  156.3108 H   0  0  0  0  0  0  0  0  0  0  0  0
  144.6331  141.7388  156.1338 H   0  0  0  0  0  0  0  0  0  0  0  0
  145.5399  142.4849  157.4211 H   0  0  0  0  0  0  0  0  0  0  0  0
  144.4419  144.1819  155.9426 H   0  0  0  0  0  0  0  0  0  0  0  0
  146.1771  144.3686  155.9389 H   0  0  0  0  0  0  0  0  0  0  0  0
  144.5012  142.9891  153.7871 H   0  0  0  0  0  0  0  0  0  0  0  0
  145.3355  144.5155  153.6266 H   0  0  0  0  0  0  0  0  0  0  0  0
  146.6072  142.6601  152.5561 H   0  0  0  0  0  0  0  0  0  0  0  0
  147.5300  143.4042  153.8358 H   0  0  0  0  0  0  0  0  0  0  0  0
  145.9131  140.8350  154.0523 H   0  0  0  0  0  0  0  0  0  0  0  0
  148.2083  139.7692  154.4104 H   0  0  0  0  0  0  0  0  0  0  0  0
  147.8740  140.3111  152.7795 H   0  0  0  0  0  0  0  0  0  0  0  0
  149.8382  141.0206  154.3677 H   0  0  0  0  0  0  0  0  0  0  0  0
  1  2  1  0  0  0  0
  1 20  1  0  0  0  0
  1 21  1  0  0  0  0
  1 22  1  0  0  0  0
  2  7  1  0  0  0  0
  2  3  2  0  0  0  0
  3  4  1  0  0  0  0
  3 23  1  0  0  0  0
  4  5  2  0  0  0  0
  5  6  1  0  0  0  0
  5 24  1  0  0  0  0
  6  7  2  0  0  0  0
  6 25  1  0  0  0  0
  7  8  1  0  0  0  0
  8  9  1  0  0  0  0
  8 26  1  0  0  0  0
  9 10  2  0  0  0  0
  9 11  1  0  0  0  0
 11 12  1  0  0  0  0
 11 27  1  0  0  0  0
 12 17  1  0  0  0  0
 12 13  1  0  0  0  0
 12 28  1  0  0  0  0
 13 14  1  0  0  0  0
 13 29  1  0  0  0  0
 13 30  1  0  0  0  0
 14 15  1  0  0  0  0
 14 31  1  0  0  0  0
 14 32  1  0  0  0  0
 15 16  1  0  0  0  0
 15 33  1  0  0  0  0
 15 34  1  0  0  0  0
 16 17  1  0  0  0  0
 16 35  1  0  0  0  0
 16 36  1  0  0  0  0
 17 18  1  0  0  0  0
 17 37  1  0  0  0  0
 18 19  1  0  0  0  0
 18 38  1  0  0  0  0
 18 39  1  0  0  0  0
 19 40  1  0  0  0  0
M  END
> <s_m_source_file>
AV-unprocessed.smi

> <i_m_source_file_index>
2453

> <i_lp_mmshare_version>
43012

> <i_f3d_flags>
0

> <s_epik_input>
W0NIM11jMVtjSF1uW2NIXVtjSF1jMVtOSF1DKD1PKVtOSF1bQ0BASF0yW0NIMl1bQ0gyXVtDSDJdW0NIMl1bQ0BIXTJbQ0gyXVtPSF0=

> <s_epik_cmdline>
J2VwaWtfcHl0aG9uJywgJy1waCcsICc3LjAnLCAnLXRuJywgJzgnLCAnLW1hJywgJzIwMCcsICctbWV0YWxfYmluZGluZycsICctaW1hZScsICc8aW5maWxlLm1hZT4nLCAnLW9tYWUnLCAnPG91dGZpbGUubWFlPic=

> <r_epik_Ionization_Penalty>
0.210691

> <r_epik_Ionization_Penalty_Charging>
0

> <r_epik_Ionization_Penalty_Neutral>
0.210691

> <r_epik_State_Penalty>
0.200732

> <r_epik_Charging_Adjusted_Penalty>
0.200732

> <i_epik_Tot_Q>
0

> <i_epik_Tot_abs_Q>
0

> <r_epik_Metal_State_Penalty>
0.147519

> <b_epik_Metal_Only>
0

> <s_lp_Force_Field>
OPLS_2005

> <r_lp_Energy>
17.3761

> <b_lp_Chiralities_Consistent>
1

> <s_lp_Variant>
AV-unprocessed.smi:2453-2

> <Gold.Version>
5.8.1

> <Gold.Id.Protein>
6NUR|6NUR_protein|mol2

> <Gold.PLP.Fitness>
46.3009

> <Gold.PLP.PLP>
-38.5241

> <Gold.PLP.part.hbond>
-4.7311

> <Gold.PLP.part.metal>
0.0000

> <Gold.PLP.part.buried>
-6.8337

> <Gold.PLP.part.nonpolar>
-26.9082

> <Gold.PLP.part.repulsive>
0.0536

> <Gold.PLP.ligand.clash>
0.0000

> <Gold.PLP.ligand.torsion>
0.2003

> <Gold.PLP.Chemscore.Hbond>
2.7200

> <Gold.PLP.Chemscore.CHOScore>
0.0000

> <Gold.PLP.Chemscore.Metal>
0.0000

> <Gold.Chemscore.Hbonds>
donor molecule, donor type, donor heavy atom, donor atom, acceptor molecule, acceptor atom, score
      L1  H     8    26       P1  8028  1.00
      L1  H    11    27       P1  8028  1.00
      P1  H  8011  8017       L1    19  0.74

> <Gold.PLP.Chemscore.Internal.Correction>
0.0174

> <Gold.Rescore>
     Score         DG    S(hbond)    S(metal)    S(lipo)     H(rot)  DE(clash)    DE(int)     intcor
     17.09     -20.07       2.51        0.00      91.26       1.75       0.38       2.61       ----

> <Gold.Chemscore.Fitness>
17.0868

> <Gold.Chemscore.DG>
-20.0735

> <Gold.Chemscore.ZeroCoef>
-5.4800

> <Gold.Chemscore.Hbond>
2.5134

> <Gold.Chemscore.Metal>
0.0000

> <Gold.Chemscore.Lipo>
91.2561

> <Gold.Chemscore.Internal_Hbond>
0.0000

> <Gold.Chemscore.DEClash>
0.3764

> <Gold.Chemscore.DEInternal>
2.6103

> <Gold.Chemscore.Rot>
1.7493

> <Gold.Chemscore.Internal.Correction>
   9.000000E+99

> <Gold.Chemscore.Hbonds>
donor molecule, donor type, donor heavy atom, donor atom, acceptor molecule, acceptor atom, score
      L1  H     8    26       P1  8028  0.92
      L1  H    11    27       P1  8028  0.74
      P1  H  8011  8017       L1    19  0.68

> <Gold.Chemscore.Hbond.Weighted>
-8.3947

> <Gold.Chemscore.Metal.Weighted>
-0.0000

> <Gold.Chemscore.Lipo.Weighted>
-10.6770

> <Gold.Chemscore.Internal_Hbond.Weighted>
0.0000

> <Gold.Chemscore.DEClash.Weighted>
0.3764

> <Gold.Chemscore.DEInternal.Weighted>
2.6103

> <Gold.Chemscore.Rot.Weighted>
4.4782

> <Gold.Chemscore.Internal.Correction.Weighted>
   9.000000E+99

> <Gold.Protein.RotatedTorsions>
[ 6907 6896 6895 6894 ] final  124.64 input  -60.11 | X-H torsion
[ 7974 7965 7964 7962 ] final   67.56 input  175.53 | X-H torsion
[ 8008 7997 7996 7995 ] final   97.31 input   59.86 | X-H torsion
[ 10167 10162 10161 10158 ] final  117.49 input  -65.29 | X-H torsion
[ 10718 10713 10712 10709 ] final  139.88 input   66.30 | X-H torsion
[ 10763 10752 10751 10750 ] final    1.40 input  -60.55 | X-H torsion
[ 11005 11000 10999 10996 ] final  140.23 input  -57.11 | X-H torsion

> <Gold.Protein.ActiveResidues>
 VAL166  LYS551  ARG553  GLY616  TRP617  ASP618  TYR619  PRO620  LYS621  CYS622 
 ASP623  PHE694  ASN695  SER759  ASP760  ASP761  ALA762  ILE779  LEU786  VAL792 
 PHE793  MET794  SER795  GLU796  ALA797  LYS798  CYS799  TRP800  GLU811  SER814 

> <Gold.Protein.RotatedAtoms>
  152.4060  133.6890  159.6356 H   0  0  0  0  0  0  0  0  0  0  0  0  # atno 6907 bound_to 6896
  150.7945  133.8708  159.3267 H   0  0  0  0  0  0  0  0  0  0  0  0  # atno 6908 bound_to 6896
  151.6462  135.1009  160.0203 H   0  0  0  0  0  0  0  0  0  0  0  0  # atno 6909 bound_to 6896
  145.8132  139.3044  143.1087 H   0  0  0  0  0  0  0  0  0  0  0  0  # atno 7974 bound_to 7965
  156.0888  140.3260  155.7789 H   0  0  0  0  0  0  0  0  0  0  0  0  # atno 8008 bound_to 7997
  155.5030  140.0571  157.2953 H   0  0  0  0  0  0  0  0  0  0  0  0  # atno 8009 bound_to 7997
  154.4625  140.1973  156.0221 H   0  0  0  0  0  0  0  0  0  0  0  0  # atno 8010 bound_to 7997
  139.6175  144.7095  151.2707 H   0  0  0  0  0  0  0  0  0  0  0  0  # atno 10167 bound_to 10162
  157.4095  131.1026  151.0469 H   0  0  0  0  0  0  0  0  0  0  0  0  # atno 10718 bound_to 10713
  153.3086  135.6961  153.7137 H   0  0  0  0  0  0  0  0  0  0  0  0  # atno 10763 bound_to 10752
  153.6023  135.3460  155.2950 H   0  0  0  0  0  0  0  0  0  0  0  0  # atno 10764 bound_to 10752
  154.8569  135.4343  154.2217 H   0  0  0  0  0  0  0  0  0  0  0  0  # atno 10765 bound_to 10752
  140.0312  134.9351  157.0666 H   0  0  0  0  0  0  0  0  0  0  0  0  # atno 11005 bound_to 11000
  145.9754  140.8726  143.0141 LP  0  0  0  0  0  0  0  0  0  0  0  0  # atno 17320 bound_to 7965
  144.6755  140.2005  143.7387 LP  0  0  0  0  0  0  0  0  0  0  0  0  # atno 17321 bound_to 7965
  140.7360  143.6719  150.8075 LP  0  0  0  0  0  0  0  0  0  0  0  0  # atno 17342 bound_to 10162
  140.0324  143.5430  152.2754 LP  0  0  0  0  0  0  0  0  0  0  0  0  # atno 17343 bound_to 10162
  157.1439  130.6155  149.5563 LP  0  0  0  0  0  0  0  0  0  0  0  0  # atno 17370 bound_to 10713
  155.9846  130.4872  150.6992 LP  0  0  0  0  0  0  0  0  0  0  0  0  # atno 17371 bound_to 10713
  140.4222  134.1868  155.7165 LP  0  0  0  0  0  0  0  0  0  0  0  0  # atno 17394 bound_to 11000
  141.1832  133.8369  157.1183 LP  0  0  0  0  0  0  0  0  0  0  0  0  # atno 17395 bound_to 11000

$$$$
