AV-unprocessed.smi:2936|AV-procd|sdf|11258|dock9
  -GOLD-   2272016153D 1   1.00000     0.00000
 Structure written by MMmdl.
 24 25  0  0  0  0  0  0  0  0  1 V2000
  152.4414  136.9087  156.3878 O   0  0  0  0  0  0  0  0  0  0  0  0
  152.1136  138.0922  156.3290 C   0  0  0  0  0  0  0  0  0  0  0  0
  151.7178  138.6584  155.1640 N   0  0  0  0  0  0  0  0  0  0  0  0
  151.3285  139.9631  154.9775 N   0  0  0  0  0  0  0  0  0  0  0  0
  151.3318  140.7536  155.9957 C   0  0  0  0  0  0  0  0  0  0  0  0
  151.7289  140.3231  157.3272 C   0  0  0  0  0  0  0  0  0  0  0  0
  151.7127  141.2233  158.3818 N   0  0  0  0  0  0  0  0  0  0  0  0
  150.6131  142.1429  158.6350 C   0  0  0  0  0  0  0  0  0  0  0  0
  151.1327  143.5899  158.7027 C   0  0  0  0  0  0  0  0  0  0  0  0
  152.1646  143.6806  159.6816 O   0  0  0  0  0  0  0  0  0  0  0  0
  153.2736  142.8390  159.3760 C   0  0  0  0  0  0  0  0  0  0  0  0
  152.8088  141.3726  159.3277 C   0  0  0  0  0  0  0  0  0  0  0  0
  152.1059  139.0209  157.4680 C   0  0  0  0  0  0  0  0  0  0  0  0
  152.5950  138.3973  159.0068 Cl  0  0  0  0  0  0  0  0  0  0  0  0
  151.6929  138.0953  154.3261 H   0  0  0  0  0  0  0  0  0  0  0  0
  151.0338  141.7989  155.9095 H   0  0  0  0  0  0  0  0  0  0  0  0
  149.8586  142.0498  157.8531 H   0  0  0  0  0  0  0  0  0  0  0  0
  150.1338  141.8699  159.5757 H   0  0  0  0  0  0  0  0  0  0  0  0
  151.5073  143.9194  157.7328 H   0  0  0  0  0  0  0  0  0  0  0  0
  150.3230  144.2665  158.9761 H   0  0  0  0  0  0  0  0  0  0  0  0
  153.7225  143.1405  158.4287 H   0  0  0  0  0  0  0  0  0  0  0  0
  154.0374  142.9653  160.1434 H   0  0  0  0  0  0  0  0  0  0  0  0
  152.4717  141.0508  160.3135 H   0  0  0  0  0  0  0  0  0  0  0  0
  153.6387  140.7237  159.0458 H   0  0  0  0  0  0  0  0  0  0  0  0
  1  2  2  0  0  0  0
  2 13  1  0  0  0  0
  2  3  1  0  0  0  0
  3 15  1  0  0  0  0
  3  4  1  0  0  0  0
  4  5  2  0  0  0  0
  5  6  1  0  0  0  0
  5 16  1  0  0  0  0
  6  7  1  0  0  0  0
  6 13  2  0  0  0  0
  7 12  1  0  0  0  0
  7  8  1  0  0  0  0
  8  9  1  0  0  0  0
  8 17  1  0  0  0  0
  8 18  1  0  0  0  0
  9 10  1  0  0  0  0
  9 19  1  0  0  0  0
  9 20  1  0  0  0  0
 10 11  1  0  0  0  0
 11 12  1  0  0  0  0
 11 21  1  0  0  0  0
 11 22  1  0  0  0  0
 12 23  1  0  0  0  0
 12 24  1  0  0  0  0
 13 14  1  0  0  0  0
M  END
> <s_m_source_file>
AV-unprocessed.smi

> <i_m_source_file_index>
2936

> <i_lp_mmshare_version>
43012

> <i_f3d_flags>
0

> <s_epik_input>
Tz1jMVtuSF1uW2NIXWMoYzFDbClOMltDSDJdW0NIMl1PW0NIMl1bQ0gyXTI=

> <s_epik_cmdline>
J2VwaWtfcHl0aG9uJywgJy1waCcsICc3LjAnLCAnLXRuJywgJzgnLCAnLW1hJywgJzIwMCcsICctbWV0YWxfYmluZGluZycsICctaW1hZScsICc8aW5maWxlLm1hZT4nLCAnLW9tYWUnLCAnPG91dGZpbGUubWFlPic=

> <r_lp_tautomer_probability>
0.986175

> <r_epik_Ionization_Penalty>
0.0102925

> <r_epik_Ionization_Penalty_Charging>
0.0102925

> <r_epik_Ionization_Penalty_Neutral>
4.87729e-09

> <r_epik_State_Penalty>
1.65855

> <r_epik_Charging_Adjusted_Penalty>
1.66884

> <i_epik_Tot_Q>
0

> <i_epik_Tot_abs_Q>
0

> <r_epik_Metal_State_Penalty>
3.9956

> <b_epik_Metal_Only>
0

> <s_lp_Force_Field>
OPLS_2005

> <r_lp_Energy>
35.1147

> <b_lp_Chiralities_Consistent>
1

> <s_lp_Variant>
AV-unprocessed.smi:2936-2

> <Gold.Version>
5.8.1

> <Gold.Id.Protein>
6NUR|6NUR_protein|mol2

> <Gold.PLP.Fitness>
29.8310

> <Gold.PLP.PLP>
-23.8310

> <Gold.PLP.part.hbond>
-2.0000

> <Gold.PLP.part.metal>
0.0000

> <Gold.PLP.part.buried>
-4.9592

> <Gold.PLP.part.nonpolar>
-16.9993

> <Gold.PLP.part.repulsive>
0.2165

> <Gold.PLP.ligand.clash>
0.0000

> <Gold.PLP.ligand.torsion>
0.7750

> <Gold.PLP.Chemscore.Hbond>
2.0000

> <Gold.PLP.Chemscore.CHOScore>
0.0000

> <Gold.PLP.Chemscore.Metal>
0.0000

> <Gold.Chemscore.Hbonds>
donor molecule, donor type, donor heavy atom, donor atom, acceptor molecule, acceptor atom, score
      P1  H  7989  7998       L1     4  1.00
      P1  H 10752 10765       L1     1  0.84

> <Gold.PLP.Chemscore.Internal.Correction>
1.5501

> <Gold.Rescore>
     Score         DG    S(hbond)    S(metal)    S(lipo)     H(rot)  DE(clash)    DE(int)     intcor
     16.27     -18.11       1.80        0.00      56.59       0.00       0.00       1.84       ----

> <Gold.Chemscore.Fitness>
16.2665

> <Gold.Chemscore.DG>
-18.1127

> <Gold.Chemscore.ZeroCoef>
-5.4800

> <Gold.Chemscore.Hbond>
1.8000

> <Gold.Chemscore.Metal>
0.0000

> <Gold.Chemscore.Lipo>
56.5875

> <Gold.Chemscore.Internal_Hbond>
0.0000

> <Gold.Chemscore.DEClash>
0.0015

> <Gold.Chemscore.DEInternal>
1.8447

> <Gold.Chemscore.Rot>
0.0000

> <Gold.Chemscore.Internal.Correction>
   9.000000E+99

> <Gold.Chemscore.Hbonds>
donor molecule, donor type, donor heavy atom, donor atom, acceptor molecule, acceptor atom, score
      P1  H  7989  7998       L1     4  0.74
      P1  H 10752 10765       L1     1  0.79

> <Gold.Chemscore.Hbond.Weighted>
-6.0119

> <Gold.Chemscore.Metal.Weighted>
-0.0000

> <Gold.Chemscore.Lipo.Weighted>
-6.6207

> <Gold.Chemscore.Internal_Hbond.Weighted>
0.0000

> <Gold.Chemscore.DEClash.Weighted>
0.0015

> <Gold.Chemscore.DEInternal.Weighted>
1.8447

> <Gold.Chemscore.Rot.Weighted>
0.0000

> <Gold.Chemscore.Internal.Correction.Weighted>
   9.000000E+99

> <Gold.Protein.RotatedTorsions>
[ 6907 6896 6895 6894 ] final  -97.70 input  -60.11 | X-H torsion
[ 7974 7965 7964 7962 ] final   79.51 input  175.53 | X-H torsion
[ 8008 7997 7996 7995 ] final  161.42 input   59.86 | X-H torsion
[ 10167 10162 10161 10158 ] final  113.42 input  -65.29 | X-H torsion
[ 10718 10713 10712 10709 ] final -133.93 input   66.30 | X-H torsion
[ 10763 10752 10751 10750 ] final -154.42 input  -60.55 | X-H torsion
[ 11005 11000 10999 10996 ] final  -89.71 input  -57.11 | X-H torsion

> <Gold.Protein.ActiveResidues>
 VAL166  LYS551  ARG553  GLY616  TRP617  ASP618  TYR619  PRO620  LYS621  CYS622 
 ASP623  PHE694  ASN695  SER759  ASP760  ASP761  ALA762  ILE779  LEU786  VAL792 
 PHE793  MET794  SER795  GLU796  ALA797  LYS798  CYS799  TRP800  GLU811  SER814 

> <Gold.Protein.RotatedAtoms>
  150.7024  134.1307  159.4068 H   0  0  0  0  0  0  0  0  0  0  0  0  # atno 6907 bound_to 6896
  151.9293  135.0261  160.0537 H   0  0  0  0  0  0  0  0  0  0  0  0  # atno 6908 bound_to 6896
  152.2189  133.4933  159.5188 H   0  0  0  0  0  0  0  0  0  0  0  0  # atno 6909 bound_to 6896
  145.6633  139.2477  143.1910 H   0  0  0  0  0  0  0  0  0  0  0  0  # atno 7974 bound_to 7965
  156.2104  140.1778  156.7707 H   0  0  0  0  0  0  0  0  0  0  0  0  # atno 8008 bound_to 7997
  154.5715  140.0682  156.9000 H   0  0  0  0  0  0  0  0  0  0  0  0  # atno 8009 bound_to 7997
  155.2665  140.3339  155.4271 H   0  0  0  0  0  0  0  0  0  0  0  0  # atno 8010 bound_to 7997
  139.6463  144.7126  151.2137 H   0  0  0  0  0  0  0  0  0  0  0  0  # atno 10167 bound_to 10162
  156.2501  130.7148  151.1044 H   0  0  0  0  0  0  0  0  0  0  0  0  # atno 10718 bound_to 10713
  154.7860  135.3190  154.7886 H   0  0  0  0  0  0  0  0  0  0  0  0  # atno 10763 bound_to 10752
  153.8586  135.6855  153.4789 H   0  0  0  0  0  0  0  0  0  0  0  0  # atno 10764 bound_to 10752
  153.1511  135.4699  154.9577 H   0  0  0  0  0  0  0  0  0  0  0  0  # atno 10765 bound_to 10752
  141.1580  133.7647  156.9633 H   0  0  0  0  0  0  0  0  0  0  0  0  # atno 11005 bound_to 11000
  146.1107  140.7432  142.9504 LP  0  0  0  0  0  0  0  0  0  0  0  0  # atno 17320 bound_to 7965
  144.7081  140.3934  143.7102 LP  0  0  0  0  0  0  0  0  0  0  0  0  # atno 17321 bound_to 7965
  140.7516  143.6226  150.8499 LP  0  0  0  0  0  0  0  0  0  0  0  0  # atno 17342 bound_to 10162
  139.9869  143.5889  152.2924 LP  0  0  0  0  0  0  0  0  0  0  0  0  # atno 17343 bound_to 10162
  157.7211  131.0681  150.6131 LP  0  0  0  0  0  0  0  0  0  0  0  0  # atno 17370 bound_to 10713
  156.6210  130.4406  149.5822 LP  0  0  0  0  0  0  0  0  0  0  0  0  # atno 17371 bound_to 10713
  140.1178  134.9436  157.2160 LP  0  0  0  0  0  0  0  0  0  0  0  0  # atno 17394 bound_to 11000
  140.3111  134.3023  155.7267 LP  0  0  0  0  0  0  0  0  0  0  0  0  # atno 17395 bound_to 11000

$$$$
