#       Name:                AV-unprocessed.smi:1220
#       Creating user name   scv26
#       Creation time:       Fri Mar 27 04:17:29 2020


#       File generated by GOLD software.
#

@<TRIPOS>MOLECULE
AV-unprocessed.smi:1220
    38    39     1
SMALL
NO_CHARGES


@<TRIPOS>ATOM
      1 ****        -0.3138  -2.7515   2.6093 C.3            1 S1                 0.0000
      2 ****         0.1570  -2.0167   1.3471 C.3            1 S1                 0.0000
      3 ****         1.6981  -1.9445   1.2797 C.3            1 S1                 0.0000
      4 ****         2.1780  -1.3490   0.0441 N.pl3          1 S1                 0.0000
      5 ****         2.2277  -1.9098  -1.2147 C.2            1 S1                 0.0000
      6 ****         2.7259  -0.9622  -2.0623 C.2            1 S1                 0.0000
      7 ****         2.9609   0.1578  -1.2169 C.2            1 S1                 0.0000
      8 ****         2.6367  -0.0781   0.0440 N.2            1 S1                 0.0000
      9 ****        -0.4284  -0.6764   1.3294 N.am           1 S1                 0.0000
     10 ****        -0.9154  -0.0505   0.2456 C.2            1 S1                 0.0000
     11 ****        -0.9753  -0.5756  -0.8668 O.2            1 S1                 0.0000
     12 ****        -1.3893   1.3970   0.4480 C.3            1 S1                 0.0000
     13 ****        -0.3974   2.4031  -0.1805 C.3            1 S1                 0.0000
     14 ****        -0.6943   2.5526  -1.6759 C.3            1 S1                 0.0000
     15 ****        -2.5112   2.3989  -1.8231 S.o2           1 S1                 0.0000
     16 ****        -3.1117   3.7416  -1.8199 O.2            1 S1                 0.0000
     17 ****        -2.8313   1.4304  -2.8825 O.2            1 S1                 0.0000
     18 ****        -2.7812   1.6307  -0.1767 C.3            1 S1                 0.0000
     19 ****         0.0797  -3.7679   2.6404 H              1 S1                 0.0000
     20 ****        -1.4017  -2.8197   2.6417 H              1 S1                 0.0000
     21 ****         0.0153  -2.2397   3.5144 H              1 S1                 0.0000
     22 ****        -0.2022  -2.5891   0.4900 H              1 S1                 0.0000
     23 ****         2.0926  -1.3807   2.1269 H              1 S1                 0.0000
     24 ****         2.1213  -2.9473   1.3509 H              1 S1                 0.0000
     25 ****         1.8983  -2.9213  -1.4012 H              1 S1                 0.0000
     26 ****         2.8942  -1.0540  -3.1250 H              1 S1                 0.0000
     27 ****         3.3543   1.1286  -1.4798 H              1 S1                 0.0000
     28 ****        -0.4204  -0.1683   2.2019 H              1 S1                 0.0000
     29 ****        -1.4497   1.5785   1.5224 H              1 S1                 0.0000
     30 ****        -0.5326   3.3715   0.3028 H              1 S1                 0.0000
     31 ****         0.6425   2.1194  -0.0134 H              1 S1                 0.0000
     32 ****        -0.3588   3.5038  -2.0892 H              1 S1                 0.0000
     33 ****        -0.2368   1.7434  -2.2459 H              1 S1                 0.0000
     34 ****        -3.3695   0.7193  -0.2930 H              1 S1                 0.0000
     35 ****        -3.3624   2.3269   0.4278 H              1 S1                 0.0000
     36 ****         2.7139   0.5447   0.8226 LP             1 S1                 0.0000
     37 ****        -0.6518  -1.5131  -0.9952 LP             1 S1                 0.0000
     38 ****        -1.3474  -0.0645  -1.6416 LP             1 S1                 0.0000
@<TRIPOS>BOND
    1    1    2 1     
    2    1   19 1     
    3    1   20 1     
    4    1   21 1     
    5    2    3 1     
    6    2    9 1     
    7    2   22 1     
    8    3    4 1     
    9    3   23 1     
   10    3   24 1     
   11    4    8 1     
   12    4    5 1     
   13    5    6 2     
   14    5   25 1     
   15    6    7 1     
   16    6   26 1     
   17    7    8 2     
   18    7   27 1     
   19    9   10 am    
   20    9   28 1     
   21   10   11 2     
   22   10   12 1     
   23   12   18 1     
   24   12   13 1     
   25   12   29 1     
   26   13   14 1     
   27   13   30 1     
   28   13   31 1     
   29   14   15 1     
   30   14   32 1     
   31   14   33 1     
   32   15   16 2     
   33   15   17 2     
   34   15   18 1     
   35   18   34 1     
   36   18   35 1     
   37    8   36 1     
   38   11   37 1     
   39   11   38 1     
@<TRIPOS>SUBSTRUCTURE
      1 S1             1
@<TRIPOS>SET
LONE_PAIRS      STATIC     ATOMS    <user>   **** ""
5 36 37 38 16 17
DONOR_HYDROGENS      STATIC     ATOMS    <user>   **** ""
1 28
ATOM$BLUE        STATIC     ATOMS    COLORGROUP SYSTEM
5 36 37 38 16 17
ATOM$RED        STATIC     ATOMS    COLORGROUP SYSTEM
1 28
