AV-unprocessed.smi:2822|AV-procd|sdf|10878|dock10
  -GOLD-   2272015323D 1   1.00000     0.00000
 Structure written by MMmdl.
 40 42  0  0  0  0  0  0  0  0  2 V2000
  150.1085  138.8113  154.0400 Cl  0  0  0  0  0  0  0  0  0  0  0  0
  148.8995  140.0459  153.9760 C   0  0  0  0  0  0  0  0  0  0  0  0
  149.1390  141.2781  154.6186 C   0  0  0  0  0  0  0  0  0  0  0  0
  148.2066  142.2533  154.5794 N   0  3  0  0  0  0  0  0  0  0  0  0
  147.0269  142.1084  153.9400 C   0  0  0  0  0  0  0  0  0  0  0  0
  146.7297  140.8999  153.2783 C   0  0  0  0  0  0  0  0  0  0  0  0
  147.6749  139.8437  153.2927 C   0  0  0  0  0  0  0  0  0  0  0  0
  147.4380  138.6170  152.6544 N   0  0  0  0  0  0  0  0  0  0  0  0
  146.0923  138.2162  152.2732 C   0  0  0  0  0  0  0  0  0  0  0  0
  145.4757  137.2585  153.3098 C   0  0  2  0  0  0  0  0  0  0  0  0
  146.1748  135.8864  153.3464 C   0  0  0  0  0  0  0  0  0  0  0  0
  145.8846  135.0738  152.1711 N   0  0  0  0  0  0  0  0  0  0  0  0
  146.5495  133.7736  152.2557 C   0  0  0  0  0  0  0  0  0  0  0  0
  146.2883  132.8959  151.0218 C   0  0  0  0  0  0  0  0  0  0  0  0
  144.7794  132.7091  150.8114 C   0  0  0  0  0  0  0  0  0  0  0  0
  144.0814  134.0768  150.7704 C   0  0  0  0  0  0  0  0  0  0  0  0
  144.4356  134.9160  152.0159 C   0  0  2  0  0  0  0  0  0  0  0  0
  143.7331  136.2869  151.9583 C   0  0  0  0  0  0  0  0  0  0  0  0
  144.0749  137.0721  153.0980 O   0  0  0  0  0  0  0  0  0  0  0  0
  150.0442  141.5112  155.1601 H   0  0  0  0  0  0  0  0  0  0  0  0
  146.3603  142.9578  153.9754 H   0  0  0  0  0  0  0  0  0  0  0  0
  145.7823  140.8036  152.7692 H   0  0  0  0  0  0  0  0  0  0  0  0
  148.1631  137.9128  152.6551 H   0  0  0  0  0  0  0  0  0  0  0  0
  145.4641  139.0964  152.1362 H   0  0  0  0  0  0  0  0  0  0  0  0
  146.1460  137.7132  151.3070 H   0  0  0  0  0  0  0  0  0  0  0  0
  145.5910  137.7146  154.2939 H   0  0  0  0  0  0  0  0  0  0  0  0
  147.2519  136.0266  153.4447 H   0  0  0  0  0  0  0  0  0  0  0  0
  145.8525  135.3538  154.2426 H   0  0  0  0  0  0  0  0  0  0  0  0
  147.6249  133.9194  152.3655 H   0  0  0  0  0  0  0  0  0  0  0  0
  146.2176  133.2456  153.1511 H   0  0  0  0  0  0  0  0  0  0  0  0
  146.7294  133.3619  150.1398 H   0  0  0  0  0  0  0  0  0  0  0  0
  146.7741  131.9269  151.1397 H   0  0  0  0  0  0  0  0  0  0  0  0
  144.5896  132.1574  149.8904 H   0  0  0  0  0  0  0  0  0  0  0  0
  144.3667  132.1123  151.6256 H   0  0  0  0  0  0  0  0  0  0  0  0
  144.3830  134.6101  149.8677 H   0  0  0  0  0  0  0  0  0  0  0  0
  143.0019  133.9376  150.7025 H   0  0  0  0  0  0  0  0  0  0  0  0
  144.0513  134.3887  152.8910 H   0  0  0  0  0  0  0  0  0  0  0  0
  143.9898  136.8205  151.0429 H   0  0  0  0  0  0  0  0  0  0  0  0
  142.6509  136.1551  151.9456 H   0  0  0  0  0  0  0  0  0  0  0  0
  148.4023  143.1363  155.0522 H   0  0  0  0  0  0  0  0  0  0  0  0
  1  2  1  0  0  0  0
  2  7  1  0  0  0  0
  2  3  2  0  0  0  0
  3  4  1  0  0  0  0
  3 20  1  0  0  0  0
  4  5  2  0  0  0  0
  4 40  1  0  0  0  0
  5  6  1  0  0  0  0
  5 21  1  0  0  0  0
  6  7  2  0  0  0  0
  6 22  1  0  0  0  0
  7  8  1  0  0  0  0
  8  9  1  0  0  0  0
  8 23  1  0  0  0  0
  9 10  1  0  0  0  0
  9 24  1  0  0  0  0
  9 25  1  0  0  0  0
 10 19  1  0  0  0  0
 10 11  1  0  0  0  0
 10 26  1  0  0  0  0
 11 12  1  0  0  0  0
 11 27  1  0  0  0  0
 11 28  1  0  0  0  0
 12 17  1  0  0  0  0
 12 13  1  0  0  0  0
 13 14  1  0  0  0  0
 13 29  1  0  0  0  0
 13 30  1  0  0  0  0
 14 15  1  0  0  0  0
 14 31  1  0  0  0  0
 14 32  1  0  0  0  0
 15 16  1  0  0  0  0
 15 33  1  0  0  0  0
 15 34  1  0  0  0  0
 16 17  1  0  0  0  0
 16 35  1  0  0  0  0
 16 36  1  0  0  0  0
 17 18  1  0  0  0  0
 17 37  1  0  0  0  0
 18 19  1  0  0  0  0
 18 38  1  0  0  0  0
 18 39  1  0  0  0  0
M  CHG  1   4   1
M  END
> <s_m_source_file>
AV-unprocessed.smi

> <i_m_source_file_index>
2822

> <i_lp_mmshare_version>
43012

> <i_f3d_flags>
0

> <s_epik_input>
Q2xjMVtjSF1uW2NIXVtjSF1jMVtOSF1bQ0gyXVtDQEhdKFtDSDJdMilPW0NIMl1bQ0BASF0oTjIzKVtDSDJdW0NIMl1bQ0gyXVtDSDJdMw==

> <s_epik_cmdline>
J2VwaWtfcHl0aG9uJywgJy1waCcsICc3LjAnLCAnLXRuJywgJzgnLCAnLW1hJywgJzIwMCcsICctbWV0YWxfYmluZGluZycsICctaW1hZScsICc8aW5maWxlLm1hZT4nLCAnLW9tYWUnLCAnPG91dGZpbGUubWFlPic=

> <r_epik_Ionization_Penalty>
1.37653

> <r_epik_Ionization_Penalty_Charging>
0.152973

> <r_epik_Ionization_Penalty_Neutral>
1.22356

> <r_epik_State_Penalty>
1.42693

> <r_epik_Charging_Adjusted_Penalty>
1.5799

> <i_epik_Tot_Q>
1

> <i_epik_Tot_abs_Q>
1

> <r_epik_Metal_State_Penalty>
4.59822

> <b_epik_Metal_Only>
0

> <s_lp_Force_Field>
OPLS_2005

> <r_lp_Energy>
45.685

> <b_lp_Chiralities_Consistent>
1

> <s_lp_Variant>
AV-unprocessed.smi:2822-19

> <Gold.Version>
5.8.1

> <Gold.Id.Protein>
6NUR|6NUR_protein|mol2

> <Gold.PLP.Fitness>
42.4701

> <Gold.PLP.PLP>
-34.1770

> <Gold.PLP.part.hbond>
-3.0000

> <Gold.PLP.part.metal>
0.0000

> <Gold.PLP.part.buried>
-1.4601

> <Gold.PLP.part.nonpolar>
-30.9914

> <Gold.PLP.part.repulsive>
0.5237

> <Gold.PLP.ligand.clash>
0.0000

> <Gold.PLP.ligand.torsion>
0.2717

> <Gold.PLP.Chemscore.Hbond>
2.9440

> <Gold.PLP.Chemscore.CHOScore>
0.0000

> <Gold.PLP.Chemscore.Metal>
0.0000

> <Gold.Chemscore.Hbonds>
donor molecule, donor type, donor heavy atom, donor atom, acceptor molecule, acceptor atom, score
      L1  H     4    40       P1  8028  2.00
      L1  H     8    23       P1  7948  0.99

> <Gold.PLP.Chemscore.Internal.Correction>
0.0045

> <Gold.Rescore>
     Score         DG    S(hbond)    S(metal)    S(lipo)     H(rot)  DE(clash)    DE(int)     intcor
     18.57     -19.32       1.89        0.00      90.05       1.18       0.47       0.28       ----

> <Gold.Chemscore.Fitness>
18.5732

> <Gold.Chemscore.DG>
-19.3226

> <Gold.Chemscore.ZeroCoef>
-5.4800

> <Gold.Chemscore.Hbond>
1.8935

> <Gold.Chemscore.Metal>
0.0000

> <Gold.Chemscore.Lipo>
90.0500

> <Gold.Chemscore.Internal_Hbond>
0.0000

> <Gold.Chemscore.DEClash>
0.4712

> <Gold.Chemscore.DEInternal>
0.2783

> <Gold.Chemscore.Rot>
1.1788

> <Gold.Chemscore.Internal.Correction>
   9.000000E+99

> <Gold.Chemscore.Hbonds>
donor molecule, donor type, donor heavy atom, donor atom, acceptor molecule, acceptor atom, score
      L1  H     4    40       P1  8028  1.00
      L1  H     8    23       P1  7948  0.90

> <Gold.Chemscore.Hbond.Weighted>
-6.3245

> <Gold.Chemscore.Metal.Weighted>
-0.0000

> <Gold.Chemscore.Lipo.Weighted>
-10.5359

> <Gold.Chemscore.Internal_Hbond.Weighted>
0.0000

> <Gold.Chemscore.DEClash.Weighted>
0.4712

> <Gold.Chemscore.DEInternal.Weighted>
0.2783

> <Gold.Chemscore.Rot.Weighted>
3.0177

> <Gold.Chemscore.Internal.Correction.Weighted>
   9.000000E+99

> <Gold.Protein.RotatedTorsions>
[ 6907 6896 6895 6894 ] final -129.46 input  -60.11 | X-H torsion
[ 7974 7965 7964 7962 ] final   58.29 input  175.53 | X-H torsion
[ 8008 7997 7996 7995 ] final -176.10 input   59.86 | X-H torsion
[ 10167 10162 10161 10158 ] final  -32.92 input  -65.29 | X-H torsion
[ 10718 10713 10712 10709 ] final -161.18 input   66.30 | X-H torsion
[ 10763 10752 10751 10750 ] final  -50.81 input  -60.55 | X-H torsion
[ 11005 11000 10999 10996 ] final -155.07 input  -57.11 | X-H torsion

> <Gold.Protein.ActiveResidues>
 VAL166  LYS551  ARG553  GLY616  TRP617  ASP618  TYR619  PRO620  LYS621  CYS622 
 ASP623  PHE694  ASN695  SER759  ASP760  ASP761  ALA762  ILE779  LEU786  VAL792 
 PHE793  MET794  SER795  GLU796  ALA797  LYS798  CYS799  TRP800  GLU811  SER814 

> <Gold.Protein.RotatedAtoms>
  150.9290  133.6790  159.2814 H   0  0  0  0  0  0  0  0  0  0  0  0  # atno 6907 bound_to 6896
  151.4218  135.0997  159.9626 H   0  0  0  0  0  0  0  0  0  0  0  0  # atno 6908 bound_to 6896
  152.5016  133.8739  159.7367 H   0  0  0  0  0  0  0  0  0  0  0  0  # atno 6909 bound_to 6896
  145.9197  139.3720  143.0485 H   0  0  0  0  0  0  0  0  0  0  0  0  # atno 7974 bound_to 7965
  155.9907  140.1200  157.0641 H   0  0  0  0  0  0  0  0  0  0  0  0  # atno 8008 bound_to 7997
  154.4210  140.1126  156.5629 H   0  0  0  0  0  0  0  0  0  0  0  0  # atno 8009 bound_to 7997
  155.6347  140.3473  155.4697 H   0  0  0  0  0  0  0  0  0  0  0  0  # atno 8010 bound_to 7997
  140.7213  143.3658  151.1873 H   0  0  0  0  0  0  0  0  0  0  0  0  # atno 10167 bound_to 10162
  156.5926  130.8776  151.2894 H   0  0  0  0  0  0  0  0  0  0  0  0  # atno 10718 bound_to 10713
  154.1163  135.6541  153.4894 H   0  0  0  0  0  0  0  0  0  0  0  0  # atno 10763 bound_to 10752
  153.0240  135.5259  154.7141 H   0  0  0  0  0  0  0  0  0  0  0  0  # atno 10764 bound_to 10752
  154.6336  135.2979  155.0157 H   0  0  0  0  0  0  0  0  0  0  0  0  # atno 10765 bound_to 10752
  140.6905  134.4046  157.5219 H   0  0  0  0  0  0  0  0  0  0  0  0  # atno 11005 bound_to 11000
  145.8565  140.9499  143.0722 LP  0  0  0  0  0  0  0  0  0  0  0  0  # atno 17320 bound_to 7965
  144.6751  140.0475  143.7479 LP  0  0  0  0  0  0  0  0  0  0  0  0  # atno 17321 bound_to 7965
  139.7220  143.9208  152.2989 LP  0  0  0  0  0  0  0  0  0  0  0  0  # atno 17342 bound_to 10162
  139.8968  144.6934  150.8709 LP  0  0  0  0  0  0  0  0  0  0  0  0  # atno 17343 bound_to 10162
  157.7300  130.9679  150.1812 LP  0  0  0  0  0  0  0  0  0  0  0  0  # atno 17370 bound_to 10713
  156.2537  130.3703  149.8205 LP  0  0  0  0  0  0  0  0  0  0  0  0  # atno 17371 bound_to 10713
  139.8925  134.8754  156.2269 LP  0  0  0  0  0  0  0  0  0  0  0  0  # atno 17394 bound_to 11000
  141.0245  133.7023  156.1324 LP  0  0  0  0  0  0  0  0  0  0  0  0  # atno 17395 bound_to 11000

$$$$
