#       Name:                AV-unprocessed.smi:3148
#       Creating user name   scv26
#       Creation time:       Fri Mar 27 17:39:58 2020


#       File generated by GOLD software.
#

@<TRIPOS>MOLECULE
AV-unprocessed.smi:3148
    40    42     1
SMALL
NO_CHARGES


@<TRIPOS>ATOM
      1 ****        -3.8338  -0.9738  -0.1998 C.3            1 S1                 0.0000
      2 ****        -3.1142  -2.2001  -0.1351 O.3            1 S1                 0.0000
      3 ****        -1.7442  -2.1582  -0.2899 C.ar           1 S1                 0.0000
      4 ****        -1.0014  -3.3545  -0.2244 C.ar           1 S1                 0.0000
      5 ****         0.3945  -3.2363  -0.3893 C.ar           1 S1                 0.0000
      6 ****         1.3035  -4.4454  -0.3324 C.3            1 S1                 0.0000
      7 ****         0.9888  -2.0409  -0.5987 N.ar           1 S1                 0.0000
      8 ****         0.1946  -0.9691  -0.6420 C.ar           1 S1                 0.0000
      9 ****         0.8355   0.2382  -0.8496 N.pl3          1 S1                 0.0000
     10 ****         0.1988   1.5417  -0.6991 C.3            1 S1                 0.0000
     11 ****         1.1076   2.7060  -1.0989 C.3            1 S1                 0.0000
     12 ****         1.0533   3.5914   0.1544 C.3            1 S1                 0.0000
     13 ****         1.8871   2.9998   1.2984 C.3            1 S1                 0.0000
     14 ****         1.0252   1.8149   1.7299 C.3            1 S1                 0.0000
     15 ****        -0.1601   1.9113   0.7540 C.3            1 S1                 0.0000
     16 ****        -0.2572   3.3195   0.6228 O.3            1 S1                 0.0000
     17 ****        -1.1355  -0.9646  -0.5002 N.ar           1 S1                 0.0000
     18 ****        -4.8957  -1.1708  -0.0534 H              1 S1                 0.0000
     19 ****        -3.7174  -0.4932  -1.1722 H              1 S1                 0.0000
     20 ****        -3.5143  -0.2822   0.5812 H              1 S1                 0.0000
     21 ****        -1.4798  -4.3079  -0.0551 H              1 S1                 0.0000
     22 ****         0.7265  -5.3703  -0.3105 H              1 S1                 0.0000
     23 ****         1.9242  -4.4085   0.5631 H              1 S1                 0.0000
     24 ****         1.9580  -4.4732  -1.2041 H              1 S1                 0.0000
     25 ****         1.8414   0.2118  -0.9311 H              1 S1                 0.0000
     26 ****        -0.7015   1.5719  -1.3146 H              1 S1                 0.0000
     27 ****         2.1280   2.4062  -1.3421 H              1 S1                 0.0000
     28 ****         0.6940   3.2273  -1.9627 H              1 S1                 0.0000
     29 ****         1.2533   4.6455  -0.0390 H              1 S1                 0.0000
     30 ****         2.8856   2.7029   0.9754 H              1 S1                 0.0000
     31 ****         1.9903   3.7149   2.1153 H              1 S1                 0.0000
     32 ****         1.5514   0.8617   1.6731 H              1 S1                 0.0000
     33 ****         0.6858   1.9489   2.7573 H              1 S1                 0.0000
     34 ****        -1.0708   1.4362   1.1196 H              1 S1                 0.0000
     35 ****        -3.4761  -2.7950  -0.8528 LP             1 S1                 0.0000
     36 ****        -3.2997  -2.6064   0.7596 LP             1 S1                 0.0000
     37 ****         1.9788  -1.9629  -0.7159 LP             1 S1                 0.0000
     38 ****        -0.9555   3.5866  -0.0414 LP             1 S1                 0.0000
     39 ****        -0.4422   3.7655   1.4985 LP             1 S1                 0.0000
     40 ****        -1.6604  -0.1147  -0.5474 LP             1 S1                 0.0000
@<TRIPOS>BOND
    1    1    2 1     
    2    1   18 1     
    3    1   19 1     
    4    1   20 1     
    5    2    3 1     
    6    3   17 ar    
    7    3    4 ar    
    8    4    5 ar    
    9    4   21 1     
   10    5    6 1     
   11    5    7 ar    
   12    6   22 1     
   13    6   23 1     
   14    6   24 1     
   15    7    8 ar    
   16    8    9 1     
   17    8   17 ar    
   18    9   10 1     
   19    9   25 1     
   20   10   15 1     
   21   10   11 1     
   22   10   26 1     
   23   11   12 1     
   24   11   27 1     
   25   11   28 1     
   26   12   16 1     
   27   12   13 1     
   28   12   29 1     
   29   13   14 1     
   30   13   30 1     
   31   13   31 1     
   32   14   15 1     
   33   14   32 1     
   34   14   33 1     
   35   15   16 1     
   36   15   34 1     
   37    2   35 1     
   38    2   36 1     
   39    7   37 1     
   40   16   38 1     
   41   16   39 1     
   42   17   40 1     
@<TRIPOS>SUBSTRUCTURE
      1 S1             1
@<TRIPOS>SET
LONE_PAIRS      STATIC     ATOMS    <user>   **** ""
6 35 36 37 38 39 40
DONOR_HYDROGENS      STATIC     ATOMS    <user>   **** ""
1 25
ATOM$BLUE        STATIC     ATOMS    COLORGROUP SYSTEM
6 35 36 37 38 39 40
ATOM$RED        STATIC     ATOMS    COLORGROUP SYSTEM
1 25
