AV-unprocessed.smi:2672|AV-procd|sdf|10354|dock7
  -GOLD-   2272014383D 1   1.00000     0.00000
 Structure written by MMmdl.
 36 36  0  0  0  0  0  0  0  0  2 V2000
  152.2595  142.3167  159.3204 C   0  0  0  0  0  0  0  0  0  0  0  0
  151.8910  141.5020  158.0896 C   0  0  0  0  0  0  0  0  0  0  0  0
  151.0406  142.0234  157.1846 C   0  0  0  0  0  0  0  0  0  0  0  0
  150.6218  141.3034  155.9880 C   0  0  0  0  0  0  0  0  0  0  0  0
  149.8482  141.8112  155.1740 O   0  0  0  0  0  0  0  0  0  0  0  0
  151.1193  140.0373  155.8431 N   0  0  0  0  0  0  0  0  0  0  0  0
  150.5974  139.2193  154.7207 C   0  0  0  0  0  0  0  0  0  0  0  0
  149.0640  139.1243  154.6730 C   0  0  0  0  0  0  0  0  0  0  0  0
  148.4220  138.6915  155.6309 O   0  0  0  0  0  0  0  0  0  0  0  0
  148.4907  139.5475  153.5361 N   0  0  0  0  0  0  0  0  0  0  0  0
  147.0565  139.5596  153.2633 C   0  0  0  0  0  0  0  0  0  0  0  0
  146.7726  138.7517  151.9901 C   0  0  0  0  0  0  0  0  0  0  0  0
  146.5424  141.0034  153.1437 C   0  0  0  0  0  0  0  0  0  0  0  0
  152.0698  139.4872  156.7561 C   0  0  0  0  0  0  0  0  0  0  0  0
  152.6492  138.1101  156.4054 C   0  0  0  0  0  0  0  0  0  0  0  0
  152.4512  140.1751  157.8634 C   0  0  0  0  0  0  0  0  0  0  0  0
  153.4724  139.5891  158.8918 C   0  0  0  0  0  0  0  0  0  0  0  0
  153.2618  139.8703  160.0917 O   0  0  0  0  0  0  0  0  0  0  0  0
  154.3998  138.9010  158.4122 O   0  5  0  0  0  0  0  0  0  0  0  0
  151.7240  143.2659  159.3541 H   0  0  0  0  0  0  0  0  0  0  0  0
  153.3278  142.5346  159.3255 H   0  0  0  0  0  0  0  0  0  0  0  0
  152.0160  141.7652  160.2292 H   0  0  0  0  0  0  0  0  0  0  0  0
  150.6342  143.0108  157.3480 H   0  0  0  0  0  0  0  0  0  0  0  0
  150.9708  139.5704  153.7593 H   0  0  0  0  0  0  0  0  0  0  0  0
  150.9908  138.2024  154.7720 H   0  0  0  0  0  0  0  0  0  0  0  0
  149.0954  139.8891  152.8033 H   0  0  0  0  0  0  0  0  0  0  0  0
  146.5353  139.0718  154.0890 H   0  0  0  0  0  0  0  0  0  0  0  0
  145.7033  138.7155  151.7795 H   0  0  0  0  0  0  0  0  0  0  0  0
  147.1221  137.7237  152.0909 H   0  0  0  0  0  0  0  0  0  0  0  0
  147.2676  139.1895  151.1226 H   0  0  0  0  0  0  0  0  0  0  0  0
  145.4703  141.0211  152.9461 H   0  0  0  0  0  0  0  0  0  0  0  0
  147.0393  141.5359  152.3321 H   0  0  0  0  0  0  0  0  0  0  0  0
  146.7140  141.5636  154.0635 H   0  0  0  0  0  0  0  0  0  0  0  0
  153.6527  137.9742  156.8060 H   0  0  0  0  0  0  0  0  0  0  0  0
  152.7602  137.9500  155.3348 H   0  0  0  0  0  0  0  0  0  0  0  0
  152.0186  137.3212  156.8157 H   0  0  0  0  0  0  0  0  0  0  0  0
  1  2  1  0  0  0  0
  1 20  1  0  0  0  0
  1 21  1  0  0  0  0
  1 22  1  0  0  0  0
  2 16  1  0  0  0  0
  2  3  2  0  0  0  0
  3  4  1  0  0  0  0
  3 23  1  0  0  0  0
  4  5  2  0  0  0  0
  4  6  1  0  0  0  0
  6  7  1  0  0  0  0
  6 14  1  0  0  0  0
  7  8  1  0  0  0  0
  7 24  1  0  0  0  0
  7 25  1  0  0  0  0
  8  9  2  0  0  0  0
  8 10  1  0  0  0  0
 10 11  1  0  0  0  0
 10 26  1  0  0  0  0
 11 12  1  0  0  0  0
 11 13  1  0  0  0  0
 11 27  1  0  0  0  0
 12 28  1  0  0  0  0
 12 29  1  0  0  0  0
 12 30  1  0  0  0  0
 13 31  1  0  0  0  0
 13 32  1  0  0  0  0
 13 33  1  0  0  0  0
 14 15  1  0  0  0  0
 14 16  2  0  0  0  0
 15 34  1  0  0  0  0
 15 35  1  0  0  0  0
 15 36  1  0  0  0  0
 16 17  1  0  0  0  0
 17 18  2  0  0  0  0
 17 19  1  0  0  0  0
M  CHG  1  19  -1
M  END
> <s_m_source_file>
AV-unprocessed.smi

> <i_m_source_file_index>
2672

> <i_lp_mmshare_version>
43012

> <i_f3d_flags>
0

> <s_epik_input>
W0NIM11jMVtjSF1jKD1PKW4oYyhbQ0gzXSljMUMoPU8pW09IXSlbQ0gyXUMoPU8pW05IXVtDSF0oW0NIM10pW0NIM10=

> <s_epik_cmdline>
J2VwaWtfcHl0aG9uJywgJy1waCcsICc3LjAnLCAnLXRuJywgJzgnLCAnLW1hJywgJzIwMCcsICctbWV0YWxfYmluZGluZycsICctaW1hZScsICc8aW5maWxlLm1hZT4nLCAnLW9tYWUnLCAnPG91dGZpbGUubWFlPic=

> <r_lp_tautomer_probability>
1

> <r_epik_Ionization_Penalty>
0.000277152

> <r_epik_Ionization_Penalty_Charging>
0.000277132

> <r_epik_Ionization_Penalty_Neutral>
2.06705e-08

> <r_epik_State_Penalty>
-0

> <r_epik_Charging_Adjusted_Penalty>
0.000277132

> <i_epik_Tot_Q>
-1

> <i_epik_Tot_abs_Q>
1

> <r_epik_Metal_State_Penalty>
-0

> <b_epik_Metal_Only>
0

> <s_lp_Force_Field>
OPLS_2005

> <r_lp_Energy>
18.8997

> <b_lp_Chiralities_Consistent>
1

> <s_lp_Variant>
AV-unprocessed.smi:2672-1

> <Gold.Version>
5.8.1

> <Gold.Id.Protein>
6NUR|6NUR_protein|mol2

> <Gold.PLP.Fitness>
39.6753

> <Gold.PLP.PLP>
-30.8539

> <Gold.PLP.part.hbond>
-2.5712

> <Gold.PLP.part.metal>
0.0000

> <Gold.PLP.part.buried>
1.5536

> <Gold.PLP.part.nonpolar>
-29.4949

> <Gold.PLP.part.repulsive>
0.7277

> <Gold.PLP.ligand.clash>
0.0000

> <Gold.PLP.ligand.torsion>
0.5965

> <Gold.PLP.Chemscore.Hbond>
3.0000

> <Gold.PLP.Chemscore.CHOScore>
0.0000

> <Gold.PLP.Chemscore.Metal>
0.0000

> <Gold.Chemscore.Hbonds>
donor molecule, donor type, donor heavy atom, donor atom, acceptor molecule, acceptor atom, score
      L1  H    10    26       P1  7957  1.00
      P1  H  7997  8008       L1    19  2.00

> <Gold.PLP.Chemscore.Internal.Correction>
1.0143

> <Gold.Rescore>
     Score         DG    S(hbond)    S(metal)    S(lipo)     H(rot)  DE(clash)    DE(int)     intcor
     10.61     -17.16       1.88        0.00      78.88       1.50       1.72       4.83       ----

> <Gold.Chemscore.Fitness>
10.6121

> <Gold.Chemscore.DG>
-17.1571

> <Gold.Chemscore.ZeroCoef>
-5.4800

> <Gold.Chemscore.Hbond>
1.8811

> <Gold.Chemscore.Metal>
0.0000

> <Gold.Chemscore.Lipo>
78.8815

> <Gold.Chemscore.Internal_Hbond>
0.0000

> <Gold.Chemscore.DEClash>
1.7171

> <Gold.Chemscore.DEInternal>
4.8279

> <Gold.Chemscore.Rot>
1.4980

> <Gold.Chemscore.Internal.Correction>
   9.000000E+99

> <Gold.Chemscore.Hbonds>
donor molecule, donor type, donor heavy atom, donor atom, acceptor molecule, acceptor atom, score
      L1  H    10    26       P1  7957  0.98
      P1  H  7997  8008       L1    19  0.30

> <Gold.Chemscore.Hbond.Weighted>
-6.2830

> <Gold.Chemscore.Metal.Weighted>
-0.0000

> <Gold.Chemscore.Lipo.Weighted>
-9.2291

> <Gold.Chemscore.Internal_Hbond.Weighted>
0.0000

> <Gold.Chemscore.DEClash.Weighted>
1.7171

> <Gold.Chemscore.DEInternal.Weighted>
4.8279

> <Gold.Chemscore.Rot.Weighted>
3.8350

> <Gold.Chemscore.Internal.Correction.Weighted>
   9.000000E+99

> <Gold.Protein.RotatedTorsions>
[ 6907 6896 6895 6894 ] final  160.19 input  -60.11 | X-H torsion
[ 7974 7965 7964 7962 ] final -135.04 input  175.53 | X-H torsion
[ 8008 7997 7996 7995 ] final -120.31 input   59.86 | X-H torsion
[ 10167 10162 10161 10158 ] final  143.02 input  -65.29 | X-H torsion
[ 10718 10713 10712 10709 ] final  -33.93 input   66.30 | X-H torsion
[ 10763 10752 10751 10750 ] final -140.28 input  -60.55 | X-H torsion
[ 11005 11000 10999 10996 ] final  -77.72 input  -57.11 | X-H torsion

> <Gold.Protein.ActiveResidues>
 VAL166  LYS551  ARG553  GLY616  TRP617  ASP618  TYR619  PRO620  LYS621  CYS622 
 ASP623  PHE694  ASN695  SER759  ASP760  ASP761  ALA762  ILE779  LEU786  VAL792 
 PHE793  MET794  SER795  GLU796  ALA797  LYS798  CYS799  TRP800  GLU811  SER814 

> <Gold.Protein.RotatedAtoms>
  151.9743  133.3736  159.4082 H   0  0  0  0  0  0  0  0  0  0  0  0  # atno 6907 bound_to 6896
  150.6944  134.4106  159.5169 H   0  0  0  0  0  0  0  0  0  0  0  0  # atno 6908 bound_to 6896
  152.1815  134.8749  160.0576 H   0  0  0  0  0  0  0  0  0  0  0  0  # atno 6909 bound_to 6896
  144.9049  140.6820  143.5061 H   0  0  0  0  0  0  0  0  0  0  0  0  # atno 7974 bound_to 7965
  155.1297  140.0400  157.2771 H   0  0  0  0  0  0  0  0  0  0  0  0  # atno 8008 bound_to 7997
  154.6552  140.2578  155.7144 H   0  0  0  0  0  0  0  0  0  0  0  0  # atno 8009 bound_to 7997
  156.2595  140.2828  156.1001 H   0  0  0  0  0  0  0  0  0  0  0  0  # atno 8010 bound_to 7997
  139.4980  144.6068  151.6360 H   0  0  0  0  0  0  0  0  0  0  0  0  # atno 10167 bound_to 10162
  156.3567  130.4317  149.7658 H   0  0  0  0  0  0  0  0  0  0  0  0  # atno 10718 bound_to 10713
  154.8583  135.3558  154.5682 H   0  0  0  0  0  0  0  0  0  0  0  0  # atno 10763 bound_to 10752
  153.6295  135.7003  153.5285 H   0  0  0  0  0  0  0  0  0  0  0  0  # atno 10764 bound_to 10752
  153.3061  135.4192  155.1255 H   0  0  0  0  0  0  0  0  0  0  0  0  # atno 10765 bound_to 10752
  141.1662  133.7034  156.7863 H   0  0  0  0  0  0  0  0  0  0  0  0  # atno 11005 bound_to 11000
  145.3553  139.1695  143.4412 LP  0  0  0  0  0  0  0  0  0  0  0  0  # atno 17320 bound_to 7965
  146.3128  140.3609  142.8665 LP  0  0  0  0  0  0  0  0  0  0  0  0  # atno 17321 bound_to 7965
  140.5732  144.0073  150.6228 LP  0  0  0  0  0  0  0  0  0  0  0  0  # atno 17342 bound_to 10162
  140.3197  143.3145  152.0796 LP  0  0  0  0  0  0  0  0  0  0  0  0  # atno 17343 bound_to 10162
  156.4838  130.8053  151.3066 LP  0  0  0  0  0  0  0  0  0  0  0  0  # atno 17370 bound_to 10713
  157.7468  130.9997  150.2899 LP  0  0  0  0  0  0  0  0  0  0  0  0  # atno 17371 bound_to 10713
  140.2358  134.8651  157.3523 LP  0  0  0  0  0  0  0  0  0  0  0  0  # atno 17394 bound_to 11000
  140.1845  134.4448  155.7752 LP  0  0  0  0  0  0  0  0  0  0  0  0  # atno 17395 bound_to 11000

$$$$
