AV-unprocessed.smi:1701|AV-procd|sdf|6841|dock4
  -GOLD-   22720 8 13D 1   1.00000     0.00000
 Structure written by MMmdl.
 54 56  0  0  0  0  0  0  0  0  4 V2000
  152.4314  143.0041  160.5962 C   0  0  0  0  0  0  0  0  0  0  0  0
  152.7361  142.4228  159.2095 C   0  0  0  0  0  0  0  0  0  0  0  0
  151.7287  142.7996  158.2215 N   0  0  0  0  0  0  0  0  0  0  0  0
  151.4861  144.2180  157.9618 C   0  0  0  0  0  0  0  0  0  0  0  0
  152.7863  144.9915  157.7059 C   0  0  0  0  0  0  0  0  0  0  0  0
  151.0301  141.8071  157.4950 C   0  0  0  0  0  0  0  0  0  0  0  0
  151.2129  140.4170  157.7013 C   0  0  0  0  0  0  0  0  0  0  0  0
  150.4793  139.4892  156.9342 C   0  0  0  0  0  0  0  0  0  0  0  0
  149.5744  139.9483  155.9561 C   0  0  0  0  0  0  0  0  0  0  0  0
  148.8414  138.9772  155.2225 N   0  0  0  0  0  0  0  0  0  0  0  0
  148.3719  137.7711  155.6256 C   0  0  0  0  0  0  0  0  0  0  0  0
  148.5132  137.4380  156.8007 O   0  0  0  0  0  0  0  0  0  0  0  0
  147.7273  136.9592  154.7342 N   0  5  0  0  0  0  0  0  0  0  0  0
  146.8774  135.7805  154.9889 C   0  0  2  0  0  0  0  0  0  0  0  0
  147.7715  134.5540  155.2554 C   0  0  0  0  0  0  0  0  0  0  0  0
  147.9969  133.8848  153.8826 C   0  0  0  0  0  0  0  0  0  0  0  0
  147.1939  134.6665  152.9207 N   0  3  1  0  0  0  0  0  0  0  0  0
  146.6597  133.9458  151.7436 C   0  0  0  0  0  0  0  0  0  0  0  0
  145.9114  134.9361  150.8282 C   0  0  0  0  0  0  0  0  0  0  0  0
  144.8293  135.7229  151.5958 C   0  0  0  0  0  0  0  0  0  0  0  0
  145.4206  136.4041  152.8451 C   0  0  0  0  0  0  0  0  0  0  0  0
  146.1505  135.3476  153.7047 C   0  0  2  0  0  0  0  0  0  0  0  0
  149.4125  141.3442  155.7971 C   0  0  0  0  0  0  0  0  0  0  0  0
  150.1343  142.1973  156.5552 N   0  3  0  0  0  0  0  0  0  0  0  0
  153.2038  142.7205  161.3112 H   0  0  0  0  0  0  0  0  0  0  0  0
  151.4769  142.6434  160.9795 H   0  0  0  0  0  0  0  0  0  0  0  0
  152.3907  144.0935  160.5680 H   0  0  0  0  0  0  0  0  0  0  0  0
  153.7050  142.7949  158.8748 H   0  0  0  0  0  0  0  0  0  0  0  0
  152.8453  141.3398  159.2592 H   0  0  0  0  0  0  0  0  0  0  0  0
  150.7952  144.3478  157.1283 H   0  0  0  0  0  0  0  0  0  0  0  0
  150.9816  144.6465  158.8286 H   0  0  0  0  0  0  0  0  0  0  0  0
  152.5786  146.0471  157.5306 H   0  0  0  0  0  0  0  0  0  0  0  0
  153.3113  144.6072  156.8308 H   0  0  0  0  0  0  0  0  0  0  0  0
  153.4624  144.9246  158.5589 H   0  0  0  0  0  0  0  0  0  0  0  0
  151.8983  140.0398  158.4446 H   0  0  0  0  0  0  0  0  0  0  0  0
  150.6166  138.4299  157.0963 H   0  0  0  0  0  0  0  0  0  0  0  0
  148.6002  139.2397  154.2780 H   0  0  0  0  0  0  0  0  0  0  0  0
  146.1653  135.9343  155.8005 H   0  0  0  0  0  0  0  0  0  0  0  0
  148.7098  134.8096  155.7504 H   0  0  0  0  0  0  0  0  0  0  0  0
  147.2475  133.8582  155.9117 H   0  0  0  0  0  0  0  0  0  0  0  0
  149.0465  133.8970  153.5865 H   0  0  0  0  0  0  0  0  0  0  0  0
  147.6669  132.8449  153.9096 H   0  0  0  0  0  0  0  0  0  0  0  0
  147.4805  133.4765  151.2004 H   0  0  0  0  0  0  0  0  0  0  0  0
  145.9900  133.1489  152.0702 H   0  0  0  0  0  0  0  0  0  0  0  0
  146.6265  135.6379  150.3965 H   0  0  0  0  0  0  0  0  0  0  0  0
  145.4607  134.4023  149.9911 H   0  0  0  0  0  0  0  0  0  0  0  0
  144.3735  136.4679  150.9433 H   0  0  0  0  0  0  0  0  0  0  0  0
  144.0304  135.0437  151.8958 H   0  0  0  0  0  0  0  0  0  0  0  0
  146.1028  137.1945  152.5262 H   0  0  0  0  0  0  0  0  0  0  0  0
  144.6251  136.8871  153.4146 H   0  0  0  0  0  0  0  0  0  0  0  0
  145.4142  134.5943  153.9948 H   0  0  0  0  0  0  0  0  0  0  0  0
  148.7290  141.8149  155.1065 H   0  0  0  0  0  0  0  0  0  0  0  0
  147.7982  135.4032  152.5843 H   0  0  0  0  0  0  0  0  0  0  0  0
  149.9950  143.1972  156.4100 H   0  0  0  0  0  0  0  0  0  0  0  0
  1  2  1  0  0  0  0
  1 25  1  0  0  0  0
  1 26  1  0  0  0  0
  1 27  1  0  0  0  0
  2  3  1  0  0  0  0
  2 28  1  0  0  0  0
  2 29  1  0  0  0  0
  3  4  1  0  0  0  0
  3  6  1  0  0  0  0
  4  5  1  0  0  0  0
  4 30  1  0  0  0  0
  4 31  1  0  0  0  0
  5 32  1  0  0  0  0
  5 33  1  0  0  0  0
  5 34  1  0  0  0  0
  6 24  1  0  0  0  0
  6  7  2  0  0  0  0
  7  8  1  0  0  0  0
  7 35  1  0  0  0  0
  8  9  2  0  0  0  0
  8 36  1  0  0  0  0
  9 10  1  0  0  0  0
  9 23  1  0  0  0  0
 10 11  1  0  0  0  0
 10 37  1  0  0  0  0
 11 12  2  0  0  0  0
 11 13  1  0  0  0  0
 13 14  1  0  0  0  0
 14 22  1  0  0  0  0
 14 15  1  0  0  0  0
 14 38  1  0  0  0  0
 15 16  1  0  0  0  0
 15 39  1  0  0  0  0
 15 40  1  0  0  0  0
 16 17  1  0  0  0  0
 16 41  1  0  0  0  0
 16 42  1  0  0  0  0
 17 22  1  0  0  0  0
 17 18  1  0  0  0  0
 17 53  1  0  0  0  0
 18 19  1  0  0  0  0
 18 43  1  0  0  0  0
 18 44  1  0  0  0  0
 19 20  1  0  0  0  0
 19 45  1  0  0  0  0
 19 46  1  0  0  0  0
 20 21  1  0  0  0  0
 20 47  1  0  0  0  0
 20 48  1  0  0  0  0
 21 22  1  0  0  0  0
 21 49  1  0  0  0  0
 21 50  1  0  0  0  0
 22 51  1  0  0  0  0
 23 24  2  0  0  0  0
 23 52  1  0  0  0  0
 24 54  1  0  0  0  0
M  CHG  1  13  -1
M  CHG  1  17   1
M  CHG  1  24   1
M  END
> <s_m_source_file>
AV-unprocessed.smi

> <i_m_source_file_index>
1701

> <i_lp_mmshare_version>
43012

> <i_f3d_flags>
0

> <s_epik_input>
W0NIM11bQ0gyXU4oW0NIMl1bQ0gzXSljMVtjSF1bY0hdYyhbY0hdbjEpW05IXUMoPU8pW05IXVtDQEhdKFtDSDJdW0NIMl0yKVtDQEBIXShOMjMpW0NIMl1bQ0gyXVtDSDJdW0NIMl0z

> <s_epik_cmdline>
J2VwaWtfcHl0aG9uJywgJy1waCcsICc3LjAnLCAnLXRuJywgJzgnLCAnLW1hJywgJzIwMCcsICctbWV0YWxfYmluZGluZycsICctaW1hZScsICc8aW5maWxlLm1hZT4nLCAnLW9tYWUnLCAnPG91dGZpbGUubWFlPic=

> <r_lp_tautomer_probability>
0.999994

> <r_epik_Ionization_Penalty>
7.37095

> <r_epik_Ionization_Penalty_Charging>
7.37095

> <r_epik_Ionization_Penalty_Neutral>
3.78969e-06

> <r_epik_State_Penalty>
6.83842

> <r_epik_Charging_Adjusted_Penalty>
14.2094

> <i_epik_Tot_Q>
1

> <i_epik_Tot_abs_Q>
3

> <r_epik_Metal_State_Penalty>
2.78552

> <b_epik_Metal_Only>
1

> <s_lp_Force_Field>
OPLS_2005

> <r_lp_Energy>
49.8096

> <b_lp_Chiralities_Consistent>
1

> <s_lp_Variant>
AV-unprocessed.smi:1701-21

> <Gold.Version>
5.8.1

> <Gold.Id.Protein>
6NUR|6NUR_protein|mol2

> <Gold.PLP.Fitness>
47.0450

> <Gold.PLP.PLP>
-36.1711

> <Gold.PLP.part.hbond>
-2.0000

> <Gold.PLP.part.metal>
0.0000

> <Gold.PLP.part.buried>
-4.2751

> <Gold.PLP.part.nonpolar>
-30.0013

> <Gold.PLP.part.repulsive>
0.1611

> <Gold.PLP.ligand.clash>
0.0000

> <Gold.PLP.ligand.torsion>
0.5878

> <Gold.PLP.Chemscore.Hbond>
3.9840

> <Gold.PLP.Chemscore.CHOScore>
0.0000

> <Gold.PLP.Chemscore.Metal>
0.0000

> <Gold.Chemscore.Hbonds>
donor molecule, donor type, donor heavy atom, donor atom, acceptor molecule, acceptor atom, score
      L1  H    17    53       P1  7948  2.00
      L1  H    24    54       P1  8028  2.00

> <Gold.PLP.Chemscore.Internal.Correction>
0.0974

> <Gold.Rescore>
     Score         DG    S(hbond)    S(metal)    S(lipo)     H(rot)  DE(clash)    DE(int)     intcor
     17.91     -19.76       1.89        0.00      96.28       1.28       0.07       1.79       ----

> <Gold.Chemscore.Fitness>
17.9059

> <Gold.Chemscore.DG>
-19.7633

> <Gold.Chemscore.ZeroCoef>
-5.4800

> <Gold.Chemscore.Hbond>
1.8877

> <Gold.Chemscore.Metal>
0.0000

> <Gold.Chemscore.Lipo>
96.2828

> <Gold.Chemscore.Internal_Hbond>
0.0000

> <Gold.Chemscore.DEClash>
0.0701

> <Gold.Chemscore.DEInternal>
1.7873

> <Gold.Chemscore.Rot>
1.2838

> <Gold.Chemscore.Internal.Correction>
   9.000000E+99

> <Gold.Chemscore.Hbonds>
donor molecule, donor type, donor heavy atom, donor atom, acceptor molecule, acceptor atom, score
      L1  H    17    53       P1  7948  0.97
      L1  H    24    54       P1  8028  0.88

> <Gold.Chemscore.Hbond.Weighted>
-6.3048

> <Gold.Chemscore.Metal.Weighted>
-0.0000

> <Gold.Chemscore.Lipo.Weighted>
-11.2651

> <Gold.Chemscore.Internal_Hbond.Weighted>
0.0000

> <Gold.Chemscore.DEClash.Weighted>
0.0701

> <Gold.Chemscore.DEInternal.Weighted>
1.7873

> <Gold.Chemscore.Rot.Weighted>
3.2865

> <Gold.Chemscore.Internal.Correction.Weighted>
   9.000000E+99

> <Gold.Protein.RotatedTorsions>
[ 6907 6896 6895 6894 ] final  130.65 input  -60.11 | X-H torsion
[ 7974 7965 7964 7962 ] final  -26.43 input  175.53 | X-H torsion
[ 8008 7997 7996 7995 ] final -108.17 input   59.86 | X-H torsion
[ 10167 10162 10161 10158 ] final  151.29 input  -65.29 | X-H torsion
[ 10718 10713 10712 10709 ] final -103.93 input   66.30 | X-H torsion
[ 10763 10752 10751 10750 ] final -129.28 input  -60.55 | X-H torsion
[ 11005 11000 10999 10996 ] final  -10.62 input  -57.11 | X-H torsion

> <Gold.Protein.ActiveResidues>
 VAL166  LYS551  ARG553  GLY616  TRP617  ASP618  TYR619  PRO620  LYS621  CYS622 
 ASP623  PHE694  ASN695  SER759  ASP760  ASP761  ALA762  ILE779  LEU786  VAL792 
 PHE793  MET794  SER795  GLU796  ALA797  LYS798  CYS799  TRP800  GLU811  SER814 

> <Gold.Protein.RotatedAtoms>
  152.3505  133.6174  159.5941 H   0  0  0  0  0  0  0  0  0  0  0  0  # atno 6907 bound_to 6896
  150.7535  133.9581  159.3515 H   0  0  0  0  0  0  0  0  0  0  0  0  # atno 6908 bound_to 6896
  151.7433  135.0850  160.0370 H   0  0  0  0  0  0  0  0  0  0  0  0  # atno 6909 bound_to 6896
  146.1426  140.5018  142.8645 H   0  0  0  0  0  0  0  0  0  0  0  0  # atno 7974 bound_to 7965
  154.9402  140.0403  157.2093 H   0  0  0  0  0  0  0  0  0  0  0  0  # atno 8008 bound_to 7997
  154.8076  140.2862  155.5854 H   0  0  0  0  0  0  0  0  0  0  0  0  # atno 8009 bound_to 7997
  156.2968  140.2543  156.2958 H   0  0  0  0  0  0  0  0  0  0  0  0  # atno 8010 bound_to 7997
  139.4842  144.5453  151.7495 H   0  0  0  0  0  0  0  0  0  0  0  0  # atno 10167 bound_to 10162
  156.0284  130.5491  150.7323 H   0  0  0  0  0  0  0  0  0  0  0  0  # atno 10718 bound_to 10713
  154.8757  135.3900  154.3894 H   0  0  0  0  0  0  0  0  0  0  0  0  # atno 10763 bound_to 10752
  153.4632  135.7029  153.6043 H   0  0  0  0  0  0  0  0  0  0  0  0  # atno 10764 bound_to 10752
  153.4532  135.3829  155.2264 H   0  0  0  0  0  0  0  0  0  0  0  0  # atno 10765 bound_to 10752
  140.7466  133.8626  155.9011 H   0  0  0  0  0  0  0  0  0  0  0  0  # atno 11005 bound_to 11000
  144.7809  140.5839  143.6606 LP  0  0  0  0  0  0  0  0  0  0  0  0  # atno 17320 bound_to 7965
  145.5012  139.1483  143.3656 LP  0  0  0  0  0  0  0  0  0  0  0  0  # atno 17321 bound_to 7965
  140.4999  144.1185  150.5968 LP  0  0  0  0  0  0  0  0  0  0  0  0  # atno 17342 bound_to 10162
  140.4075  143.2673  151.9874 LP  0  0  0  0  0  0  0  0  0  0  0  0  # atno 17343 bound_to 10162
  157.4913  131.0911  151.0424 LP  0  0  0  0  0  0  0  0  0  0  0  0  # atno 17370 bound_to 10713
  157.0830  130.5911  149.5424 LP  0  0  0  0  0  0  0  0  0  0  0  0  # atno 17371 bound_to 10713
  140.9788  134.1433  157.4512 LP  0  0  0  0  0  0  0  0  0  0  0  0  # atno 17394 bound_to 11000
  139.8795  135.0003  156.6006 LP  0  0  0  0  0  0  0  0  0  0  0  0  # atno 17395 bound_to 11000

$$$$
