#       Name:                AV-unprocessed.smi:760
#       Creating user name   scv26
#       Creation time:       Fri Mar 27 01:02:04 2020


#       File generated by GOLD software.
#

@<TRIPOS>MOLECULE
AV-unprocessed.smi:760
    47    48     1
SMALL
NO_CHARGES


@<TRIPOS>ATOM
      1 ****        -4.7018   2.7934  -2.3389 C.2            1 S1                 0.0000
      2 ****        -4.8063   2.0291  -1.2392 C.2            1 S1                 0.0000
      3 ****        -5.3739   2.5687   0.0618 C.3            1 S1                 0.0000
      4 ****        -4.3916   0.5655  -1.2410 C.3            1 S1                 0.0000
      5 ****        -2.9207   0.3783  -1.1320 N.4            1 S1                 1.0000
      6 ****        -2.5283  -1.0233  -1.4326 C.3            1 S1                 0.0000
      7 ****        -1.0001  -1.1863  -1.4665 C.3            1 S1                 0.0000
      8 ****        -0.3676  -0.7332  -0.1425 C.3            1 S1                 0.0000
      9 ****         1.0868  -0.8275  -0.2296 N.am           1 S1                 0.0000
     10 ****         1.9165  -0.9481   0.8168 C.2            1 S1                 0.0000
     11 ****         1.5340  -0.9942   1.9859 O.2            1 S1                 0.0000
     12 ****         3.1977  -1.0045   0.4192 N.am           1 S1                 0.0000
     13 ****         4.3455  -1.1359   1.2401 C.2            1 S1                 0.0000
     14 ****         4.4332  -1.2729   2.6547 C.2            1 S1                 0.0000
     15 ****         5.6952  -1.3727   3.0448 N.2            1 S1                 0.0000
     16 ****         6.4234  -1.3015   1.9043 N.pl3          1 S1                 0.0000
     17 ****         7.8665  -1.3820   1.9782 C.3            1 S1                 0.0000
     18 ****         5.6292  -1.1593   0.7840 C.2            1 S1                 0.0000
     19 ****        -0.8061   0.7098   0.1626 C.3            1 S1                 0.0000
     20 ****        -2.3381   0.8472   0.1543 C.3            1 S1                 0.0000
     21 ****        -5.0090   3.8293  -2.3347 H              1 S1                 0.0000
     22 ****        -4.3073   2.3944  -3.2621 H              1 S1                 0.0000
     23 ****        -6.3049   2.0550   0.3025 H              1 S1                 0.0000
     24 ****        -5.5892   3.6352  -0.0121 H              1 S1                 0.0000
     25 ****        -4.6855   2.4222   0.8927 H              1 S1                 0.0000
     26 ****        -4.9059   0.0248  -0.4448 H              1 S1                 0.0000
     27 ****        -4.7347   0.1298  -2.1808 H              1 S1                 0.0000
     28 ****        -2.9600  -1.6908  -0.6849 H              1 S1                 0.0000
     29 ****        -2.9392  -1.3223  -2.3977 H              1 S1                 0.0000
     30 ****        -0.7459  -2.2283  -1.6655 H              1 S1                 0.0000
     31 ****        -0.5918  -0.6042  -2.2943 H              1 S1                 0.0000
     32 ****        -0.7233  -1.3925   0.6521 H              1 S1                 0.0000
     33 ****         1.4916  -0.7991  -1.1540 H              1 S1                 0.0000
     34 ****         3.3717  -0.9447  -0.5734 H              1 S1                 0.0000
     35 ****         3.6523  -1.3056   3.3996 H              1 S1                 0.0000
     36 ****         8.3050  -1.1287   1.0124 H              1 S1                 0.0000
     37 ****         8.1644  -2.3952   2.2491 H              1 S1                 0.0000
     38 ****         8.2399  -0.6852   2.7295 H              1 S1                 0.0000
     39 ****         6.0374  -1.0888  -0.2136 H              1 S1                 0.0000
     40 ****        -0.4173   1.0259   1.1313 H              1 S1                 0.0000
     41 ****        -0.3795   1.3902  -0.5760 H              1 S1                 0.0000
     42 ****        -2.5799   1.8964   0.3162 H              1 S1                 0.0000
     43 ****        -2.7737   0.2842   0.9813 H              1 S1                 0.0000
     44 ****        -2.5102   0.9489  -1.8574 H              1 S1                 0.0000
     45 ****         0.5576  -0.9410   2.1950 LP             1 S1                 0.0000
     46 ****         2.1997  -1.0849   2.7266 LP             1 S1                 0.0000
     47 ****         6.0366  -1.4779   3.9788 LP             1 S1                 0.0000
@<TRIPOS>BOND
    1    1    2 2     
    2    1   21 1     
    3    1   22 1     
    4    2    3 1     
    5    2    4 1     
    6    3   23 1     
    7    3   24 1     
    8    3   25 1     
    9    4    5 1     
   10    4   26 1     
   11    4   27 1     
   12    5   20 1     
   13    5    6 1     
   14    5   44 1     
   15    6    7 1     
   16    6   28 1     
   17    6   29 1     
   18    7    8 1     
   19    7   30 1     
   20    7   31 1     
   21    8    9 1     
   22    8   19 1     
   23    8   32 1     
   24    9   10 am    
   25    9   33 1     
   26   10   11 2     
   27   10   12 am    
   28   12   13 1     
   29   12   34 1     
   30   13   18 2     
   31   13   14 1     
   32   14   15 2     
   33   14   35 1     
   34   15   16 1     
   35   16   17 1     
   36   16   18 1     
   37   17   36 1     
   38   17   37 1     
   39   17   38 1     
   40   18   39 1     
   41   19   20 1     
   42   19   40 1     
   43   19   41 1     
   44   20   42 1     
   45   20   43 1     
   46   11   45 1     
   47   11   46 1     
   48   15   47 1     
@<TRIPOS>SUBSTRUCTURE
      1 S1             1
@<TRIPOS>SET
LONE_PAIRS      STATIC     ATOMS    <user>   **** ""
3 45 46 47
DONOR_HYDROGENS      STATIC     ATOMS    <user>   **** ""
3 44 33 34
ATOM$BLUE        STATIC     ATOMS    COLORGROUP SYSTEM
3 45 46 47
ATOM$RED        STATIC     ATOMS    COLORGROUP SYSTEM
3 44 33 34
