AV-unprocessed.smi:21|AV-procd|sdf|167|dock10
  -GOLD-   2262015413D 1   1.00000     0.00000
 Structure written by MMmdl.
 61 64  0  0  0  0  0  0  0  0  1 V2000
  152.6136  142.8787  159.7028 C   0  0  0  0  0  0  0  0  0  0  0  0
  151.7201  142.9724  158.6052 O   0  0  0  0  0  0  0  0  0  0  0  0
  150.9066  141.8198  158.4387 C   0  0  1  0  0  0  0  0  0  0  0  0
  149.4799  142.2262  158.0378 C   0  0  0  0  0  0  0  0  0  0  0  0
  149.2746  141.6077  156.6454 C   0  0  2  0  0  0  0  0  0  0  0  0
  147.8003  141.2772  156.3289 C   0  0  0  0  0  0  0  0  0  0  0  0
  147.6347  140.6704  155.0056 N   0  0  0  0  0  0  0  0  0  0  0  0
  147.8533  141.5142  153.8375 C   0  0  0  0  0  0  0  0  0  0  0  0
  147.0050  139.4678  154.8710 C   0  0  0  0  0  0  0  0  0  0  0  0
  146.7033  138.7715  155.9993 N   0  0  0  0  0  0  0  0  0  0  0  0
  146.0858  137.5898  155.9338 C   0  0  0  0  0  0  0  0  0  0  0  0
  145.6850  136.9194  154.8546 N   0  0  0  0  0  0  0  0  0  0  0  0
  145.9832  137.6008  153.7129 C   0  0  0  0  0  0  0  0  0  0  0  0
  146.6311  138.8687  153.6272 C   0  0  0  0  0  0  0  0  0  0  0  0
  146.7344  139.2402  152.2898 N   0  0  0  0  0  0  0  0  0  0  0  0
  146.1898  138.2559  151.6306 C   0  0  0  0  0  0  0  0  0  0  0  0
  145.7330  137.2165  152.4065 N   0  0  0  0  0  0  0  0  0  0  0  0
  145.0793  136.0077  151.9348 C   0  0  0  0  0  0  0  0  0  0  0  0
  145.7024  134.6771  152.4446 C   0  0  1  0  0  0  0  0  0  0  0  0
  145.1414  134.3638  153.8533 C   0  0  0  0  0  0  0  0  0  0  0  0
  143.7355  134.2251  153.8306 O   0  0  0  0  0  0  0  0  0  0  0  0
  145.4869  133.4789  151.4710 C   0  0  1  0  0  0  0  0  0  0  0  0
  144.2598  133.5644  150.5711 C   0  0  0  0  0  0  0  0  0  0  0  0
  144.5938  132.6473  149.3955 C   0  0  0  0  0  0  0  0  0  0  0  0
  146.0043  132.4741  149.4118 O   0  0  0  0  0  0  0  0  0  0  0  0
  146.5714  133.3206  150.3994 C   0  0  0  0  0  0  0  0  0  0  0  0
  150.1718  140.4634  156.6185 N   0  0  0  0  0  0  0  0  0  0  0  0
  150.4360  139.9526  155.2797 C   0  0  0  0  0  0  0  0  0  0  0  0
  151.3750  140.9512  157.2634 C   0  0  0  0  0  0  0  0  0  0  0  0
  150.8651  141.2371  159.3607 H   0  0  0  0  0  0  0  0  0  0  0  0
  149.6309  142.3327  155.9110 H   0  0  0  0  0  0  0  0  0  0  0  0
  153.1928  143.7986  159.7803 H   0  0  0  0  0  0  0  0  0  0  0  0
  153.3146  142.0522  159.5811 H   0  0  0  0  0  0  0  0  0  0  0  0
  152.0729  142.7435  160.6402 H   0  0  0  0  0  0  0  0  0  0  0  0
  148.7724  141.8089  158.7552 H   0  0  0  0  0  0  0  0  0  0  0  0
  149.3355  143.3073  158.0251 H   0  0  0  0  0  0  0  0  0  0  0  0
  147.4222  140.5599  157.0569 H   0  0  0  0  0  0  0  0  0  0  0  0
  147.1793  142.1632  156.4604 H   0  0  0  0  0  0  0  0  0  0  0  0
  148.2979  140.9430  153.0221 H   0  0  0  0  0  0  0  0  0  0  0  0
  148.5332  142.3330  154.0735 H   0  0  0  0  0  0  0  0  0  0  0  0
  146.9142  141.9497  153.4952 H   0  0  0  0  0  0  0  0  0  0  0  0
  145.8867  137.1124  156.8818 H   0  0  0  0  0  0  0  0  0  0  0  0
  146.1174  138.2573  150.5527 H   0  0  0  0  0  0  0  0  0  0  0  0
  144.0351  136.0822  152.2391 H   0  0  0  0  0  0  0  0  0  0  0  0
  145.0772  136.0183  150.8440 H   0  0  0  0  0  0  0  0  0  0  0  0
  146.7777  134.8171  152.5592 H   0  0  0  0  0  0  0  0  0  0  0  0
  145.5882  133.4541  154.2553 H   0  0  0  0  0  0  0  0  0  0  0  0
  145.3572  135.1654  154.5582 H   0  0  0  0  0  0  0  0  0  0  0  0
  143.4797  133.6369  154.5248 H   0  0  0  0  0  0  0  0  0  0  0  0
  145.4374  132.5519  152.0443 H   0  0  0  0  0  0  0  0  0  0  0  0
  143.3397  133.2510  151.0610 H   0  0  0  0  0  0  0  0  0  0  0  0
  144.1225  134.5857  150.2131 H   0  0  0  0  0  0  0  0  0  0  0  0
  144.1206  131.6721  149.5121 H   0  0  0  0  0  0  0  0  0  0  0  0
  144.2634  133.0726  148.4474 H   0  0  0  0  0  0  0  0  0  0  0  0
  146.8120  134.2825  149.9438 H   0  0  0  0  0  0  0  0  0  0  0  0
  147.4925  132.8843  150.7864 H   0  0  0  0  0  0  0  0  0  0  0  0
  151.1588  139.1372  155.3173 H   0  0  0  0  0  0  0  0  0  0  0  0
  150.8378  140.7311  154.6297 H   0  0  0  0  0  0  0  0  0  0  0  0
  149.5270  139.5628  154.8222 H   0  0  0  0  0  0  0  0  0  0  0  0
  151.9440  141.5666  156.5642 H   0  0  0  0  0  0  0  0  0  0  0  0
  152.0202  140.1325  157.5833 H   0  0  0  0  0  0  0  0  0  0  0  0
  1  2  1  0  0  0  0
  1 32  1  0  0  0  0
  1 33  1  0  0  0  0
  1 34  1  0  0  0  0
  2  3  1  0  0  0  0
  3 30  1  0  0  0  0
  3 29  1  0  0  0  0
  3  4  1  0  0  0  0
  4  5  1  0  0  0  0
  4 35  1  0  0  0  0
  4 36  1  0  0  0  0
  5 31  1  0  0  0  0
  5  6  1  0  0  0  0
  5 27  1  0  0  0  0
  6  7  1  0  0  0  0
  6 37  1  0  0  0  0
  6 38  1  0  0  0  0
  7  8  1  0  0  0  0
  7  9  1  0  0  0  0
  8 39  1  0  0  0  0
  8 40  1  0  0  0  0
  8 41  1  0  0  0  0
  9 14  1  0  0  0  0
  9 10  2  0  0  0  0
 10 11  1  0  0  0  0
 11 12  2  0  0  0  0
 11 42  1  0  0  0  0
 12 13  1  0  0  0  0
 13 17  1  0  0  0  0
 13 14  2  0  0  0  0
 14 15  1  0  0  0  0
 15 16  2  0  0  0  0
 16 17  1  0  0  0  0
 16 43  1  0  0  0  0
 17 18  1  0  0  0  0
 18 19  1  0  0  0  0
 18 44  1  0  0  0  0
 18 45  1  0  0  0  0
 19 20  1  0  0  0  0
 19 22  1  0  0  0  0
 19 46  1  0  0  0  0
 20 21  1  0  0  0  0
 20 47  1  0  0  0  0
 20 48  1  0  0  0  0
 21 49  1  0  0  0  0
 22 26  1  0  0  0  0
 22 23  1  0  0  0  0
 22 50  1  0  0  0  0
 23 24  1  0  0  0  0
 23 51  1  0  0  0  0
 23 52  1  0  0  0  0
 24 25  1  0  0  0  0
 24 53  1  0  0  0  0
 24 54  1  0  0  0  0
 25 26  1  0  0  0  0
 26 55  1  0  0  0  0
 26 56  1  0  0  0  0
 27 28  1  0  0  0  0
 27 29  1  0  0  0  0
 28 57  1  0  0  0  0
 28 58  1  0  0  0  0
 28 59  1  0  0  0  0
 29 60  1  0  0  0  0
 29 61  1  0  0  0  0
M  END
> <s_m_source_file>
AV-unprocessed.smi

> <i_m_source_file_index>
21

> <i_lp_mmshare_version>
43012

> <i_f3d_flags>
0

> <s_epik_input>
W0NIM11PW0NASF0xW0NIMl1bQ0BIXShOKFtDSDNdKVtDSDJdMSlbQ0gyXU4oW0NIM10pYyhuW2NIXW4yKWMoYzIzKW5bY0hdbjNbQ0gyXVtDQEhdKFtDSDJdW09IXSlbQ0BASF00W0NIMl1bQ0gyXU9bQ0gyXTQ=

> <s_epik_cmdline>
J2VwaWtfcHl0aG9uJywgJy1waCcsICc3LjAnLCAnLXRuJywgJzgnLCAnLW1hJywgJzIwMCcsICctbWV0YWxfYmluZGluZycsICctaW1hZScsICc8aW5maWxlLm1hZT4nLCAnLW9tYWUnLCAnPG91dGZpbGUubWFlPic=

> <r_lp_tautomer_probability>
1

> <r_epik_Ionization_Penalty>
2.17574

> <r_epik_Ionization_Penalty_Charging>
0

> <r_epik_Ionization_Penalty_Neutral>
2.17574

> <r_epik_State_Penalty>
2.31336

> <r_epik_Charging_Adjusted_Penalty>
2.31336

> <i_epik_Tot_Q>
0

> <i_epik_Tot_abs_Q>
0

> <r_epik_Metal_State_Penalty>
2.31025

> <b_epik_Metal_Only>
0

> <s_lp_Force_Field>
OPLS_2005

> <r_lp_Energy>
70.7714

> <b_lp_Chiralities_Consistent>
1

> <s_lp_Variant>
AV-unprocessed.smi:21-47

> <Gold.Version>
5.8.1

> <Gold.Id.Protein>
6NUR|6NUR_protein|mol2

> <Gold.PLP.Fitness>
41.8784

> <Gold.PLP.PLP>
-41.0591

> <Gold.PLP.part.hbond>
-1.0000

> <Gold.PLP.part.metal>
0.0000

> <Gold.PLP.part.buried>
-6.9729

> <Gold.PLP.part.nonpolar>
-34.6810

> <Gold.PLP.part.repulsive>
0.5862

> <Gold.PLP.ligand.clash>
0.0000

> <Gold.PLP.ligand.torsion>
1.8572

> <Gold.PLP.Chemscore.Hbond>
0.6880

> <Gold.PLP.Chemscore.CHOScore>
0.6827

> <Gold.PLP.Chemscore.Metal>
0.0000

> <Gold.Chemscore.Hbonds>
donor molecule, donor type, donor heavy atom, donor atom, acceptor molecule, acceptor atom, score
      L1  H    21    49       P1 10957  0.74
      L1  C    16    43       P1 10171  0.65

> <Gold.PLP.Chemscore.Internal.Correction>
0.4217

> <Gold.Rescore>
     Score         DG    S(hbond)    S(metal)    S(lipo)     H(rot)  DE(clash)    DE(int)     intcor
      6.48     -12.02       0.85        0.00      97.37       3.00       0.44       5.09       ----

> <Gold.Chemscore.Fitness>
6.4844

> <Gold.Chemscore.DG>
-12.0182

> <Gold.Chemscore.ZeroCoef>
-5.4800

> <Gold.Chemscore.Hbond>
0.8486

> <Gold.Chemscore.Metal>
0.0000

> <Gold.Chemscore.Lipo>
97.3670

> <Gold.Chemscore.Internal_Hbond>
0.0000

> <Gold.Chemscore.DEClash>
0.4423

> <Gold.Chemscore.DEInternal>
5.0916

> <Gold.Chemscore.Rot>
3.0031

> <Gold.Chemscore.Internal.Correction>
   9.000000E+99

> <Gold.Chemscore.Hbonds>
donor molecule, donor type, donor heavy atom, donor atom, acceptor molecule, acceptor atom, score
      L1  H    21    49       P1 10957  0.70

> <Gold.Chemscore.Hbond.Weighted>
-2.8343

> <Gold.Chemscore.Metal.Weighted>
-0.0000

> <Gold.Chemscore.Lipo.Weighted>
-11.3919

> <Gold.Chemscore.Internal_Hbond.Weighted>
0.0000

> <Gold.Chemscore.DEClash.Weighted>
0.4423

> <Gold.Chemscore.DEInternal.Weighted>
5.0916

> <Gold.Chemscore.Rot.Weighted>
7.6880

> <Gold.Chemscore.Internal.Correction.Weighted>
   9.000000E+99

> <Gold.Protein.RotatedTorsions>
[ 6907 6896 6895 6894 ] final  163.05 input  -60.11 | X-H torsion
[ 7974 7965 7964 7962 ] final  -93.07 input  175.53 | X-H torsion
[ 8008 7997 7996 7995 ] final  -51.65 input   59.86 | X-H torsion
[ 10167 10162 10161 10158 ] final  -98.19 input  -65.29 | X-H torsion
[ 10718 10713 10712 10709 ] final  -49.57 input   66.30 | X-H torsion
[ 10763 10752 10751 10750 ] final -163.95 input  -60.55 | X-H torsion
[ 11005 11000 10999 10996 ] final   87.69 input  -57.11 | X-H torsion

> <Gold.Protein.ActiveResidues>
 VAL166  LYS551  ARG553  GLY616  TRP617  ASP618  TYR619  PRO620  LYS621  CYS622 
 ASP623  PHE694  ASN695  SER759  ASP760  ASP761  ALA762  ILE779  LEU786  VAL792 
 PHE793  MET794  SER795  GLU796  ALA797  LYS798  CYS799  TRP800  GLU811  SER814 

> <Gold.Protein.RotatedAtoms>
  151.9312  133.3611  159.3931 H   0  0  0  0  0  0  0  0  0  0  0  0  # atno 6907 bound_to 6896
  150.7017  134.4536  159.5357 H   0  0  0  0  0  0  0  0  0  0  0  0  # atno 6908 bound_to 6896
  152.2176  134.8443  160.0540 H   0  0  0  0  0  0  0  0  0  0  0  0  # atno 6909 bound_to 6896
  145.3914  140.9528  143.2338 H   0  0  0  0  0  0  0  0  0  0  0  0  # atno 7974 bound_to 7965
  154.4088  140.1243  156.4863 H   0  0  0  0  0  0  0  0  0  0  0  0  # atno 8008 bound_to 7997
  155.7035  140.3494  155.4923 H   0  0  0  0  0  0  0  0  0  0  0  0  # atno 8009 bound_to 7997
  155.9364  140.1079  157.1081 H   0  0  0  0  0  0  0  0  0  0  0  0  # atno 8010 bound_to 7997
  140.2755  143.3316  152.0492 H   0  0  0  0  0  0  0  0  0  0  0  0  # atno 10167 bound_to 10162
  156.1880  130.4152  149.9411 H   0  0  0  0  0  0  0  0  0  0  0  0  # atno 10718 bound_to 10713
  154.7075  135.2999  154.9249 H   0  0  0  0  0  0  0  0  0  0  0  0  # atno 10763 bound_to 10752
  154.0161  135.6688  153.4773 H   0  0  0  0  0  0  0  0  0  0  0  0  # atno 10764 bound_to 10752
  153.0728  135.5051  154.8253 H   0  0  0  0  0  0  0  0  0  0  0  0  # atno 10765 bound_to 10752
  139.8913  134.8439  156.2896 H   0  0  0  0  0  0  0  0  0  0  0  0  # atno 11005 bound_to 11000
  144.8438  139.5430  143.6888 LP  0  0  0  0  0  0  0  0  0  0  0  0  # atno 17320 bound_to 7965
  146.2796  139.6842  142.9239 LP  0  0  0  0  0  0  0  0  0  0  0  0  # atno 17321 bound_to 7965
  139.4977  144.6627  151.6427 LP  0  0  0  0  0  0  0  0  0  0  0  0  # atno 17342 bound_to 10162
  140.5854  143.9873  150.6293 LP  0  0  0  0  0  0  0  0  0  0  0  0  # atno 17343 bound_to 10162
  156.7160  130.8988  151.3614 LP  0  0  0  0  0  0  0  0  0  0  0  0  # atno 17370 bound_to 10713
  157.6911  130.9235  150.0517 LP  0  0  0  0  0  0  0  0  0  0  0  0  # atno 17371 bound_to 10713
  140.9985  133.7166  156.0923 LP  0  0  0  0  0  0  0  0  0  0  0  0  # atno 17394 bound_to 11000
  140.7530  134.4024  157.5538 LP  0  0  0  0  0  0  0  0  0  0  0  0  # atno 17395 bound_to 11000

$$$$
