AV-unprocessed.smi:1628|AV-procd|sdf|6520|dock2
  -GOLD-   22720 7193D 1   1.00000     0.00000
 Structure written by MMmdl.
 55 57  0  0  0  0  0  0  0  0  2 V2000
  146.5785  139.5597  153.6162 O   0  0  0  0  0  0  0  0  0  0  0  0
  147.3879  138.7066  153.2532 C   0  0  0  0  0  0  0  0  0  0  0  0
  147.0832  137.7213  152.3979 N   0  0  0  0  0  0  0  0  0  0  0  0
  145.7650  137.5268  151.8090 C   0  0  0  0  0  0  0  0  0  0  0  0
  145.8803  136.8102  150.4492 C   0  0  0  0  0  0  0  0  0  0  0  0
  145.5750  135.3560  150.5087 N   0  3  0  0  0  0  0  0  0  0  0  0
  144.1212  135.0614  150.4031 C   0  0  0  0  0  0  0  0  0  0  0  0
  143.8310  133.6612  149.8403 C   0  0  0  0  0  0  0  0  0  0  0  0
  144.4251  132.4980  150.6534 C   0  0  0  0  0  0  0  0  0  0  0  0
  145.9426  132.3541  150.4534 C   0  0  0  0  0  0  0  0  0  0  0  0
  146.8231  133.3040  151.2875 C   0  0  0  0  0  0  0  0  0  0  0  0
  146.2176  134.6687  151.6595 C   0  0  0  0  0  0  0  0  0  0  0  0
  148.6761  138.6446  153.6318 N   0  0  0  0  0  0  0  0  0  0  0  0
  149.3605  139.4681  154.5665 C   0  0  0  0  0  0  0  0  0  0  0  0
  150.7534  139.3085  154.6982 C   0  0  0  0  0  0  0  0  0  0  0  0
  151.4517  140.0942  155.6344 C   0  0  0  0  0  0  0  0  0  0  0  0
  150.7361  141.0218  156.4276 C   0  0  0  0  0  0  0  0  0  0  0  0
  151.4138  141.8205  157.3745 N   0  0  0  0  0  0  0  0  0  0  0  0
  151.2332  143.2632  157.2335 C   0  0  0  0  0  0  0  0  0  0  0  0
  152.2494  144.0186  158.1074 C   0  0  0  0  0  0  0  0  0  0  0  0
  152.1485  143.5778  159.4573 O   0  0  0  0  0  0  0  0  0  0  0  0
  152.4400  142.1904  159.5839 C   0  0  0  0  0  0  0  0  0  0  0  0
  151.4275  141.3716  158.7658 C   0  0  0  0  0  0  0  0  0  0  0  0
  149.3926  141.1605  156.3140 N   0  0  0  0  0  0  0  0  0  0  0  0
  148.7268  140.4076  155.4133 C   0  0  0  0  0  0  0  0  0  0  0  0
  147.8069  137.0651  152.1432 H   0  0  0  0  0  0  0  0  0  0  0  0
  145.1475  136.9463  152.4963 H   0  0  0  0  0  0  0  0  0  0  0  0
  145.2902  138.5019  151.6954 H   0  0  0  0  0  0  0  0  0  0  0  0
  145.2108  137.2791  149.7266 H   0  0  0  0  0  0  0  0  0  0  0  0
  146.8866  136.9375  150.0472 H   0  0  0  0  0  0  0  0  0  0  0  0
  143.6330  135.1923  151.3699 H   0  0  0  0  0  0  0  0  0  0  0  0
  143.6568  135.7862  149.7329 H   0  0  0  0  0  0  0  0  0  0  0  0
  142.7487  133.5338  149.7987 H   0  0  0  0  0  0  0  0  0  0  0  0
  144.1718  133.6014  148.8058 H   0  0  0  0  0  0  0  0  0  0  0  0
  144.1713  132.5824  151.7108 H   0  0  0  0  0  0  0  0  0  0  0  0
  143.9537  131.5774  150.3075 H   0  0  0  0  0  0  0  0  0  0  0  0
  146.2365  131.3299  150.6859 H   0  0  0  0  0  0  0  0  0  0  0  0
  146.1753  132.4826  149.3956 H   0  0  0  0  0  0  0  0  0  0  0  0
  147.0980  132.8014  152.2153 H   0  0  0  0  0  0  0  0  0  0  0  0
  147.7618  133.4586  150.7542 H   0  0  0  0  0  0  0  0  0  0  0  0
  147.0277  135.2810  152.0587 H   0  0  0  0  0  0  0  0  0  0  0  0
  145.5081  134.5608  152.4812 H   0  0  0  0  0  0  0  0  0  0  0  0
  149.2438  137.9470  153.1737 H   0  0  0  0  0  0  0  0  0  0  0  0
  151.2861  138.5918  154.0901 H   0  0  0  0  0  0  0  0  0  0  0  0
  152.5178  139.9640  155.7440 H   0  0  0  0  0  0  0  0  0  0  0  0
  151.3473  143.5863  156.1998 H   0  0  0  0  0  0  0  0  0  0  0  0
  150.2172  143.5208  157.5357 H   0  0  0  0  0  0  0  0  0  0  0  0
  153.2659  143.8686  157.7393 H   0  0  0  0  0  0  0  0  0  0  0  0
  152.0529  145.0902  158.0695 H   0  0  0  0  0  0  0  0  0  0  0  0
  153.4604  141.9900  159.2533 H   0  0  0  0  0  0  0  0  0  0  0  0
  152.3859  141.9104  160.6360 H   0  0  0  0  0  0  0  0  0  0  0  0
  150.4287  141.4808  159.1909 H   0  0  0  0  0  0  0  0  0  0  0  0
  151.6921  140.3149  158.8193 H   0  0  0  0  0  0  0  0  0  0  0  0
  147.6586  140.5585  155.4024 H   0  0  0  0  0  0  0  0  0  0  0  0
  146.0025  134.9709  149.6784 H   0  0  0  0  0  0  0  0  0  0  0  0
  1  2  2  0  0  0  0
  2  3  1  0  0  0  0
  2 13  1  0  0  0  0
  3  4  1  0  0  0  0
  3 26  1  0  0  0  0
  4  5  1  0  0  0  0
  4 27  1  0  0  0  0
  4 28  1  0  0  0  0
  5  6  1  0  0  0  0
  5 29  1  0  0  0  0
  5 30  1  0  0  0  0
  6 12  1  0  0  0  0
  6  7  1  0  0  0  0
  6 55  1  0  0  0  0
  7  8  1  0  0  0  0
  7 31  1  0  0  0  0
  7 32  1  0  0  0  0
  8  9  1  0  0  0  0
  8 33  1  0  0  0  0
  8 34  1  0  0  0  0
  9 10  1  0  0  0  0
  9 35  1  0  0  0  0
  9 36  1  0  0  0  0
 10 11  1  0  0  0  0
 10 37  1  0  0  0  0
 10 38  1  0  0  0  0
 11 12  1  0  0  0  0
 11 39  1  0  0  0  0
 11 40  1  0  0  0  0
 12 41  1  0  0  0  0
 12 42  1  0  0  0  0
 13 14  1  0  0  0  0
 13 43  1  0  0  0  0
 14 25  1  0  0  0  0
 14 15  2  0  0  0  0
 15 16  1  0  0  0  0
 15 44  1  0  0  0  0
 16 17  2  0  0  0  0
 16 45  1  0  0  0  0
 17 18  1  0  0  0  0
 17 24  1  0  0  0  0
 18 23  1  0  0  0  0
 18 19  1  0  0  0  0
 19 20  1  0  0  0  0
 19 46  1  0  0  0  0
 19 47  1  0  0  0  0
 20 21  1  0  0  0  0
 20 48  1  0  0  0  0
 20 49  1  0  0  0  0
 21 22  1  0  0  0  0
 22 23  1  0  0  0  0
 22 50  1  0  0  0  0
 22 51  1  0  0  0  0
 23 52  1  0  0  0  0
 23 53  1  0  0  0  0
 24 25  2  0  0  0  0
 25 54  1  0  0  0  0
M  CHG  1   6   1
M  END
> <s_m_source_file>
AV-unprocessed.smi

> <i_m_source_file_index>
1628

> <i_lp_mmshare_version>
43012

> <i_f3d_flags>
0

> <s_epik_input>
W0NIMl0xW0NIMl1bQ0gyXVtDSDJdW0NIMl1bQ0gyXU4xW0NIMl1bQ0gyXVtOSF1DKD1PKVtOSF1jMltjSF1bY0hdYyhuW2NIXTIpTjNbQ0gyXVtDSDJdT1tDSDJdW0NIMl0z

> <s_epik_cmdline>
J2VwaWtfcHl0aG9uJywgJy1waCcsICc3LjAnLCAnLXRuJywgJzgnLCAnLW1hJywgJzIwMCcsICctbWV0YWxfYmluZGluZycsICctaW1hZScsICc8aW5maWxlLm1hZT4nLCAnLW9tYWUnLCAnPG91dGZpbGUubWFlPic=

> <r_lp_tautomer_probability>
1

> <r_epik_Ionization_Penalty>
0.00380107

> <r_epik_Ionization_Penalty_Charging>
0.00211816

> <r_epik_Ionization_Penalty_Neutral>
0.00168291

> <r_epik_State_Penalty>
-0

> <r_epik_Charging_Adjusted_Penalty>
0.00211816

> <i_epik_Tot_Q>
1

> <i_epik_Tot_abs_Q>
1

> <r_epik_Metal_State_Penalty>
-0

> <b_epik_Metal_Only>
0

> <s_lp_Force_Field>
OPLS_2005

> <r_lp_Energy>
41.9459

> <b_lp_Chiralities_Consistent>
1

> <s_lp_Variant>
AV-unprocessed.smi:1628-1

> <Gold.Version>
5.8.1

> <Gold.Id.Protein>
6NUR|6NUR_protein|mol2

> <Gold.PLP.Fitness>
50.0736

> <Gold.PLP.PLP>
-44.6817

> <Gold.PLP.part.hbond>
-3.6709

> <Gold.PLP.part.metal>
0.0000

> <Gold.PLP.part.buried>
3.0586

> <Gold.PLP.part.nonpolar>
-45.4834

> <Gold.PLP.part.repulsive>
0.5118

> <Gold.PLP.ligand.clash>
0.0000

> <Gold.PLP.ligand.torsion>
1.0129

> <Gold.PLP.Chemscore.Hbond>
2.3208

> <Gold.PLP.Chemscore.CHOScore>
0.0000

> <Gold.PLP.Chemscore.Metal>
0.0000

> <Gold.Chemscore.Hbonds>
donor molecule, donor type, donor heavy atom, donor atom, acceptor molecule, acceptor atom, score
      L1  H     3    26       P1  7948  0.75
      L1  H     6    55       P1  7921  0.96
      L1  H    13    43       P1  7948  0.55

> <Gold.PLP.Chemscore.Internal.Correction>
0.4553

> <Gold.Rescore>
     Score         DG    S(hbond)    S(metal)    S(lipo)     H(rot)  DE(clash)    DE(int)     intcor
     19.14     -25.93       2.68        0.00     133.35       1.60       4.68       2.11       ----

> <Gold.Chemscore.Fitness>
19.1368

> <Gold.Chemscore.DG>
-25.9334

> <Gold.Chemscore.ZeroCoef>
-5.4800

> <Gold.Chemscore.Hbond>
2.6769

> <Gold.Chemscore.Metal>
0.0000

> <Gold.Chemscore.Lipo>
133.3537

> <Gold.Chemscore.Internal_Hbond>
0.0000

> <Gold.Chemscore.DEClash>
4.6846

> <Gold.Chemscore.DEInternal>
2.1120

> <Gold.Chemscore.Rot>
1.5976

> <Gold.Chemscore.Internal.Correction>
   9.000000E+99

> <Gold.Chemscore.Hbonds>
donor molecule, donor type, donor heavy atom, donor atom, acceptor molecule, acceptor atom, score
      L1  H     3    26       P1  7948  0.75
      L1  H     6    55       P1  7921  0.68
      L1  H    13    43       P1  7948  0.54

> <Gold.Chemscore.Hbond.Weighted>
-8.9409

> <Gold.Chemscore.Metal.Weighted>
-0.0000

> <Gold.Chemscore.Lipo.Weighted>
-15.6024

> <Gold.Chemscore.Internal_Hbond.Weighted>
0.0000

> <Gold.Chemscore.DEClash.Weighted>
4.6846

> <Gold.Chemscore.DEInternal.Weighted>
2.1120

> <Gold.Chemscore.Rot.Weighted>
4.0899

> <Gold.Chemscore.Internal.Correction.Weighted>
   9.000000E+99

> <Gold.Protein.RotatedTorsions>
[ 6907 6896 6895 6894 ] final  -37.66 input  -60.11 | X-H torsion
[ 7974 7965 7964 7962 ] final   42.21 input  175.53 | X-H torsion
[ 8008 7997 7996 7995 ] final  -31.88 input   59.86 | X-H torsion
[ 10167 10162 10161 10158 ] final  127.25 input  -65.29 | X-H torsion
[ 10718 10713 10712 10709 ] final -151.28 input   66.30 | X-H torsion
[ 10763 10752 10751 10750 ] final  157.00 input  -60.55 | X-H torsion
[ 11005 11000 10999 10996 ] final   42.24 input  -57.11 | X-H torsion

> <Gold.Protein.ActiveResidues>
 VAL166  LYS551  ARG553  GLY616  TRP617  ASP618  TYR619  PRO620  LYS621  CYS622 
 ASP623  PHE694  ASN695  SER759  ASP760  ASP761  ALA762  ILE779  LEU786  VAL792 
 PHE793  MET794  SER795  GLU796  ALA797  LYS798  CYS799  TRP800  GLU811  SER814 

> <Gold.Protein.RotatedAtoms>
  151.0120  134.9404  159.8011 H   0  0  0  0  0  0  0  0  0  0  0  0  # atno 6907 bound_to 6896
  152.5305  134.3016  159.9090 H   0  0  0  0  0  0  0  0  0  0  0  0  # atno 6908 bound_to 6896
  151.3022  133.4075  159.2675 H   0  0  0  0  0  0  0  0  0  0  0  0  # atno 6909 bound_to 6896
  146.0759  139.5327  142.9568 H   0  0  0  0  0  0  0  0  0  0  0  0  # atno 7974 bound_to 7965
  154.4199  140.1752  156.1637 H   0  0  0  0  0  0  0  0  0  0  0  0  # atno 8008 bound_to 7997
  155.9817  140.3377  155.6645 H   0  0  0  0  0  0  0  0  0  0  0  0  # atno 8009 bound_to 7997
  155.6491  140.0688  157.2583 H   0  0  0  0  0  0  0  0  0  0  0  0  # atno 8010 bound_to 7997
  139.5588  144.6867  151.4104 H   0  0  0  0  0  0  0  0  0  0  0  0  # atno 10167 bound_to 10162
  156.4572  130.8196  151.2427 H   0  0  0  0  0  0  0  0  0  0  0  0  # atno 10718 bound_to 10713
  154.1932  135.2794  155.3015 H   0  0  0  0  0  0  0  0  0  0  0  0  # atno 10763 bound_to 10752
  154.5912  135.5559  153.7284 H   0  0  0  0  0  0  0  0  0  0  0  0  # atno 10764 bound_to 10752
  153.0107  135.6369  154.2071 H   0  0  0  0  0  0  0  0  0  0  0  0  # atno 10765 bound_to 10752
  140.1758  134.4165  155.8229 H   0  0  0  0  0  0  0  0  0  0  0  0  # atno 11005 bound_to 11000
  145.6306  141.0305  143.1865 LP  0  0  0  0  0  0  0  0  0  0  0  0  # atno 17320 bound_to 7965
  144.7261  139.7870  143.7364 LP  0  0  0  0  0  0  0  0  0  0  0  0  # atno 17321 bound_to 7965
  140.6865  143.7962  150.7193 LP  0  0  0  0  0  0  0  0  0  0  0  0  # atno 17342 bound_to 10162
  140.1431  143.4423  152.2180 LP  0  0  0  0  0  0  0  0  0  0  0  0  # atno 17343 bound_to 10162
  157.7500  131.0119  150.3363 LP  0  0  0  0  0  0  0  0  0  0  0  0  # atno 17370 bound_to 10713
  156.3755  130.3871  149.7142 LP  0  0  0  0  0  0  0  0  0  0  0  0  # atno 17371 bound_to 10713
  141.2220  133.6977  156.7844 LP  0  0  0  0  0  0  0  0  0  0  0  0  # atno 17394 bound_to 11000
  140.2324  134.8675  157.3490 LP  0  0  0  0  0  0  0  0  0  0  0  0  # atno 17395 bound_to 11000

$$$$
