AV-unprocessed.smi:3254|AV-procd|sdf|12455|dock4
  -GOLD-   2272018353D 1   1.00000     0.00000
 Structure written by MMmdl.
 36 37  0  0  0  0  0  0  0  0  1 V2000
  145.0690  143.7930  154.3059 C   0  0  0  0  0  0  0  0  0  0  0  0
  145.6440  143.0027  155.4889 C   0  0  0  0  0  0  0  0  0  0  0  0
  146.5145  141.9229  155.0341 N   0  0  0  0  0  0  0  0  0  0  0  0
  147.6377  142.1968  154.1538 C   0  0  0  0  0  0  0  0  0  0  0  0
  148.4448  140.8826  154.0935 C   0  0  1  0  0  0  0  0  0  0  0  0
  149.7667  140.9742  154.8726 C   0  0  0  0  0  0  0  0  0  0  0  0
  150.6457  140.1286  154.7014 O   0  0  0  0  0  0  0  0  0  0  0  0
  149.8869  142.0038  155.7236 N   0  0  0  0  0  0  0  0  0  0  0  0
  151.0535  142.2936  156.5522 C   0  0  0  0  0  0  0  0  0  0  0  0
  150.6791  142.3247  158.0428 C   0  0  0  0  0  0  0  0  0  0  0  0
  151.2613  143.4605  158.7323 N   0  0  0  0  0  0  0  0  0  0  0  0
  151.9310  143.4479  159.9486 C   0  0  0  0  0  0  0  0  0  0  0  0
  152.3001  144.7486  160.2072 C   0  0  0  0  0  0  0  0  0  0  0  0
  151.8716  145.5729  159.1692 N   0  0  0  0  0  0  0  0  0  0  0  0
  151.2682  144.7394  158.3317 C   0  0  0  0  0  0  0  0  0  0  0  0
  147.5088  139.8138  154.6929 C   0  0  0  0  0  0  0  0  0  0  0  0
  146.3837  140.6223  155.3179 C   0  0  0  0  0  0  0  0  0  0  0  0
  145.4963  140.1134  156.0009 O   0  0  0  0  0  0  0  0  0  0  0  0
  144.4029  144.5823  154.6544 H   0  0  0  0  0  0  0  0  0  0  0  0
  144.4974  143.1441  153.6415 H   0  0  0  0  0  0  0  0  0  0  0  0
  145.8589  144.2618  153.7182 H   0  0  0  0  0  0  0  0  0  0  0  0
  146.2001  143.6695  156.1496 H   0  0  0  0  0  0  0  0  0  0  0  0
  144.8304  142.5872  156.0848 H   0  0  0  0  0  0  0  0  0  0  0  0
  147.2632  142.4664  153.1654 H   0  0  0  0  0  0  0  0  0  0  0  0
  148.2213  143.0409  154.5262 H   0  0  0  0  0  0  0  0  0  0  0  0
  148.6627  140.6377  153.0523 H   0  0  0  0  0  0  0  0  0  0  0  0
  149.1086  142.6427  155.8010 H   0  0  0  0  0  0  0  0  0  0  0  0
  151.8133  141.5337  156.3667 H   0  0  0  0  0  0  0  0  0  0  0  0
  151.5013  143.2510  156.2812 H   0  0  0  0  0  0  0  0  0  0  0  0
  149.5956  142.3813  158.1529 H   0  0  0  0  0  0  0  0  0  0  0  0
  150.9972  141.4058  158.5377 H   0  0  0  0  0  0  0  0  0  0  0  0
  152.0832  142.5405  160.5146 H   0  0  0  0  0  0  0  0  0  0  0  0
  152.8369  145.1512  161.0536 H   0  0  0  0  0  0  0  0  0  0  0  0
  150.8163  145.0679  157.4070 H   0  0  0  0  0  0  0  0  0  0  0  0
  147.1013  139.1678  153.9149 H   0  0  0  0  0  0  0  0  0  0  0  0
  147.9876  139.1797  155.4410 H   0  0  0  0  0  0  0  0  0  0  0  0
  1  2  1  0  0  0  0
  1 19  1  0  0  0  0
  1 20  1  0  0  0  0
  1 21  1  0  0  0  0
  2  3  1  0  0  0  0
  2 22  1  0  0  0  0
  2 23  1  0  0  0  0
  3 17  1  0  0  0  0
  3  4  1  0  0  0  0
  4  5  1  0  0  0  0
  4 24  1  0  0  0  0
  4 25  1  0  0  0  0
  5  6  1  0  0  0  0
  5 16  1  0  0  0  0
  5 26  1  0  0  0  0
  6  7  2  0  0  0  0
  6  8  1  0  0  0  0
  8  9  1  0  0  0  0
  8 27  1  0  0  0  0
  9 10  1  0  0  0  0
  9 28  1  0  0  0  0
  9 29  1  0  0  0  0
 10 11  1  0  0  0  0
 10 30  1  0  0  0  0
 10 31  1  0  0  0  0
 11 15  1  0  0  0  0
 11 12  1  0  0  0  0
 12 13  2  0  0  0  0
 12 32  1  0  0  0  0
 13 14  1  0  0  0  0
 13 33  1  0  0  0  0
 14 15  2  0  0  0  0
 15 34  1  0  0  0  0
 16 17  1  0  0  0  0
 16 35  1  0  0  0  0
 16 36  1  0  0  0  0
 17 18  2  0  0  0  0
M  END
> <s_m_source_file>
AV-unprocessed.smi

> <i_m_source_file_index>
3254

> <i_lp_mmshare_version>
43012

> <i_f3d_flags>
0

> <s_epik_input>
W0NIM11bQ0gyXU4xW0NIMl1bQ0BIXShbQ0gyXUMxPU8pQyg9TylbTkhdW0NIMl1bQ0gyXW4yW2NIXVtjSF1uW2NIXTI=

> <s_epik_cmdline>
J2VwaWtfcHl0aG9uJywgJy1waCcsICc3LjAnLCAnLXRuJywgJzgnLCAnLW1hJywgJzIwMCcsICctbWV0YWxfYmluZGluZycsICctaW1hZScsICc8aW5maWxlLm1hZT4nLCAnLW9tYWUnLCAnPG91dGZpbGUubWFlPic=

> <r_lp_tautomer_probability>
1

> <r_epik_Ionization_Penalty>
0.587394

> <r_epik_Ionization_Penalty_Charging>
0.587394

> <r_epik_Ionization_Penalty_Neutral>
3.11583e-08

> <r_epik_State_Penalty>
0.600671

> <r_epik_Charging_Adjusted_Penalty>
1.18807

> <i_epik_Tot_Q>
0

> <i_epik_Tot_abs_Q>
0

> <r_epik_Metal_State_Penalty>
0.297665

> <b_epik_Metal_Only>
0

> <s_lp_Force_Field>
OPLS_2005

> <r_lp_Energy>
14.5413

> <b_lp_Chiralities_Consistent>
1

> <s_lp_Variant>
AV-unprocessed.smi:3254-3

> <Gold.Version>
5.8.1

> <Gold.Id.Protein>
6NUR|6NUR_protein|mol2

> <Gold.PLP.Fitness>
44.8538

> <Gold.PLP.PLP>
-38.5255

> <Gold.PLP.part.hbond>
-3.0000

> <Gold.PLP.part.metal>
0.0000

> <Gold.PLP.part.buried>
-5.3084

> <Gold.PLP.part.nonpolar>
-30.2404

> <Gold.PLP.part.repulsive>
0.3940

> <Gold.PLP.ligand.clash>
0.0150

> <Gold.PLP.ligand.torsion>
0.9209

> <Gold.PLP.Chemscore.Hbond>
1.7020

> <Gold.PLP.Chemscore.CHOScore>
0.9993

> <Gold.PLP.Chemscore.Metal>
0.0000

> <Gold.Chemscore.Hbonds>
donor molecule, donor type, donor heavy atom, donor atom, acceptor molecule, acceptor atom, score
      L1  H     8    27       P1  8028  0.59
      P1  H  7989  7998       L1     7  1.00
      L1  C    15    34       P1  8028  0.88

> <Gold.PLP.Chemscore.Internal.Correction>
0.0811

> <Gold.Rescore>
     Score         DG    S(hbond)    S(metal)    S(lipo)     H(rot)  DE(clash)    DE(int)     intcor
     11.65     -12.28       1.40        0.00      66.14       2.20       0.09       0.55       ----

> <Gold.Chemscore.Fitness>
11.6488

> <Gold.Chemscore.DG>
-12.2804

> <Gold.Chemscore.ZeroCoef>
-5.4800

> <Gold.Chemscore.Hbond>
1.4017

> <Gold.Chemscore.Metal>
0.0000

> <Gold.Chemscore.Lipo>
66.1409

> <Gold.Chemscore.Internal_Hbond>
0.0000

> <Gold.Chemscore.DEClash>
0.0866

> <Gold.Chemscore.DEInternal>
0.5450

> <Gold.Chemscore.Rot>
2.1952

> <Gold.Chemscore.Internal.Correction>
   9.000000E+99

> <Gold.Chemscore.Hbonds>
donor molecule, donor type, donor heavy atom, donor atom, acceptor molecule, acceptor atom, score
      L1  H     8    27       P1  8028  0.58
      P1  H  7989  7998       L1     7  0.35

> <Gold.Chemscore.Hbond.Weighted>
-4.6816

> <Gold.Chemscore.Metal.Weighted>
-0.0000

> <Gold.Chemscore.Lipo.Weighted>
-7.7385

> <Gold.Chemscore.Internal_Hbond.Weighted>
0.0000

> <Gold.Chemscore.DEClash.Weighted>
0.0866

> <Gold.Chemscore.DEInternal.Weighted>
0.5450

> <Gold.Chemscore.Rot.Weighted>
5.6197

> <Gold.Chemscore.Internal.Correction.Weighted>
   9.000000E+99

> <Gold.Protein.RotatedTorsions>
[ 6907 6896 6895 6894 ] final   83.88 input  -60.11 | X-H torsion
[ 7974 7965 7964 7962 ] final -163.10 input  175.53 | X-H torsion
[ 8008 7997 7996 7995 ] final   -1.99 input   59.86 | X-H torsion
[ 10167 10162 10161 10158 ] final   93.25 input  -65.29 | X-H torsion
[ 10718 10713 10712 10709 ] final   86.16 input   66.30 | X-H torsion
[ 10763 10752 10751 10750 ] final   45.86 input  -60.55 | X-H torsion
[ 11005 11000 10999 10996 ] final  -50.49 input  -57.11 | X-H torsion

> <Gold.Protein.ActiveResidues>
 VAL166  LYS551  ARG553  GLY616  TRP617  ASP618  TYR619  PRO620  LYS621  CYS622 
 ASP623  PHE694  ASN695  SER759  ASP760  ASP761  ALA762  ILE779  LEU786  VAL792 
 PHE793  MET794  SER795  GLU796  ALA797  LYS798  CYS799  TRP800  GLU811  SER814 

> <Gold.Protein.RotatedAtoms>
  152.5338  134.2827  159.9013 H   0  0  0  0  0  0  0  0  0  0  0  0  # atno 6907 bound_to 6896
  151.2781  133.4216  159.2633 H   0  0  0  0  0  0  0  0  0  0  0  0  # atno 6908 bound_to 6896
  151.0308  134.9553  159.8166 H   0  0  0  0  0  0  0  0  0  0  0  0  # atno 6909 bound_to 6896
  144.7336  140.3156  143.6180 H   0  0  0  0  0  0  0  0  0  0  0  0  # atno 7974 bound_to 7965
  154.6407  140.2546  155.7325 H   0  0  0  0  0  0  0  0  0  0  0  0  # atno 8008 bound_to 7997
  156.2527  140.2888  156.0720 H   0  0  0  0  0  0  0  0  0  0  0  0  # atno 8009 bound_to 7997
  155.1601  140.0384  157.2831 H   0  0  0  0  0  0  0  0  0  0  0  0  # atno 8010 bound_to 7997
  139.8198  144.6736  150.9534 H   0  0  0  0  0  0  0  0  0  0  0  0  # atno 10167 bound_to 10162
  157.6925  131.0204  150.2931 H   0  0  0  0  0  0  0  0  0  0  0  0  # atno 10718 bound_to 10713
  152.9818  135.6026  154.3505 H   0  0  0  0  0  0  0  0  0  0  0  0  # atno 10763 bound_to 10752
  154.3195  135.2770  155.2528 H   0  0  0  0  0  0  0  0  0  0  0  0  # atno 10764 bound_to 10752
  154.4701  135.5944  153.6371 H   0  0  0  0  0  0  0  0  0  0  0  0  # atno 10765 bound_to 10752
  141.0819  133.6651  156.3738 H   0  0  0  0  0  0  0  0  0  0  0  0  # atno 11005 bound_to 11000
  145.7620  139.1828  143.2261 LP  0  0  0  0  0  0  0  0  0  0  0  0  # atno 17320 bound_to 7965
  146.0978  140.7579  142.9564 LP  0  0  0  0  0  0  0  0  0  0  0  0  # atno 17321 bound_to 7965
  140.7814  143.4103  151.1003 LP  0  0  0  0  0  0  0  0  0  0  0  0  # atno 17342 bound_to 10162
  139.7764  143.8418  152.3130 LP  0  0  0  0  0  0  0  0  0  0  0  0  # atno 17343 bound_to 10162
  156.3459  130.3823  149.7369 LP  0  0  0  0  0  0  0  0  0  0  0  0  # atno 17370 bound_to 10713
  156.4863  130.8064  151.3076 LP  0  0  0  0  0  0  0  0  0  0  0  0  # atno 17371 bound_to 10713
  140.5450  134.6083  157.5391 LP  0  0  0  0  0  0  0  0  0  0  0  0  # atno 17394 bound_to 11000
  139.9633  134.7415  156.0191 LP  0  0  0  0  0  0  0  0  0  0  0  0  # atno 17395 bound_to 11000

$$$$
