#       Name:                AV-unprocessed.smi:1022
#       Creating user name   scv26
#       Creation time:       Fri Mar 27 02:43:13 2020


#       File generated by GOLD software.
#

@<TRIPOS>MOLECULE
AV-unprocessed.smi:1022
    39    40     1
SMALL
NO_CHARGES


@<TRIPOS>ATOM
      1 ****        -4.6422  -1.7494  -2.2174 C.3            1 S1                 0.0000
      2 ****        -3.2323  -1.6186  -2.1793 O.3            1 S1                 0.0000
      3 ****        -2.5796  -2.8378  -1.8624 C.3            1 S1                 0.0000
      4 ****        -1.0605  -2.6094  -1.8408 C.3            1 S1                 0.0000
      5 ****        -0.2918  -3.9288  -1.6673 C.3            1 S1                 0.0000
      6 ****        -0.7206  -1.6883  -0.7592 N.am           1 S1                 0.0000
      7 ****         0.3162  -0.8381  -0.7611 C.2            1 S1                 0.0000
      8 ****         1.1169  -0.7447  -1.6920 O.2            1 S1                 0.0000
      9 ****         0.3586  -0.1225   0.3763 N.am           1 S1                 0.0000
     10 ****         1.2946   0.8765   0.7531 C.2            1 S1                 0.0000
     11 ****         2.2922   1.2986  -0.0358 N.2            1 S1                 0.0000
     12 ****         3.0564   2.2819   0.5767 N.2            1 S1                 0.0000
     13 ****         2.6165   2.5753   1.8062 C.2            1 S1                 0.0000
     14 ****         3.2776   3.6029   2.6634 C.3            1 S1                 0.0000
     15 ****         2.4875   4.4679   3.6211 C.3            1 S1                 0.0000
     16 ****         3.0939   5.0764   2.3824 C.3            1 S1                 0.0000
     17 ****         1.2059   1.6564   2.3229 S.3            1 S1                 0.0000
     18 ****        -5.0922  -0.7884  -2.4672 H              1 S1                 0.0000
     19 ****        -5.0350  -2.0636  -1.2496 H              1 S1                 0.0000
     20 ****        -4.9517  -2.4725  -2.9731 H              1 S1                 0.0000
     21 ****        -2.9234  -3.2145  -0.8973 H              1 S1                 0.0000
     22 ****        -2.8311  -3.5880  -2.6139 H              1 S1                 0.0000
     23 ****        -0.7751  -2.1696  -2.7981 H              1 S1                 0.0000
     24 ****        -0.5263  -4.6273  -2.4707 H              1 S1                 0.0000
     25 ****        -0.5412  -4.4125  -0.7223 H              1 S1                 0.0000
     26 ****         0.7860  -3.7632  -1.6827 H              1 S1                 0.0000
     27 ****        -1.3290  -1.6941   0.0464 H              1 S1                 0.0000
     28 ****        -0.3621  -0.3183   1.0551 H              1 S1                 0.0000
     29 ****         4.2623   3.2636   2.9792 H              1 S1                 0.0000
     30 ****         1.4049   4.3597   3.6421 H              1 S1                 0.0000
     31 ****         2.9495   4.7085   4.5764 H              1 S1                 0.0000
     32 ****         3.9593   5.7234   2.5106 H              1 S1                 0.0000
     33 ****         2.4163   5.3570   1.5783 H              1 S1                 0.0000
     34 ****        -2.9924  -0.9376  -1.4874 LP             1 S1                 0.0000
     35 ****        -2.9150  -1.3090  -3.0757 LP             1 S1                 0.0000
     36 ****         1.0117  -1.3218  -2.5018 LP             1 S1                 0.0000
     37 ****         1.8723  -0.0917  -1.6381 LP             1 S1                 0.0000
     38 ****         2.4653   0.9471  -0.9558 LP             1 S1                 0.0000
     39 ****         3.8459   2.7213   0.1481 LP             1 S1                 0.0000
@<TRIPOS>BOND
    1    1    2 1     
    2    1   18 1     
    3    1   19 1     
    4    1   20 1     
    5    2    3 1     
    6    3    4 1     
    7    3   21 1     
    8    3   22 1     
    9    4    5 1     
   10    4    6 1     
   11    4   23 1     
   12    5   24 1     
   13    5   25 1     
   14    5   26 1     
   15    6    7 am    
   16    6   27 1     
   17    7    8 2     
   18    7    9 am    
   19    9   10 1     
   20    9   28 1     
   21   10   17 1     
   22   10   11 2     
   23   11   12 1     
   24   12   13 2     
   25   13   14 1     
   26   13   17 1     
   27   14   16 1     
   28   14   15 1     
   29   14   29 1     
   30   15   16 1     
   31   15   30 1     
   32   15   31 1     
   33   16   32 1     
   34   16   33 1     
   35    2   34 1     
   36    2   35 1     
   37    8   36 1     
   38    8   37 1     
   39   11   38 1     
   40   12   39 1     
@<TRIPOS>SUBSTRUCTURE
      1 S1             1
@<TRIPOS>SET
LONE_PAIRS      STATIC     ATOMS    <user>   **** ""
6 34 35 36 37 38 39
DONOR_HYDROGENS      STATIC     ATOMS    <user>   **** ""
2 27 28
ATOM$BLUE        STATIC     ATOMS    COLORGROUP SYSTEM
6 34 35 36 37 38 39
ATOM$RED        STATIC     ATOMS    COLORGROUP SYSTEM
2 27 28
