AV-unprocessed.smi:3027|AV-procd|sdf|11516|dock5
  -GOLD-   2272016453D 1   1.00000     0.00000
 Structure written by MMmdl.
 37 38  0  0  0  0  0  0  0  0  2 V2000
  147.8553  137.1705  155.1306 C   0  0  0  0  0  0  0  0  0  0  0  0
  148.7640  138.3533  154.9582 C   0  0  0  0  0  0  0  0  0  0  0  0
  149.9030  138.4659  154.1110 C   0  0  0  0  0  0  0  0  0  0  0  0
  150.4869  139.6506  154.1900 N   0  0  0  0  0  0  0  0  0  0  0  0
  149.7459  140.3321  155.0893 N   0  0  0  0  0  0  0  0  0  0  0  0
  150.0936  141.7013  155.4213 C   0  0  0  0  0  0  0  0  0  0  0  0
  150.4482  141.8826  156.9119 C   0  0  1  0  0  0  0  0  0  0  0  0
  151.4643  140.8247  157.3620 C   0  0  0  0  0  0  0  0  0  0  0  0
  150.9992  143.2335  157.1703 N   0  3  0  0  0  0  0  0  0  0  0  0
  151.0632  143.6338  158.5933 C   0  0  0  0  0  0  0  0  0  0  0  0
  151.3763  145.1196  158.7604 C   0  0  0  0  0  0  0  0  0  0  0  0
  151.8831  145.2396  160.2006 C   0  0  0  0  0  0  0  0  0  0  0  0
  152.4684  143.8647  160.5625 C   0  0  0  0  0  0  0  0  0  0  0  0
  152.1966  142.9491  159.3620 C   0  0  0  0  0  0  0  0  0  0  0  0
  148.7011  139.5726  155.5709 C   0  0  0  0  0  0  0  0  0  0  0  0
  148.1860  136.3153  154.5411 H   0  0  0  0  0  0  0  0  0  0  0  0
  146.8354  137.3990  154.8210 H   0  0  0  0  0  0  0  0  0  0  0  0
  147.8116  136.8457  156.1705 H   0  0  0  0  0  0  0  0  0  0  0  0
  150.3191  137.7261  153.4430 H   0  0  0  0  0  0  0  0  0  0  0  0
  150.9424  141.9878  154.7987 H   0  0  0  0  0  0  0  0  0  0  0  0
  149.2688  142.3576  155.1382 H   0  0  0  0  0  0  0  0  0  0  0  0
  149.5464  141.7366  157.5086 H   0  0  0  0  0  0  0  0  0  0  0  0
  151.0743  139.8172  157.2136 H   0  0  0  0  0  0  0  0  0  0  0  0
  151.6985  140.9317  158.4217 H   0  0  0  0  0  0  0  0  0  0  0  0
  152.3978  140.9054  156.8038 H   0  0  0  0  0  0  0  0  0  0  0  0
  151.9359  143.2778  156.7957 H   0  0  0  0  0  0  0  0  0  0  0  0
  150.1131  143.4240  159.0860 H   0  0  0  0  0  0  0  0  0  0  0  0
  152.1689  145.4167  158.0718 H   0  0  0  0  0  0  0  0  0  0  0  0
  150.5116  145.7553  158.5669 H   0  0  0  0  0  0  0  0  0  0  0  0
  152.6162  146.0402  160.3045 H   0  0  0  0  0  0  0  0  0  0  0  0
  151.0515  145.4704  160.8678 H   0  0  0  0  0  0  0  0  0  0  0  0
  153.5360  143.9235  160.7766 H   0  0  0  0  0  0  0  0  0  0  0  0
  151.9787  143.4769  161.4567 H   0  0  0  0  0  0  0  0  0  0  0  0
  151.9455  141.9326  159.6661 H   0  0  0  0  0  0  0  0  0  0  0  0
  153.0915  142.8957  158.7399 H   0  0  0  0  0  0  0  0  0  0  0  0
  148.0034  139.9602  156.2989 H   0  0  0  0  0  0  0  0  0  0  0  0
  150.4250  143.9002  156.6737 H   0  0  0  0  0  0  0  0  0  0  0  0
  1  2  1  0  0  0  0
  1 16  1  0  0  0  0
  1 17  1  0  0  0  0
  1 18  1  0  0  0  0
  2 15  2  0  0  0  0
  2  3  1  0  0  0  0
  3  4  2  0  0  0  0
  3 19  1  0  0  0  0
  4  5  1  0  0  0  0
  5  6  1  0  0  0  0
  5 15  1  0  0  0  0
  6  7  1  0  0  0  0
  6 20  1  0  0  0  0
  6 21  1  0  0  0  0
  7  8  1  0  0  0  0
  7  9  1  0  0  0  0
  7 22  1  0  0  0  0
  8 23  1  0  0  0  0
  8 24  1  0  0  0  0
  8 25  1  0  0  0  0
  9 10  1  0  0  0  0
  9 26  1  0  0  0  0
  9 37  1  0  0  0  0
 10 14  1  0  0  0  0
 10 11  1  0  0  0  0
 10 27  1  0  0  0  0
 11 12  1  0  0  0  0
 11 28  1  0  0  0  0
 11 29  1  0  0  0  0
 12 13  1  0  0  0  0
 12 30  1  0  0  0  0
 12 31  1  0  0  0  0
 13 14  1  0  0  0  0
 13 32  1  0  0  0  0
 13 33  1  0  0  0  0
 14 34  1  0  0  0  0
 14 35  1  0  0  0  0
 15 36  1  0  0  0  0
M  CHG  1   9   1
M  END
> <s_m_source_file>
AV-unprocessed.smi

> <i_m_source_file_index>
3027

> <i_lp_mmshare_version>
43012

> <i_f3d_flags>
0

> <s_epik_input>
W0NIM11jMVtjSF1ubihbY0hdMSlbQ0gyXVtDQEhdKFtDSDNdKVtOSF1bQ0hdMltDSDJdW0NIMl1bQ0gyXVtDSDJdMg==

> <s_epik_cmdline>
J2VwaWtfcHl0aG9uJywgJy1waCcsICc3LjAnLCAnLXRuJywgJzgnLCAnLW1hJywgJzIwMCcsICctbWV0YWxfYmluZGluZycsICctaW1hZScsICc8aW5maWxlLm1hZT4nLCAnLW9tYWUnLCAnPG91dGZpbGUubWFlPic=

> <r_lp_tautomer_probability>
1

> <r_epik_Ionization_Penalty>
0.00150056

> <r_epik_Ionization_Penalty_Charging>
0.00149132

> <r_epik_Ionization_Penalty_Neutral>
9.24096e-06

> <r_epik_State_Penalty>
0.00099871

> <r_epik_Charging_Adjusted_Penalty>
0.00249003

> <i_epik_Tot_Q>
1

> <i_epik_Tot_abs_Q>
1

> <r_epik_Metal_State_Penalty>
-0

> <b_epik_Metal_Only>
0

> <s_lp_Force_Field>
OPLS_2005

> <r_lp_Energy>
25.7776

> <b_lp_Chiralities_Consistent>
1

> <s_lp_Variant>
AV-unprocessed.smi:3027-2

> <Gold.Version>
5.8.1

> <Gold.Id.Protein>
6NUR|6NUR_protein|mol2

> <Gold.PLP.Fitness>
44.5702

> <Gold.PLP.PLP>
-32.9189

> <Gold.PLP.part.hbond>
-2.0000

> <Gold.PLP.part.metal>
0.0000

> <Gold.PLP.part.buried>
-4.2052

> <Gold.PLP.part.nonpolar>
-26.8915

> <Gold.PLP.part.repulsive>
0.1742

> <Gold.PLP.ligand.clash>
0.0000

> <Gold.PLP.ligand.torsion>
0.2223

> <Gold.PLP.Chemscore.Hbond>
3.0000

> <Gold.PLP.Chemscore.CHOScore>
1.0232

> <Gold.PLP.Chemscore.Metal>
0.0000

> <Gold.Chemscore.Hbonds>
donor molecule, donor type, donor heavy atom, donor atom, acceptor molecule, acceptor atom, score
      L1  H     9    37       P1  8028  2.00
      P1  H  7989  7998       L1     4  1.00
      L1  C     3    19       P1  7948  0.85
      L1  C     3    19       P1  7949  0.18

> <Gold.PLP.Chemscore.Internal.Correction>
0.0264

> <Gold.Rescore>
     Score         DG    S(hbond)    S(metal)    S(lipo)     H(rot)  DE(clash)    DE(int)     intcor
     18.83     -19.31       1.91        0.00      94.39       1.40       0.10       0.38       ----

> <Gold.Chemscore.Fitness>
18.8312

> <Gold.Chemscore.DG>
-19.3128

> <Gold.Chemscore.ZeroCoef>
-5.4800

> <Gold.Chemscore.Hbond>
1.9074

> <Gold.Chemscore.Metal>
0.0000

> <Gold.Chemscore.Lipo>
94.3917

> <Gold.Chemscore.Internal_Hbond>
0.0000

> <Gold.Chemscore.DEClash>
0.0984

> <Gold.Chemscore.DEInternal>
0.3832

> <Gold.Chemscore.Rot>
1.3991

> <Gold.Chemscore.Internal.Correction>
   9.000000E+99

> <Gold.Chemscore.Hbonds>
donor molecule, donor type, donor heavy atom, donor atom, acceptor molecule, acceptor atom, score
      L1  H     9    37       P1  8028  0.96
      P1  H  7989  7998       L1     4  0.55

> <Gold.Chemscore.Hbond.Weighted>
-6.3708

> <Gold.Chemscore.Metal.Weighted>
-0.0000

> <Gold.Chemscore.Lipo.Weighted>
-11.0438

> <Gold.Chemscore.Internal_Hbond.Weighted>
0.0000

> <Gold.Chemscore.DEClash.Weighted>
0.0984

> <Gold.Chemscore.DEInternal.Weighted>
0.3832

> <Gold.Chemscore.Rot.Weighted>
3.5818

> <Gold.Chemscore.Internal.Correction.Weighted>
   9.000000E+99

> <Gold.Protein.RotatedTorsions>
[ 6907 6896 6895 6894 ] final  -57.02 input  -60.11 | X-H torsion
[ 7974 7965 7964 7962 ] final    3.39 input  175.53 | X-H torsion
[ 8008 7997 7996 7995 ] final  -40.66 input   59.86 | X-H torsion
[ 10167 10162 10161 10158 ] final   43.09 input  -65.29 | X-H torsion
[ 10718 10713 10712 10709 ] final -113.09 input   66.30 | X-H torsion
[ 10763 10752 10751 10750 ] final -137.91 input  -60.55 | X-H torsion
[ 11005 11000 10999 10996 ] final  -41.03 input  -57.11 | X-H torsion

> <Gold.Protein.ActiveResidues>
 VAL166  LYS551  ARG553  GLY616  TRP617  ASP618  TYR619  PRO620  LYS621  CYS622 
 ASP623  PHE694  ASN695  SER759  ASP760  ASP761  ALA762  ILE779  LEU786  VAL792 
 PHE793  MET794  SER795  GLU796  ALA797  LYS798  CYS799  TRP800  GLU811  SER814 

> <Gold.Protein.RotatedAtoms>
  150.8120  134.7280  159.6695 H   0  0  0  0  0  0  0  0  0  0  0  0  # atno 6907 bound_to 6896
  152.4239  134.5900  159.9981 H   0  0  0  0  0  0  0  0  0  0  0  0  # atno 6908 bound_to 6896
  151.6108  133.3310  159.3103 H   0  0  0  0  0  0  0  0  0  0  0  0  # atno 6909 bound_to 6896
  146.2445  140.0693  142.8363 H   0  0  0  0  0  0  0  0  0  0  0  0  # atno 7974 bound_to 7965
  154.4010  140.1519  156.3063 H   0  0  0  0  0  0  0  0  0  0  0  0  # atno 8008 bound_to 7997
  155.8655  140.3451  155.5764 H   0  0  0  0  0  0  0  0  0  0  0  0  # atno 8009 bound_to 7997
  155.7832  140.0846  157.2038 H   0  0  0  0  0  0  0  0  0  0  0  0  # atno 8010 bound_to 7997
  140.3479  144.2388  150.6148 H   0  0  0  0  0  0  0  0  0  0  0  0  # atno 10167 bound_to 10162
  156.0745  130.5954  150.8596 H   0  0  0  0  0  0  0  0  0  0  0  0  # atno 10718 bound_to 10713
  154.8650  135.3628  154.5299 H   0  0  0  0  0  0  0  0  0  0  0  0  # atno 10763 bound_to 10752
  153.5925  135.7015  153.5422 H   0  0  0  0  0  0  0  0  0  0  0  0  # atno 10764 bound_to 10752
  153.3361  135.4111  155.1496 H   0  0  0  0  0  0  0  0  0  0  0  0  # atno 10765 bound_to 10752
  141.0217  133.6860  156.2402 H   0  0  0  0  0  0  0  0  0  0  0  0  # atno 11005 bound_to 11000
  145.0831  140.9234  143.4814 LP  0  0  0  0  0  0  0  0  0  0  0  0  # atno 17320 bound_to 7965
  145.0850  139.2932  143.5764 LP  0  0  0  0  0  0  0  0  0  0  0  0  # atno 17321 bound_to 7965
  140.5247  143.2257  151.8333 LP  0  0  0  0  0  0  0  0  0  0  0  0  # atno 17342 bound_to 10162
  139.4830  144.4794  151.9326 LP  0  0  0  0  0  0  0  0  0  0  0  0  # atno 17343 bound_to 10162
  157.5834  131.0946  150.9235 LP  0  0  0  0  0  0  0  0  0  0  0  0  # atno 17370 bound_to 10713
  156.9426  130.5390  149.5280 LP  0  0  0  0  0  0  0  0  0  0  0  0  # atno 17371 bound_to 10713
  140.6561  134.5016  157.5580 LP  0  0  0  0  0  0  0  0  0  0  0  0  # atno 17394 bound_to 11000
  139.9150  134.8265  156.1396 LP  0  0  0  0  0  0  0  0  0  0  0  0  # atno 17395 bound_to 11000

$$$$
