AV-unprocessed.smi:830|AV-procd|sdf|3872|dock2
  -GOLD-   22720 1323D 1   1.00000     0.00000
 Structure written by MMmdl.
 53 55  0  0  0  0  0  0  0  0  2 V2000
  149.0884  135.3037  157.7600 C   0  0  0  0  0  0  0  0  0  0  0  0
  148.6624  136.6858  158.2826 C   0  0  2  0  0  0  0  0  0  0  0  0
  149.7674  137.6368  158.1753 N   0  0  0  0  0  0  0  0  0  0  0  0
  149.6576  138.9720  158.2104 C   0  0  0  0  0  0  0  0  0  0  0  0
  148.5856  139.5661  158.3231 O   0  0  0  0  0  0  0  0  0  0  0  0
  150.8595  139.5594  158.0869 N   0  0  0  0  0  0  0  0  0  0  0  0
  151.1616  140.9501  158.0411 C   0  0  0  0  0  0  0  0  0  0  0  0
  152.2982  141.4808  158.7046 C   0  0  0  0  0  0  0  0  0  0  0  0
  152.5575  142.8634  158.6594 C   0  0  0  0  0  0  0  0  0  0  0  0
  151.6790  143.6969  157.9468 C   0  0  0  0  0  0  0  0  0  0  0  0
  150.6188  143.1599  157.3088 N   0  3  0  0  0  0  0  0  0  0  0  0
  150.3237  141.8358  157.3020 C   0  0  0  0  0  0  0  0  0  0  0  0
  149.1845  141.4197  156.5752 N   0  0  0  0  0  0  0  0  0  0  0  0
  147.8534  141.8687  156.9669 C   0  0  0  0  0  0  0  0  0  0  0  0
  146.9539  141.5189  155.7844 C   0  0  0  0  0  0  0  0  0  0  0  0
  147.8790  141.7441  154.5923 C   0  0  0  0  0  0  0  0  0  0  0  0
  149.2579  141.3328  155.1200 C   0  0  0  0  0  0  0  0  0  0  0  0
  148.1028  136.6500  159.7093 C   0  0  0  0  0  0  0  0  0  0  0  0
  147.6097  137.6595  160.2151 O   0  0  0  0  0  0  0  0  0  0  0  0
  148.1994  135.4780  160.3552 N   0  0  0  0  0  0  0  0  0  0  0  0
  147.7402  135.2304  161.7190 C   0  0  0  0  0  0  0  0  0  0  0  0
  147.6037  133.7186  161.9773 C   0  0  0  0  0  0  0  0  0  0  0  0
  146.1023  133.4359  162.0338 C   0  0  0  0  0  0  0  0  0  0  0  0
  145.5037  134.7210  162.5970 C   0  0  0  0  0  0  0  0  0  0  0  0
  146.3432  135.8357  161.9703 C   0  0  0  0  0  0  0  0  0  0  0  0
  148.2688  134.5872  157.8245 H   0  0  0  0  0  0  0  0  0  0  0  0
  149.9252  134.9033  158.3336 H   0  0  0  0  0  0  0  0  0  0  0  0
  149.3950  135.3528  156.7148 H   0  0  0  0  0  0  0  0  0  0  0  0
  147.8507  137.0446  157.6463 H   0  0  0  0  0  0  0  0  0  0  0  0
  150.6894  137.2361  158.0801 H   0  0  0  0  0  0  0  0  0  0  0  0
  151.6358  138.9399  157.9059 H   0  0  0  0  0  0  0  0  0  0  0  0
  152.9830  140.8462  159.2462 H   0  0  0  0  0  0  0  0  0  0  0  0
  153.4173  143.2771  159.1658 H   0  0  0  0  0  0  0  0  0  0  0  0
  151.7951  144.7675  157.8602 H   0  0  0  0  0  0  0  0  0  0  0  0
  147.5221  141.3834  157.8854 H   0  0  0  0  0  0  0  0  0  0  0  0
  147.8462  142.9478  157.1247 H   0  0  0  0  0  0  0  0  0  0  0  0
  146.6603  140.4694  155.8348 H   0  0  0  0  0  0  0  0  0  0  0  0
  146.0480  142.1244  155.7447 H   0  0  0  0  0  0  0  0  0  0  0  0
  147.5795  141.1817  153.7075 H   0  0  0  0  0  0  0  0  0  0  0  0
  147.8862  142.8032  154.3309 H   0  0  0  0  0  0  0  0  0  0  0  0
  150.0451  141.9657  154.7080 H   0  0  0  0  0  0  0  0  0  0  0  0
  149.4690  140.3002  154.8410 H   0  0  0  0  0  0  0  0  0  0  0  0
  148.6228  134.7012  159.8686 H   0  0  0  0  0  0  0  0  0  0  0  0
  148.4633  135.6433  162.4251 H   0  0  0  0  0  0  0  0  0  0  0  0
  148.1099  133.1028  161.2325 H   0  0  0  0  0  0  0  0  0  0  0  0
  148.0484  133.4790  162.9443 H   0  0  0  0  0  0  0  0  0  0  0  0
  145.7216  133.2635  161.0263 H   0  0  0  0  0  0  0  0  0  0  0  0
  145.8621  132.5598  162.6368 H   0  0  0  0  0  0  0  0  0  0  0  0
  144.4406  134.8219  162.3773 H   0  0  0  0  0  0  0  0  0  0  0  0
  145.6231  134.7363  163.6811 H   0  0  0  0  0  0  0  0  0  0  0  0
  146.3876  136.7192  162.6079 H   0  0  0  0  0  0  0  0  0  0  0  0
  145.8807  136.1411  161.0302 H   0  0  0  0  0  0  0  0  0  0  0  0
  150.0054  143.7897  156.7917 H   0  0  0  0  0  0  0  0  0  0  0  0
  1  2  1  0  0  0  0
  1 26  1  0  0  0  0
  1 27  1  0  0  0  0
  1 28  1  0  0  0  0
  2  3  1  0  0  0  0
  2 18  1  0  0  0  0
  2 29  1  0  0  0  0
  3  4  1  0  0  0  0
  3 30  1  0  0  0  0
  4  5  2  0  0  0  0
  4  6  1  0  0  0  0
  6  7  1  0  0  0  0
  6 31  1  0  0  0  0
  7 12  1  0  0  0  0
  7  8  2  0  0  0  0
  8  9  1  0  0  0  0
  8 32  1  0  0  0  0
  9 10  2  0  0  0  0
  9 33  1  0  0  0  0
 10 11  1  0  0  0  0
 10 34  1  0  0  0  0
 11 12  2  0  0  0  0
 11 53  1  0  0  0  0
 12 13  1  0  0  0  0
 13 17  1  0  0  0  0
 13 14  1  0  0  0  0
 14 15  1  0  0  0  0
 14 35  1  0  0  0  0
 14 36  1  0  0  0  0
 15 16  1  0  0  0  0
 15 37  1  0  0  0  0
 15 38  1  0  0  0  0
 16 17  1  0  0  0  0
 16 39  1  0  0  0  0
 16 40  1  0  0  0  0
 17 41  1  0  0  0  0
 17 42  1  0  0  0  0
 18 19  2  0  0  0  0
 18 20  1  0  0  0  0
 20 21  1  0  0  0  0
 20 43  1  0  0  0  0
 21 25  1  0  0  0  0
 21 22  1  0  0  0  0
 21 44  1  0  0  0  0
 22 23  1  0  0  0  0
 22 45  1  0  0  0  0
 22 46  1  0  0  0  0
 23 24  1  0  0  0  0
 23 47  1  0  0  0  0
 23 48  1  0  0  0  0
 24 25  1  0  0  0  0
 24 49  1  0  0  0  0
 24 50  1  0  0  0  0
 25 51  1  0  0  0  0
 25 52  1  0  0  0  0
M  CHG  1  11   1
M  END
> <s_m_source_file>
AV-unprocessed.smi

> <i_m_source_file_index>
830

> <i_lp_mmshare_version>
43012

> <i_f3d_flags>
0

> <s_epik_input>
W0NIMl0xW0NIMl1bQ0gyXVtDSDJdW0NIXTFbTkhdQyg9TylbQ0BIXShbQ0gzXSlbTkhdQyg9TylbTkhdYzJbY0hdW2NIXVtjSF1uYzJOM1tDSDJdW0NIMl1bQ0gyXVtDSDJdMw==

> <s_epik_cmdline>
J2VwaWtfcHl0aG9uJywgJy1waCcsICc3LjAnLCAnLXRuJywgJzgnLCAnLW1hJywgJzIwMCcsICctbWV0YWxfYmluZGluZycsICctaW1hZScsICc8aW5maWxlLm1hZT4nLCAnLW9tYWUnLCAnPG91dGZpbGUubWFlPic=

> <r_lp_tautomer_probability>
0.999994

> <r_epik_Ionization_Penalty>
1.21091

> <r_epik_Ionization_Penalty_Charging>
1.21089

> <r_epik_Ionization_Penalty_Neutral>
1.88713e-05

> <r_epik_State_Penalty>
1.27732

> <r_epik_Charging_Adjusted_Penalty>
2.48821

> <i_epik_Tot_Q>
1

> <i_epik_Tot_abs_Q>
1

> <r_epik_Metal_State_Penalty>
1.3505

> <b_epik_Metal_Only>
0

> <s_lp_Force_Field>
OPLS_2005

> <r_lp_Energy>
52.1076

> <b_lp_Chiralities_Consistent>
1

> <s_lp_Variant>
AV-unprocessed.smi:830-3

> <Gold.Version>
5.8.1

> <Gold.Id.Protein>
6NUR|6NUR_protein|mol2

> <Gold.PLP.Fitness>
48.5792

> <Gold.PLP.PLP>
-41.1502

> <Gold.PLP.part.hbond>
-4.0000

> <Gold.PLP.part.metal>
0.0000

> <Gold.PLP.part.buried>
-6.6120

> <Gold.PLP.part.nonpolar>
-31.8606

> <Gold.PLP.part.repulsive>
0.4352

> <Gold.PLP.ligand.clash>
0.0447

> <Gold.PLP.ligand.torsion>
0.9973

> <Gold.PLP.Chemscore.Hbond>
2.9990

> <Gold.PLP.Chemscore.CHOScore>
0.0000

> <Gold.PLP.Chemscore.Metal>
0.0000

> <Gold.Chemscore.Hbonds>
donor molecule, donor type, donor heavy atom, donor atom, acceptor molecule, acceptor atom, score
      L1  H    11    53       P1  8028  2.00
      P1  H  6931  6943       L1    19  0.19
      P1  H  6934  6947       L1    19  0.83

> <Gold.PLP.Chemscore.Internal.Correction>
0.4712

> <Gold.Rescore>
     Score         DG    S(hbond)    S(metal)    S(lipo)     H(rot)  DE(clash)    DE(int)     intcor
     10.80     -19.56       1.90        0.00     102.52       1.67       0.04       8.72       ----

> <Gold.Chemscore.Fitness>
10.7976

> <Gold.Chemscore.DG>
-19.5619

> <Gold.Chemscore.ZeroCoef>
-5.4800

> <Gold.Chemscore.Hbond>
1.9031

> <Gold.Chemscore.Metal>
0.0000

> <Gold.Chemscore.Lipo>
102.5194

> <Gold.Chemscore.Internal_Hbond>
0.0000

> <Gold.Chemscore.DEClash>
0.0428

> <Gold.Chemscore.DEInternal>
8.7216

> <Gold.Chemscore.Rot>
1.6676

> <Gold.Chemscore.Internal.Correction>
   9.000000E+99

> <Gold.Chemscore.Hbonds>
donor molecule, donor type, donor heavy atom, donor atom, acceptor molecule, acceptor atom, score
      L1  H    11    53       P1  8028  1.00
      P1  H  6931  6943       L1    19  0.10
      P1  H  6934  6947       L1    19  0.81

> <Gold.Chemscore.Hbond.Weighted>
-6.3563

> <Gold.Chemscore.Metal.Weighted>
-0.0000

> <Gold.Chemscore.Lipo.Weighted>
-11.9948

> <Gold.Chemscore.Internal_Hbond.Weighted>
0.0000

> <Gold.Chemscore.DEClash.Weighted>
0.0428

> <Gold.Chemscore.DEInternal.Weighted>
8.7216

> <Gold.Chemscore.Rot.Weighted>
4.2691

> <Gold.Chemscore.Internal.Correction.Weighted>
   9.000000E+99

> <Gold.Protein.RotatedTorsions>
[ 6907 6896 6895 6894 ] final  -47.07 input  -60.11 | X-H torsion
[ 7974 7965 7964 7962 ] final   25.68 input  175.53 | X-H torsion
[ 8008 7997 7996 7995 ] final  -12.99 input   59.86 | X-H torsion
[ 10167 10162 10161 10158 ] final    5.74 input  -65.29 | X-H torsion
[ 10718 10713 10712 10709 ] final -137.65 input   66.30 | X-H torsion
[ 10763 10752 10751 10750 ] final  122.51 input  -60.55 | X-H torsion
[ 11005 11000 10999 10996 ] final  174.59 input  -57.11 | X-H torsion

> <Gold.Protein.ActiveResidues>
 VAL166  LYS551  ARG553  GLY616  TRP617  ASP618  TYR619  PRO620  LYS621  CYS622 
 ASP623  PHE694  ASN695  SER759  ASP760  ASP761  ALA762  ILE779  LEU786  VAL792 
 PHE793  MET794  SER795  GLU796  ALA797  LYS798  CYS799  TRP800  GLU811  SER814 

> <Gold.Protein.RotatedAtoms>
  150.9046  134.8460  159.7383 H   0  0  0  0  0  0  0  0  0  0  0  0  # atno 6907 bound_to 6896
  152.4911  134.4451  159.9566 H   0  0  0  0  0  0  0  0  0  0  0  0  # atno 6908 bound_to 6896
  151.4499  133.3581  159.2829 H   0  0  0  0  0  0  0  0  0  0  0  0  # atno 6909 bound_to 6896
  146.1876  139.7432  142.8855 H   0  0  0  0  0  0  0  0  0  0  0  0  # atno 7974 bound_to 7965
  154.5330  140.2261  155.8771 H   0  0  0  0  0  0  0  0  0  0  0  0  # atno 8008 bound_to 7997
  156.1783  140.3106  155.9064 H   0  0  0  0  0  0  0  0  0  0  0  0  # atno 8009 bound_to 7997
  155.3412  140.0450  157.3035 H   0  0  0  0  0  0  0  0  0  0  0  0  # atno 8010 bound_to 7997
  140.6466  143.7647  150.7508 H   0  0  0  0  0  0  0  0  0  0  0  0  # atno 10167 bound_to 10162
  156.2905  130.7372  151.1396 H   0  0  0  0  0  0  0  0  0  0  0  0  # atno 10718 bound_to 10713
  153.6310  135.3396  155.3041 H   0  0  0  0  0  0  0  0  0  0  0  0  # atno 10763 bound_to 10752
  154.8580  135.4295  154.2106 H   0  0  0  0  0  0  0  0  0  0  0  0  # atno 10764 bound_to 10752
  153.3002  135.7024  153.7284 H   0  0  0  0  0  0  0  0  0  0  0  0  # atno 10765 bound_to 10752
  140.3530  134.7179  157.4280 H   0  0  0  0  0  0  0  0  0  0  0  0  # atno 11005 bound_to 11000
  145.3891  141.0370  143.3134 LP  0  0  0  0  0  0  0  0  0  0  0  0  # atno 17320 bound_to 7965
  144.8426  139.5447  143.6893 LP  0  0  0  0  0  0  0  0  0  0  0  0  # atno 17321 bound_to 7965
  140.1290  143.4543  152.2266 LP  0  0  0  0  0  0  0  0  0  0  0  0  # atno 17342 bound_to 10162
  139.5677  144.7445  151.3977 LP  0  0  0  0  0  0  0  0  0  0  0  0  # atno 17343 bound_to 10162
  157.7341  131.0585  150.5542 LP  0  0  0  0  0  0  0  0  0  0  0  0  # atno 17370 bound_to 10713
  156.5658  130.4267  149.6042 LP  0  0  0  0  0  0  0  0  0  0  0  0  # atno 17371 bound_to 10713
  140.0688  134.5892  155.8665 LP  0  0  0  0  0  0  0  0  0  0  0  0  # atno 17394 bound_to 11000
  141.2006  133.6614  156.5908 LP  0  0  0  0  0  0  0  0  0  0  0  0  # atno 17395 bound_to 11000

$$$$
