AV-unprocessed.smi:2025|AV-procd|sdf|8197|dock7
  -GOLD-   2272010453D 1   1.00000     0.00000
 Structure written by MMmdl.
 39 40  0  0  0  0  0  0  0  0  1 V2000
  153.2871  141.1246  160.1312 C   0  0  0  0  0  0  0  0  0  0  0  0
  152.1984  141.8716  159.3453 C   0  0  2  0  0  0  0  0  0  0  0  0
  152.1687  141.3490  157.9809 N   0  0  0  0  0  0  0  0  0  0  0  0
  152.0225  140.0591  157.6407 C   0  0  0  0  0  0  0  0  0  0  0  0
  151.8892  139.1519  158.4632 O   0  0  0  0  0  0  0  0  0  0  0  0
  151.9976  139.7599  156.1358 C   0  0  0  0  0  0  0  0  0  0  0  0
  150.7603  140.2073  155.4829 N   0  0  0  0  0  0  0  0  0  0  0  0
  150.3827  141.5351  155.5708 C   0  0  0  0  0  0  0  0  0  0  0  0
  149.2537  142.0268  155.0161 C   0  0  0  0  0  0  0  0  0  0  0  0
  148.3493  141.1595  154.2716 C   0  0  0  0  0  0  0  0  0  0  0  0
  147.3041  141.5550  153.7531 O   0  0  0  0  0  0  0  0  0  0  0  0
  148.7612  139.8097  154.1895 N   0  0  0  0  0  0  0  0  0  0  0  0
  147.8899  138.9134  153.4585 C   0  0  0  0  0  0  0  0  0  0  0  0
  149.9391  139.2972  154.7821 C   0  0  0  0  0  0  0  0  0  0  0  0
  150.2539  138.1072  154.7060 O   0  0  0  0  0  0  0  0  0  0  0  0
  152.4327  143.3969  159.3198 C   0  0  2  0  0  0  0  0  0  0  0  0
  152.1631  144.1032  160.6495 C   0  0  0  0  0  0  0  0  0  0  0  0
  151.8809  145.5171  160.1968 C   0  0  0  0  0  0  0  0  0  0  0  0
  151.0948  145.2811  158.9115 C   0  0  0  0  0  0  0  0  0  0  0  0
  151.5476  144.0314  158.3976 O   0  0  0  0  0  0  0  0  0  0  0  0
  153.3108  141.4383  161.1748 H   0  0  0  0  0  0  0  0  0  0  0  0
  154.2761  141.3016  159.7073 H   0  0  0  0  0  0  0  0  0  0  0  0
  153.1080  140.0490  160.1215 H   0  0  0  0  0  0  0  0  0  0  0  0
  151.2438  141.6721  159.8358 H   0  0  0  0  0  0  0  0  0  0  0  0
  152.2617  142.0240  157.2361 H   0  0  0  0  0  0  0  0  0  0  0  0
  152.8573  140.2521  155.6789 H   0  0  0  0  0  0  0  0  0  0  0  0
  152.1470  138.6919  155.9669 H   0  0  0  0  0  0  0  0  0  0  0  0
  151.0198  142.2161  156.1164 H   0  0  0  0  0  0  0  0  0  0  0  0
  149.0156  143.0747  155.1262 H   0  0  0  0  0  0  0  0  0  0  0  0
  148.3488  137.9340  153.3277 H   0  0  0  0  0  0  0  0  0  0  0  0
  147.7103  139.3555  152.4769 H   0  0  0  0  0  0  0  0  0  0  0  0
  146.9660  138.8278  154.0327 H   0  0  0  0  0  0  0  0  0  0  0  0
  153.4530  143.6170  159.0007 H   0  0  0  0  0  0  0  0  0  0  0  0
  151.2805  143.6852  161.1362 H   0  0  0  0  0  0  0  0  0  0  0  0
  153.0010  144.0390  161.3442 H   0  0  0  0  0  0  0  0  0  0  0  0
  151.3298  146.1035  160.9324 H   0  0  0  0  0  0  0  0  0  0  0  0
  152.8165  146.0331  159.9771 H   0  0  0  0  0  0  0  0  0  0  0  0
  150.0285  145.1999  159.1245 H   0  0  0  0  0  0  0  0  0  0  0  0
  151.2352  146.0836  158.1870 H   0  0  0  0  0  0  0  0  0  0  0  0
  1  2  1  0  0  0  0
  1 21  1  0  0  0  0
  1 22  1  0  0  0  0
  1 23  1  0  0  0  0
  2  3  1  0  0  0  0
  2 16  1  0  0  0  0
  2 24  1  0  0  0  0
  3  4  1  0  0  0  0
  3 25  1  0  0  0  0
  4  5  2  0  0  0  0
  4  6  1  0  0  0  0
  6  7  1  0  0  0  0
  6 26  1  0  0  0  0
  6 27  1  0  0  0  0
  7 14  1  0  0  0  0
  7  8  1  0  0  0  0
  8  9  2  0  0  0  0
  8 28  1  0  0  0  0
  9 10  1  0  0  0  0
  9 29  1  0  0  0  0
 10 11  2  0  0  0  0
 10 12  1  0  0  0  0
 12 13  1  0  0  0  0
 12 14  1  0  0  0  0
 13 30  1  0  0  0  0
 13 31  1  0  0  0  0
 13 32  1  0  0  0  0
 14 15  2  0  0  0  0
 16 20  1  0  0  0  0
 16 17  1  0  0  0  0
 16 33  1  0  0  0  0
 17 18  1  0  0  0  0
 17 34  1  0  0  0  0
 17 35  1  0  0  0  0
 18 19  1  0  0  0  0
 18 36  1  0  0  0  0
 18 37  1  0  0  0  0
 19 20  1  0  0  0  0
 19 38  1  0  0  0  0
 19 39  1  0  0  0  0
M  END
> <s_m_source_file>
AV-unprocessed.smi

> <i_m_source_file_index>
2025

> <i_lp_mmshare_version>
43012

> <i_f3d_flags>
0

> <s_epik_input>
TzFbQ0gyXVtDSDJdW0NIMl1bQ0BIXTFbQ0BIXShbQ0gzXSlbTkhdQyg9TylbQ0gyXW4yW2NIXVtjSF1jKD1PKW4oW0NIM10pYzI9Tw==

> <s_epik_cmdline>
J2VwaWtfcHl0aG9uJywgJy1waCcsICc3LjAnLCAnLXRuJywgJzgnLCAnLW1hJywgJzIwMCcsICctbWV0YWxfYmluZGluZycsICctaW1hZScsICc8aW5maWxlLm1hZT4nLCAnLW9tYWUnLCAnPG91dGZpbGUubWFlPic=

> <r_lp_tautomer_probability>
1

> <r_epik_Ionization_Penalty>
3.54787e-08

> <r_epik_Ionization_Penalty_Charging>
1.24654e-08

> <r_epik_Ionization_Penalty_Neutral>
2.30132e-08

> <r_epik_State_Penalty>
-0

> <r_epik_Charging_Adjusted_Penalty>
1.24654e-08

> <i_epik_Tot_Q>
0

> <i_epik_Tot_abs_Q>
0

> <r_epik_Metal_State_Penalty>
-0

> <b_epik_Metal_Only>
0

> <s_lp_Force_Field>
OPLS_2005

> <r_lp_Energy>
25.7594

> <b_lp_Chiralities_Consistent>
1

> <s_lp_Variant>
AV-unprocessed.smi:2025-1

> <Gold.Version>
5.8.1

> <Gold.Id.Protein>
6NUR|6NUR_protein|mol2

> <Gold.PLP.Fitness>
40.5790

> <Gold.PLP.PLP>
-41.1704

> <Gold.PLP.part.hbond>
0.0000

> <Gold.PLP.part.metal>
0.0000

> <Gold.PLP.part.buried>
-0.1932

> <Gold.PLP.part.nonpolar>
-39.5148

> <Gold.PLP.part.repulsive>
0.5187

> <Gold.PLP.ligand.clash>
0.0000

> <Gold.PLP.ligand.torsion>
0.3040

> <Gold.PLP.Chemscore.Hbond>
0.0000

> <Gold.PLP.Chemscore.CHOScore>
0.0000

> <Gold.PLP.Chemscore.Metal>
0.0000

> <Gold.PLP.Chemscore.Internal.Correction>
0.0166

> <Gold.Rescore>
     Score         DG    S(hbond)    S(metal)    S(lipo)     H(rot)  DE(clash)    DE(int)     intcor
     10.46     -11.65       0.00        0.00      92.64       1.82       0.03       1.16       ----

> <Gold.Chemscore.Fitness>
10.4613

> <Gold.Chemscore.DG>
-11.6527

> <Gold.Chemscore.ZeroCoef>
-5.4800

> <Gold.Chemscore.Hbond>
0.0000

> <Gold.Chemscore.Metal>
0.0000

> <Gold.Chemscore.Lipo>
92.6421

> <Gold.Chemscore.Internal_Hbond>
0.0000

> <Gold.Chemscore.DEClash>
0.0312

> <Gold.Chemscore.DEInternal>
1.1601

> <Gold.Chemscore.Rot>
1.8228

> <Gold.Chemscore.Internal.Correction>
   9.000000E+99

> <Gold.Chemscore.Hbond.Weighted>
-0.0000

> <Gold.Chemscore.Metal.Weighted>
-0.0000

> <Gold.Chemscore.Lipo.Weighted>
-10.8391

> <Gold.Chemscore.Internal_Hbond.Weighted>
0.0000

> <Gold.Chemscore.DEClash.Weighted>
0.0312

> <Gold.Chemscore.DEInternal.Weighted>
1.1601

> <Gold.Chemscore.Rot.Weighted>
4.6665

> <Gold.Chemscore.Internal.Correction.Weighted>
   9.000000E+99

> <Gold.Protein.RotatedTorsions>
[ 6907 6896 6895 6894 ] final   91.94 input  -60.11 | X-H torsion
[ 7974 7965 7964 7962 ] final -118.94 input  175.53 | X-H torsion
[ 8008 7997 7996 7995 ] final  160.77 input   59.86 | X-H torsion
[ 10167 10162 10161 10158 ] final   48.73 input  -65.29 | X-H torsion
[ 10718 10713 10712 10709 ] final -110.84 input   66.30 | X-H torsion
[ 10763 10752 10751 10750 ] final  121.72 input  -60.55 | X-H torsion
[ 11005 11000 10999 10996 ] final  -71.97 input  -57.11 | X-H torsion

> <Gold.Protein.ActiveResidues>
 VAL166  LYS551  ARG553  GLY616  TRP617  ASP618  TYR619  PRO620  LYS621  CYS622 
 ASP623  PHE694  ASN695  SER759  ASP760  ASP761  ALA762  ILE779  LEU786  VAL792 
 PHE793  MET794  SER795  GLU796  ALA797  LYS798  CYS799  TRP800  GLU811  SER814 

> <Gold.Protein.RotatedAtoms>
  152.5451  134.1579  159.8545 H   0  0  0  0  0  0  0  0  0  0  0  0  # atno 6907 bound_to 6896
  151.1600  133.4844  159.2602 H   0  0  0  0  0  0  0  0  0  0  0  0  # atno 6908 bound_to 6896
  151.1383  135.0177  159.8669 H   0  0  0  0  0  0  0  0  0  0  0  0  # atno 6909 bound_to 6896
  145.0681  140.8339  143.4112 H   0  0  0  0  0  0  0  0  0  0  0  0  # atno 7974 bound_to 7965
  156.2149  140.1795  156.7611 H   0  0  0  0  0  0  0  0  0  0  0  0  # atno 8008 bound_to 7997
  154.5777  140.0671  156.9087 H   0  0  0  0  0  0  0  0  0  0  0  0  # atno 8009 bound_to 7997
  155.2559  140.3332  155.4280 H   0  0  0  0  0  0  0  0  0  0  0  0  # atno 8010 bound_to 7997
  140.2902  144.3055  150.6242 H   0  0  0  0  0  0  0  0  0  0  0  0  # atno 10167 bound_to 10162
  156.0613  130.5836  150.8292 H   0  0  0  0  0  0  0  0  0  0  0  0  # atno 10718 bound_to 10713
  153.6186  135.3417  155.3003 H   0  0  0  0  0  0  0  0  0  0  0  0  # atno 10763 bound_to 10752
  154.8604  135.4267  154.2232 H   0  0  0  0  0  0  0  0  0  0  0  0  # atno 10764 bound_to 10752
  153.3100  135.7031  153.7197 H   0  0  0  0  0  0  0  0  0  0  0  0  # atno 10765 bound_to 10752
  141.1601  133.6833  156.6987 H   0  0  0  0  0  0  0  0  0  0  0  0  # atno 11005 bound_to 11000
  145.1325  139.2623  143.5532 LP  0  0  0  0  0  0  0  0  0  0  0  0  # atno 17320 bound_to 7965
  146.3527  140.0980  142.8609 LP  0  0  0  0  0  0  0  0  0  0  0  0  # atno 17321 bound_to 7965
  140.5738  143.2178  151.7551 LP  0  0  0  0  0  0  0  0  0  0  0  0  # atno 17342 bound_to 10162
  139.4940  144.4178  152.0011 LP  0  0  0  0  0  0  0  0  0  0  0  0  # atno 17343 bound_to 10162
  157.5624  131.0946  150.9540 LP  0  0  0  0  0  0  0  0  0  0  0  0  # atno 17370 bound_to 10713
  156.9774  130.5514  149.5294 LP  0  0  0  0  0  0  0  0  0  0  0  0  # atno 17371 bound_to 10713
  140.2975  134.8191  157.4069 LP  0  0  0  0  0  0  0  0  0  0  0  0  # atno 17394 bound_to 11000
  140.1292  134.5118  155.8120 LP  0  0  0  0  0  0  0  0  0  0  0  0  # atno 17395 bound_to 11000

$$$$
