#       Name:                AV-unprocessed.smi:648
#       Creating user name   scv26
#       Creation time:       Fri Mar 27 00:09:52 2020


#       File generated by GOLD software.
#

@<TRIPOS>MOLECULE
AV-unprocessed.smi:648
    50    51     1
SMALL
NO_CHARGES


@<TRIPOS>ATOM
      1 ****        -1.8693  -0.5597   2.9544 C.3            1 S1                 0.0000
      2 ****        -1.2195   0.1844   1.7786 C.3            1 S1                 0.0000
      3 ****        -1.6663   1.6565   1.7385 C.3            1 S1                 0.0000
      4 ****        -1.0338   2.4600   0.5793 C.3            1 S1                 0.0000
      5 ****        -1.7430   3.8267   0.4878 C.3            1 S1                 0.0000
      6 ****         0.4596   2.7445   0.8598 C.3            1 S1                 0.0000
      7 ****        -1.2396   1.7104  -0.7682 C.3            1 S1                 0.0000
      8 ****        -0.8937   0.1924  -0.7878 C.3            1 S1                 0.0000
      9 ****        -1.5021  -0.4485  -2.0659 C.3            1 S1                 0.0000
     10 ****        -1.0101   0.1499  -3.2498 O.3            1 S1                 0.0000
     11 ****         0.5742   0.0209  -0.8051 N.3            1 S1                 0.0000
     12 ****         1.1252  -1.3365  -0.7765 C.3            1 S1                 0.0000
     13 ****         2.6571  -1.2926  -0.8360 C.3            1 S1                 0.0000
     14 ****         3.2291  -2.6233  -0.8003 N.pl3          1 S1                 0.0000
     15 ****         3.7553  -3.3155   0.2113 C.2            1 S1                 0.0000
     16 ****         4.1822  -4.5231  -0.1319 N.2            1 S1                 0.0000
     17 ****         3.8665  -4.5071  -1.4616 C.2            1 S1                 0.0000
     18 ****         3.2922  -3.3918  -1.9126 N.2            1 S1                 0.0000
     19 ****        -1.5427  -0.5012   0.4398 C.3            1 S1                 0.0000
     20 ****        -2.9562  -0.5666   2.8686 H              1 S1                 0.0000
     21 ****        -1.6132  -0.0910   3.9049 H              1 S1                 0.0000
     22 ****        -1.5323  -1.5958   2.9976 H              1 S1                 0.0000
     23 ****        -0.1420   0.1438   1.9362 H              1 S1                 0.0000
     24 ****        -2.7531   1.6846   1.6456 H              1 S1                 0.0000
     25 ****        -1.4366   2.1385   2.6899 H              1 S1                 0.0000
     26 ****        -1.3318   4.4345  -0.3189 H              1 S1                 0.0000
     27 ****        -1.6359   4.3938   1.4132 H              1 S1                 0.0000
     28 ****        -2.8114   3.7148   0.2987 H              1 S1                 0.0000
     29 ****         0.9182   3.2940   0.0370 H              1 S1                 0.0000
     30 ****         1.0453   1.8401   1.0106 H              1 S1                 0.0000
     31 ****         0.5816   3.3474   1.7601 H              1 S1                 0.0000
     32 ****        -2.2932   1.8060  -1.0360 H              1 S1                 0.0000
     33 ****        -0.6987   2.2309  -1.5601 H              1 S1                 0.0000
     34 ****        -1.3248  -1.5228  -2.1075 H              1 S1                 0.0000
     35 ****        -2.5862  -0.3285  -2.0674 H              1 S1                 0.0000
     36 ****        -1.4169  -0.2722  -3.9910 H              1 S1                 0.0000
     37 ****         0.9525   0.5163  -1.6066 H              1 S1                 0.0000
     38 ****         0.8252  -1.8565   0.1324 H              1 S1                 0.0000
     39 ****         0.7584  -1.9210  -1.6193 H              1 S1                 0.0000
     40 ****         2.9927  -0.7929  -1.7460 H              1 S1                 0.0000
     41 ****         3.0539  -0.7228   0.0056 H              1 S1                 0.0000
     42 ****         3.8253  -2.9298   1.2178 H              1 S1                 0.0000
     43 ****         4.0656  -5.3424  -2.1166 H              1 S1                 0.0000
     44 ****        -1.2812  -1.5580   0.4826 H              1 S1                 0.0000
     45 ****        -2.6266  -0.4894   0.3149 H              1 S1                 0.0000
     46 ****        -0.0180   0.0346  -3.2987 LP             1 S1                 0.0000
     47 ****        -1.2330   1.1247  -3.2527 LP             1 S1                 0.0000
     48 ****         0.8588   0.3961   0.0771 LP             1 S1                 0.0000
     49 ****         4.6105  -5.2377   0.4212 LP             1 S1                 0.0000
     50 ****         2.9852  -3.1770  -2.8397 LP             1 S1                 0.0000
@<TRIPOS>BOND
    1    1    2 1     
    2    1   20 1     
    3    1   21 1     
    4    1   22 1     
    5    2   19 1     
    6    2    3 1     
    7    2   23 1     
    8    3    4 1     
    9    3   24 1     
   10    3   25 1     
   11    4    5 1     
   12    4    6 1     
   13    4    7 1     
   14    5   26 1     
   15    5   27 1     
   16    5   28 1     
   17    6   29 1     
   18    6   30 1     
   19    6   31 1     
   20    7    8 1     
   21    7   32 1     
   22    7   33 1     
   23    8    9 1     
   24    8   11 1     
   25    8   19 1     
   26    9   10 1     
   27    9   34 1     
   28    9   35 1     
   29   10   36 1     
   30   11   12 1     
   31   11   37 1     
   32   12   13 1     
   33   12   38 1     
   34   12   39 1     
   35   13   14 1     
   36   13   40 1     
   37   13   41 1     
   38   14   18 1     
   39   14   15 1     
   40   15   16 2     
   41   15   42 1     
   42   16   17 1     
   43   17   18 2     
   44   17   43 1     
   45   19   44 1     
   46   19   45 1     
   47   10   46 1     
   48   10   47 1     
   49   11   48 1     
   50   16   49 1     
   51   18   50 1     
@<TRIPOS>SUBSTRUCTURE
      1 S1             1
@<TRIPOS>SET
LONE_PAIRS      STATIC     ATOMS    <user>   **** ""
5 46 47 48 49 50
DONOR_HYDROGENS      STATIC     ATOMS    <user>   **** ""
2 36 37
ATOM$BLUE        STATIC     ATOMS    COLORGROUP SYSTEM
5 46 47 48 49 50
ATOM$RED        STATIC     ATOMS    COLORGROUP SYSTEM
2 36 37
