AV-unprocessed.smi:1643|AV-procd|sdf|6573|dock10
  -GOLD-   22720 7263D 1   1.00000     0.00000
 Structure written by MMmdl.
 54 56  0  0  0  0  0  0  0  0  2 V2000
  143.8385  131.7779  150.5262 C   0  0  0  0  0  0  0  0  0  0  0  0
  144.9447  132.1029  151.5346 C   0  0  0  0  0  0  0  0  0  0  0  0
  145.8144  131.2541  151.7316 O   0  0  0  0  0  0  0  0  0  0  0  0
  144.9320  133.3031  152.1657 N   0  0  0  0  0  0  0  0  0  0  0  0
  143.8471  134.2688  151.9315 C   0  0  0  0  0  0  0  0  0  0  0  0
  144.2709  135.3538  150.9254 C   0  0  0  0  0  0  0  0  0  0  0  0
  145.7576  135.7598  151.0109 C   0  0  0  0  0  0  0  0  0  0  0  0
  146.1885  136.2170  152.3611 N   0  3  1  0  0  0  0  0  0  0  0  0
  145.6659  137.5694  152.7022 C   0  0  0  0  0  0  0  0  0  0  0  0
  146.6938  138.6994  152.4533 C   0  0  2  0  0  0  0  0  0  0  0  0
  147.1031  138.6910  151.1009 O   0  0  0  0  0  0  0  0  0  0  0  0
  147.9764  138.5748  153.3027 C   0  0  0  0  0  0  0  0  0  0  0  0
  148.2729  139.7764  154.0618 N   0  0  0  0  0  0  0  0  0  0  0  0
  147.5917  140.9388  154.0445 C   0  0  0  0  0  0  0  0  0  0  0  0
  148.0442  141.9210  154.8177 N   0  0  0  0  0  0  0  0  0  0  0  0
  149.1369  141.3218  155.4198 C   0  0  0  0  0  0  0  0  0  0  0  0
  150.0566  141.8295  156.3629 C   0  0  0  0  0  0  0  0  0  0  0  0
  151.1111  141.0261  156.8517 C   0  0  0  0  0  0  0  0  0  0  0  0
  152.0737  141.6107  157.8705 C   0  0  0  0  0  0  0  0  0  0  0  0
  151.2586  139.6917  156.3946 C   0  0  0  0  0  0  0  0  0  0  0  0
  152.3816  138.8089  156.9092 C   0  0  0  0  0  0  0  0  0  0  0  0
  150.3503  139.1696  155.4500 C   0  0  0  0  0  0  0  0  0  0  0  0
  149.3049  139.9790  154.9716 C   0  0  0  0  0  0  0  0  0  0  0  0
  146.0411  135.2264  153.4733 C   0  0  0  0  0  0  0  0  0  0  0  0
  146.0213  133.7263  153.0719 C   0  0  0  0  0  0  0  0  0  0  0  0
  143.7431  132.5650  149.7780 H   0  0  0  0  0  0  0  0  0  0  0  0
  142.8806  131.6492  151.0302 H   0  0  0  0  0  0  0  0  0  0  0  0
  144.0633  130.8493  150.0003 H   0  0  0  0  0  0  0  0  0  0  0  0
  142.9365  133.7849  151.5744 H   0  0  0  0  0  0  0  0  0  0  0  0
  143.5361  134.7183  152.8733 H   0  0  0  0  0  0  0  0  0  0  0  0
  144.0831  134.9841  149.9168 H   0  0  0  0  0  0  0  0  0  0  0  0
  143.6308  136.2284  151.0441 H   0  0  0  0  0  0  0  0  0  0  0  0
  146.3959  134.9341  150.6951 H   0  0  0  0  0  0  0  0  0  0  0  0
  145.9586  136.5446  150.2806 H   0  0  0  0  0  0  0  0  0  0  0  0
  144.8007  137.7512  152.0658 H   0  0  0  0  0  0  0  0  0  0  0  0
  145.2863  137.5943  153.7248 H   0  0  0  0  0  0  0  0  0  0  0  0
  146.2275  139.6636  152.6600 H   0  0  0  0  0  0  0  0  0  0  0  0
  147.9664  139.0720  151.0426 H   0  0  0  0  0  0  0  0  0  0  0  0
  147.8927  137.7371  153.9970 H   0  0  0  0  0  0  0  0  0  0  0  0
  148.8342  138.3639  152.6621 H   0  0  0  0  0  0  0  0  0  0  0  0
  146.7202  141.0758  153.4209 H   0  0  0  0  0  0  0  0  0  0  0  0
  149.9433  142.8455  156.7123 H   0  0  0  0  0  0  0  0  0  0  0  0
  153.0966  141.5787  157.4946 H   0  0  0  0  0  0  0  0  0  0  0  0
  152.0291  141.0477  158.8033 H   0  0  0  0  0  0  0  0  0  0  0  0
  151.8324  142.6503  158.0956 H   0  0  0  0  0  0  0  0  0  0  0  0
  152.3468  137.8170  156.4579 H   0  0  0  0  0  0  0  0  0  0  0  0
  152.3072  138.6875  157.9901 H   0  0  0  0  0  0  0  0  0  0  0  0
  153.3516  139.2483  156.6754 H   0  0  0  0  0  0  0  0  0  0  0  0
  150.4503  138.1544  155.0958 H   0  0  0  0  0  0  0  0  0  0  0  0
  146.8820  135.3805  154.1496 H   0  0  0  0  0  0  0  0  0  0  0  0
  145.1599  135.4574  154.0714 H   0  0  0  0  0  0  0  0  0  0  0  0
  145.9577  133.1268  153.9812 H   0  0  0  0  0  0  0  0  0  0  0  0
  146.9866  133.4954  152.6196 H   0  0  0  0  0  0  0  0  0  0  0  0
  147.1855  136.3429  152.2569 H   0  0  0  0  0  0  0  0  0  0  0  0
  1  2  1  0  0  0  0
  1 26  1  0  0  0  0
  1 27  1  0  0  0  0
  1 28  1  0  0  0  0
  2  3  2  0  0  0  0
  2  4  1  0  0  0  0
  4 25  1  0  0  0  0
  4  5  1  0  0  0  0
  5  6  1  0  0  0  0
  5 29  1  0  0  0  0
  5 30  1  0  0  0  0
  6  7  1  0  0  0  0
  6 31  1  0  0  0  0
  6 32  1  0  0  0  0
  7  8  1  0  0  0  0
  7 33  1  0  0  0  0
  7 34  1  0  0  0  0
  8  9  1  0  0  0  0
  8 24  1  0  0  0  0
  8 54  1  0  0  0  0
  9 10  1  0  0  0  0
  9 35  1  0  0  0  0
  9 36  1  0  0  0  0
 10 11  1  0  0  0  0
 10 12  1  0  0  0  0
 10 37  1  0  0  0  0
 11 38  1  0  0  0  0
 12 13  1  0  0  0  0
 12 39  1  0  0  0  0
 12 40  1  0  0  0  0
 13 23  1  0  0  0  0
 13 14  1  0  0  0  0
 14 15  2  0  0  0  0
 14 41  1  0  0  0  0
 15 16  1  0  0  0  0
 16 23  2  0  0  0  0
 16 17  1  0  0  0  0
 17 18  2  0  0  0  0
 17 42  1  0  0  0  0
 18 19  1  0  0  0  0
 18 20  1  0  0  0  0
 19 43  1  0  0  0  0
 19 44  1  0  0  0  0
 19 45  1  0  0  0  0
 20 21  1  0  0  0  0
 20 22  2  0  0  0  0
 21 46  1  0  0  0  0
 21 47  1  0  0  0  0
 21 48  1  0  0  0  0
 22 23  1  0  0  0  0
 22 49  1  0  0  0  0
 24 25  1  0  0  0  0
 24 50  1  0  0  0  0
 24 51  1  0  0  0  0
 25 52  1  0  0  0  0
 25 53  1  0  0  0  0
M  CHG  1   8   1
M  END
> <s_m_source_file>
AV-unprocessed.smi

> <i_m_source_file_index>
1643

> <i_lp_mmshare_version>
43012

> <i_f3d_flags>
0

> <s_epik_input>
W0NIM11DKD1PKU4xW0NIMl1bQ0gyXVtDSDJdTihbQ0gyXVtDSDJdMSlbQ0gyXVtDQEhdKFtPSF0pW0NIMl1uKFtjSF1uMiljKGMyMylbY0hdYyhbQ0gzXSljKFtjSF0zKVtDSDNd

> <s_epik_cmdline>
J2VwaWtfcHl0aG9uJywgJy1waCcsICc3LjAnLCAnLXRuJywgJzgnLCAnLW1hJywgJzIwMCcsICctbWV0YWxfYmluZGluZycsICctaW1hZScsICc8aW5maWxlLm1hZT4nLCAnLW9tYWUnLCAnPG91dGZpbGUubWFlPic=

> <r_epik_Ionization_Penalty>
0.189467

> <r_epik_Ionization_Penalty_Charging>
0.101761

> <r_epik_Ionization_Penalty_Neutral>
0.0877056

> <r_epik_State_Penalty>
0.170758

> <r_epik_Charging_Adjusted_Penalty>
0.272519

> <i_epik_Tot_Q>
1

> <i_epik_Tot_abs_Q>
1

> <r_epik_Metal_State_Penalty>
0.0948013

> <b_epik_Metal_Only>
0

> <s_lp_Force_Field>
OPLS_2005

> <r_lp_Energy>
50.1894

> <b_lp_Chiralities_Consistent>
1

> <s_lp_Variant>
AV-unprocessed.smi:1643-2

> <Gold.Version>
5.8.1

> <Gold.Id.Protein>
6NUR|6NUR_protein|mol2

> <Gold.PLP.Fitness>
48.1811

> <Gold.PLP.PLP>
-41.8066

> <Gold.PLP.part.hbond>
-3.6396

> <Gold.PLP.part.metal>
0.0000

> <Gold.PLP.part.buried>
-3.2696

> <Gold.PLP.part.nonpolar>
-35.5178

> <Gold.PLP.part.repulsive>
0.9295

> <Gold.PLP.ligand.clash>
0.0000

> <Gold.PLP.ligand.torsion>
1.3675

> <Gold.PLP.Chemscore.Hbond>
3.0000

> <Gold.PLP.Chemscore.CHOScore>
0.0000

> <Gold.PLP.Chemscore.Metal>
0.0000

> <Gold.Chemscore.Hbonds>
donor molecule, donor type, donor heavy atom, donor atom, acceptor molecule, acceptor atom, score
      L1  H     8    54       P1  7948  2.00
      L1  H    11    38       P1  7957  1.00

> <Gold.PLP.Chemscore.Internal.Correction>
0.1094

> <Gold.Rescore>
     Score         DG    S(hbond)    S(metal)    S(lipo)     H(rot)  DE(clash)    DE(int)     intcor
     16.70     -18.32       1.94        0.00     100.86       2.12       0.28       1.35       ----

> <Gold.Chemscore.Fitness>
16.6952

> <Gold.Chemscore.DG>
-18.3232

> <Gold.Chemscore.ZeroCoef>
-5.4800

> <Gold.Chemscore.Hbond>
1.9353

> <Gold.Chemscore.Metal>
0.0000

> <Gold.Chemscore.Lipo>
100.8622

> <Gold.Chemscore.Internal_Hbond>
0.0000

> <Gold.Chemscore.DEClash>
0.2794

> <Gold.Chemscore.DEInternal>
1.3486

> <Gold.Chemscore.Rot>
2.1178

> <Gold.Chemscore.Internal.Correction>
   9.000000E+99

> <Gold.Chemscore.Hbonds>
donor molecule, donor type, donor heavy atom, donor atom, acceptor molecule, acceptor atom, score
      L1  H     8    54       P1  7948  1.00
      L1  H    11    38       P1  7957  0.35

> <Gold.Chemscore.Hbond.Weighted>
-6.4638

> <Gold.Chemscore.Metal.Weighted>
-0.0000

> <Gold.Chemscore.Lipo.Weighted>
-11.8009

> <Gold.Chemscore.Internal_Hbond.Weighted>
0.0000

> <Gold.Chemscore.DEClash.Weighted>
0.2794

> <Gold.Chemscore.DEInternal.Weighted>
1.3486

> <Gold.Chemscore.Rot.Weighted>
5.4215

> <Gold.Chemscore.Internal.Correction.Weighted>
   9.000000E+99

> <Gold.Protein.RotatedTorsions>
[ 6907 6896 6895 6894 ] final  145.23 input  -60.11 | X-H torsion
[ 7974 7965 7964 7962 ] final -112.47 input  175.53 | X-H torsion
[ 8008 7997 7996 7995 ] final   82.35 input   59.86 | X-H torsion
[ 10167 10162 10161 10158 ] final   26.41 input  -65.29 | X-H torsion
[ 10718 10713 10712 10709 ] final -116.34 input   66.30 | X-H torsion
[ 10763 10752 10751 10750 ] final  -83.04 input  -60.55 | X-H torsion
[ 11005 11000 10999 10996 ] final   50.32 input  -57.11 | X-H torsion

> <Gold.Protein.ActiveResidues>
 VAL166  LYS551  ARG553  GLY616  TRP617  ASP618  TYR619  PRO620  LYS621  CYS622 
 ASP623  PHE694  ASN695  SER759  ASP760  ASP761  ALA762  ILE779  LEU786  VAL792 
 PHE793  MET794  SER795  GLU796  ALA797  LYS798  CYS799  TRP800  GLU811  SER814 

> <Gold.Protein.RotatedAtoms>
  152.1835  133.4723  159.4970 H   0  0  0  0  0  0  0  0  0  0  0  0  # atno 6907 bound_to 6896
  150.6938  134.1803  159.4255 H   0  0  0  0  0  0  0  0  0  0  0  0  # atno 6908 bound_to 6896
  151.9715  135.0074  160.0603 H   0  0  0  0  0  0  0  0  0  0  0  0  # atno 6909 bound_to 6896
  145.1436  140.8791  143.3687 H   0  0  0  0  0  0  0  0  0  0  0  0  # atno 7974 bound_to 7965
  155.9094  140.3428  155.6087 H   0  0  0  0  0  0  0  0  0  0  0  0  # atno 8008 bound_to 7997
  155.7405  140.0807  157.2266 H   0  0  0  0  0  0  0  0  0  0  0  0  # atno 8009 bound_to 7997
  154.4054  140.1571  156.2598 H   0  0  0  0  0  0  0  0  0  0  0  0  # atno 8010 bound_to 7997
  140.5025  144.0291  150.6339 H   0  0  0  0  0  0  0  0  0  0  0  0  # atno 10167 bound_to 10162
  156.0957  130.6130  150.9023 H   0  0  0  0  0  0  0  0  0  0  0  0  # atno 10718 bound_to 10713
  154.5829  135.5570  153.7203 H   0  0  0  0  0  0  0  0  0  0  0  0  # atno 10763 bound_to 10752
  153.0088  135.6324  154.1957 H   0  0  0  0  0  0  0  0  0  0  0  0  # atno 10764 bound_to 10752
  154.1898  135.2883  155.3005 H   0  0  0  0  0  0  0  0  0  0  0  0  # atno 10765 bound_to 10752
  140.1027  134.5059  155.8747 H   0  0  0  0  0  0  0  0  0  0  0  0  # atno 11005 bound_to 11000
  145.0506  139.3185  143.5931 LP  0  0  0  0  0  0  0  0  0  0  0  0  # atno 17320 bound_to 7965
  146.3502  139.9912  142.8685 LP  0  0  0  0  0  0  0  0  0  0  0  0  # atno 17321 bound_to 7965
  140.3591  143.2918  152.0403 LP  0  0  0  0  0  0  0  0  0  0  0  0  # atno 17342 bound_to 10162
  139.4875  144.6316  151.7058 LP  0  0  0  0  0  0  0  0  0  0  0  0  # atno 17343 bound_to 10162
  157.6117  131.0936  150.8783 LP  0  0  0  0  0  0  0  0  0  0  0  0  # atno 17370 bound_to 10713
  156.8922  130.5217  149.5286 LP  0  0  0  0  0  0  0  0  0  0  0  0  # atno 17371 bound_to 10713
  141.2110  133.6701  156.6550 LP  0  0  0  0  0  0  0  0  0  0  0  0  # atno 17394 bound_to 11000
  140.3197  134.8018  157.4243 LP  0  0  0  0  0  0  0  0  0  0  0  0  # atno 17395 bound_to 11000

$$$$
