#       Name:                AV-unprocessed.smi:3049
#       Creating user name   scv26
#       Creation time:       Fri Mar 27 17:01:53 2020


#       File generated by GOLD software.
#

@<TRIPOS>MOLECULE
AV-unprocessed.smi:3049
    59    60     1
SMALL
NO_CHARGES


@<TRIPOS>ATOM
      1 ****        -3.6252  -4.8102   1.9252 C.3            1 S1                 0.0000
      2 ****        -2.1214  -4.9804   1.6688 C.3            1 S1                 0.0000
      3 ****        -1.5732  -4.0740   0.5429 C.3            1 S1                 0.0000
      4 ****        -2.0014  -4.5726  -0.8608 C.3            1 S1                 0.0000
      5 ****        -1.6092  -3.6292  -2.0101 C.3            1 S1                 0.0000
      6 ****        -0.0359  -3.9621   0.6734 C.2            1 S1                 0.0000
      7 ****         0.6571  -4.8228   0.1278 O.2            1 S1                 0.0000
      8 ****         0.5169  -2.9166   1.3383 N.am           1 S1                 0.0000
      9 ****         1.9450  -2.5916   1.2475 C.3            1 S1                 0.0000
     10 ****         2.0964  -1.3049   0.4143 C.3            1 S1                 0.0000
     11 ****         1.2653  -0.1443   1.0061 C.3            1 S1                 0.0000
     12 ****         1.2763   0.9863   0.0827 N.am           1 S1                 0.0000
     13 ****         1.1249   2.2724   0.4305 C.2            1 S1                 0.0000
     14 ****         0.9447   2.6398   1.5912 O.2            1 S1                 0.0000
     15 ****         1.1978   3.0724  -0.6500 N.am           1 S1                 0.0000
     16 ****         1.1140   4.4709  -0.7290 C.2            1 S1                 0.0000
     17 ****         0.9684   5.3097   0.3194 C.2            1 S1                 0.0000
     18 ****         0.9011   6.6936   0.1371 N.am           1 S1                 0.0000
     19 ****         0.9764   7.3103  -1.0641 C.2            1 S1                 0.0000
     20 ****         0.9118   8.5359  -1.1415 O.2            1 S1                 0.0000
     21 ****         1.1354   6.4179  -2.2234 C.2            1 S1                 0.0000
     22 ****         1.2238   7.0452  -3.6032 C.3            1 S1                 0.0000
     23 ****         1.1973   5.0786  -2.0442 C.2            1 S1                 0.0000
     24 ****        -0.1864  -0.5812   1.3163 C.3            1 S1                 0.0000
     25 ****        -0.2036  -1.8981   2.1111 C.3            1 S1                 0.0000
     26 ****         0.7899   7.2591   0.9662 H              1 S1                 0.0000
     27 ****        -3.9438  -5.4274   2.7654 H              1 S1                 0.0000
     28 ****        -4.2199  -5.1051   1.0611 H              1 S1                 0.0000
     29 ****        -3.8689  -3.7749   2.1649 H              1 S1                 0.0000
     30 ****        -1.6007  -4.7666   2.6038 H              1 S1                 0.0000
     31 ****        -1.9076  -6.0257   1.4416 H              1 S1                 0.0000
     32 ****        -2.0152  -3.0841   0.6415 H              1 S1                 0.0000
     33 ****        -1.5961  -5.5674  -1.0514 H              1 S1                 0.0000
     34 ****        -3.0842  -4.6898  -0.8873 H              1 S1                 0.0000
     35 ****        -1.9926  -4.0010  -2.9606 H              1 S1                 0.0000
     36 ****        -0.5277  -3.5357  -2.1095 H              1 S1                 0.0000
     37 ****        -2.0188  -2.6306  -1.8559 H              1 S1                 0.0000
     38 ****         2.3534  -2.4440   2.2483 H              1 S1                 0.0000
     39 ****         2.5378  -3.3914   0.8018 H              1 S1                 0.0000
     40 ****         3.1477  -1.0211   0.3559 H              1 S1                 0.0000
     41 ****         1.7739  -1.5064  -0.6087 H              1 S1                 0.0000
     42 ****         1.7407   0.1530   1.9429 H              1 S1                 0.0000
     43 ****         1.4175   0.7719  -0.8935 H              1 S1                 0.0000
     44 ****         1.3384   2.6095  -1.5359 H              1 S1                 0.0000
     45 ****         0.8961   5.0258   1.3571 H              1 S1                 0.0000
     46 ****         1.3488   6.2880  -4.3778 H              1 S1                 0.0000
     47 ****         2.0730   7.7271  -3.6586 H              1 S1                 0.0000
     48 ****         0.3162   7.6078  -3.8248 H              1 S1                 0.0000
     49 ****         1.3121   4.4382  -2.9068 H              1 S1                 0.0000
     50 ****        -0.7027   0.1981   1.8779 H              1 S1                 0.0000
     51 ****        -0.7431  -0.7145   0.3872 H              1 S1                 0.0000
     52 ****        -1.2191  -2.1850   2.3786 H              1 S1                 0.0000
     53 ****         0.3002  -1.7528   3.0679 H              1 S1                 0.0000
     54 ****         0.2226  -5.5659  -0.3810 LP             1 S1                 0.0000
     55 ****         1.6539  -4.7781   0.1940 LP             1 S1                 0.0000
     56 ****         0.9054   1.9656   2.3287 LP             1 S1                 0.0000
     57 ****         0.8376   3.6126   1.7969 LP             1 S1                 0.0000
     58 ****         0.8027   9.0842  -0.3123 LP             1 S1                 0.0000
     59 ****         0.9683   8.9842  -2.0335 LP             1 S1                 0.0000
@<TRIPOS>BOND
    1    1    2 1     
    2    1   27 1     
    3    1   28 1     
    4    1   29 1     
    5    2    3 1     
    6    2   30 1     
    7    2   31 1     
    8    3    4 1     
    9    3    6 1     
   10    3   32 1     
   11    4    5 1     
   12    4   33 1     
   13    4   34 1     
   14    5   35 1     
   15    5   36 1     
   16    5   37 1     
   17    6    7 2     
   18    6    8 am    
   19    8   25 1     
   20    8    9 1     
   21    9   10 1     
   22    9   38 1     
   23    9   39 1     
   24   10   11 1     
   25   10   40 1     
   26   10   41 1     
   27   11   12 1     
   28   11   24 1     
   29   11   42 1     
   30   12   13 am    
   31   12   43 1     
   32   13   14 2     
   33   13   15 am    
   34   15   16 1     
   35   15   44 1     
   36   16   23 1     
   37   16   17 2     
   38   17   18 1     
   39   17   45 1     
   40   18   26 1     
   41   18   19 am    
   42   19   20 2     
   43   19   21 1     
   44   21   22 1     
   45   21   23 2     
   46   22   46 1     
   47   22   47 1     
   48   22   48 1     
   49   23   49 1     
   50   24   25 1     
   51   24   50 1     
   52   24   51 1     
   53   25   52 1     
   54   25   53 1     
   55    7   54 1     
   56    7   55 1     
   57   14   56 1     
   58   14   57 1     
   59   20   58 1     
   60   20   59 1     
@<TRIPOS>SUBSTRUCTURE
      1 S1             1
@<TRIPOS>SET
LONE_PAIRS      STATIC     ATOMS    <user>   **** ""
6 54 55 56 57 58 59
DONOR_HYDROGENS      STATIC     ATOMS    <user>   **** ""
3 43 44 26
ATOM$BLUE        STATIC     ATOMS    COLORGROUP SYSTEM
6 54 55 56 57 58 59
ATOM$RED        STATIC     ATOMS    COLORGROUP SYSTEM
3 43 44 26
