AV-unprocessed.smi:2358|AV-procd|sdf|9405|dock1
  -GOLD-   2272013 43D 1   1.00000     0.00000
 Structure written by MMmdl.
 46 48  0  0  0  0  0  0  0  0  2 V2000
  150.6370  144.6705  158.7962 C   0  0  0  0  0  0  0  0  0  0  0  0
  151.3102  143.3214  158.9434 C   0  0  0  0  0  0  0  0  0  0  0  0
  152.0750  143.0292  160.0902 C   0  0  0  0  0  0  0  0  0  0  0  0
  152.6944  141.7716  160.2242 C   0  0  0  0  0  0  0  0  0  0  0  0
  153.5154  141.4642  161.4594 C   0  0  0  0  0  0  0  0  0  0  0  0
  152.5467  140.8071  159.2066 C   0  0  0  0  0  0  0  0  0  0  0  0
  151.7855  141.0834  158.0524 C   0  0  0  0  0  0  0  0  0  0  0  0
  151.6946  140.0816  157.1099 O   0  0  0  0  0  0  0  0  0  0  0  0
  150.9085  140.3170  155.9492 C   0  0  0  0  0  0  0  0  0  0  0  0
  150.8003  139.0090  155.1479 C   0  0  2  0  0  0  0  0  0  0  0  0
  150.3471  139.3472  153.8509 O   0  0  0  0  0  0  0  0  0  0  0  0
  149.7725  138.0367  155.7683 C   0  0  0  0  0  0  0  0  0  0  0  0
  149.9561  136.6638  155.2828 N   0  0  0  0  0  0  0  0  0  0  0  0
  148.7873  136.0590  154.8563 N   0  0  0  0  0  0  0  0  0  0  0  0
  148.7973  134.8546  154.3826 C   0  0  0  0  0  0  0  0  0  0  0  0
  147.6009  134.1796  153.9083 N   0  0  0  0  0  0  0  0  0  0  0  0
  146.9469  134.2776  152.7034 C   0  0  0  0  0  0  0  0  0  0  0  0
  145.8718  133.4293  152.7818 C   0  0  0  0  0  0  0  0  0  0  0  0
  145.9156  132.8529  154.0241 N   0  3  0  0  0  0  0  0  0  0  0  0
  146.9684  133.3090  154.7114 C   0  0  0  0  0  0  0  0  0  0  0  0
  150.0493  134.1176  154.3063 C   0  0  0  0  0  0  0  0  0  0  0  0
  151.1853  134.7177  154.7227 C   0  0  0  0  0  0  0  0  0  0  0  0
  151.1914  136.0822  155.2471 C   0  0  0  0  0  0  0  0  0  0  0  0
  152.2141  136.6575  155.6174 O   0  0  0  0  0  0  0  0  0  0  0  0
  151.1662  142.3528  157.9293 C   0  0  0  0  0  0  0  0  0  0  0  0
  150.9762  145.3700  159.5609 H   0  0  0  0  0  0  0  0  0  0  0  0
  149.5561  144.5623  158.8866 H   0  0  0  0  0  0  0  0  0  0  0  0
  150.8587  145.1019  157.8197 H   0  0  0  0  0  0  0  0  0  0  0  0
  152.1874  143.7689  160.8697 H   0  0  0  0  0  0  0  0  0  0  0  0
  153.8397  140.4232  161.4739 H   0  0  0  0  0  0  0  0  0  0  0  0
  152.9291  141.6493  162.3598 H   0  0  0  0  0  0  0  0  0  0  0  0
  154.4018  142.0983  161.4899 H   0  0  0  0  0  0  0  0  0  0  0  0
  153.0213  139.8419  159.3079 H   0  0  0  0  0  0  0  0  0  0  0  0
  149.9126  140.6269  156.2707 H   0  0  0  0  0  0  0  0  0  0  0  0
  151.3254  141.1177  155.3353 H   0  0  0  0  0  0  0  0  0  0  0  0
  151.7824  138.5375  155.0890 H   0  0  0  0  0  0  0  0  0  0  0  0
  150.5697  138.6421  153.2625 H   0  0  0  0  0  0  0  0  0  0  0  0
  149.8687  138.0364  156.8555 H   0  0  0  0  0  0  0  0  0  0  0  0
  148.7540  138.3836  155.5819 H   0  0  0  0  0  0  0  0  0  0  0  0
  147.2694  134.9171  151.8955 H   0  0  0  0  0  0  0  0  0  0  0  0
  145.0979  133.1992  152.0639 H   0  0  0  0  0  0  0  0  0  0  0  0
  147.2380  133.0236  155.7133 H   0  0  0  0  0  0  0  0  0  0  0  0
  150.0893  133.1099  153.9243 H   0  0  0  0  0  0  0  0  0  0  0  0
  152.1182  134.1763  154.6656 H   0  0  0  0  0  0  0  0  0  0  0  0
  150.5724  142.6063  157.0641 H   0  0  0  0  0  0  0  0  0  0  0  0
  145.2472  132.1782  154.3751 H   0  0  0  0  0  0  0  0  0  0  0  0
  1  2  1  0  0  0  0
  1 26  1  0  0  0  0
  1 27  1  0  0  0  0
  1 28  1  0  0  0  0
  2 25  1  0  0  0  0
  2  3  2  0  0  0  0
  3  4  1  0  0  0  0
  3 29  1  0  0  0  0
  4  5  1  0  0  0  0
  4  6  2  0  0  0  0
  5 30  1  0  0  0  0
  5 31  1  0  0  0  0
  5 32  1  0  0  0  0
  6  7  1  0  0  0  0
  6 33  1  0  0  0  0
  7  8  1  0  0  0  0
  7 25  2  0  0  0  0
  8  9  1  0  0  0  0
  9 10  1  0  0  0  0
  9 34  1  0  0  0  0
  9 35  1  0  0  0  0
 10 11  1  0  0  0  0
 10 12  1  0  0  0  0
 10 36  1  0  0  0  0
 11 37  1  0  0  0  0
 12 13  1  0  0  0  0
 12 38  1  0  0  0  0
 12 39  1  0  0  0  0
 13 23  1  0  0  0  0
 13 14  1  0  0  0  0
 14 15  2  0  0  0  0
 15 16  1  0  0  0  0
 15 21  1  0  0  0  0
 16 20  1  0  0  0  0
 16 17  1  0  0  0  0
 17 18  2  0  0  0  0
 17 40  1  0  0  0  0
 18 19  1  0  0  0  0
 18 41  1  0  0  0  0
 19 20  2  0  0  0  0
 19 46  1  0  0  0  0
 20 42  1  0  0  0  0
 21 22  2  0  0  0  0
 21 43  1  0  0  0  0
 22 23  1  0  0  0  0
 22 44  1  0  0  0  0
 23 24  2  0  0  0  0
 25 45  1  0  0  0  0
M  CHG  1  19   1
M  END
> <s_m_source_file>
AV-unprocessed.smi

> <i_m_source_file_index>
2358

> <i_lp_mmshare_version>
43012

> <i_f3d_flags>
0

> <s_epik_input>
W0NIM11jMVtjSF1jKFtDSDNdKVtjSF1jKFtjSF0xKU9bQ0gyXVtDQEhdKFtPSF0pW0NIMl1uMm5jKFtjSF1bY0hdYzI9TyktbjNbY0hdW2NIXW5bY0hdMw==

> <s_epik_cmdline>
J2VwaWtfcHl0aG9uJywgJy1waCcsICc3LjAnLCAnLXRuJywgJzgnLCAnLW1hJywgJzIwMCcsICctbWV0YWxfYmluZGluZycsICctaW1hZScsICc8aW5maWxlLm1hZT4nLCAnLW9tYWUnLCAnPG91dGZpbGUubWFlPic=

> <r_lp_tautomer_probability>
1

> <r_epik_Ionization_Penalty>
1.66053

> <r_epik_Ionization_Penalty_Charging>
2.42216e-09

> <r_epik_Ionization_Penalty_Neutral>
1.66053

> <r_epik_State_Penalty>
1.76336

> <r_epik_Charging_Adjusted_Penalty>
1.76336

> <i_epik_Tot_Q>
1

> <i_epik_Tot_abs_Q>
1

> <r_epik_Metal_State_Penalty>
1.79856

> <b_epik_Metal_Only>
0

> <s_lp_Force_Field>
OPLS_2005

> <r_lp_Energy>
37.8442

> <b_lp_Chiralities_Consistent>
1

> <s_lp_Variant>
AV-unprocessed.smi:2358-3

> <Gold.Version>
5.8.1

> <Gold.Id.Protein>
6NUR|6NUR_protein|mol2

> <Gold.PLP.Fitness>
54.7555

> <Gold.PLP.PLP>
-43.2286

> <Gold.PLP.part.hbond>
-4.0000

> <Gold.PLP.part.metal>
0.0000

> <Gold.PLP.part.buried>
-4.2538

> <Gold.PLP.part.nonpolar>
-34.3755

> <Gold.PLP.part.repulsive>
0.1435

> <Gold.PLP.ligand.clash>
0.0000

> <Gold.PLP.ligand.torsion>
1.9182

> <Gold.PLP.Chemscore.Hbond>
4.0000

> <Gold.PLP.Chemscore.CHOScore>
1.0000

> <Gold.PLP.Chemscore.Metal>
0.0000

> <Gold.Chemscore.Hbonds>
donor molecule, donor type, donor heavy atom, donor atom, acceptor molecule, acceptor atom, score
      P1  H  7989  7998       L1    11  0.95
      P1  H 10752 10763       L1    24  0.50
      L1  C    17    40       P1  7948  0.97

> <Gold.PLP.Chemscore.Internal.Correction>
0.3633

> <Gold.Rescore>
     Score         DG    S(hbond)    S(metal)    S(lipo)     H(rot)  DE(clash)    DE(int)     intcor
     16.23     -19.31       2.27        0.00     111.62       2.65       0.02       3.06       ----

> <Gold.Chemscore.Fitness>
16.2348

> <Gold.Chemscore.DG>
-19.3147

> <Gold.Chemscore.ZeroCoef>
-5.4800

> <Gold.Chemscore.Hbond>
2.2662

> <Gold.Chemscore.Metal>
0.0000

> <Gold.Chemscore.Lipo>
111.6158

> <Gold.Chemscore.Internal_Hbond>
0.0000

> <Gold.Chemscore.DEClash>
0.0208

> <Gold.Chemscore.DEInternal>
3.0591

> <Gold.Chemscore.Rot>
2.6537

> <Gold.Chemscore.Internal.Correction>
   9.000000E+99

> <Gold.Chemscore.Hbonds>
donor molecule, donor type, donor heavy atom, donor atom, acceptor molecule, acceptor atom, score
      P1  H  7989  7998       L1    11  0.12
      P1  H 10752 10763       L1    24  0.02

> <Gold.Chemscore.Hbond.Weighted>
-7.5692

> <Gold.Chemscore.Metal.Weighted>
-0.0000

> <Gold.Chemscore.Lipo.Weighted>
-13.0590

> <Gold.Chemscore.Internal_Hbond.Weighted>
0.0000

> <Gold.Chemscore.DEClash.Weighted>
0.0208

> <Gold.Chemscore.DEInternal.Weighted>
3.0591

> <Gold.Chemscore.Rot.Weighted>
6.7935

> <Gold.Chemscore.Internal.Correction.Weighted>
   9.000000E+99

> <Gold.Protein.RotatedTorsions>
[ 6907 6896 6895 6894 ] final  152.98 input  -60.11 | X-H torsion
[ 7974 7965 7964 7962 ] final   68.82 input  175.53 | X-H torsion
[ 8008 7997 7996 7995 ] final    4.44 input   59.86 | X-H torsion
[ 10167 10162 10161 10158 ] final   28.15 input  -65.29 | X-H torsion
[ 10718 10713 10712 10709 ] final   35.65 input   66.30 | X-H torsion
[ 10763 10752 10751 10750 ] final   84.26 input  -60.55 | X-H torsion
[ 11005 11000 10999 10996 ] final  138.83 input  -57.11 | X-H torsion

> <Gold.Protein.ActiveResidues>
 VAL166  LYS551  ARG553  GLY616  TRP617  ASP618  TYR619  PRO620  LYS621  CYS622 
 ASP623  PHE694  ASN695  SER759  ASP760  ASP761  ALA762  ILE779  LEU786  VAL792 
 PHE793  MET794  SER795  GLU796  ALA797  LYS798  CYS799  TRP800  GLU811  SER814 

> <Gold.Protein.RotatedAtoms>
  152.0792  133.4144  159.4493 H   0  0  0  0  0  0  0  0  0  0  0  0  # atno 6907 bound_to 6896
  150.6862  134.3002  159.4712 H   0  0  0  0  0  0  0  0  0  0  0  0  # atno 6908 bound_to 6896
  152.0842  134.9450  160.0623 H   0  0  0  0  0  0  0  0  0  0  0  0  # atno 6909 bound_to 6896
  145.7979  139.2967  143.1172 H   0  0  0  0  0  0  0  0  0  0  0  0  # atno 7974 bound_to 7965
  154.7159  140.2702  155.6586 H   0  0  0  0  0  0  0  0  0  0  0  0  # atno 8008 bound_to 7997
  156.2809  140.2744  156.1740 H   0  0  0  0  0  0  0  0  0  0  0  0  # atno 8009 bound_to 7997
  155.0572  140.0371  157.2554 H   0  0  0  0  0  0  0  0  0  0  0  0  # atno 8010 bound_to 7997
  140.4878  144.0515  150.6286 H   0  0  0  0  0  0  0  0  0  0  0  0  # atno 10167 bound_to 10162
  157.3253  130.7469  149.6811 H   0  0  0  0  0  0  0  0  0  0  0  0  # atno 10718 bound_to 10713
  153.1366  135.4661  154.9431 H   0  0  0  0  0  0  0  0  0  0  0  0  # atno 10763 bound_to 10752
  154.7711  135.3159  154.8190 H   0  0  0  0  0  0  0  0  0  0  0  0  # atno 10764 bound_to 10752
  153.8722  135.6902  153.4827 H   0  0  0  0  0  0  0  0  0  0  0  0  # atno 10765 bound_to 10752
  140.0211  134.9396  157.0476 H   0  0  0  0  0  0  0  0  0  0  0  0  # atno 11005 bound_to 11000
  145.9908  140.8604  143.0067 LP  0  0  0  0  0  0  0  0  0  0  0  0  # atno 17320 bound_to 7965
  144.6772  140.2213  143.7366 LP  0  0  0  0  0  0  0  0  0  0  0  0  # atno 17321 bound_to 7965
  140.3776  143.2820  152.0207 LP  0  0  0  0  0  0  0  0  0  0  0  0  # atno 17342 bound_to 10162
  139.4845  144.6181  151.7308 LP  0  0  0  0  0  0  0  0  0  0  0  0  # atno 17343 bound_to 10162
  155.9690  130.4211  150.4454 LP  0  0  0  0  0  0  0  0  0  0  0  0  # atno 17370 bound_to 10713
  157.2477  131.0539  151.2398 LP  0  0  0  0  0  0  0  0  0  0  0  0  # atno 17371 bound_to 10713
  140.4385  134.1705  155.7172 LP  0  0  0  0  0  0  0  0  0  0  0  0  # atno 17394 bound_to 11000
  141.1774  133.8485  157.1374 LP  0  0  0  0  0  0  0  0  0  0  0  0  # atno 17395 bound_to 11000

$$$$
