AV-unprocessed.smi:450|AV-procd|sdf|2608|dock6
  -GOLD-   2262023 03D 1   1.00000     0.00000
 Structure written by MMmdl.
 32 32  0  0  0  0  0  0  0  0  1 V2000
  151.0011  144.2747  160.8672 C   0  0  0  0  0  0  0  0  0  0  0  0
  151.2930  145.4141  159.8792 C   0  0  0  0  0  0  0  0  0  0  0  0
  151.7676  144.9300  158.4959 C   0  0  1  0  0  0  0  0  0  0  0  0
  153.0207  144.0465  158.6042 C   0  0  0  0  0  0  0  0  0  0  0  0
  150.6930  144.2026  157.8266 N   0  0  0  0  0  0  0  0  0  0  0  0
  150.3908  142.9083  158.0115 C   0  0  0  0  0  0  0  0  0  0  0  0
  150.9660  142.1834  158.8225 O   0  0  0  0  0  0  0  0  0  0  0  0
  149.2744  142.3398  157.1347 C   0  0  0  0  0  0  0  0  0  0  0  0
  149.8193  141.4599  156.1035 N   0  0  0  0  0  0  0  0  0  0  0  0
  149.9311  141.6919  154.7794 C   0  0  0  0  0  0  0  0  0  0  0  0
  149.4887  142.8814  154.2193 N   0  0  0  0  0  0  0  0  0  0  0  0
  150.4916  140.7002  154.0929 N   0  0  0  0  0  0  0  0  0  0  0  0
  150.7793  139.7200  155.0405 C   0  0  0  0  0  0  0  0  0  0  0  0
  151.3966  138.4870  154.6855 C   0  0  0  0  0  0  0  0  0  0  0  0
  151.8984  137.4844  154.3999 N   0  0  0  0  0  0  0  0  0  0  0  0
  150.3665  140.1893  156.2690 C   0  0  0  0  0  0  0  0  0  0  0  0
  150.4762  139.5134  157.5029 C   0  0  0  0  0  0  0  0  0  0  0  0
  150.5654  138.9593  158.5143 N   0  0  0  0  0  0  0  0  0  0  0  0
  150.6233  144.6693  161.8106 H   0  0  0  0  0  0  0  0  0  0  0  0
  151.8970  143.6945  161.0903 H   0  0  0  0  0  0  0  0  0  0  0  0
  150.2501  143.5920  160.4686 H   0  0  0  0  0  0  0  0  0  0  0  0
  150.3871  146.0092  159.7580 H   0  0  0  0  0  0  0  0  0  0  0  0
  152.0379  146.0827  160.3125 H   0  0  0  0  0  0  0  0  0  0  0  0
  152.0208  145.8111  157.9032 H   0  0  0  0  0  0  0  0  0  0  0  0
  153.8323  144.5781  159.1015 H   0  0  0  0  0  0  0  0  0  0  0  0
  153.3820  143.7482  157.6196 H   0  0  0  0  0  0  0  0  0  0  0  0
  152.8191  143.1388  159.1739 H   0  0  0  0  0  0  0  0  0  0  0  0
  150.1666  144.7148  157.1340 H   0  0  0  0  0  0  0  0  0  0  0  0
  148.5638  141.7827  157.7464 H   0  0  0  0  0  0  0  0  0  0  0  0
  148.7113  143.1509  156.6719 H   0  0  0  0  0  0  0  0  0  0  0  0
  149.0715  143.6043  154.7884 H   0  0  0  0  0  0  0  0  0  0  0  0
  149.6159  143.0866  153.2390 H   0  0  0  0  0  0  0  0  0  0  0  0
  1  2  1  0  0  0  0
  1 19  1  0  0  0  0
  1 20  1  0  0  0  0
  1 21  1  0  0  0  0
  2  3  1  0  0  0  0
  2 22  1  0  0  0  0
  2 23  1  0  0  0  0
  3  4  1  0  0  0  0
  3  5  1  0  0  0  0
  3 24  1  0  0  0  0
  4 25  1  0  0  0  0
  4 26  1  0  0  0  0
  4 27  1  0  0  0  0
  5  6  1  0  0  0  0
  5 28  1  0  0  0  0
  6  7  2  0  0  0  0
  6  8  1  0  0  0  0
  8  9  1  0  0  0  0
  8 29  1  0  0  0  0
  8 30  1  0  0  0  0
  9 16  1  0  0  0  0
  9 10  1  0  0  0  0
 10 11  1  0  0  0  0
 10 12  2  0  0  0  0
 11 31  1  0  0  0  0
 11 32  1  0  0  0  0
 12 13  1  0  0  0  0
 13 14  1  0  0  0  0
 13 16  2  0  0  0  0
 14 15  3  0  0  0  0
 16 17  1  0  0  0  0
 17 18  3  0  0  0  0
M  END
> <s_m_source_file>
AV-unprocessed.smi

> <i_m_source_file_index>
450

> <i_lp_mmshare_version>
43012

> <i_f3d_flags>
0

> <s_epik_input>
W0NIM11bQ0gyXVtDQEhdKFtDSDNdKVtOSF1DKD1PKVtDSDJdbjFjKFtOSDJdKW5jKEMjTiljMUMjTg==

> <s_epik_cmdline>
J2VwaWtfcHl0aG9uJywgJy1waCcsICc3LjAnLCAnLXRuJywgJzgnLCAnLW1hJywgJzIwMCcsICctbWV0YWxfYmluZGluZycsICctaW1hZScsICc8aW5maWxlLm1hZT4nLCAnLW9tYWUnLCAnPG91dGZpbGUubWFlPic=

> <r_epik_Ionization_Penalty>
0.000482749

> <r_epik_Ionization_Penalty_Charging>
7.71074e-10

> <r_epik_Ionization_Penalty_Neutral>
0.000482748

> <r_epik_State_Penalty>
0.000433536

> <r_epik_Charging_Adjusted_Penalty>
0.000433537

> <i_epik_Tot_Q>
0

> <i_epik_Tot_abs_Q>
0

> <r_epik_Metal_State_Penalty>
-0

> <b_epik_Metal_Only>
0

> <s_lp_Force_Field>
OPLS_2005

> <r_lp_Energy>
5.27204

> <b_lp_Chiralities_Consistent>
1

> <s_lp_Variant>
AV-unprocessed.smi:450-2

> <Gold.Version>
5.8.1

> <Gold.Id.Protein>
6NUR|6NUR_protein|mol2

> <Gold.PLP.Fitness>
47.0446

> <Gold.PLP.PLP>
-38.7164

> <Gold.PLP.part.hbond>
-4.0000

> <Gold.PLP.part.metal>
0.0000

> <Gold.PLP.part.buried>
-7.4677

> <Gold.PLP.part.nonpolar>
-28.4773

> <Gold.PLP.part.repulsive>
0.9144

> <Gold.PLP.ligand.clash>
0.0000

> <Gold.PLP.ligand.torsion>
0.5941

> <Gold.PLP.Chemscore.Hbond>
3.1680

> <Gold.PLP.Chemscore.CHOScore>
0.0000

> <Gold.PLP.Chemscore.Metal>
0.0000

> <Gold.Chemscore.Hbonds>
donor molecule, donor type, donor heavy atom, donor atom, acceptor molecule, acceptor atom, score
      L1  H     5    28       P1  8028  1.00
      L1  H    11    31       P1  8028  0.68
      P1  H  7989  7998       L1    12  0.31
      P1  H 10752 10765       L1    15  0.66

> <Gold.PLP.Chemscore.Internal.Correction>
0.0124

> <Gold.Rescore>
     Score         DG    S(hbond)    S(metal)    S(lipo)     H(rot)  DE(clash)    DE(int)     intcor
     13.21     -15.99       2.62        0.00      63.48       2.21       0.49       2.30       ----

> <Gold.Chemscore.Fitness>
13.2072

> <Gold.Chemscore.DG>
-15.9930

> <Gold.Chemscore.ZeroCoef>
-5.4800

> <Gold.Chemscore.Hbond>
2.6194

> <Gold.Chemscore.Metal>
0.0000

> <Gold.Chemscore.Lipo>
63.4794

> <Gold.Chemscore.Internal_Hbond>
0.0000

> <Gold.Chemscore.DEClash>
0.4868

> <Gold.Chemscore.DEInternal>
2.2990

> <Gold.Chemscore.Rot>
2.2121

> <Gold.Chemscore.Internal.Correction>
   9.000000E+99

> <Gold.Chemscore.Hbonds>
donor molecule, donor type, donor heavy atom, donor atom, acceptor molecule, acceptor atom, score
      L1  H     5    28       P1  8028  0.33
      L1  H    11    31       P1  8028  0.67
      P1  H  7989  7998       L1    12  0.15
      P1  H 10752 10765       L1    15  0.65

> <Gold.Chemscore.Hbond.Weighted>
-8.7487

> <Gold.Chemscore.Metal.Weighted>
-0.0000

> <Gold.Chemscore.Lipo.Weighted>
-7.4271

> <Gold.Chemscore.Internal_Hbond.Weighted>
0.0000

> <Gold.Chemscore.DEClash.Weighted>
0.4868

> <Gold.Chemscore.DEInternal.Weighted>
2.2990

> <Gold.Chemscore.Rot.Weighted>
5.6629

> <Gold.Chemscore.Internal.Correction.Weighted>
   9.000000E+99

> <Gold.Protein.RotatedTorsions>
[ 6907 6896 6895 6894 ] final -121.74 input  -60.11 | X-H torsion
[ 7974 7965 7964 7962 ] final   75.74 input  175.53 | X-H torsion
[ 8008 7997 7996 7995 ] final   55.82 input   59.86 | X-H torsion
[ 10167 10162 10161 10158 ] final -173.18 input  -65.29 | X-H torsion
[ 10718 10713 10712 10709 ] final -162.59 input   66.30 | X-H torsion
[ 10763 10752 10751 10750 ] final  146.74 input  -60.55 | X-H torsion
[ 11005 11000 10999 10996 ] final -165.47 input  -57.11 | X-H torsion

> <Gold.Protein.ActiveResidues>
 VAL166  LYS551  ARG553  GLY616  TRP617  ASP618  TYR619  PRO620  LYS621  CYS622 
 ASP623  PHE694  ASN695  SER759  ASP760  ASP761  ALA762  ILE779  LEU786  VAL792 
 PHE793  MET794  SER795  GLU796  ALA797  LYS798  CYS799  TRP800  GLU811  SER814 

> <Gold.Protein.RotatedAtoms>
  150.8511  133.7786  159.3025 H   0  0  0  0  0  0  0  0  0  0  0  0  # atno 6907 bound_to 6896
  151.5458  135.1066  159.9947 H   0  0  0  0  0  0  0  0  0  0  0  0  # atno 6908 bound_to 6896
  152.4553  133.7667  159.6832 H   0  0  0  0  0  0  0  0  0  0  0  0  # atno 6909 bound_to 6896
  145.7117  139.2617  143.1647 H   0  0  0  0  0  0  0  0  0  0  0  0  # atno 7974 bound_to 7965
  155.5074  140.3476  155.4382 H   0  0  0  0  0  0  0  0  0  0  0  0  # atno 8008 bound_to 7997
  156.0873  140.1401  156.9665 H   0  0  0  0  0  0  0  0  0  0  0  0  # atno 8009 bound_to 7997
  154.4614  140.0933  156.6880 H   0  0  0  0  0  0  0  0  0  0  0  0  # atno 8010 bound_to 7997
  139.5703  144.1658  152.1374 H   0  0  0  0  0  0  0  0  0  0  0  0  # atno 10167 bound_to 10162
  156.6126  130.8857  151.2940 H   0  0  0  0  0  0  0  0  0  0  0  0  # atno 10718 bound_to 10713
  154.0268  135.2901  155.3374 H   0  0  0  0  0  0  0  0  0  0  0  0  # atno 10763 bound_to 10752
  154.7013  135.5187  153.8533 H   0  0  0  0  0  0  0  0  0  0  0  0  # atno 10764 bound_to 10752
  153.0657  135.6630  154.0484 H   0  0  0  0  0  0  0  0  0  0  0  0  # atno 10765 bound_to 10752
  140.5753  134.5196  157.5169 H   0  0  0  0  0  0  0  0  0  0  0  0  # atno 11005 bound_to 11000
  146.0706  140.7873  142.9690 LP  0  0  0  0  0  0  0  0  0  0  0  0  # atno 17320 bound_to 7965
  144.6940  140.3336  143.7211 LP  0  0  0  0  0  0  0  0  0  0  0  0  # atno 17321 bound_to 7965
  140.1189  144.5391  150.6876 LP  0  0  0  0  0  0  0  0  0  0  0  0  # atno 17342 bound_to 10162
  140.6987  143.2420  151.4926 LP  0  0  0  0  0  0  0  0  0  0  0  0  # atno 17343 bound_to 10162
  157.7250  130.9610  150.1597 LP  0  0  0  0  0  0  0  0  0  0  0  0  # atno 17370 bound_to 10713
  156.2377  130.3688  149.8372 LP  0  0  0  0  0  0  0  0  0  0  0  0  # atno 17371 bound_to 10713
  139.9342  134.7906  156.0847 LP  0  0  0  0  0  0  0  0  0  0  0  0  # atno 17394 bound_to 11000
  141.1030  133.6670  156.2798 LP  0  0  0  0  0  0  0  0  0  0  0  0  # atno 17395 bound_to 11000

$$$$
