AV-unprocessed.smi:1410|AV-procd|sdf|5732|dock5
  -GOLD-   22720 5363D 1   1.00000     0.00000
 Structure written by MMmdl.
 40 41  0  0  0  0  0  0  0  0  2 V2000
  152.7000  125.9257  153.7894 N   0  0  0  0  0  0  0  0  0  0  0  0
  152.0919  124.7846  154.1228 C   0  0  0  0  0  0  0  0  0  0  0  0
  152.6444  123.9188  154.7984 O   0  0  0  0  0  0  0  0  0  0  0  0
  150.6521  124.5882  153.6328 C   0  0  0  0  0  0  0  0  0  0  0  0
  150.0695  125.7661  152.9499 N   0  0  0  0  0  0  0  0  0  0  0  0
  149.6516  126.7479  153.9560 C   0  0  0  0  0  0  0  0  0  0  0  0
  149.1653  128.0421  153.2814 C   0  0  0  0  0  0  0  0  0  0  0  0
  147.9976  127.7615  152.3257 C   0  0  0  0  0  0  0  0  0  0  0  0
  147.6300  128.9841  151.6177 N   0  0  0  0  0  0  0  0  0  0  0  0
  146.4071  129.5336  151.6099 C   0  0  0  0  0  0  0  0  0  0  0  0
  145.4424  129.0515  152.2030 O   0  0  0  0  0  0  0  0  0  0  0  0
  146.3802  130.6501  150.8614 N   0  0  0  0  0  0  0  0  0  0  0  0
  145.2884  131.5265  150.6141 C   0  0  0  0  0  0  0  0  0  0  0  0
  145.1770  132.0816  149.3197 C   0  0  0  0  0  0  0  0  0  0  0  0
  144.1202  132.9690  149.0313 C   0  0  0  0  0  0  0  0  0  0  0  0
  143.2292  133.2892  149.9941 N   0  3  0  0  0  0  0  0  0  0  0  0
  143.3020  132.7957  151.2489 C   0  0  0  0  0  0  0  0  0  0  0  0
  144.3370  131.9038  151.5965 C   0  0  0  0  0  0  0  0  0  0  0  0
  148.4153  126.6579  151.3400 C   0  0  0  0  0  0  0  0  0  0  0  0
  148.9363  125.4140  152.0814 C   0  0  0  0  0  0  0  0  0  0  0  0
  153.6476  126.0947  154.0945 H   0  0  0  0  0  0  0  0  0  0  0  0
  152.2122  126.6157  153.2369 H   0  0  0  0  0  0  0  0  0  0  0  0
  150.6010  123.7189  152.9740 H   0  0  0  0  0  0  0  0  0  0  0  0
  150.0501  124.3456  154.5098 H   0  0  0  0  0  0  0  0  0  0  0  0
  148.8650  126.3330  154.5893 H   0  0  0  0  0  0  0  0  0  0  0  0
  150.4912  126.9877  154.6101 H   0  0  0  0  0  0  0  0  0  0  0  0
  148.8608  128.7616  154.0424 H   0  0  0  0  0  0  0  0  0  0  0  0
  149.9936  128.4990  152.7369 H   0  0  0  0  0  0  0  0  0  0  0  0
  147.1466  127.4138  152.9147 H   0  0  0  0  0  0  0  0  0  0  0  0
  148.3636  129.4427  151.0972 H   0  0  0  0  0  0  0  0  0  0  0  0
  147.2331  130.8710  150.3685 H   0  0  0  0  0  0  0  0  0  0  0  0
  145.8908  131.8273  148.5494 H   0  0  0  0  0  0  0  0  0  0  0  0
  143.9636  133.4303  148.0671 H   0  0  0  0  0  0  0  0  0  0  0  0
  142.5387  133.1313  151.9357 H   0  0  0  0  0  0  0  0  0  0  0  0
  144.3862  131.5386  152.6109 H   0  0  0  0  0  0  0  0  0  0  0  0
  147.5717  126.3787  150.7078 H   0  0  0  0  0  0  0  0  0  0  0  0
  149.1923  127.0303  150.6703 H   0  0  0  0  0  0  0  0  0  0  0  0
  149.2309  124.6773  151.3341 H   0  0  0  0  0  0  0  0  0  0  0  0
  148.1364  124.9622  152.6710 H   0  0  0  0  0  0  0  0  0  0  0  0
  142.4723  133.9342  149.7653 H   0  0  0  0  0  0  0  0  0  0  0  0
  1  2  1  0  0  0  0
  1 21  1  0  0  0  0
  1 22  1  0  0  0  0
  2  3  2  0  0  0  0
  2  4  1  0  0  0  0
  4  5  1  0  0  0  0
  4 23  1  0  0  0  0
  4 24  1  0  0  0  0
  5 20  1  0  0  0  0
  5  6  1  0  0  0  0
  6  7  1  0  0  0  0
  6 25  1  0  0  0  0
  6 26  1  0  0  0  0
  7  8  1  0  0  0  0
  7 27  1  0  0  0  0
  7 28  1  0  0  0  0
  8  9  1  0  0  0  0
  8 19  1  0  0  0  0
  8 29  1  0  0  0  0
  9 10  1  0  0  0  0
  9 30  1  0  0  0  0
 10 11  2  0  0  0  0
 10 12  1  0  0  0  0
 12 13  1  0  0  0  0
 12 31  1  0  0  0  0
 13 18  1  0  0  0  0
 13 14  2  0  0  0  0
 14 15  1  0  0  0  0
 14 32  1  0  0  0  0
 15 16  2  0  0  0  0
 15 33  1  0  0  0  0
 16 17  1  0  0  0  0
 16 40  1  0  0  0  0
 17 18  2  0  0  0  0
 17 34  1  0  0  0  0
 18 35  1  0  0  0  0
 19 20  1  0  0  0  0
 19 36  1  0  0  0  0
 19 37  1  0  0  0  0
 20 38  1  0  0  0  0
 20 39  1  0  0  0  0
M  CHG  1  16   1
M  END
> <s_m_source_file>
AV-unprocessed.smi

> <i_m_source_file_index>
1410

> <i_lp_mmshare_version>
43012

> <i_f3d_flags>
0

> <s_epik_input>
W05IMl1DKD1PKVtDSDJdTjFbQ0gyXVtDSDJdW0NIXShbQ0gyXVtDSDJdMSlbTkhdQyg9TylbTkhdYzJbY0hdW2NIXW5bY0hdW2NIXTI=

> <s_epik_cmdline>
J2VwaWtfcHl0aG9uJywgJy1waCcsICc3LjAnLCAnLXRuJywgJzgnLCAnLW1hJywgJzIwMCcsICctbWV0YWxfYmluZGluZycsICctaW1hZScsICc8aW5maWxlLm1hZT4nLCAnLW9tYWUnLCAnPG91dGZpbGUubWFlPic=

> <r_epik_Ionization_Penalty>
1.15133

> <r_epik_Ionization_Penalty_Charging>
0.995513

> <r_epik_Ionization_Penalty_Neutral>
0.155816

> <r_epik_State_Penalty>
1.22158

> <r_epik_Charging_Adjusted_Penalty>
2.2171

> <i_epik_Tot_Q>
1

> <i_epik_Tot_abs_Q>
1

> <r_epik_Metal_State_Penalty>
1.3359

> <b_epik_Metal_Only>
0

> <s_lp_Force_Field>
OPLS_2005

> <r_lp_Energy>
21.9587

> <b_lp_Chiralities_Consistent>
1

> <s_lp_Variant>
AV-unprocessed.smi:1410-4

> <Gold.Version>
5.8.1

> <Gold.Id.Protein>
6NUR|6NUR_protein|mol2

> <Gold.PLP.Fitness>
47.3149

> <Gold.PLP.PLP>
-33.5283

> <Gold.PLP.part.hbond>
-4.0000

> <Gold.PLP.part.metal>
0.0000

> <Gold.PLP.part.buried>
-4.5836

> <Gold.PLP.part.nonpolar>
-26.1068

> <Gold.PLP.part.repulsive>
1.0595

> <Gold.PLP.ligand.clash>
0.0000

> <Gold.PLP.ligand.torsion>
0.5228

> <Gold.PLP.Chemscore.Hbond>
4.9420

> <Gold.PLP.Chemscore.CHOScore>
0.0000

> <Gold.PLP.Chemscore.Metal>
0.0000

> <Gold.Chemscore.Hbonds>
donor molecule, donor type, donor heavy atom, donor atom, acceptor molecule, acceptor atom, score
      L1  H     1    22       P1 10737  1.00
      L1  H     9    30       P1 10747  0.95
      L1  H    12    31       P1 10747  1.00
      L1  H    16    40       P1 10186  2.00

> <Gold.PLP.Chemscore.Internal.Correction>
0.0062

> <Gold.Rescore>
     Score         DG    S(hbond)    S(metal)    S(lipo)     H(rot)  DE(clash)    DE(int)     intcor
     19.50     -20.15       3.13        0.00      78.94       1.96       0.01       0.64       ----

> <Gold.Chemscore.Fitness>
19.4975

> <Gold.Chemscore.DG>
-20.1509

> <Gold.Chemscore.ZeroCoef>
-5.4800

> <Gold.Chemscore.Hbond>
3.1333

> <Gold.Chemscore.Metal>
0.0000

> <Gold.Chemscore.Lipo>
78.9396

> <Gold.Chemscore.Internal_Hbond>
0.0000

> <Gold.Chemscore.DEClash>
0.0108

> <Gold.Chemscore.DEInternal>
0.6427

> <Gold.Chemscore.Rot>
1.9650

> <Gold.Chemscore.Internal.Correction>
   9.000000E+99

> <Gold.Chemscore.Hbonds>
donor molecule, donor type, donor heavy atom, donor atom, acceptor molecule, acceptor atom, score
      L1  H     1    22       P1 10737  0.94
      L1  H     9    30       P1 10747  0.21
      L1  H    12    31       P1 10747  0.95
      L1  H    16    40       P1 10186  0.95

> <Gold.Chemscore.Hbond.Weighted>
-10.4653

> <Gold.Chemscore.Metal.Weighted>
-0.0000

> <Gold.Chemscore.Lipo.Weighted>
-9.2359

> <Gold.Chemscore.Internal_Hbond.Weighted>
0.0000

> <Gold.Chemscore.DEClash.Weighted>
0.0108

> <Gold.Chemscore.DEInternal.Weighted>
0.6427

> <Gold.Chemscore.Rot.Weighted>
5.0303

> <Gold.Chemscore.Internal.Correction.Weighted>
   9.000000E+99

> <Gold.Protein.RotatedTorsions>
[ 6907 6896 6895 6894 ] final   18.71 input  -60.11 | X-H torsion
[ 7974 7965 7964 7962 ] final   35.16 input  175.53 | X-H torsion
[ 8008 7997 7996 7995 ] final  -97.84 input   59.86 | X-H torsion
[ 10167 10162 10161 10158 ] final  -76.57 input  -65.29 | X-H torsion
[ 10718 10713 10712 10709 ] final  101.87 input   66.30 | X-H torsion
[ 10763 10752 10751 10750 ] final   -0.46 input  -60.55 | X-H torsion
[ 11005 11000 10999 10996 ] final  -51.95 input  -57.11 | X-H torsion

> <Gold.Protein.ActiveResidues>
 VAL166  LYS551  ARG553  GLY616  TRP617  ASP618  TYR619  PRO620  LYS621  CYS622 
 ASP623  PHE694  ASN695  SER759  ASP760  ASP761  ALA762  ILE779  LEU786  VAL792 
 PHE793  MET794  SER795  GLU796  ALA797  LYS798  CYS799  TRP800  GLU811  SER814 

> <Gold.Protein.RotatedAtoms>
  151.8695  135.0494  160.0477 H   0  0  0  0  0  0  0  0  0  0  0  0  # atno 6907 bound_to 6896
  152.2599  133.5284  159.5384 H   0  0  0  0  0  0  0  0  0  0  0  0  # atno 6908 bound_to 6896
  150.7113  134.0760  159.3923 H   0  0  0  0  0  0  0  0  0  0  0  0  # atno 6909 bound_to 6896
  146.1303  139.6178  142.9231 H   0  0  0  0  0  0  0  0  0  0  0  0  # atno 7974 bound_to 7965
  154.7931  140.0460  157.1216 H   0  0  0  0  0  0  0  0  0  0  0  0  # atno 8008 bound_to 7997
  154.9567  140.3072  155.5030 H   0  0  0  0  0  0  0  0  0  0  0  0  # atno 8009 bound_to 7997
  156.2952  140.2278  156.4650 H   0  0  0  0  0  0  0  0  0  0  0  0  # atno 8010 bound_to 7997
  140.4846  143.2394  151.8005 H   0  0  0  0  0  0  0  0  0  0  0  0  # atno 10167 bound_to 10162
  157.6818  131.0738  150.5318 H   0  0  0  0  0  0  0  0  0  0  0  0  # atno 10718 bound_to 10713
  153.3321  135.6975  153.6938 H   0  0  0  0  0  0  0  0  0  0  0  0  # atno 10763 bound_to 10752
  153.5737  135.3511  155.2848 H   0  0  0  0  0  0  0  0  0  0  0  0  # atno 10764 bound_to 10752
  154.8620  135.4278  154.2513 H   0  0  0  0  0  0  0  0  0  0  0  0  # atno 10765 bound_to 10752
  141.0898  133.6635  156.3952 H   0  0  0  0  0  0  0  0  0  0  0  0  # atno 11005 bound_to 11000
  145.5276  141.0429  143.2401 LP  0  0  0  0  0  0  0  0  0  0  0  0  # atno 17320 bound_to 7965
  144.7683  139.6793  143.7205 LP  0  0  0  0  0  0  0  0  0  0  0  0  # atno 17321 bound_to 7965
  139.4839  144.4729  151.9403 LP  0  0  0  0  0  0  0  0  0  0  0  0  # atno 17342 bound_to 10162
  140.3815  144.2730  150.5908 LP  0  0  0  0  0  0  0  0  0  0  0  0  # atno 17343 bound_to 10162
  156.5628  130.4260  149.6055 LP  0  0  0  0  0  0  0  0  0  0  0  0  # atno 17370 bound_to 10713
  156.2807  130.7069  151.1892 LP  0  0  0  0  0  0  0  0  0  0  0  0  # atno 17371 bound_to 10713
  140.5278  134.6242  157.5340 LP  0  0  0  0  0  0  0  0  0  0  0  0  # atno 17394 bound_to 11000
  139.9722  134.7273  156.0018 LP  0  0  0  0  0  0  0  0  0  0  0  0  # atno 17395 bound_to 11000

$$$$
