AV-unprocessed.smi:835|AV-procd|sdf|3887|dock6
  -GOLD-   22720 1343D 1   1.00000     0.00000
 Structure written by MMmdl.
 41 43  0  0  0  0  0  0  0  0  2 V2000
  145.6820  129.9268  151.9420 C   0  0  0  0  0  0  0  0  0  0  0  0
  146.3860  131.2015  152.3024 C   0  0  0  0  0  0  0  0  0  0  0  0
  145.9857  132.5380  152.0103 C   0  0  0  0  0  0  0  0  0  0  0  0
  146.9870  133.2815  152.5728 C   0  0  0  0  0  0  0  0  0  0  0  0
  147.1365  134.6325  152.5999 N   0  0  0  0  0  0  0  0  0  0  0  0
  146.2669  135.5644  153.0276 C   0  0  0  0  0  0  0  0  0  0  0  0
  145.1463  135.3416  153.4858 O   0  0  0  0  0  0  0  0  0  0  0  0
  146.7769  136.7978  152.9028 N   0  0  0  0  0  0  0  0  0  0  0  0
  146.0902  138.0224  153.2999 C   0  0  1  0  0  0  0  0  0  0  0  0
  145.8093  138.1290  154.8003 C   0  0  0  0  0  0  0  0  0  0  0  0
  145.7979  139.6409  155.0807 C   0  0  0  0  0  0  0  0  0  0  0  0
  146.3189  140.3089  153.8643 N   0  3  1  0  0  0  0  0  0  0  0  0
  147.2005  141.4639  154.1356 C   0  0  0  0  0  0  0  0  0  0  0  0
  146.7717  142.2849  155.3279 C   0  0  0  0  0  0  0  0  0  0  0  0
  146.5288  142.7997  153.9256 C   0  0  0  0  0  0  0  0  0  0  0  0
  146.9408  139.2607  153.0356 C   0  0  0  0  0  0  0  0  0  0  0  0
  147.9061  132.4302  153.1447 N   0  0  0  0  0  0  0  0  0  0  0  0
  149.1314  132.7402  153.8552 C   0  0  0  0  0  0  0  0  0  0  0  0
  147.5283  131.1444  152.9781 N   0  0  0  0  0  0  0  0  0  0  0  0
  144.8403  130.1167  151.2756 H   0  0  0  0  0  0  0  0  0  0  0  0
  145.2952  129.4288  152.8312 H   0  0  0  0  0  0  0  0  0  0  0  0
  146.3549  129.2337  151.4366 H   0  0  0  0  0  0  0  0  0  0  0  0
  145.1089  132.8713  151.4758 H   0  0  0  0  0  0  0  0  0  0  0  0
  148.0280  134.9716  152.2698 H   0  0  0  0  0  0  0  0  0  0  0  0
  147.7045  136.8942  152.5157 H   0  0  0  0  0  0  0  0  0  0  0  0
  145.1528  138.1167  152.7475 H   0  0  0  0  0  0  0  0  0  0  0  0
  144.8752  137.6427  155.0842 H   0  0  0  0  0  0  0  0  0  0  0  0
  146.6129  137.6602  155.3705 H   0  0  0  0  0  0  0  0  0  0  0  0
  144.7881  140.0015  155.2789 H   0  0  0  0  0  0  0  0  0  0  0  0
  146.4078  139.8674  155.9567 H   0  0  0  0  0  0  0  0  0  0  0  0
  148.2569  141.3335  153.9067 H   0  0  0  0  0  0  0  0  0  0  0  0
  145.9064  141.9524  155.8988 H   0  0  0  0  0  0  0  0  0  0  0  0
  147.5524  142.7720  155.9088 H   0  0  0  0  0  0  0  0  0  0  0  0
  147.1494  143.6254  153.5836 H   0  0  0  0  0  0  0  0  0  0  0  0
  145.5016  142.8101  153.5653 H   0  0  0  0  0  0  0  0  0  0  0  0
  147.9698  139.0952  153.3614 H   0  0  0  0  0  0  0  0  0  0  0  0
  146.9576  139.5413  151.9819 H   0  0  0  0  0  0  0  0  0  0  0  0
  148.8916  133.2279  154.8001 H   0  0  0  0  0  0  0  0  0  0  0  0
  149.7458  133.4100  153.2533 H   0  0  0  0  0  0  0  0  0  0  0  0
  149.6981  131.8308  154.0597 H   0  0  0  0  0  0  0  0  0  0  0  0
  145.5153  140.6440  153.3519 H   0  0  0  0  0  0  0  0  0  0  0  0
  1  2  1  0  0  0  0
  1 20  1  0  0  0  0
  1 21  1  0  0  0  0
  1 22  1  0  0  0  0
  2 19  2  0  0  0  0
  2  3  1  0  0  0  0
  3  4  2  0  0  0  0
  3 23  1  0  0  0  0
  4  5  1  0  0  0  0
  4 17  1  0  0  0  0
  5  6  1  0  0  0  0
  5 24  1  0  0  0  0
  6  7  2  0  0  0  0
  6  8  1  0  0  0  0
  8  9  1  0  0  0  0
  8 25  1  0  0  0  0
  9 16  1  0  0  0  0
  9 10  1  0  0  0  0
  9 26  1  0  0  0  0
 10 11  1  0  0  0  0
 10 27  1  0  0  0  0
 10 28  1  0  0  0  0
 11 12  1  0  0  0  0
 11 29  1  0  0  0  0
 11 30  1  0  0  0  0
 12 13  1  0  0  0  0
 12 16  1  0  0  0  0
 12 41  1  0  0  0  0
 13 15  1  0  0  0  0
 13 14  1  0  0  0  0
 13 31  1  0  0  0  0
 14 15  1  0  0  0  0
 14 32  1  0  0  0  0
 14 33  1  0  0  0  0
 15 34  1  0  0  0  0
 15 35  1  0  0  0  0
 16 36  1  0  0  0  0
 16 37  1  0  0  0  0
 17 18  1  0  0  0  0
 17 19  1  0  0  0  0
 18 38  1  0  0  0  0
 18 39  1  0  0  0  0
 18 40  1  0  0  0  0
M  CHG  1  12   1
M  END
> <s_m_source_file>
AV-unprocessed.smi

> <i_m_source_file_index>
835

> <i_lp_mmshare_version>
43012

> <i_f3d_flags>
0

> <s_epik_input>
W0NIM11jMVtjSF1jKG4objEpW0NIM10pW05IXUMoPU8pW05IXVtDQEBIXTJbQ0gyXVtDSDJdTihbQ0gyXTIpW0NIXTNbQ0gyXVtDSDJdMw==

> <s_epik_cmdline>
J2VwaWtfcHl0aG9uJywgJy1waCcsICc3LjAnLCAnLXRuJywgJzgnLCAnLW1hJywgJzIwMCcsICctbWV0YWxfYmluZGluZycsICctaW1hZScsICc8aW5maWxlLm1hZT4nLCAnLW9tYWUnLCAnPG91dGZpbGUubWFlPic=

> <r_lp_tautomer_probability>
1

> <r_epik_Ionization_Penalty>
0.000700689

> <r_epik_Ionization_Penalty_Charging>
0.000627528

> <r_epik_Ionization_Penalty_Neutral>
7.31611e-05

> <r_epik_State_Penalty>
0.00039643

> <r_epik_Charging_Adjusted_Penalty>
0.00102396

> <i_epik_Tot_Q>
1

> <i_epik_Tot_abs_Q>
1

> <r_epik_Metal_State_Penalty>
-0

> <b_epik_Metal_Only>
0

> <s_lp_Force_Field>
OPLS_2005

> <r_lp_Energy>
38.0069

> <b_lp_Chiralities_Consistent>
1

> <s_lp_Variant>
AV-unprocessed.smi:835-2

> <Gold.Version>
5.8.1

> <Gold.Id.Protein>
6NUR|6NUR_protein|mol2

> <Gold.PLP.Fitness>
42.1053

> <Gold.PLP.PLP>
-31.5525

> <Gold.PLP.part.hbond>
-2.9345

> <Gold.PLP.part.metal>
0.0000

> <Gold.PLP.part.buried>
-3.8218

> <Gold.PLP.part.nonpolar>
-25.4614

> <Gold.PLP.part.repulsive>
0.7755

> <Gold.PLP.ligand.clash>
0.0000

> <Gold.PLP.ligand.torsion>
1.3437

> <Gold.PLP.Chemscore.Hbond>
3.9920

> <Gold.PLP.Chemscore.CHOScore>
0.0000

> <Gold.PLP.Chemscore.Metal>
0.0000

> <Gold.Chemscore.Hbonds>
donor molecule, donor type, donor heavy atom, donor atom, acceptor molecule, acceptor atom, score
      L1  H     5    24       P1  7948  1.00
      L1  H     8    25       P1  7948  0.99
      L1  H    12    41       P1 10175  1.98

> <Gold.PLP.Chemscore.Internal.Correction>
1.2642

> <Gold.Rescore>
     Score         DG    S(hbond)    S(metal)    S(lipo)     H(rot)  DE(clash)    DE(int)     intcor
     17.09     -18.27       2.83        0.00      55.12       1.22       0.02       1.17       ----

> <Gold.Chemscore.Fitness>
17.0851

> <Gold.Chemscore.DG>
-18.2715

> <Gold.Chemscore.ZeroCoef>
-5.4800

> <Gold.Chemscore.Hbond>
2.8337

> <Gold.Chemscore.Metal>
0.0000

> <Gold.Chemscore.Lipo>
55.1215

> <Gold.Chemscore.Internal_Hbond>
0.0000

> <Gold.Chemscore.DEClash>
0.0183

> <Gold.Chemscore.DEInternal>
1.1681

> <Gold.Chemscore.Rot>
1.2196

> <Gold.Chemscore.Internal.Correction>
   9.000000E+99

> <Gold.Chemscore.Hbonds>
donor molecule, donor type, donor heavy atom, donor atom, acceptor molecule, acceptor atom, score
      L1  H     5    24       P1  7948  0.64
      L1  H     8    25       P1  7948  0.89
      L1  H    12    41       P1 10175  0.80

> <Gold.Chemscore.Hbond.Weighted>
-9.4646

> <Gold.Chemscore.Metal.Weighted>
-0.0000

> <Gold.Chemscore.Lipo.Weighted>
-6.4492

> <Gold.Chemscore.Internal_Hbond.Weighted>
0.0000

> <Gold.Chemscore.DEClash.Weighted>
0.0183

> <Gold.Chemscore.DEInternal.Weighted>
1.1681

> <Gold.Chemscore.Rot.Weighted>
3.1223

> <Gold.Chemscore.Internal.Correction.Weighted>
   9.000000E+99

> <Gold.Protein.RotatedTorsions>
[ 6907 6896 6895 6894 ] final  139.15 input  -60.11 | X-H torsion
[ 7974 7965 7964 7962 ] final  108.98 input  175.53 | X-H torsion
[ 8008 7997 7996 7995 ] final   72.32 input   59.86 | X-H torsion
[ 10167 10162 10161 10158 ] final  -99.57 input  -65.29 | X-H torsion
[ 10718 10713 10712 10709 ] final  -60.16 input   66.30 | X-H torsion
[ 10763 10752 10751 10750 ] final   25.45 input  -60.55 | X-H torsion
[ 11005 11000 10999 10996 ] final -117.91 input  -57.11 | X-H torsion

> <Gold.Protein.ActiveResidues>
 VAL166  LYS551  ARG553  GLY616  TRP617  ASP618  TYR619  PRO620  LYS621  CYS622 
 ASP623  PHE694  ASN695  SER759  ASP760  ASP761  ALA762  ILE779  LEU786  VAL792 
 PHE793  MET794  SER795  GLU796  ALA797  LYS798  CYS799  TRP800  GLU811  SER814 

> <Gold.Protein.RotatedAtoms>
  152.2583  133.5275  159.5366 H   0  0  0  0  0  0  0  0  0  0  0  0  # atno 6907 bound_to 6896
  150.7116  134.0865  159.3925 H   0  0  0  0  0  0  0  0  0  0  0  0  # atno 6908 bound_to 6896
  151.8783  135.0463  160.0537 H   0  0  0  0  0  0  0  0  0  0  0  0  # atno 6909 bound_to 6896
  145.2737  139.2657  143.3953 H   0  0  0  0  0  0  0  0  0  0  0  0  # atno 7974 bound_to 7965
  155.7671  140.3485  155.5228 H   0  0  0  0  0  0  0  0  0  0  0  0  # atno 8008 bound_to 7997
  155.8858  140.1009  157.1474 H   0  0  0  0  0  0  0  0  0  0  0  0  # atno 8009 bound_to 7997
  154.4029  140.1314  156.4240 H   0  0  0  0  0  0  0  0  0  0  0  0  # atno 8010 bound_to 7997
  140.2610  143.3407  152.0625 H   0  0  0  0  0  0  0  0  0  0  0  0  # atno 10167 bound_to 10162
  156.1010  130.4186  150.0816 H   0  0  0  0  0  0  0  0  0  0  0  0  # atno 10718 bound_to 10713
  153.0691  135.6583  154.0288 H   0  0  0  0  0  0  0  0  0  0  0  0  # atno 10763 bound_to 10752
  153.9937  135.2943  155.3411 H   0  0  0  0  0  0  0  0  0  0  0  0  # atno 10764 bound_to 10752
  154.7059  135.5225  153.8664 H   0  0  0  0  0  0  0  0  0  0  0  0  # atno 10765 bound_to 10752
  141.0322  133.9964  157.3125 H   0  0  0  0  0  0  0  0  0  0  0  0  # atno 11005 bound_to 11000
  146.3238  140.3186  142.8631 LP  0  0  0  0  0  0  0  0  0  0  0  0  # atno 17320 bound_to 7965
  144.9313  140.7978  143.5687 LP  0  0  0  0  0  0  0  0  0  0  0  0  # atno 17321 bound_to 7965
  139.5017  144.6718  151.6223 LP  0  0  0  0  0  0  0  0  0  0  0  0  # atno 17342 bound_to 10162
  140.5965  143.9686  150.6358 LP  0  0  0  0  0  0  0  0  0  0  0  0  # atno 17343 bound_to 10162
  156.8803  130.9554  151.3600 LP  0  0  0  0  0  0  0  0  0  0  0  0  # atno 17370 bound_to 10713
  157.6180  130.8633  149.9060 LP  0  0  0  0  0  0  0  0  0  0  0  0  # atno 17371 bound_to 10713
  139.9216  135.0200  156.8083 LP  0  0  0  0  0  0  0  0  0  0  0  0  # atno 17394 bound_to 11000
  140.6386  133.9839  155.7696 LP  0  0  0  0  0  0  0  0  0  0  0  0  # atno 17395 bound_to 11000

$$$$
