#       Name:                AV-unprocessed.smi:316
#       Creating user name   scv26
#       Creation time:       Thu Mar 26 22:22:49 2020


#       File generated by GOLD software.
#

@<TRIPOS>MOLECULE
AV-unprocessed.smi:316
    48    49     1
SMALL
NO_CHARGES


@<TRIPOS>ATOM
      1 ****        -4.4454   5.4843  -1.3970 C.3            1 S1                 0.0000
      2 ****        -3.5829   4.3414  -1.1389 N.am           1 S1                 0.0000
      3 ****        -2.3319   4.4322  -0.6659 C.2            1 S1                 0.0000
      4 ****        -1.7894   5.5058  -0.4019 O.2            1 S1                 0.0000
      5 ****        -1.5930   3.1059  -0.4592 C.3            1 S1                 0.0000
      6 ****        -0.0615   3.2661  -0.3787 C.3            1 S1                 0.0000
      7 ****         0.6113   1.9751  -0.2862 N.am           1 S1                 0.0000
      8 ****         0.7063   1.2379   0.8290 C.2            1 S1                 0.0000
      9 ****         0.2205   1.5705   1.9100 O.2            1 S1                 0.0000
     10 ****         1.3751   0.0946   0.6040 N.am           1 S1                 0.0000
     11 ****         1.6223  -0.9631   1.5239 C.ar           1 S1                 0.0000
     12 ****         1.8909  -0.6944   2.8907 C.ar           1 S1                 0.0000
     13 ****         2.2008  -1.7509   3.7672 C.ar           1 S1                 0.0000
     14 ****         2.2550  -3.0605   3.2609 C.ar           1 S1                 0.0000
     15 ****         2.0077  -3.2824   1.9535 N.pl3          1 S1                 1.0000
     16 ****         1.6887  -2.3101   1.0628 C.ar           1 S1                 0.0000
     17 ****         1.4432  -2.6960  -0.2749 N.3            1 S1                 0.0000
     18 ****         1.7093  -4.0622  -0.7100 C.3            1 S1                 0.0000
     19 ****         1.0072  -4.1920  -2.0588 C.3            1 S1                 0.0000
     20 ****        -0.2328  -3.3236  -1.8681 C.3            1 S1                 0.0000
     21 ****         0.2510  -2.1947  -0.9519 C.3            1 S1                 0.0000
     22 ****        -5.3999   5.1461  -1.8003 H              1 S1                 0.0000
     23 ****        -3.9896   6.1607  -2.1214 H              1 S1                 0.0000
     24 ****        -4.6403   6.0378  -0.4775 H              1 S1                 0.0000
     25 ****        -3.9618   3.4246  -1.3280 H              1 S1                 0.0000
     26 ****        -1.9724   2.6450   0.4536 H              1 S1                 0.0000
     27 ****        -1.8463   2.4324  -1.2795 H              1 S1                 0.0000
     28 ****         0.3102   3.7709  -1.2713 H              1 S1                 0.0000
     29 ****         0.2202   3.8899   0.4718 H              1 S1                 0.0000
     30 ****         1.0381   1.6243  -1.1312 H              1 S1                 0.0000
     31 ****         1.6364  -0.0884  -0.3539 H              1 S1                 0.0000
     32 ****         1.8858   0.3136   3.2778 H              1 S1                 0.0000
     33 ****         2.4064  -1.5565   4.8097 H              1 S1                 0.0000
     34 ****         2.4910  -3.9310   3.8555 H              1 S1                 0.0000
     35 ****         2.7795  -4.2550  -0.7903 H              1 S1                 0.0000
     36 ****         1.2821  -4.7771  -0.0053 H              1 S1                 0.0000
     37 ****         1.6344  -3.7772  -2.8491 H              1 S1                 0.0000
     38 ****         0.7715  -5.2244  -2.3182 H              1 S1                 0.0000
     39 ****        -0.6470  -2.9585  -2.8085 H              1 S1                 0.0000
     40 ****        -1.0081  -3.9002  -1.3619 H              1 S1                 0.0000
     41 ****        -0.5269  -1.8937  -0.2488 H              1 S1                 0.0000
     42 ****         0.5262  -1.3243  -1.5481 H              1 S1                 0.0000
     43 ****         2.0563  -4.2438   1.6161 H              1 S1                 0.0000
     44 ****        -2.2851   6.3635  -0.5385 LP             1 S1                 0.0000
     45 ****        -0.8531   5.5200  -0.0510 LP             1 S1                 0.0000
     46 ****        -0.2781   2.4337   1.9897 LP             1 S1                 0.0000
     47 ****         0.3245   0.9776   2.7085 LP             1 S1                 0.0000
     48 ****         2.2232  -2.1533  -0.5867 LP             1 S1                 0.0000
@<TRIPOS>BOND
    1    1    2 1     
    2    1   22 1     
    3    1   23 1     
    4    1   24 1     
    5    2    3 am    
    6    2   25 1     
    7    3    4 2     
    8    3    5 1     
    9    5    6 1     
   10    5   26 1     
   11    5   27 1     
   12    6    7 1     
   13    6   28 1     
   14    6   29 1     
   15    7    8 am    
   16    7   30 1     
   17    8    9 2     
   18    8   10 am    
   19   10   11 1     
   20   10   31 1     
   21   11   16 ar    
   22   11   12 ar    
   23   12   13 ar    
   24   12   32 1     
   25   13   14 ar    
   26   13   33 1     
   27   14   15 ar    
   28   14   34 1     
   29   15   16 ar    
   30   15   43 1     
   31   16   17 1     
   32   17   21 1     
   33   17   18 1     
   34   18   19 1     
   35   18   35 1     
   36   18   36 1     
   37   19   20 1     
   38   19   37 1     
   39   19   38 1     
   40   20   21 1     
   41   20   39 1     
   42   20   40 1     
   43   21   41 1     
   44   21   42 1     
   45    4   44 1     
   46    4   45 1     
   47    9   46 1     
   48    9   47 1     
   49   17   48 1     
@<TRIPOS>SUBSTRUCTURE
      1 S1             1
@<TRIPOS>SET
LONE_PAIRS      STATIC     ATOMS    <user>   **** ""
5 44 45 46 47 48
DONOR_HYDROGENS      STATIC     ATOMS    <user>   **** ""
4 25 30 31 43
ATOM$BLUE        STATIC     ATOMS    COLORGROUP SYSTEM
5 44 45 46 47 48
ATOM$RED        STATIC     ATOMS    COLORGROUP SYSTEM
4 25 30 31 43
