AV-unprocessed.smi:34|AV-procd|sdf|227|dock4
  -GOLD-   2262015553D 1   1.00000     0.00000
 Structure written by MMmdl.
 55 59  0  0  0  0  0  0  0  0  1 V2000
  150.5667  142.9850  157.0296 O   0  0  0  0  0  0  0  0  0  0  0  0
  151.0261  142.2320  157.8890 C   0  0  0  0  0  0  0  0  0  0  0  0
  151.0111  140.7878  157.7382 N   0  0  0  0  0  0  0  0  0  0  0  0
  150.6179  140.0660  156.6628 C   0  0  0  0  0  0  0  0  0  0  0  0
  150.5715  140.5923  155.4104 N   0  0  0  0  0  0  0  0  0  0  0  0
  150.1843  139.8386  154.3770 C   0  0  0  0  0  0  0  0  0  0  0  0
  149.8119  138.5568  154.3723 N   0  0  0  0  0  0  0  0  0  0  0  0
  149.8628  138.0211  155.6263 C   0  0  0  0  0  0  0  0  0  0  0  0
  150.2521  138.7030  156.8120 C   0  0  0  0  0  0  0  0  0  0  0  0
  150.1795  137.8372  157.8956 N   0  0  0  0  0  0  0  0  0  0  0  0
  149.7702  136.7114  157.3745 C   0  0  0  0  0  0  0  0  0  0  0  0
  149.5631  136.7322  156.0107 N   0  0  0  0  0  0  0  0  0  0  0  0
  149.0992  135.6352  155.0990 C   0  0  2  0  0  0  0  0  0  0  0  0
  148.6673  134.5693  155.8946 O   0  0  0  0  0  0  0  0  0  0  0  0
  149.5939  133.4798  155.8487 C   0  0  1  0  0  0  0  0  0  0  0  0
  148.9107  132.3175  155.1136 C   0  0  0  0  0  0  0  0  0  0  0  0
  148.2677  132.8101  153.9491 O   0  0  0  0  0  0  0  0  0  0  0  0
  148.0050  131.9830  152.9186 C   0  0  0  0  0  0  0  0  0  0  0  0
  148.6071  130.9257  152.7210 O   0  0  0  0  0  0  0  0  0  0  0  0
  146.9018  132.4782  152.0455 C   0  0  0  0  0  0  0  0  0  0  0  0
  146.1967  131.5606  151.2321 C   0  0  0  0  0  0  0  0  0  0  0  0
  145.1482  131.9981  150.3996 C   0  0  0  0  0  0  0  0  0  0  0  0
  144.7924  133.3591  150.3698 C   0  0  0  0  0  0  0  0  0  0  0  0
  145.4863  134.2820  151.1737 C   0  0  0  0  0  0  0  0  0  0  0  0
  146.5347  133.8462  152.0075 C   0  0  0  0  0  0  0  0  0  0  0  0
  150.8325  134.0098  155.1157 C   0  0  2  0  0  0  0  0  0  0  0  0
  151.6729  134.5229  156.0170 F   0  0  0  0  0  0  0  0  0  0  0  0
  150.2411  135.0901  154.2277 C   0  0  2  0  0  0  0  0  0  0  0  0
  151.2057  136.0380  153.8094 O   0  0  0  0  0  0  0  0  0  0  0  0
  151.5462  142.7528  159.1972 C   0  0  0  0  0  0  0  0  0  0  0  0
  152.3921  141.9474  159.9927 C   0  0  0  0  0  0  0  0  0  0  0  0
  152.8705  142.4208  161.2301 C   0  0  0  0  0  0  0  0  0  0  0  0
  152.5003  143.6999  161.6862 C   0  0  0  0  0  0  0  0  0  0  0  0
  151.6482  144.5042  160.9060 C   0  0  0  0  0  0  0  0  0  0  0  0
  151.1698  144.0321  159.6678 C   0  0  0  0  0  0  0  0  0  0  0  0
  151.3429  140.2570  158.5301 H   0  0  0  0  0  0  0  0  0  0  0  0
  150.1728  140.3339  153.4172 H   0  0  0  0  0  0  0  0  0  0  0  0
  149.6108  135.8300  157.9785 H   0  0  0  0  0  0  0  0  0  0  0  0
  148.2765  136.0752  154.5343 H   0  0  0  0  0  0  0  0  0  0  0  0
  149.8398  133.1694  156.8652 H   0  0  0  0  0  0  0  0  0  0  0  0
  149.6509  131.5721  154.8203 H   0  0  0  0  0  0  0  0  0  0  0  0
  148.1942  131.8244  155.7720 H   0  0  0  0  0  0  0  0  0  0  0  0
  146.4511  130.5103  151.2392 H   0  0  0  0  0  0  0  0  0  0  0  0
  144.6163  131.2884  149.7835 H   0  0  0  0  0  0  0  0  0  0  0  0
  143.9886  133.6947  149.7313 H   0  0  0  0  0  0  0  0  0  0  0  0
  145.2144  135.3269  151.1515 H   0  0  0  0  0  0  0  0  0  0  0  0
  147.0465  134.5814  152.6109 H   0  0  0  0  0  0  0  0  0  0  0  0
  151.3809  133.2469  154.5622 H   0  0  0  0  0  0  0  0  0  0  0  0
  149.7918  134.6314  153.3461 H   0  0  0  0  0  0  0  0  0  0  0  0
  151.0162  136.2858  152.9171 H   0  0  0  0  0  0  0  0  0  0  0  0
  152.6843  140.9626  159.6572 H   0  0  0  0  0  0  0  0  0  0  0  0
  153.5208  141.8012  161.8297 H   0  0  0  0  0  0  0  0  0  0  0  0
  152.8664  144.0623  162.6355 H   0  0  0  0  0  0  0  0  0  0  0  0
  151.3586  145.4832  161.2587 H   0  0  0  0  0  0  0  0  0  0  0  0
  150.5094  144.6617  159.0892 H   0  0  0  0  0  0  0  0  0  0  0  0
  1  2  2  0  0  0  0
  2  3  1  0  0  0  0
  2 30  1  0  0  0  0
  3  4  1  0  0  0  0
  3 36  1  0  0  0  0
  4  9  1  0  0  0  0
  4  5  2  0  0  0  0
  5  6  1  0  0  0  0
  6  7  2  0  0  0  0
  6 37  1  0  0  0  0
  7  8  1  0  0  0  0
  8 12  1  0  0  0  0
  8  9  2  0  0  0  0
  9 10  1  0  0  0  0
 10 11  2  0  0  0  0
 11 12  1  0  0  0  0
 11 38  1  0  0  0  0
 12 13  1  0  0  0  0
 13 28  1  0  0  0  0
 13 14  1  0  0  0  0
 13 39  1  0  0  0  0
 14 15  1  0  0  0  0
 15 16  1  0  0  0  0
 15 26  1  0  0  0  0
 15 40  1  0  0  0  0
 16 17  1  0  0  0  0
 16 41  1  0  0  0  0
 16 42  1  0  0  0  0
 17 18  1  0  0  0  0
 18 19  2  0  0  0  0
 18 20  1  0  0  0  0
 20 25  1  0  0  0  0
 20 21  2  0  0  0  0
 21 22  1  0  0  0  0
 21 43  1  0  0  0  0
 22 23  2  0  0  0  0
 22 44  1  0  0  0  0
 23 24  1  0  0  0  0
 23 45  1  0  0  0  0
 24 25  2  0  0  0  0
 24 46  1  0  0  0  0
 25 47  1  0  0  0  0
 26 27  1  0  0  0  0
 26 28  1  0  0  0  0
 26 48  1  0  0  0  0
 28 29  1  0  0  0  0
 28 49  1  0  0  0  0
 29 50  1  0  0  0  0
 30 35  1  0  0  0  0
 30 31  2  0  0  0  0
 31 32  1  0  0  0  0
 31 51  1  0  0  0  0
 32 33  2  0  0  0  0
 32 52  1  0  0  0  0
 33 34  1  0  0  0  0
 33 53  1  0  0  0  0
 34 35  2  0  0  0  0
 34 54  1  0  0  0  0
 35 55  1  0  0  0  0
M  END
> <s_m_source_file>
AV-unprocessed.smi

> <i_m_source_file_index>
34

> <i_lp_mmshare_version>
43012

> <i_f3d_flags>
0

> <s_epik_input>
W2NIXTFbY0hdW2NIXVtjSF1bY0hdYzFDKD1PKVtOSF1jKG5bY0hdbjIpYyhjMjMpbltjSF1uM1tDQEBIXTRPW0NASF0oW0NAQEhdKEYpW0NASF00W09IXSlbQ0gyXU9DKD1PKWM1W2NIXVtjSF1bY0hdW2NIXVtjSF01

> <s_epik_cmdline>
J2VwaWtfcHl0aG9uJywgJy1waCcsICc3LjAnLCAnLXRuJywgJzgnLCAnLW1hJywgJzIwMCcsICctbWV0YWxfYmluZGluZycsICctaW1hZScsICc8aW5maWxlLm1hZT4nLCAnLW9tYWUnLCAnPG91dGZpbGUubWFlPic=

> <r_lp_tautomer_probability>
1

> <r_epik_Ionization_Penalty>
0.00257489

> <r_epik_Ionization_Penalty_Charging>
0

> <r_epik_Ionization_Penalty_Neutral>
0.00257489

> <r_epik_State_Penalty>
0.00519398

> <r_epik_Charging_Adjusted_Penalty>
0.00519398

> <i_epik_Tot_Q>
0

> <i_epik_Tot_abs_Q>
0

> <r_epik_Metal_State_Penalty>
0.335891

> <b_epik_Metal_Only>
0

> <s_epik_Chemistry_Notes>
This compound has an ester and may undergo hydrolysis at high or low pH. This compound contains an acetal/aminal-like group ( X-CH(R)-Y where X, Y are N, S, or O) that may be acid/base labile, releasing an aldehyde.

> <s_lp_Force_Field>
OPLS_2005

> <r_lp_Energy>
52.3338

> <b_lp_Chiralities_Consistent>
1

> <s_lp_Variant>
AV-unprocessed.smi:34-13

> <Gold.Version>
5.8.1

> <Gold.Id.Protein>
6NUR|6NUR_protein|mol2

> <Gold.PLP.Fitness>
58.0900

> <Gold.PLP.PLP>
-50.5285

> <Gold.PLP.part.hbond>
-3.4418

> <Gold.PLP.part.metal>
0.0000

> <Gold.PLP.part.buried>
-4.5580

> <Gold.PLP.part.nonpolar>
-44.3595

> <Gold.PLP.part.repulsive>
1.6972

> <Gold.PLP.ligand.clash>
0.0000

> <Gold.PLP.ligand.torsion>
1.2809

> <Gold.PLP.Chemscore.Hbond>
1.9500

> <Gold.PLP.Chemscore.CHOScore>
1.0000

> <Gold.PLP.Chemscore.Metal>
0.0000

> <Gold.Chemscore.Hbonds>
donor molecule, donor type, donor heavy atom, donor atom, acceptor molecule, acceptor atom, score
      L1  H    29    50       P1  7949  0.70
      P1  H 10752 10764       L1    29  0.96
      L1  C     6    37       P1  7957  1.00

> <Gold.PLP.Chemscore.Internal.Correction>
1.2733

> <Gold.Rescore>
     Score         DG    S(hbond)    S(metal)    S(lipo)     H(rot)  DE(clash)    DE(int)     intcor
     10.29     -14.32       0.45        0.00     122.29       2.72       0.54       3.49       ----

> <Gold.Chemscore.Fitness>
10.2899

> <Gold.Chemscore.DG>
-14.3157

> <Gold.Chemscore.ZeroCoef>
-5.4800

> <Gold.Chemscore.Hbond>
0.4476

> <Gold.Chemscore.Metal>
0.0000

> <Gold.Chemscore.Lipo>
122.2882

> <Gold.Chemscore.Internal_Hbond>
0.0000

> <Gold.Chemscore.DEClash>
0.5377

> <Gold.Chemscore.DEInternal>
3.4882

> <Gold.Chemscore.Rot>
2.7215

> <Gold.Chemscore.Internal.Correction>
   9.000000E+99

> <Gold.Chemscore.Hbonds>
donor molecule, donor type, donor heavy atom, donor atom, acceptor molecule, acceptor atom, score
      L1  H    29    50       P1  7949  0.13
      P1  H 10752 10764       L1    29  0.72

> <Gold.Chemscore.Hbond.Weighted>
-1.4951

> <Gold.Chemscore.Metal.Weighted>
-0.0000

> <Gold.Chemscore.Lipo.Weighted>
-14.3077

> <Gold.Chemscore.Internal_Hbond.Weighted>
0.0000

> <Gold.Chemscore.DEClash.Weighted>
0.5377

> <Gold.Chemscore.DEInternal.Weighted>
3.4882

> <Gold.Chemscore.Rot.Weighted>
6.9670

> <Gold.Chemscore.Internal.Correction.Weighted>
   9.000000E+99

> <Gold.Protein.RotatedTorsions>
[ 6907 6896 6895 6894 ] final   81.45 input  -60.11 | X-H torsion
[ 7974 7965 7964 7962 ] final   33.78 input  175.53 | X-H torsion
[ 8008 7997 7996 7995 ] final  -43.26 input   59.86 | X-H torsion
[ 10167 10162 10161 10158 ] final   62.41 input  -65.29 | X-H torsion
[ 10718 10713 10712 10709 ] final -123.16 input   66.30 | X-H torsion
[ 10763 10752 10751 10750 ] final  -63.72 input  -60.55 | X-H torsion
[ 11005 11000 10999 10996 ] final -149.50 input  -57.11 | X-H torsion

> <Gold.Protein.ActiveResidues>
 VAL166  LYS551  ARG553  GLY616  TRP617  ASP618  TYR619  PRO620  LYS621  CYS622 
 ASP623  PHE694  ASN695  SER759  ASP760  ASP761  ALA762  ILE779  LEU786  VAL792 
 PHE793  MET794  SER795  GLU796  ALA797  LYS798  CYS799  TRP800  GLU811  SER814 

> <Gold.Protein.RotatedAtoms>
  152.5268  134.3202  159.9145 H   0  0  0  0  0  0  0  0  0  0  0  0  # atno 6907 bound_to 6896
  151.3152  133.4057  159.2657 H   0  0  0  0  0  0  0  0  0  0  0  0  # atno 6908 bound_to 6896
  151.0005  134.9335  159.8008 H   0  0  0  0  0  0  0  0  0  0  0  0  # atno 6909 bound_to 6896
  146.1397  139.6353  142.9171 H   0  0  0  0  0  0  0  0  0  0  0  0  # atno 7974 bound_to 7965
  154.3997  140.1452  156.3490 H   0  0  0  0  0  0  0  0  0  0  0  0  # atno 8008 bound_to 7997
  155.8287  140.3466  155.5537 H   0  0  0  0  0  0  0  0  0  0  0  0  # atno 8009 bound_to 7997
  155.8211  140.0898  157.1839 H   0  0  0  0  0  0  0  0  0  0  0  0  # atno 8010 bound_to 7997
  140.1443  144.4524  150.6794 H   0  0  0  0  0  0  0  0  0  0  0  0  # atno 10167 bound_to 10162
  156.1479  130.6513  150.9869 H   0  0  0  0  0  0  0  0  0  0  0  0  # atno 10718 bound_to 10713
  154.3194  135.6199  153.5501 H   0  0  0  0  0  0  0  0  0  0  0  0  # atno 10763 bound_to 10752
  152.9821  135.5720  154.5087 H   0  0  0  0  0  0  0  0  0  0  0  0  # atno 10764 bound_to 10752
  154.4752  135.2861  155.1589 H   0  0  0  0  0  0  0  0  0  0  0  0  # atno 10765 bound_to 10752
  140.7500  134.3417  157.5128 H   0  0  0  0  0  0  0  0  0  0  0  0  # atno 11005 bound_to 11000
  145.5074  141.0436  143.2507 LP  0  0  0  0  0  0  0  0  0  0  0  0  # atno 17320 bound_to 7965
  144.7779  139.6589  143.7167 LP  0  0  0  0  0  0  0  0  0  0  0  0  # atno 17321 bound_to 7965
  140.6742  143.2298  151.5550 LP  0  0  0  0  0  0  0  0  0  0  0  0  # atno 17342 bound_to 10162
  139.5457  144.2528  152.1437 LP  0  0  0  0  0  0  0  0  0  0  0  0  # atno 17343 bound_to 10162
  157.6632  131.0877  150.7790 LP  0  0  0  0  0  0  0  0  0  0  0  0  # atno 17370 bound_to 10713
  156.7860  130.4874  149.5393 LP  0  0  0  0  0  0  0  0  0  0  0  0  # atno 17371 bound_to 10713
  139.8789  134.9136  156.3088 LP  0  0  0  0  0  0  0  0  0  0  0  0  # atno 17394 bound_to 11000
  140.9759  133.7298  156.0601 LP  0  0  0  0  0  0  0  0  0  0  0  0  # atno 17395 bound_to 11000

$$$$
