AV-unprocessed.smi:99|AV-procd|sdf|865|dock7
  -GOLD-   2262017313D 1   1.00000     0.00000
 Structure written by MMmdl.
 53 56  0  0  0  0  0  0  0  0  1 V2000
  148.2680  131.3079  154.2767 O   0  0  0  0  0  0  0  0  0  0  0  0
  148.0489  132.3086  153.5919 C   0  0  0  0  0  0  0  0  0  0  0  0
  148.6075  133.5119  153.8256 O   0  0  0  0  0  0  0  0  0  0  0  0
  149.7694  133.6269  154.6316 C   0  0  0  0  0  0  0  0  0  0  0  0
  149.7514  134.9898  155.3351 C   0  0  2  0  0  0  0  0  0  0  0  0
  150.5426  135.9241  154.6066 O   0  0  0  0  0  0  0  0  0  0  0  0
  151.0221  136.9229  155.4647 C   0  0  1  0  0  0  0  0  0  0  0  0
  150.4071  138.2546  155.0824 N   0  0  0  0  0  0  0  0  0  0  0  0
  149.2696  138.3466  154.2896 C   0  0  0  0  0  0  0  0  0  0  0  0
  148.7036  139.5281  153.9466 C   0  0  0  0  0  0  0  0  0  0  0  0
  149.2775  140.7875  154.4099 C   0  0  0  0  0  0  0  0  0  0  0  0
  148.8384  141.9052  154.1484 O   0  0  0  0  0  0  0  0  0  0  0  0
  150.4133  140.6471  155.2122 N   0  0  0  0  0  0  0  0  0  0  0  0
  151.0030  139.4355  155.5757 C   0  0  0  0  0  0  0  0  0  0  0  0
  151.9967  139.4251  156.3015 O   0  0  0  0  0  0  0  0  0  0  0  0
  150.6867  136.4925  156.9126 C   0  0  1  0  0  0  0  0  0  0  0  0
  149.5485  137.1605  157.4385 O   0  0  0  0  0  0  0  0  0  0  0  0
  150.4170  135.0100  156.7103 C   0  0  1  0  0  0  0  0  0  0  0  0
  149.6313  134.4587  157.7645 O   0  0  0  0  0  0  0  0  0  0  0  0
  149.4572  133.1238  157.8862 C   0  0  0  0  0  0  0  0  0  0  0  0
  149.8225  132.3036  157.0420 O   0  0  0  0  0  0  0  0  0  0  0  0
  148.7347  132.7477  159.1343 C   0  0  0  0  0  0  0  0  0  0  0  0
  148.1818  133.7649  159.9467 C   0  0  0  0  0  0  0  0  0  0  0  0
  147.5165  133.4427  161.1454 C   0  0  0  0  0  0  0  0  0  0  0  0
  147.3935  132.0993  161.5444 C   0  0  0  0  0  0  0  0  0  0  0  0
  147.9364  131.0781  160.7432 C   0  0  0  0  0  0  0  0  0  0  0  0
  148.6038  131.3983  159.5449 C   0  0  0  0  0  0  0  0  0  0  0  0
  147.1116  132.3260  152.4315 C   0  0  0  0  0  0  0  0  0  0  0  0
  146.2951  131.1986  152.1821 C   0  0  0  0  0  0  0  0  0  0  0  0
  145.3834  131.1969  151.1086 C   0  0  0  0  0  0  0  0  0  0  0  0
  145.2780  132.3218  150.2701 C   0  0  0  0  0  0  0  0  0  0  0  0
  146.0881  133.4478  150.5045 C   0  0  0  0  0  0  0  0  0  0  0  0
  147.0009  133.4509  151.5770 C   0  0  0  0  0  0  0  0  0  0  0  0
  150.8398  141.4931  155.5615 H   0  0  0  0  0  0  0  0  0  0  0  0
  149.8219  132.8280  155.3729 H   0  0  0  0  0  0  0  0  0  0  0  0
  150.6487  133.5415  153.9926 H   0  0  0  0  0  0  0  0  0  0  0  0
  148.7314  135.3729  155.3978 H   0  0  0  0  0  0  0  0  0  0  0  0
  152.0938  137.0162  155.2790 H   0  0  0  0  0  0  0  0  0  0  0  0
  148.7952  137.4491  153.9231 H   0  0  0  0  0  0  0  0  0  0  0  0
  147.8190  139.5422  153.3266 H   0  0  0  0  0  0  0  0  0  0  0  0
  151.5408  136.6711  157.5664 H   0  0  0  0  0  0  0  0  0  0  0  0
  149.4976  138.0185  157.0459 H   0  0  0  0  0  0  0  0  0  0  0  0
  151.3841  134.5105  156.6346 H   0  0  0  0  0  0  0  0  0  0  0  0
  148.2717  134.8041  159.6656 H   0  0  0  0  0  0  0  0  0  0  0  0
  147.1036  134.2284  161.7607 H   0  0  0  0  0  0  0  0  0  0  0  0
  146.8842  131.8525  162.4642 H   0  0  0  0  0  0  0  0  0  0  0  0
  147.8428  130.0465  161.0485 H   0  0  0  0  0  0  0  0  0  0  0  0
  149.0118  130.5908  158.9551 H   0  0  0  0  0  0  0  0  0  0  0  0
  146.3536  130.3256  152.8163 H   0  0  0  0  0  0  0  0  0  0  0  0
  144.7620  130.3316  150.9303 H   0  0  0  0  0  0  0  0  0  0  0  0
  144.5764  132.3211  149.4490 H   0  0  0  0  0  0  0  0  0  0  0  0
  146.0062  134.3138  149.8643 H   0  0  0  0  0  0  0  0  0  0  0  0
  147.6017  134.3350  151.7329 H   0  0  0  0  0  0  0  0  0  0  0  0
  1  2  2  0  0  0  0
  2  3  1  0  0  0  0
  2 28  1  0  0  0  0
  3  4  1  0  0  0  0
  4  5  1  0  0  0  0
  4 35  1  0  0  0  0
  4 36  1  0  0  0  0
  5 18  1  0  0  0  0
  5  6  1  0  0  0  0
  5 37  1  0  0  0  0
  6  7  1  0  0  0  0
  7  8  1  0  0  0  0
  7 16  1  0  0  0  0
  7 38  1  0  0  0  0
  8 14  1  0  0  0  0
  8  9  1  0  0  0  0
  9 10  2  0  0  0  0
  9 39  1  0  0  0  0
 10 11  1  0  0  0  0
 10 40  1  0  0  0  0
 11 12  2  0  0  0  0
 11 13  1  0  0  0  0
 13 34  1  0  0  0  0
 13 14  1  0  0  0  0
 14 15  2  0  0  0  0
 16 17  1  0  0  0  0
 16 18  1  0  0  0  0
 16 41  1  0  0  0  0
 17 42  1  0  0  0  0
 18 19  1  0  0  0  0
 18 43  1  0  0  0  0
 19 20  1  0  0  0  0
 20 21  2  0  0  0  0
 20 22  1  0  0  0  0
 22 27  1  0  0  0  0
 22 23  2  0  0  0  0
 23 24  1  0  0  0  0
 23 44  1  0  0  0  0
 24 25  2  0  0  0  0
 24 45  1  0  0  0  0
 25 26  1  0  0  0  0
 25 46  1  0  0  0  0
 26 27  2  0  0  0  0
 26 47  1  0  0  0  0
 27 48  1  0  0  0  0
 28 33  1  0  0  0  0
 28 29  2  0  0  0  0
 29 30  1  0  0  0  0
 29 49  1  0  0  0  0
 30 31  2  0  0  0  0
 30 50  1  0  0  0  0
 31 32  1  0  0  0  0
 31 51  1  0  0  0  0
 32 33  2  0  0  0  0
 32 52  1  0  0  0  0
 33 53  1  0  0  0  0
M  END
> <s_m_source_file>
AV-unprocessed.smi

> <i_m_source_file_index>
99

> <i_lp_mmshare_version>
43012

> <i_f3d_flags>
0

> <s_epik_input>
W2NIXTFbY0hdW2NIXVtjSF1bY0hdYzFDKD1PKU9bQ0gyXVtDQEBIXTJPW0NAQEhdKG4zW2NIXVtjSF1jKD1PKVtuSF1jMz1PKVtDQEBIXShbT0hdKVtDQEhdMk9DKD1PKWM0W2NIXVtjSF1bY0hdW2NIXVtjSF00

> <s_epik_cmdline>
J2VwaWtfcHl0aG9uJywgJy1waCcsICc3LjAnLCAnLXRuJywgJzgnLCAnLW1hJywgJzIwMCcsICctbWV0YWxfYmluZGluZycsICctaW1hZScsICc8aW5maWxlLm1hZT4nLCAnLW9tYWUnLCAnPG91dGZpbGUubWFlPic=

> <r_lp_tautomer_probability>
1

> <r_epik_Ionization_Penalty>
0.00454555

> <r_epik_Ionization_Penalty_Charging>
0.0045191

> <r_epik_Ionization_Penalty_Neutral>
2.64449e-05

> <r_epik_State_Penalty>
-0

> <r_epik_Charging_Adjusted_Penalty>
0.0045191

> <i_epik_Tot_Q>
0

> <i_epik_Tot_abs_Q>
0

> <r_epik_Metal_State_Penalty>
1.27877

> <b_epik_Metal_Only>
0

> <s_epik_Chemistry_Notes>
This compound has an ester and may undergo hydrolysis at high or low pH. This compound contains an acetal/aminal-like group ( X-CH(R)-Y where X, Y are N, S, or O) that may be acid/base labile, releasing an aldehyde.

> <s_lp_Force_Field>
OPLS_2005

> <r_lp_Energy>
44.6164

> <b_lp_Chiralities_Consistent>
1

> <s_lp_Variant>
AV-unprocessed.smi:99-1

> <Gold.Version>
5.8.1

> <Gold.Id.Protein>
6NUR|6NUR_protein|mol2

> <Gold.PLP.Fitness>
45.7569

> <Gold.PLP.PLP>
-44.2576

> <Gold.PLP.part.hbond>
-2.0000

> <Gold.PLP.part.metal>
0.0000

> <Gold.PLP.part.buried>
-3.7302

> <Gold.PLP.part.nonpolar>
-40.0256

> <Gold.PLP.part.repulsive>
1.5402

> <Gold.PLP.ligand.clash>
0.0000

> <Gold.PLP.ligand.torsion>
1.5352

> <Gold.PLP.Chemscore.Hbond>
0.4295

> <Gold.PLP.Chemscore.CHOScore>
1.0000

> <Gold.PLP.Chemscore.Metal>
0.0000

> <Gold.Chemscore.Hbonds>
donor molecule, donor type, donor heavy atom, donor atom, acceptor molecule, acceptor atom, score
      P1  H  8011  8017       L1    12  0.36
      L1  C     9    39       P1  7948  1.00

> <Gold.PLP.Chemscore.Internal.Correction>
0.2812

> <Gold.Rescore>
     Score         DG    S(hbond)    S(metal)    S(lipo)     H(rot)  DE(clash)    DE(int)     intcor
      7.43      -9.46       0.33        0.00      94.52       3.19       0.19       1.84       ----

> <Gold.Chemscore.Fitness>
7.4326

> <Gold.Chemscore.DG>
-9.4649

> <Gold.Chemscore.ZeroCoef>
-5.4800

> <Gold.Chemscore.Hbond>
0.3272

> <Gold.Chemscore.Metal>
0.0000

> <Gold.Chemscore.Lipo>
94.5228

> <Gold.Chemscore.Internal_Hbond>
0.0000

> <Gold.Chemscore.DEClash>
0.1882

> <Gold.Chemscore.DEInternal>
1.8442

> <Gold.Chemscore.Rot>
3.1903

> <Gold.Chemscore.Internal.Correction>
   9.000000E+99

> <Gold.Chemscore.Hbonds>
donor molecule, donor type, donor heavy atom, donor atom, acceptor molecule, acceptor atom, score
      P1  H  8011  8017       L1    12  0.18

> <Gold.Chemscore.Hbond.Weighted>
-1.0929

> <Gold.Chemscore.Metal.Weighted>
-0.0000

> <Gold.Chemscore.Lipo.Weighted>
-11.0592

> <Gold.Chemscore.Internal_Hbond.Weighted>
0.0000

> <Gold.Chemscore.DEClash.Weighted>
0.1882

> <Gold.Chemscore.DEInternal.Weighted>
1.8442

> <Gold.Chemscore.Rot.Weighted>
8.1671

> <Gold.Chemscore.Internal.Correction.Weighted>
   9.000000E+99

> <Gold.Protein.RotatedTorsions>
[ 6907 6896 6895 6894 ] final    0.50 input  -60.11 | X-H torsion
[ 7974 7965 7964 7962 ] final  153.15 input  175.53 | X-H torsion
[ 8008 7997 7996 7995 ] final   51.37 input   59.86 | X-H torsion
[ 10167 10162 10161 10158 ] final -142.30 input  -65.29 | X-H torsion
[ 10718 10713 10712 10709 ] final    3.89 input   66.30 | X-H torsion
[ 10763 10752 10751 10750 ] final -178.96 input  -60.55 | X-H torsion
[ 11005 11000 10999 10996 ] final  -91.76 input  -57.11 | X-H torsion

> <Gold.Protein.ActiveResidues>
 VAL166  LYS551  ARG553  GLY616  TRP617  ASP618  TYR619  PRO620  LYS621  CYS622 
 ASP623  PHE694  ASN695  SER759  ASP760  ASP761  ALA762  ILE779  LEU786  VAL792 
 PHE793  MET794  SER795  GLU796  ALA797  LYS798  CYS799  TRP800  GLU811  SER814 

> <Gold.Protein.RotatedAtoms>
  151.5775  135.1060  160.0009 H   0  0  0  0  0  0  0  0  0  0  0  0  # atno 6907 bound_to 6896
  152.4370  133.7375  159.6633 H   0  0  0  0  0  0  0  0  0  0  0  0  # atno 6908 bound_to 6896
  150.8270  133.8086  159.3138 H   0  0  0  0  0  0  0  0  0  0  0  0  # atno 6909 bound_to 6896
  144.8174  139.6762  143.6115 H   0  0  0  0  0  0  0  0  0  0  0  0  # atno 7974 bound_to 7965
  155.4342  140.3452  155.4283 H   0  0  0  0  0  0  0  0  0  0  0  0  # atno 8008 bound_to 7997
  156.1318  140.1516  156.9084 H   0  0  0  0  0  0  0  0  0  0  0  0  # atno 8009 bound_to 7997
  154.4901  140.0844  156.7554 H   0  0  0  0  0  0  0  0  0  0  0  0  # atno 8010 bound_to 7997
  139.8101  143.7714  152.2663 H   0  0  0  0  0  0  0  0  0  0  0  0  # atno 10167 bound_to 10162
  156.8844  130.5665  149.5652 H   0  0  0  0  0  0  0  0  0  0  0  0  # atno 10718 bound_to 10713
  154.5411  135.2806  155.1095 H   0  0  0  0  0  0  0  0  0  0  0  0  # atno 10763 bound_to 10752
  154.2577  135.6327  153.5267 H   0  0  0  0  0  0  0  0  0  0  0  0  # atno 10764 bound_to 10752
  152.9979  135.5598  154.5950 H   0  0  0  0  0  0  0  0  0  0  0  0  # atno 10765 bound_to 10752
  141.1537  133.7776  156.9924 H   0  0  0  0  0  0  0  0  0  0  0  0  # atno 11005 bound_to 11000
  146.2478  139.6135  142.9448 LP  0  0  0  0  0  0  0  0  0  0  0  0  # atno 17320 bound_to 7965
  145.5183  141.0433  143.2449 LP  0  0  0  0  0  0  0  0  0  0  0  0  # atno 17321 bound_to 7965
  139.7861  144.7427  151.0021 LP  0  0  0  0  0  0  0  0  0  0  0  0  # atno 17342 bound_to 10162
  140.7818  143.4491  151.0439 LP  0  0  0  0  0  0  0  0  0  0  0  0  # atno 17343 bound_to 10162
  156.0660  130.5703  150.9290 LP  0  0  0  0  0  0  0  0  0  0  0  0  # atno 17370 bound_to 10713
  157.6121  131.0935  150.8776 LP  0  0  0  0  0  0  0  0  0  0  0  0  # atno 17371 bound_to 10713
  140.0994  134.9545  157.1899 LP  0  0  0  0  0  0  0  0  0  0  0  0  # atno 17394 bound_to 11000
  140.3339  134.2779  155.7223 LP  0  0  0  0  0  0  0  0  0  0  0  0  # atno 17395 bound_to 11000

$$$$
