AV-unprocessed.smi:571|AV-procd|sdf|2963|dock1
  -GOLD-   2262023463D 1   1.00000     0.00000
 Structure written by MMmdl.
 44 45  0  0  0  0  0  0  0  0  2 V2000
  147.8260  141.3650  154.0759 C   0  0  0  0  0  0  0  0  0  0  0  0
  148.7154  140.1109  154.0892 C   0  0  2  0  0  0  0  0  0  0  0  0
  147.9873  138.8778  154.6849 C   0  0  0  0  0  0  0  0  0  0  0  0
  147.2882  138.0568  153.6621 N   0  3  0  0  0  0  0  0  0  0  0  0
  146.3089  137.1106  154.2546 C   0  0  0  0  0  0  0  0  0  0  0  0
  145.7475  136.1606  153.1835 C   0  0  0  0  0  0  0  0  0  0  0  0
  145.1164  136.9485  152.0278 C   0  0  0  0  0  0  0  0  0  0  0  0
  146.1314  137.9487  151.4584 C   0  0  0  0  0  0  0  0  0  0  0  0
  146.6888  138.8603  152.5647 C   0  0  0  0  0  0  0  0  0  0  0  0
  150.0127  140.3820  154.7181 N   0  0  0  0  0  0  0  0  0  0  0  0
  150.2282  140.9455  155.9188 C   0  0  0  0  0  0  0  0  0  0  0  0
  149.3231  141.3597  156.6434 O   0  0  0  0  0  0  0  0  0  0  0  0
  151.6930  141.0383  156.3646 C   0  0  0  0  0  0  0  0  0  0  0  0
  151.8341  141.6529  157.6941 N   0  0  0  0  0  0  0  0  0  0  0  0
  151.2694  142.9340  157.8596 C   0  0  0  0  0  0  0  0  0  0  0  0
  151.3494  143.6007  159.0217 C   0  0  0  0  0  0  0  0  0  0  0  0
  152.0370  142.9701  160.1237 C   0  0  0  0  0  0  0  0  0  0  0  0
  152.5849  141.7476  159.9746 C   0  0  0  0  0  0  0  0  0  0  0  0
  152.5061  141.0179  158.7037 C   0  0  0  0  0  0  0  0  0  0  0  0
  153.0162  139.9074  158.5556 O   0  0  0  0  0  0  0  0  0  0  0  0
  146.9084  141.1857  153.5150 H   0  0  0  0  0  0  0  0  0  0  0  0
  148.3387  142.2056  153.6071 H   0  0  0  0  0  0  0  0  0  0  0  0
  147.5414  141.6694  155.0834 H   0  0  0  0  0  0  0  0  0  0  0  0
  148.9495  139.8821  153.0494 H   0  0  0  0  0  0  0  0  0  0  0  0
  148.7283  138.2529  155.1854 H   0  0  0  0  0  0  0  0  0  0  0  0
  147.2850  139.1835  155.4620 H   0  0  0  0  0  0  0  0  0  0  0  0
  146.7912  136.5197  155.0343 H   0  0  0  0  0  0  0  0  0  0  0  0
  145.5014  137.6691  154.7305 H   0  0  0  0  0  0  0  0  0  0  0  0
  146.5489  135.5265  152.8013 H   0  0  0  0  0  0  0  0  0  0  0  0
  145.0092  135.4918  153.6269 H   0  0  0  0  0  0  0  0  0  0  0  0
  144.7775  136.2676  151.2462 H   0  0  0  0  0  0  0  0  0  0  0  0
  144.2334  137.4811  152.3833 H   0  0  0  0  0  0  0  0  0  0  0  0
  146.9510  137.4076  150.9829 H   0  0  0  0  0  0  0  0  0  0  0  0
  145.6645  138.5509  150.6782 H   0  0  0  0  0  0  0  0  0  0  0  0
  145.8973  139.4954  152.9654 H   0  0  0  0  0  0  0  0  0  0  0  0
  147.4375  139.5230  152.1316 H   0  0  0  0  0  0  0  0  0  0  0  0
  150.8272  140.0954  154.1938 H   0  0  0  0  0  0  0  0  0  0  0  0
  152.1349  140.0404  156.3799 H   0  0  0  0  0  0  0  0  0  0  0  0
  152.2541  141.5857  155.6058 H   0  0  0  0  0  0  0  0  0  0  0  0
  150.7785  143.3356  156.9847 H   0  0  0  0  0  0  0  0  0  0  0  0
  150.9137  144.5832  159.1292 H   0  0  0  0  0  0  0  0  0  0  0  0
  152.1124  143.4809  161.0723 H   0  0  0  0  0  0  0  0  0  0  0  0
  153.0958  141.2919  160.8102 H   0  0  0  0  0  0  0  0  0  0  0  0
  148.0029  137.4804  153.2413 H   0  0  0  0  0  0  0  0  0  0  0  0
  1  2  1  0  0  0  0
  1 21  1  0  0  0  0
  1 22  1  0  0  0  0
  1 23  1  0  0  0  0
  2  3  1  0  0  0  0
  2 10  1  0  0  0  0
  2 24  1  0  0  0  0
  3  4  1  0  0  0  0
  3 25  1  0  0  0  0
  3 26  1  0  0  0  0
  4  9  1  0  0  0  0
  4  5  1  0  0  0  0
  4 44  1  0  0  0  0
  5  6  1  0  0  0  0
  5 27  1  0  0  0  0
  5 28  1  0  0  0  0
  6  7  1  0  0  0  0
  6 29  1  0  0  0  0
  6 30  1  0  0  0  0
  7  8  1  0  0  0  0
  7 31  1  0  0  0  0
  7 32  1  0  0  0  0
  8  9  1  0  0  0  0
  8 33  1  0  0  0  0
  8 34  1  0  0  0  0
  9 35  1  0  0  0  0
  9 36  1  0  0  0  0
 10 11  1  0  0  0  0
 10 37  1  0  0  0  0
 11 12  2  0  0  0  0
 11 13  1  0  0  0  0
 13 14  1  0  0  0  0
 13 38  1  0  0  0  0
 13 39  1  0  0  0  0
 14 19  1  0  0  0  0
 14 15  1  0  0  0  0
 15 16  2  0  0  0  0
 15 40  1  0  0  0  0
 16 17  1  0  0  0  0
 16 41  1  0  0  0  0
 17 18  2  0  0  0  0
 17 42  1  0  0  0  0
 18 19  1  0  0  0  0
 18 43  1  0  0  0  0
 19 20  2  0  0  0  0
M  CHG  1   4   1
M  END
> <s_m_source_file>
AV-unprocessed.smi

> <i_m_source_file_index>
571

> <i_lp_mmshare_version>
43012

> <i_f3d_flags>
0

> <s_epik_input>
W0NIMl0xW0NIMl1bQ0gyXVtDSDJdW0NIMl1OMVtDSDJdW0NAQEhdKFtDSDNdKVtOSF1DKD1PKVtDSDJdbjJbY0hdW2NIXVtjSF1bY0hdYzI9Tw==

> <s_epik_cmdline>
J2VwaWtfcHl0aG9uJywgJy1waCcsICc3LjAnLCAnLXRuJywgJzgnLCAnLW1hJywgJzIwMCcsICctbWV0YWxfYmluZGluZycsICctaW1hZScsICc8aW5maWxlLm1hZT4nLCAnLW9tYWUnLCAnPG91dGZpbGUubWFlPic=

> <r_lp_tautomer_probability>
1

> <r_epik_Ionization_Penalty>
0.00237248

> <r_epik_Ionization_Penalty_Charging>
0.0023724

> <r_epik_Ionization_Penalty_Neutral>
8.2065e-08

> <r_epik_State_Penalty>
0.00163922

> <r_epik_Charging_Adjusted_Penalty>
0.00401161

> <i_epik_Tot_Q>
1

> <i_epik_Tot_abs_Q>
1

> <r_epik_Metal_State_Penalty>
-0

> <b_epik_Metal_Only>
0

> <s_lp_Force_Field>
OPLS_2005

> <r_lp_Energy>
32.5109

> <b_lp_Chiralities_Consistent>
1

> <s_lp_Variant>
AV-unprocessed.smi:571-1

> <Gold.Version>
5.8.1

> <Gold.Id.Protein>
6NUR|6NUR_protein|mol2

> <Gold.PLP.Fitness>
42.5917

> <Gold.PLP.PLP>
-32.1238

> <Gold.PLP.part.hbond>
-2.0000

> <Gold.PLP.part.metal>
0.0000

> <Gold.PLP.part.buried>
-0.1432

> <Gold.PLP.part.nonpolar>
-30.5541

> <Gold.PLP.part.repulsive>
1.7574

> <Gold.PLP.ligand.clash>
0.0000

> <Gold.PLP.ligand.torsion>
0.8248

> <Gold.PLP.Chemscore.Hbond>
2.9920

> <Gold.PLP.Chemscore.CHOScore>
0.9995

> <Gold.PLP.Chemscore.Metal>
0.0000

> <Gold.Chemscore.Hbonds>
donor molecule, donor type, donor heavy atom, donor atom, acceptor molecule, acceptor atom, score
      L1  H     4    44       P1  7948  1.72
      P1  H  7997  8010       L1    20  0.59
      L1  C    15    40       P1  8028  0.62

> <Gold.PLP.Chemscore.Internal.Correction>
0.1430

> <Gold.Rescore>
     Score         DG    S(hbond)    S(metal)    S(lipo)     H(rot)  DE(clash)    DE(int)     intcor
     11.88     -17.56       1.93        0.00      88.50       1.84       2.34       3.34       ----

> <Gold.Chemscore.Fitness>
11.8798

> <Gold.Chemscore.DG>
-17.5558

> <Gold.Chemscore.ZeroCoef>
-5.4800

> <Gold.Chemscore.Hbond>
1.9266

> <Gold.Chemscore.Metal>
0.0000

> <Gold.Chemscore.Lipo>
88.5028

> <Gold.Chemscore.Internal_Hbond>
0.0000

> <Gold.Chemscore.DEClash>
2.3372

> <Gold.Chemscore.DEInternal>
3.3388

> <Gold.Chemscore.Rot>
1.8413

> <Gold.Chemscore.Internal.Correction>
   9.000000E+99

> <Gold.Chemscore.Hbonds>
donor molecule, donor type, donor heavy atom, donor atom, acceptor molecule, acceptor atom, score
      L1  H     4    44       P1  7948  0.84
      P1  H  7997  8010       L1    20  0.40

> <Gold.Chemscore.Hbond.Weighted>
-6.4347

> <Gold.Chemscore.Metal.Weighted>
-0.0000

> <Gold.Chemscore.Lipo.Weighted>
-10.3548

> <Gold.Chemscore.Internal_Hbond.Weighted>
0.0000

> <Gold.Chemscore.DEClash.Weighted>
2.3372

> <Gold.Chemscore.DEInternal.Weighted>
3.3388

> <Gold.Chemscore.Rot.Weighted>
4.7137

> <Gold.Chemscore.Internal.Correction.Weighted>
   9.000000E+99

> <Gold.Protein.RotatedTorsions>
[ 6907 6896 6895 6894 ] final  -25.00 input  -60.11 | X-H torsion
[ 7974 7965 7964 7962 ] final -161.17 input  175.53 | X-H torsion
[ 8008 7997 7996 7995 ] final   33.86 input   59.86 | X-H torsion
[ 10167 10162 10161 10158 ] final -144.57 input  -65.29 | X-H torsion
[ 10718 10713 10712 10709 ] final -145.89 input   66.30 | X-H torsion
[ 10763 10752 10751 10750 ] final -173.96 input  -60.55 | X-H torsion
[ 11005 11000 10999 10996 ] final   44.43 input  -57.11 | X-H torsion

> <Gold.Protein.ActiveResidues>
 VAL166  LYS551  ARG553  GLY616  TRP617  ASP618  TYR619  PRO620  LYS621  CYS622 
 ASP623  PHE694  ASN695  SER759  ASP760  ASP761  ALA762  ILE779  LEU786  VAL792 
 PHE793  MET794  SER795  GLU796  ALA797  LYS798  CYS799  TRP800  GLU811  SER814 

> <Gold.Protein.RotatedAtoms>
  151.1815  135.0363  159.8793 H   0  0  0  0  0  0  0  0  0  0  0  0  # atno 6907 bound_to 6896
  152.5444  134.1058  159.8347 H   0  0  0  0  0  0  0  0  0  0  0  0  # atno 6908 bound_to 6896
  151.1175  133.5081  159.2635 H   0  0  0  0  0  0  0  0  0  0  0  0  # atno 6909 bound_to 6896
  144.7400  140.3435  143.6130 H   0  0  0  0  0  0  0  0  0  0  0  0  # atno 7974 bound_to 7965
  155.1454  140.3270  155.4443 H   0  0  0  0  0  0  0  0  0  0  0  0  # atno 8008 bound_to 7997
  156.2591  140.1986  156.6518 H   0  0  0  0  0  0  0  0  0  0  0  0  # atno 8009 bound_to 7997
  154.6512  140.0558  156.9944 H   0  0  0  0  0  0  0  0  0  0  0  0  # atno 8010 bound_to 7997
  139.7887  143.7997  152.2647 H   0  0  0  0  0  0  0  0  0  0  0  0  # atno 10167 bound_to 10162
  156.3881  130.7871  151.2071 H   0  0  0  0  0  0  0  0  0  0  0  0  # atno 10718 bound_to 10713
  154.6018  135.2855  155.0527 H   0  0  0  0  0  0  0  0  0  0  0  0  # atno 10763 bound_to 10752
  154.1789  135.6460  153.5033 H   0  0  0  0  0  0  0  0  0  0  0  0  # atno 10764 bound_to 10752
  153.0160  135.5419  154.6740 H   0  0  0  0  0  0  0  0  0  0  0  0  # atno 10765 bound_to 10752
  140.1553  134.4410  155.8354 H   0  0  0  0  0  0  0  0  0  0  0  0  # atno 11005 bound_to 11000
  145.7349  139.1747  143.2409 LP  0  0  0  0  0  0  0  0  0  0  0  0  # atno 17320 bound_to 7965
  146.1178  140.7348  142.9472 LP  0  0  0  0  0  0  0  0  0  0  0  0  # atno 17321 bound_to 7965
  139.8082  144.7346  150.9733 LP  0  0  0  0  0  0  0  0  0  0  0  0  # atno 17342 bound_to 10162
  140.7820  143.4277  151.0743 LP  0  0  0  0  0  0  0  0  0  0  0  0  # atno 17343 bound_to 10162
  157.7497  131.0324  150.4224 LP  0  0  0  0  0  0  0  0  0  0  0  0  # atno 17370 bound_to 10713
  156.4480  130.4005  149.6654 LP  0  0  0  0  0  0  0  0  0  0  0  0  # atno 17371 bound_to 10713
  141.2203  133.6889  156.7495 LP  0  0  0  0  0  0  0  0  0  0  0  0  # atno 17394 bound_to 11000
  140.2555  134.8507  157.3709 LP  0  0  0  0  0  0  0  0  0  0  0  0  # atno 17395 bound_to 11000

$$$$
