AV-unprocessed.smi:1558|AV-procd|sdf|6272|dock7
  -GOLD-   22720 6463D 1   1.00000     0.00000
 Structure written by MMmdl.
 36 37  0  0  0  0  0  0  0  0  1 V2000
  151.3720  140.5844  157.0975 N   0  0  0  0  0  0  0  0  0  0  0  0
  151.0511  140.7057  155.8067 C   0  0  0  0  0  0  0  0  0  0  0  0
  151.7222  140.1959  154.9118 O   0  0  0  0  0  0  0  0  0  0  0  0
  149.7974  141.5154  155.4710 C   0  0  0  0  0  0  0  0  0  0  0  0
  148.8278  140.7069  154.7532 N   0  0  0  0  0  0  0  0  0  0  0  0
  149.0027  139.4507  154.2057 C   0  0  0  0  0  0  0  0  0  0  0  0
  147.8024  139.1212  153.6429 C   0  0  0  0  0  0  0  0  0  0  0  0
  147.4282  137.9434  152.9482 N   0  0  0  0  0  0  0  0  0  0  0  0
  146.1836  137.4980  152.7115 C   0  0  0  0  0  0  0  0  0  0  0  0
  145.1502  138.0663  153.0647 O   0  0  0  0  0  0  0  0  0  0  0  0
  146.2016  136.3444  152.0292 N   0  0  0  0  0  0  0  0  0  0  0  0
  145.0237  135.5972  151.5997 C   0  0  0  0  0  0  0  0  0  0  0  0
  145.4038  134.2576  150.9465 C   0  0  2  0  0  0  0  0  0  0  0  0
  144.2251  133.3988  150.4882 C   0  0  0  0  0  0  0  0  0  0  0  0
  144.8490  132.0226  150.4605 C   0  0  0  0  0  0  0  0  0  0  0  0
  145.7661  132.0661  151.6803 C   0  0  0  0  0  0  0  0  0  0  0  0
  146.1044  133.4376  151.8768 O   0  0  0  0  0  0  0  0  0  0  0  0
  146.9453  140.2258  153.8848 C   0  0  0  0  0  0  0  0  0  0  0  0
  147.5718  141.1801  154.5559 N   0  0  0  0  0  0  0  0  0  0  0  0
  152.1925  140.0582  157.3613 H   0  0  0  0  0  0  0  0  0  0  0  0
  150.7965  141.0176  157.8049 H   0  0  0  0  0  0  0  0  0  0  0  0
  149.3467  141.8961  156.3891 H   0  0  0  0  0  0  0  0  0  0  0  0
  150.0552  142.3809  154.8591 H   0  0  0  0  0  0  0  0  0  0  0  0
  149.9434  138.9244  154.2699 H   0  0  0  0  0  0  0  0  0  0  0  0
  148.1883  137.3809  152.5949 H   0  0  0  0  0  0  0  0  0  0  0  0
  147.0991  135.9531  151.7834 H   0  0  0  0  0  0  0  0  0  0  0  0
  144.4134  135.4077  152.4829 H   0  0  0  0  0  0  0  0  0  0  0  0
  144.4049  136.1909  150.9248 H   0  0  0  0  0  0  0  0  0  0  0  0
  146.0708  134.4321  150.1004 H   0  0  0  0  0  0  0  0  0  0  0  0
  143.4182  133.4282  151.2218 H   0  0  0  0  0  0  0  0  0  0  0  0
  143.8227  133.7059  149.5224 H   0  0  0  0  0  0  0  0  0  0  0  0
  144.1159  131.2166  150.5053 H   0  0  0  0  0  0  0  0  0  0  0  0
  145.4386  131.8995  149.5511 H   0  0  0  0  0  0  0  0  0  0  0  0
  145.2411  131.7100  152.5672 H   0  0  0  0  0  0  0  0  0  0  0  0
  146.6579  131.4535  151.5464 H   0  0  0  0  0  0  0  0  0  0  0  0
  145.9124  140.3647  153.6022 H   0  0  0  0  0  0  0  0  0  0  0  0
  1  2  1  0  0  0  0
  1 20  1  0  0  0  0
  1 21  1  0  0  0  0
  2  3  2  0  0  0  0
  2  4  1  0  0  0  0
  4  5  1  0  0  0  0
  4 22  1  0  0  0  0
  4 23  1  0  0  0  0
  5 19  1  0  0  0  0
  5  6  1  0  0  0  0
  6  7  2  0  0  0  0
  6 24  1  0  0  0  0
  7  8  1  0  0  0  0
  7 18  1  0  0  0  0
  8  9  1  0  0  0  0
  8 25  1  0  0  0  0
  9 10  2  0  0  0  0
  9 11  1  0  0  0  0
 11 12  1  0  0  0  0
 11 26  1  0  0  0  0
 12 13  1  0  0  0  0
 12 27  1  0  0  0  0
 12 28  1  0  0  0  0
 13 17  1  0  0  0  0
 13 14  1  0  0  0  0
 13 29  1  0  0  0  0
 14 15  1  0  0  0  0
 14 30  1  0  0  0  0
 14 31  1  0  0  0  0
 15 16  1  0  0  0  0
 15 32  1  0  0  0  0
 15 33  1  0  0  0  0
 16 17  1  0  0  0  0
 16 34  1  0  0  0  0
 16 35  1  0  0  0  0
 18 19  2  0  0  0  0
 18 36  1  0  0  0  0
M  END
> <s_m_source_file>
AV-unprocessed.smi

> <i_m_source_file_index>
1558

> <i_lp_mmshare_version>
43012

> <i_f3d_flags>
0

> <s_epik_input>
W05IMl1DKD1PKVtDSDJdbjFbY0hdYyhbY0hdbjEpW05IXUMoPU8pW05IXVtDSDJdW0NAQEhdMltDSDJdW0NIMl1bQ0gyXU8y

> <s_epik_cmdline>
J2VwaWtfcHl0aG9uJywgJy1waCcsICc3LjAnLCAnLXRuJywgJzgnLCAnLW1hJywgJzIwMCcsICctbWV0YWxfYmluZGluZycsICctaW1hZScsICc8aW5maWxlLm1hZT4nLCAnLW9tYWUnLCAnPG91dGZpbGUubWFlPic=

> <r_lp_tautomer_probability>
1

> <r_epik_Ionization_Penalty>
4.01684e-05

> <r_epik_Ionization_Penalty_Charging>
0

> <r_epik_Ionization_Penalty_Neutral>
4.01684e-05

> <r_epik_State_Penalty>
-0

> <r_epik_Charging_Adjusted_Penalty>
0

> <i_epik_Tot_Q>
0

> <i_epik_Tot_abs_Q>
0

> <r_epik_Metal_State_Penalty>
-0

> <b_epik_Metal_Only>
0

> <s_lp_Force_Field>
OPLS_2005

> <r_lp_Energy>
20.4808

> <b_lp_Chiralities_Consistent>
1

> <s_lp_Variant>
AV-unprocessed.smi:1558-1

> <Gold.Version>
5.8.1

> <Gold.Id.Protein>
6NUR|6NUR_protein|mol2

> <Gold.PLP.Fitness>
41.7569

> <Gold.PLP.PLP>
-30.4825

> <Gold.PLP.part.hbond>
-2.9134

> <Gold.PLP.part.metal>
0.0000

> <Gold.PLP.part.buried>
-4.8184

> <Gold.PLP.part.nonpolar>
-26.4487

> <Gold.PLP.part.repulsive>
3.0007

> <Gold.PLP.ligand.clash>
0.0000

> <Gold.PLP.ligand.torsion>
0.1910

> <Gold.PLP.Chemscore.Hbond>
2.8793

> <Gold.PLP.Chemscore.CHOScore>
1.0000

> <Gold.PLP.Chemscore.Metal>
0.0000

> <Gold.Chemscore.Hbonds>
donor molecule, donor type, donor heavy atom, donor atom, acceptor molecule, acceptor atom, score
      L1  H     8    25       P1  7948  1.00
      L1  H    11    26       P1  7948  0.91
      P1  H  7989  7998       L1     3  0.94
      L1  C    18    36       P1 10175  1.00

> <Gold.PLP.Chemscore.Internal.Correction>
0.0186

> <Gold.Rescore>
     Score         DG    S(hbond)    S(metal)    S(lipo)     H(rot)  DE(clash)    DE(int)     intcor
     13.14     -15.66       2.82        0.00      57.55       2.33       0.01       2.51       ----

> <Gold.Chemscore.Fitness>
13.1359

> <Gold.Chemscore.DG>
-15.6580

> <Gold.Chemscore.ZeroCoef>
-5.4800

> <Gold.Chemscore.Hbond>
2.8175

> <Gold.Chemscore.Metal>
0.0000

> <Gold.Chemscore.Lipo>
57.5474

> <Gold.Chemscore.Internal_Hbond>
0.0000

> <Gold.Chemscore.DEClash>
0.0103

> <Gold.Chemscore.DEInternal>
2.5117

> <Gold.Chemscore.Rot>
2.3303

> <Gold.Chemscore.Internal.Correction>
   9.000000E+99

> <Gold.Chemscore.Hbonds>
donor molecule, donor type, donor heavy atom, donor atom, acceptor molecule, acceptor atom, score
      L1  H     8    25       P1  7948  0.95
      L1  H    11    26       P1  7948  0.90
      P1  H  7989  7998       L1     3  0.82

> <Gold.Chemscore.Hbond.Weighted>
-9.4105

> <Gold.Chemscore.Metal.Weighted>
-0.0000

> <Gold.Chemscore.Lipo.Weighted>
-6.7330

> <Gold.Chemscore.Internal_Hbond.Weighted>
0.0000

> <Gold.Chemscore.DEClash.Weighted>
0.0103

> <Gold.Chemscore.DEInternal.Weighted>
2.5117

> <Gold.Chemscore.Rot.Weighted>
5.9656

> <Gold.Chemscore.Internal.Correction.Weighted>
   9.000000E+99

> <Gold.Protein.RotatedTorsions>
[ 6907 6896 6895 6894 ] final -128.12 input  -60.11 | X-H torsion
[ 7974 7965 7964 7962 ] final   26.31 input  175.53 | X-H torsion
[ 8008 7997 7996 7995 ] final  153.08 input   59.86 | X-H torsion
[ 10167 10162 10161 10158 ] final  -84.35 input  -65.29 | X-H torsion
[ 10718 10713 10712 10709 ] final  -73.88 input   66.30 | X-H torsion
[ 10763 10752 10751 10750 ] final -101.59 input  -60.55 | X-H torsion
[ 11005 11000 10999 10996 ] final -127.55 input  -57.11 | X-H torsion

> <Gold.Protein.ActiveResidues>
 VAL166  LYS551  ARG553  GLY616  TRP617  ASP618  TYR619  PRO620  LYS621  CYS622 
 ASP623  PHE694  ASN695  SER759  ASP760  ASP761  ALA762  ILE779  LEU786  VAL792 
 PHE793  MET794  SER795  GLU796  ALA797  LYS798  CYS799  TRP800  GLU811  SER814 

> <Gold.Protein.RotatedAtoms>
  150.9145  133.6956  159.2846 H   0  0  0  0  0  0  0  0  0  0  0  0  # atno 6907 bound_to 6896
  151.4432  135.1021  159.9686 H   0  0  0  0  0  0  0  0  0  0  0  0  # atno 6908 bound_to 6896
  152.4947  133.8548  159.7275 H   0  0  0  0  0  0  0  0  0  0  0  0  # atno 6909 bound_to 6896
  146.1844  139.7345  142.8877 H   0  0  0  0  0  0  0  0  0  0  0  0  # atno 7974 bound_to 7965
  156.2599  140.2003  156.6433 H   0  0  0  0  0  0  0  0  0  0  0  0  # atno 8008 bound_to 7997
  154.6592  140.0563  157.0068 H   0  0  0  0  0  0  0  0  0  0  0  0  # atno 8009 bound_to 7997
  155.1301  140.3233  155.4479 H   0  0  0  0  0  0  0  0  0  0  0  0  # atno 8010 bound_to 7997
  140.4140  143.2611  151.8979 H   0  0  0  0  0  0  0  0  0  0  0  0  # atno 10167 bound_to 10162
  156.0263  130.4404  150.2808 H   0  0  0  0  0  0  0  0  0  0  0  0  # atno 10718 bound_to 10713
  154.7669  135.4892  153.9572 H   0  0  0  0  0  0  0  0  0  0  0  0  # atno 10763 bound_to 10752
  153.1319  135.6754  153.9172 H   0  0  0  0  0  0  0  0  0  0  0  0  # atno 10764 bound_to 10752
  153.8873  135.3125  155.3425 H   0  0  0  0  0  0  0  0  0  0  0  0  # atno 10765 bound_to 10752
  140.9590  134.0962  157.3987 H   0  0  0  0  0  0  0  0  0  0  0  0  # atno 11005 bound_to 11000
  145.3983  141.0382  143.3085 LP  0  0  0  0  0  0  0  0  0  0  0  0  # atno 17320 bound_to 7965
  144.8371  139.5533  143.6917 LP  0  0  0  0  0  0  0  0  0  0  0  0  # atno 17321 bound_to 7965
  139.4782  144.5507  151.8390 LP  0  0  0  0  0  0  0  0  0  0  0  0  # atno 17342 bound_to 10162
  140.4606  144.1727  150.5906 LP  0  0  0  0  0  0  0  0  0  0  0  0  # atno 17343 bound_to 10162
  157.0912  131.0170  151.3121 LP  0  0  0  0  0  0  0  0  0  0  0  0  # atno 17370 bound_to 10713
  157.4853  130.7789  149.7454 LP  0  0  0  0  0  0  0  0  0  0  0  0  # atno 17371 bound_to 10713
  139.8872  135.0087  156.6544 LP  0  0  0  0  0  0  0  0  0  0  0  0  # atno 17394 bound_to 11000
  140.7494  133.8910  155.8336 LP  0  0  0  0  0  0  0  0  0  0  0  0  # atno 17395 bound_to 11000

$$$$
