AV-unprocessed.smi:473|AV-procd|sdf|2664|dock2
  -GOLD-   2262023 73D 1   1.00000     0.00000
 Structure written by MMmdl.
 43 45  0  0  0  0  0  0  0  0  2 V2000
  151.9501  144.0107  161.0228 C   0  0  0  0  0  0  0  0  0  0  0  0
  151.8961  143.0264  159.8669 C   0  0  0  0  0  0  0  0  0  0  0  0
  151.0743  143.3318  158.7582 C   0  0  0  0  0  0  0  0  0  0  0  0
  151.0486  142.4134  157.7153 C   0  0  0  0  0  0  0  0  0  0  0  0
  150.3560  142.4242  156.5023 N   0  3  0  0  0  0  0  0  0  0  0  0
  150.6522  141.2959  155.7993 C   0  0  0  0  0  0  0  0  0  0  0  0
  151.5238  140.5651  156.5455 N   0  0  0  0  0  0  0  0  0  0  0  0
  152.1506  139.2666  156.2612 C   0  0  0  0  0  0  0  0  0  0  0  0
  151.5230  138.5453  155.0496 C   0  0  1  0  0  0  0  0  0  0  0  0
  152.3820  137.5594  154.5115 O   0  0  0  0  0  0  0  0  0  0  0  0
  150.1615  137.9022  155.3599 C   0  0  0  0  0  0  0  0  0  0  0  0
  149.1313  138.8568  155.1637 O   0  0  0  0  0  0  0  0  0  0  0  0
  149.1064  139.3927  153.8513 C   0  0  0  0  0  0  0  0  0  0  0  0
  148.2554  140.6233  153.8776 C   0  0  0  0  0  0  0  0  0  0  0  0
  146.9092  140.8193  154.0193 C   0  0  0  0  0  0  0  0  0  0  0  0
  146.6981  142.2253  153.9723 C   0  0  0  0  0  0  0  0  0  0  0  0
  147.9321  142.7861  153.8066 C   0  0  0  0  0  0  0  0  0  0  0  0
  148.8926  141.8244  153.7475 O   0  0  0  0  0  0  0  0  0  0  0  0
  151.8012  141.2237  157.7491 C   0  0  0  0  0  0  0  0  0  0  0  0
  152.6174  140.9084  158.8333 C   0  0  0  0  0  0  0  0  0  0  0  0
  152.6588  141.8304  159.9031 C   0  0  0  0  0  0  0  0  0  0  0  0
  153.5428  141.5132  161.0976 C   0  0  0  0  0  0  0  0  0  0  0  0
  151.2752  144.8520  160.8627 H   0  0  0  0  0  0  0  0  0  0  0  0
  152.9587  144.4083  161.1379 H   0  0  0  0  0  0  0  0  0  0  0  0
  151.6598  143.5252  161.9549 H   0  0  0  0  0  0  0  0  0  0  0  0
  150.4928  144.2413  158.7228 H   0  0  0  0  0  0  0  0  0  0  0  0
  150.2640  141.0283  154.8268 H   0  0  0  0  0  0  0  0  0  0  0  0
  153.2220  139.4180  156.1293 H   0  0  0  0  0  0  0  0  0  0  0  0
  152.0419  138.6505  157.1545 H   0  0  0  0  0  0  0  0  0  0  0  0
  151.3751  139.2769  154.2542 H   0  0  0  0  0  0  0  0  0  0  0  0
  152.6021  137.8051  153.6262 H   0  0  0  0  0  0  0  0  0  0  0  0
  149.9969  137.0595  154.6867 H   0  0  0  0  0  0  0  0  0  0  0  0
  150.1410  137.5113  156.3787 H   0  0  0  0  0  0  0  0  0  0  0  0
  150.1162  139.6413  153.5220 H   0  0  0  0  0  0  0  0  0  0  0  0
  148.6920  138.6668  153.1505 H   0  0  0  0  0  0  0  0  0  0  0  0
  146.1669  140.0445  154.1423 H   0  0  0  0  0  0  0  0  0  0  0  0
  145.7624  142.7590  154.0508 H   0  0  0  0  0  0  0  0  0  0  0  0
  148.2897  143.8013  153.7175 H   0  0  0  0  0  0  0  0  0  0  0  0
  153.2030  140.0009  158.8595 H   0  0  0  0  0  0  0  0  0  0  0  0
  154.0780  140.5730  160.9593 H   0  0  0  0  0  0  0  0  0  0  0  0
  152.9441  141.4248  162.0044 H   0  0  0  0  0  0  0  0  0  0  0  0
  154.2842  142.2985  161.2457 H   0  0  0  0  0  0  0  0  0  0  0  0
  149.7262  143.1464  156.1765 H   0  0  0  0  0  0  0  0  0  0  0  0
  1  2  1  0  0  0  0
  1 23  1  0  0  0  0
  1 24  1  0  0  0  0
  1 25  1  0  0  0  0
  2 21  1  0  0  0  0
  2  3  2  0  0  0  0
  3  4  1  0  0  0  0
  3 26  1  0  0  0  0
  4 19  2  0  0  0  0
  4  5  1  0  0  0  0
  5  6  2  0  0  0  0
  5 43  1  0  0  0  0
  6  7  1  0  0  0  0
  6 27  1  0  0  0  0
  7  8  1  0  0  0  0
  7 19  1  0  0  0  0
  8  9  1  0  0  0  0
  8 28  1  0  0  0  0
  8 29  1  0  0  0  0
  9 10  1  0  0  0  0
  9 11  1  0  0  0  0
  9 30  1  0  0  0  0
 10 31  1  0  0  0  0
 11 12  1  0  0  0  0
 11 32  1  0  0  0  0
 11 33  1  0  0  0  0
 12 13  1  0  0  0  0
 13 14  1  0  0  0  0
 13 34  1  0  0  0  0
 13 35  1  0  0  0  0
 14 18  1  0  0  0  0
 14 15  2  0  0  0  0
 15 16  1  0  0  0  0
 15 36  1  0  0  0  0
 16 17  2  0  0  0  0
 16 37  1  0  0  0  0
 17 18  1  0  0  0  0
 17 38  1  0  0  0  0
 19 20  1  0  0  0  0
 20 21  2  0  0  0  0
 20 39  1  0  0  0  0
 21 22  1  0  0  0  0
 22 40  1  0  0  0  0
 22 41  1  0  0  0  0
 22 42  1  0  0  0  0
M  CHG  1   5   1
M  END
> <s_m_source_file>
AV-unprocessed.smi

> <i_m_source_file_index>
473

> <i_lp_mmshare_version>
43012

> <i_f3d_flags>
0

> <s_epik_input>
W0NIM11jKFtjSF0xKWMoW0NIM10pW2NIXWMoYzEyKW4oW2NIXW4yKVtDSDJdW0NASF0oW09IXSlbQ0gyXU9bQ0gyXWMzW2NIXVtjSF1bY0hdbzM=

> <s_epik_cmdline>
J2VwaWtfcHl0aG9uJywgJy1waCcsICc3LjAnLCAnLXRuJywgJzgnLCAnLW1hJywgJzIwMCcsICctbWV0YWxfYmluZGluZycsICctaW1hZScsICc8aW5maWxlLm1hZT4nLCAnLW9tYWUnLCAnPG91dGZpbGUubWFlPic=

> <r_epik_Ionization_Penalty>
1.03981

> <r_epik_Ionization_Penalty_Charging>
1.03981

> <r_epik_Ionization_Penalty_Neutral>
9.34185e-07

> <r_epik_State_Penalty>
1.09172

> <r_epik_Charging_Adjusted_Penalty>
2.13153

> <i_epik_Tot_Q>
1

> <i_epik_Tot_abs_Q>
1

> <r_epik_Metal_State_Penalty>
5.0824

> <b_epik_Metal_Only>
0

> <s_lp_Force_Field>
OPLS_2005

> <r_lp_Energy>
14.3304

> <b_lp_Chiralities_Consistent>
1

> <s_lp_Variant>
AV-unprocessed.smi:473-4

> <Gold.Version>
5.8.1

> <Gold.Id.Protein>
6NUR|6NUR_protein|mol2

> <Gold.PLP.Fitness>
56.5218

> <Gold.PLP.PLP>
-46.2559

> <Gold.PLP.part.hbond>
-3.0000

> <Gold.PLP.part.metal>
0.0000

> <Gold.PLP.part.buried>
-3.0102

> <Gold.PLP.part.nonpolar>
-39.3564

> <Gold.PLP.part.repulsive>
0.3022

> <Gold.PLP.ligand.clash>
0.0000

> <Gold.PLP.ligand.torsion>
0.8231

> <Gold.PLP.Chemscore.Hbond>
3.0921

> <Gold.PLP.Chemscore.CHOScore>
0.8271

> <Gold.PLP.Chemscore.Metal>
0.0000

> <Gold.Chemscore.Hbonds>
donor molecule, donor type, donor heavy atom, donor atom, acceptor molecule, acceptor atom, score
      L1  H     5    43       P1  8028  2.00
      P1  H  8011  8017       L1    18  0.50
      P1  H 10752 10763       L1    10  0.58
      L1  C    17    38       P1  8028  0.71

> <Gold.PLP.Chemscore.Internal.Correction>
0.1544

> <Gold.Rescore>
     Score         DG    S(hbond)    S(metal)    S(lipo)     H(rot)  DE(clash)    DE(int)     intcor
     16.79     -18.20       1.40        0.00     123.40       2.49       0.05       1.37       ----

> <Gold.Chemscore.Fitness>
16.7868

> <Gold.Chemscore.DG>
-18.2048

> <Gold.Chemscore.ZeroCoef>
-5.4800

> <Gold.Chemscore.Hbond>
1.3965

> <Gold.Chemscore.Metal>
0.0000

> <Gold.Chemscore.Lipo>
123.4040

> <Gold.Chemscore.Internal_Hbond>
0.0000

> <Gold.Chemscore.DEClash>
0.0472

> <Gold.Chemscore.DEInternal>
1.3708

> <Gold.Chemscore.Rot>
2.4913

> <Gold.Chemscore.Internal.Correction>
   9.000000E+99

> <Gold.Chemscore.Hbonds>
donor molecule, donor type, donor heavy atom, donor atom, acceptor molecule, acceptor atom, score
      L1  H     5    43       P1  8028  1.00
      P1  H  8011  8017       L1    18  0.10
      P1  H 10752 10763       L1    10  0.11

> <Gold.Chemscore.Hbond.Weighted>
-4.6644

> <Gold.Chemscore.Metal.Weighted>
-0.0000

> <Gold.Chemscore.Lipo.Weighted>
-14.4383

> <Gold.Chemscore.Internal_Hbond.Weighted>
0.0000

> <Gold.Chemscore.DEClash.Weighted>
0.0472

> <Gold.Chemscore.DEInternal.Weighted>
1.3708

> <Gold.Chemscore.Rot.Weighted>
6.3778

> <Gold.Chemscore.Internal.Correction.Weighted>
   9.000000E+99

> <Gold.Protein.RotatedTorsions>
[ 6907 6896 6895 6894 ] final   18.74 input  -60.11 | X-H torsion
[ 7974 7965 7964 7962 ] final  170.45 input  175.53 | X-H torsion
[ 8008 7997 7996 7995 ] final  -72.55 input   59.86 | X-H torsion
[ 10167 10162 10161 10158 ] final   34.55 input  -65.29 | X-H torsion
[ 10718 10713 10712 10709 ] final -106.52 input   66.30 | X-H torsion
[ 10763 10752 10751 10750 ] final   49.69 input  -60.55 | X-H torsion
[ 11005 11000 10999 10996 ] final   74.96 input  -57.11 | X-H torsion

> <Gold.Protein.ActiveResidues>
 VAL166  LYS551  ARG553  GLY616  TRP617  ASP618  TYR619  PRO620  LYS621  CYS622 
 ASP623  PHE694  ASN695  SER759  ASP760  ASP761  ALA762  ILE779  LEU786  VAL792 
 PHE793  MET794  SER795  GLU796  ALA797  LYS798  CYS799  TRP800  GLU811  SER814 

> <Gold.Protein.RotatedAtoms>
  151.8700  135.0493  160.0477 H   0  0  0  0  0  0  0  0  0  0  0  0  # atno 6907 bound_to 6896
  152.2596  133.5281  159.5382 H   0  0  0  0  0  0  0  0  0  0  0  0  # atno 6908 bound_to 6896
  150.7112  134.0764  159.3925 H   0  0  0  0  0  0  0  0  0  0  0  0  # atno 6909 bound_to 6896
  144.7323  139.9204  143.6420 H   0  0  0  0  0  0  0  0  0  0  0  0  # atno 7974 bound_to 7965
  154.5175  140.0795  156.8110 H   0  0  0  0  0  0  0  0  0  0  0  0  # atno 8008 bound_to 7997
  155.3647  140.3420  155.4223 H   0  0  0  0  0  0  0  0  0  0  0  0  # atno 8009 bound_to 7997
  156.1645  140.1599  156.8543 H   0  0  0  0  0  0  0  0  0  0  0  0  # atno 8010 bound_to 7997
  140.4305  144.1331  150.6159 H   0  0  0  0  0  0  0  0  0  0  0  0  # atno 10167 bound_to 10162
  156.0394  130.5617  150.7693 H   0  0  0  0  0  0  0  0  0  0  0  0  # atno 10718 bound_to 10713
  152.9786  135.5903  154.4130 H   0  0  0  0  0  0  0  0  0  0  0  0  # atno 10763 bound_to 10752
  154.3763  135.2767  155.2239 H   0  0  0  0  0  0  0  0  0  0  0  0  # atno 10764 bound_to 10752
  154.4172  135.6067  153.6042 H   0  0  0  0  0  0  0  0  0  0  0  0  # atno 10765 bound_to 10752
  139.9366  134.7477  156.1212 H   0  0  0  0  0  0  0  0  0  0  0  0  # atno 11005 bound_to 11000
  146.0934  139.3925  143.0392 LP  0  0  0  0  0  0  0  0  0  0  0  0  # atno 17320 bound_to 7965
  145.7680  140.9908  143.1165 LP  0  0  0  0  0  0  0  0  0  0  0  0  # atno 17321 bound_to 7965
  140.4432  143.2517  151.9445 LP  0  0  0  0  0  0  0  0  0  0  0  0  # atno 17342 bound_to 10162
  139.4785  144.5634  151.8204 LP  0  0  0  0  0  0  0  0  0  0  0  0  # atno 17343 bound_to 10162
  157.5191  131.0930  151.0102 LP  0  0  0  0  0  0  0  0  0  0  0  0  # atno 17370 bound_to 10713
  157.0437  130.5759  149.5360 LP  0  0  0  0  0  0  0  0  0  0  0  0  # atno 17371 bound_to 10713
  141.0983  133.6687  156.2694 LP  0  0  0  0  0  0  0  0  0  0  0  0  # atno 17394 bound_to 11000
  140.6059  134.5507  157.5525 LP  0  0  0  0  0  0  0  0  0  0  0  0  # atno 17395 bound_to 11000

$$$$
