AV-unprocessed.smi:2213|AV-procd|sdf|8956|dock8
  -GOLD-   2272012173D 1   1.00000     0.00000
 Structure written by MMmdl.
 38 39  0  0  0  0  0  0  0  0  1 V2000
  148.6398  131.0304  158.8700 C   0  0  0  0  0  0  0  0  0  0  0  0
  148.6434  132.5452  158.9752 C   0  0  0  0  0  0  0  0  0  0  0  0
  148.7032  133.2347  157.7607 N   0  0  0  0  0  0  0  0  0  0  0  0
  148.7183  134.5274  157.7531 C   0  0  0  0  0  0  0  0  0  0  0  0
  148.6748  135.2726  158.9427 N   0  0  0  0  0  0  0  0  0  0  0  0
  148.7050  136.7374  158.7958 C   0  0  0  0  0  0  0  0  0  0  0  0
  150.0273  137.2378  158.1717 C   0  0  2  0  0  0  0  0  0  0  0  0
  151.1055  136.4151  158.5705 O   0  0  0  0  0  0  0  0  0  0  0  0
  150.3702  138.6838  158.5691 C   0  0  0  0  0  0  0  0  0  0  0  0
  151.7805  138.8303  158.6820 O   0  0  0  0  0  0  0  0  0  0  0  0
  152.2810  139.9718  159.2723 C   0  0  0  0  0  0  0  0  0  0  0  0
  151.5461  141.1765  159.4148 C   0  0  0  0  0  0  0  0  0  0  0  0
  152.1301  142.3022  160.0281 C   0  0  0  0  0  0  0  0  0  0  0  0
  151.2235  143.7609  160.1931 Cl  0  0  0  0  0  0  0  0  0  0  0  0
  153.4518  142.2394  160.5066 C   0  0  0  0  0  0  0  0  0  0  0  0
  154.1886  141.0487  160.3718 C   0  0  0  0  0  0  0  0  0  0  0  0
  153.6065  139.9218  159.7590 C   0  0  0  0  0  0  0  0  0  0  0  0
  154.5323  138.4710  159.6077 Cl  0  0  0  0  0  0  0  0  0  0  0  0
  148.6004  134.6799  160.1694 C   0  0  0  0  0  0  0  0  0  0  0  0
  148.5421  135.3442  161.2060 O   0  0  0  0  0  0  0  0  0  0  0  0
  148.5927  133.2080  160.1628 C   0  0  0  0  0  0  0  0  0  0  0  0
  148.5272  132.5106  161.5158 C   0  0  0  0  0  0  0  0  0  0  0  0
  149.5128  130.6114  159.3711 H   0  0  0  0  0  0  0  0  0  0  0  0
  148.6642  130.7045  157.8293 H   0  0  0  0  0  0  0  0  0  0  0  0
  147.7412  130.6168  159.3281 H   0  0  0  0  0  0  0  0  0  0  0  0
  148.7615  135.1125  156.8328 H   0  0  0  0  0  0  0  0  0  0  0  0
  147.8715  137.0349  158.1565 H   0  0  0  0  0  0  0  0  0  0  0  0
  148.5118  137.2493  159.7412 H   0  0  0  0  0  0  0  0  0  0  0  0
  149.9734  137.1967  157.0832 H   0  0  0  0  0  0  0  0  0  0  0  0
  151.0351  136.2550  159.4991 H   0  0  0  0  0  0  0  0  0  0  0  0
  149.9558  139.3867  157.8441 H   0  0  0  0  0  0  0  0  0  0  0  0
  149.9139  138.8981  159.5369 H   0  0  0  0  0  0  0  0  0  0  0  0
  150.5300  141.2618  159.0612 H   0  0  0  0  0  0  0  0  0  0  0  0
  153.9011  143.1016  160.9770 H   0  0  0  0  0  0  0  0  0  0  0  0
  155.2029  141.0004  160.7399 H   0  0  0  0  0  0  0  0  0  0  0  0
  147.6131  132.7918  162.0394 H   0  0  0  0  0  0  0  0  0  0  0  0
  149.3760  132.8061  162.1333 H   0  0  0  0  0  0  0  0  0  0  0  0
  148.5402  131.4246  161.4408 H   0  0  0  0  0  0  0  0  0  0  0  0
  1  2  1  0  0  0  0
  1 23  1  0  0  0  0
  1 24  1  0  0  0  0
  1 25  1  0  0  0  0
  2 21  2  0  0  0  0
  2  3  1  0  0  0  0
  3  4  2  0  0  0  0
  4  5  1  0  0  0  0
  4 26  1  0  0  0  0
  5  6  1  0  0  0  0
  5 19  1  0  0  0  0
  6  7  1  0  0  0  0
  6 27  1  0  0  0  0
  6 28  1  0  0  0  0
  7  8  1  0  0  0  0
  7  9  1  0  0  0  0
  7 29  1  0  0  0  0
  8 30  1  0  0  0  0
  9 10  1  0  0  0  0
  9 31  1  0  0  0  0
  9 32  1  0  0  0  0
 10 11  1  0  0  0  0
 11 17  1  0  0  0  0
 11 12  2  0  0  0  0
 12 13  1  0  0  0  0
 12 33  1  0  0  0  0
 13 14  1  0  0  0  0
 13 15  2  0  0  0  0
 15 16  1  0  0  0  0
 15 34  1  0  0  0  0
 16 17  2  0  0  0  0
 16 35  1  0  0  0  0
 17 18  1  0  0  0  0
 19 20  2  0  0  0  0
 19 21  1  0  0  0  0
 21 22  1  0  0  0  0
 22 36  1  0  0  0  0
 22 37  1  0  0  0  0
 22 38  1  0  0  0  0
M  END
> <s_m_source_file>
AV-unprocessed.smi

> <i_m_source_file_index>
2213

> <i_lp_mmshare_version>
43012

> <i_f3d_flags>
0

> <s_epik_input>
W0NIM11jMW5bY0hdbihjKD1PKWMxW0NIM10pW0NIMl1bQ0BIXShbT0hdKVtDSDJdT2MyW2NIXWMoQ2wpW2NIXVtjSF1jMkNs

> <s_epik_cmdline>
J2VwaWtfcHl0aG9uJywgJy1waCcsICc3LjAnLCAnLXRuJywgJzgnLCAnLW1hJywgJzIwMCcsICctbWV0YWxfYmluZGluZycsICctaW1hZScsICc8aW5maWxlLm1hZT4nLCAnLW9tYWUnLCAnPG91dGZpbGUubWFlPic=

> <r_lp_tautomer_probability>
1

> <r_epik_Ionization_Penalty>
3.50205e-05

> <r_epik_Ionization_Penalty_Charging>
7.87908e-08

> <r_epik_Ionization_Penalty_Neutral>
3.49418e-05

> <r_epik_State_Penalty>
-0

> <r_epik_Charging_Adjusted_Penalty>
7.87908e-08

> <i_epik_Tot_Q>
0

> <i_epik_Tot_abs_Q>
0

> <r_epik_Metal_State_Penalty>
-0

> <b_epik_Metal_Only>
0

> <s_lp_Force_Field>
OPLS_2005

> <r_lp_Energy>
24.8727

> <b_lp_Chiralities_Consistent>
1

> <s_lp_Variant>
AV-unprocessed.smi:2213-1

> <Gold.Version>
5.8.1

> <Gold.Id.Protein>
6NUR|6NUR_protein|mol2

> <Gold.PLP.Fitness>
52.3111

> <Gold.PLP.PLP>
-46.0562

> <Gold.PLP.part.hbond>
-3.6397

> <Gold.PLP.part.metal>
0.0000

> <Gold.PLP.part.buried>
-4.8661

> <Gold.PLP.part.nonpolar>
-37.4242

> <Gold.PLP.part.repulsive>
0.0000

> <Gold.PLP.ligand.clash>
0.0000

> <Gold.PLP.ligand.torsion>
1.1099

> <Gold.PLP.Chemscore.Hbond>
2.8124

> <Gold.PLP.Chemscore.CHOScore>
0.0000

> <Gold.PLP.Chemscore.Metal>
0.0000

> <Gold.PLP.Chemscore.Internal.Correction>
0.0377

> <Gold.Rescore>
     Score         DG    S(hbond)    S(metal)    S(lipo)     H(rot)  DE(clash)    DE(int)     intcor
     18.10     -18.79       1.75        0.00     115.85       2.38       0.03       0.66       ----

> <Gold.Chemscore.Fitness>
18.1013

> <Gold.Chemscore.DG>
-18.7872

> <Gold.Chemscore.ZeroCoef>
-5.4800

> <Gold.Chemscore.Hbond>
1.7523

> <Gold.Chemscore.Metal>
0.0000

> <Gold.Chemscore.Lipo>
115.8469

> <Gold.Chemscore.Internal_Hbond>
0.0000

> <Gold.Chemscore.DEClash>
0.0305

> <Gold.Chemscore.DEInternal>
0.6554

> <Gold.Chemscore.Rot>
2.3826

> <Gold.Chemscore.Internal.Correction>
   9.000000E+99

> <Gold.Chemscore.Hbond.Weighted>
-5.8527

> <Gold.Chemscore.Metal.Weighted>
-0.0000

> <Gold.Chemscore.Lipo.Weighted>
-13.5541

> <Gold.Chemscore.Internal_Hbond.Weighted>
0.0000

> <Gold.Chemscore.DEClash.Weighted>
0.0305

> <Gold.Chemscore.DEInternal.Weighted>
0.6554

> <Gold.Chemscore.Rot.Weighted>
6.0996

> <Gold.Chemscore.Internal.Correction.Weighted>
   9.000000E+99

> <Gold.Protein.RotatedTorsions>
[ 6907 6896 6895 6894 ] final    0.41 input  -60.11 | X-H torsion
[ 7974 7965 7964 7962 ] final -161.02 input  175.53 | X-H torsion
[ 8008 7997 7996 7995 ] final -164.12 input   59.86 | X-H torsion
[ 10167 10162 10161 10158 ] final -167.61 input  -65.29 | X-H torsion
[ 10718 10713 10712 10709 ] final   66.55 input   66.30 | X-H torsion
[ 10763 10752 10751 10750 ] final  142.35 input  -60.55 | X-H torsion
[ 11005 11000 10999 10996 ] final   83.95 input  -57.11 | X-H torsion

> <Gold.Protein.ActiveResidues>
 VAL166  LYS551  ARG553  GLY616  TRP617  ASP618  TYR619  PRO620  LYS621  CYS622 
 ASP623  PHE694  ASN695  SER759  ASP760  ASP761  ALA762  ILE779  LEU786  VAL792 
 PHE793  MET794  SER795  GLU796  ALA797  LYS798  CYS799  TRP800  GLU811  SER814 

> <Gold.Protein.RotatedAtoms>
  151.5761  135.1060  160.0006 H   0  0  0  0  0  0  0  0  0  0  0  0  # atno 6907 bound_to 6896
  152.4377  133.7387  159.6639 H   0  0  0  0  0  0  0  0  0  0  0  0  # atno 6908 bound_to 6896
  150.8277  133.8073  159.3135 H   0  0  0  0  0  0  0  0  0  0  0  0  # atno 6909 bound_to 6896
  144.7406  140.3458  143.6125 H   0  0  0  0  0  0  0  0  0  0  0  0  # atno 7974 bound_to 7965
  155.8311  140.0934  157.1792 H   0  0  0  0  0  0  0  0  0  0  0  0  # atno 8008 bound_to 7997
  154.3980  140.1419  156.3675 H   0  0  0  0  0  0  0  0  0  0  0  0  # atno 8009 bound_to 7997
  155.8165  140.3448  155.5491 H   0  0  0  0  0  0  0  0  0  0  0  0  # atno 8010 bound_to 7997
  139.6038  144.0954  152.1772 H   0  0  0  0  0  0  0  0  0  0  0  0  # atno 10167 bound_to 10162
  157.6176  130.9273  150.0123 H   0  0  0  0  0  0  0  0  0  0  0  0  # atno 10718 bound_to 10713
  153.9544  135.2966  155.3437 H   0  0  0  0  0  0  0  0  0  0  0  0  # atno 10763 bound_to 10752
  154.7409  135.5025  153.9124 H   0  0  0  0  0  0  0  0  0  0  0  0  # atno 10764 bound_to 10752
  153.0978  135.6726  153.9839 H   0  0  0  0  0  0  0  0  0  0  0  0  # atno 10765 bound_to 10752
  139.9015  134.8182  156.2379 H   0  0  0  0  0  0  0  0  0  0  0  0  # atno 11005 bound_to 11000
  145.7327  139.1741  143.2421 LP  0  0  0  0  0  0  0  0  0  0  0  0  # atno 17320 bound_to 7965
  146.1194  140.7328  142.9465 LP  0  0  0  0  0  0  0  0  0  0  0  0  # atno 17321 bound_to 7965
  140.0557  144.5897  150.7301 LP  0  0  0  0  0  0  0  0  0  0  0  0  # atno 17342 bound_to 10162
  140.7270  143.2647  151.4086 LP  0  0  0  0  0  0  0  0  0  0  0  0  # atno 17343 bound_to 10162
  156.1305  130.3643  149.9740 LP  0  0  0  0  0  0  0  0  0  0  0  0  # atno 17370 bound_to 10713
  156.7802  130.9218  151.3646 LP  0  0  0  0  0  0  0  0  0  0  0  0  # atno 17371 bound_to 10713
  141.0304  133.6992  156.1420 LP  0  0  0  0  0  0  0  0  0  0  0  0  # atno 17394 bound_to 11000
  140.7105  134.4466  157.5582 LP  0  0  0  0  0  0  0  0  0  0  0  0  # atno 17395 bound_to 11000

$$$$
