AV-unprocessed.smi:3324|AV-procd|sdf|12783|dock3
  -GOLD-   2272019133D 1   1.00000     0.00000
 Structure written by MMmdl.
 30 30  0  0  0  0  0  0  0  0  3 V2000
  148.7203  142.2974  154.0252 O   0  0  0  0  0  0  0  0  0  0  0  0
  149.3270  141.4563  154.6956 C   0  0  0  0  0  0  0  0  0  0  0  0
  149.3662  141.6291  156.2150 C   0  0  0  0  0  0  0  0  0  0  0  0
  150.3235  142.6974  156.5612 N   0  3  0  0  0  0  0  0  0  0  0  0
  150.4065  142.9886  158.0040 C   0  0  0  0  0  0  0  0  0  0  0  0
  151.8226  143.4324  158.3952 C   0  0  0  0  0  0  0  0  0  0  0  0
  152.5055  142.4163  159.1718 N   0  0  0  0  0  0  0  0  0  0  0  0
  152.9706  142.4939  160.4678 C   0  0  0  0  0  0  0  0  0  0  0  0
  153.5379  141.2886  160.7679 C   0  0  0  0  0  0  0  0  0  0  0  0
  153.3701  140.5296  159.5759 C   0  0  0  0  0  0  0  0  0  0  0  0
  152.7505  141.2074  158.6227 N   0  0  0  0  0  0  0  0  0  0  0  0
  150.0098  140.3423  154.3148 N   0  5  0  0  0  0  0  0  0  0  0  0
  149.7384  139.0067  154.8483 C   0  0  0  0  0  0  0  0  0  0  0  0
  150.9419  138.0727  154.6208 C   0  0  0  0  0  0  0  0  0  0  0  0
  150.6590  136.8654  155.1097 F   0  0  0  0  0  0  0  0  0  0  0  0
  151.2040  137.9513  153.3182 F   0  0  0  0  0  0  0  0  0  0  0  0
  152.0250  138.5393  155.2445 F   0  0  0  0  0  0  0  0  0  0  0  0
  148.3736  141.8895  156.5856 H   0  0  0  0  0  0  0  0  0  0  0  0
  149.6569  140.6912  156.6916 H   0  0  0  0  0  0  0  0  0  0  0  0
  151.2332  142.4095  156.2281 H   0  0  0  0  0  0  0  0  0  0  0  0
  149.6875  143.7702  158.2534 H   0  0  0  0  0  0  0  0  0  0  0  0
  150.1231  142.0969  158.5650 H   0  0  0  0  0  0  0  0  0  0  0  0
  152.4163  143.6496  157.5056 H   0  0  0  0  0  0  0  0  0  0  0  0
  151.7854  144.3506  158.9831 H   0  0  0  0  0  0  0  0  0  0  0  0
  152.8601  143.3889  161.0624 H   0  0  0  0  0  0  0  0  0  0  0  0
  154.0024  140.9937  161.6973 H   0  0  0  0  0  0  0  0  0  0  0  0
  153.6771  139.5135  159.3765 H   0  0  0  0  0  0  0  0  0  0  0  0
  149.5167  139.0413  155.9160 H   0  0  0  0  0  0  0  0  0  0  0  0
  148.8576  138.5667  154.3784 H   0  0  0  0  0  0  0  0  0  0  0  0
  150.0520  143.5357  156.0685 H   0  0  0  0  0  0  0  0  0  0  0  0
  1  2  2  0  0  0  0
  2  3  1  0  0  0  0
  2 12  1  0  0  0  0
  3  4  1  0  0  0  0
  3 18  1  0  0  0  0
  3 19  1  0  0  0  0
  4  5  1  0  0  0  0
  4 20  1  0  0  0  0
  4 30  1  0  0  0  0
  5  6  1  0  0  0  0
  5 21  1  0  0  0  0
  5 22  1  0  0  0  0
  6  7  1  0  0  0  0
  6 23  1  0  0  0  0
  6 24  1  0  0  0  0
  7 11  1  0  0  0  0
  7  8  1  0  0  0  0
  8  9  2  0  0  0  0
  8 25  1  0  0  0  0
  9 10  1  0  0  0  0
  9 26  1  0  0  0  0
 10 11  2  0  0  0  0
 10 27  1  0  0  0  0
 12 13  1  0  0  0  0
 13 14  1  0  0  0  0
 13 28  1  0  0  0  0
 13 29  1  0  0  0  0
 14 15  1  0  0  0  0
 14 16  1  0  0  0  0
 14 17  1  0  0  0  0
M  CHG  1   4   1
M  CHG  1  12  -1
M  END
> <s_m_source_file>
AV-unprocessed.smi

> <i_m_source_file_index>
3324

> <i_lp_mmshare_version>
43012

> <i_f3d_flags>
0

> <s_epik_input>
RkMoRikoRilbQ0gyXVtOSF1DKD1PKVtDSDJdW05IXVtDSDJdW0NIMl1uMVtjSF1bY0hdW2NIXW4x

> <s_epik_cmdline>
J2VwaWtfcHl0aG9uJywgJy1waCcsICc3LjAnLCAnLXRuJywgJzgnLCAnLW1hJywgJzIwMCcsICctbWV0YWxfYmluZGluZycsICctaW1hZScsICc8aW5maWxlLm1hZT4nLCAnLW9tYWUnLCAnPG91dGZpbGUubWFlPic=

> <r_lp_tautomer_probability>
1

> <r_epik_Ionization_Penalty>
6.17309

> <r_epik_Ionization_Penalty_Charging>
6.17309

> <r_epik_Ionization_Penalty_Neutral>
2.40201e-06

> <r_epik_State_Penalty>
6.46579

> <r_epik_Charging_Adjusted_Penalty>
12.6389

> <i_epik_Tot_Q>
0

> <i_epik_Tot_abs_Q>
2

> <r_epik_Metal_State_Penalty>
2.40143

> <b_epik_Metal_Only>
1

> <s_lp_Force_Field>
OPLS_2005

> <r_lp_Energy>
2.56422

> <b_lp_Chiralities_Consistent>
1

> <s_lp_Variant>
AV-unprocessed.smi:3324-3

> <Gold.Version>
5.8.1

> <Gold.Id.Protein>
6NUR|6NUR_protein|mol2

> <Gold.PLP.Fitness>
45.3856

> <Gold.PLP.PLP>
-37.7605

> <Gold.PLP.part.hbond>
-3.0816

> <Gold.PLP.part.metal>
0.0000

> <Gold.PLP.part.buried>
-4.3693

> <Gold.PLP.part.nonpolar>
-30.9184

> <Gold.PLP.part.repulsive>
0.4804

> <Gold.PLP.ligand.clash>
0.0000

> <Gold.PLP.ligand.torsion>
1.3965

> <Gold.PLP.Chemscore.Hbond>
3.4160

> <Gold.PLP.Chemscore.CHOScore>
0.0000

> <Gold.PLP.Chemscore.Metal>
0.0000

> <Gold.Chemscore.Hbonds>
donor molecule, donor type, donor heavy atom, donor atom, acceptor molecule, acceptor atom, score
      L1  H     4    30       P1  8028  2.00
      P1  H  7989  7998       L1    12  0.90
      P1  H  8011  8017       L1     1  0.26

> <Gold.PLP.Chemscore.Internal.Correction>
0.1701

> <Gold.Rescore>
     Score         DG    S(hbond)    S(metal)    S(lipo)     H(rot)  DE(clash)    DE(int)     intcor
     10.84     -12.14       1.87        0.00      65.72       2.83       0.10       1.20       ----

> <Gold.Chemscore.Fitness>
10.8361

> <Gold.Chemscore.DG>
-12.1433

> <Gold.Chemscore.ZeroCoef>
-5.4800

> <Gold.Chemscore.Hbond>
1.8651

> <Gold.Chemscore.Metal>
0.0000

> <Gold.Chemscore.Lipo>
65.7203

> <Gold.Chemscore.Internal_Hbond>
0.0000

> <Gold.Chemscore.DEClash>
0.1032

> <Gold.Chemscore.DEInternal>
1.2040

> <Gold.Chemscore.Rot>
2.8342

> <Gold.Chemscore.Internal.Correction>
   9.000000E+99

> <Gold.Chemscore.Hbonds>
donor molecule, donor type, donor heavy atom, donor atom, acceptor molecule, acceptor atom, score
      L1  H     4    30       P1  8028  0.96
      P1  H  7989  7998       L1    12  0.57
      P1  H  8011  8017       L1     1  0.11
      P1  H  8022  8030       L1     1  0.02

> <Gold.Chemscore.Hbond.Weighted>
-6.2295

> <Gold.Chemscore.Metal.Weighted>
-0.0000

> <Gold.Chemscore.Lipo.Weighted>
-7.6893

> <Gold.Chemscore.Internal_Hbond.Weighted>
0.0000

> <Gold.Chemscore.DEClash.Weighted>
0.1032

> <Gold.Chemscore.DEInternal.Weighted>
1.2040

> <Gold.Chemscore.Rot.Weighted>
7.2555

> <Gold.Chemscore.Internal.Correction.Weighted>
   9.000000E+99

> <Gold.Protein.RotatedTorsions>
[ 6907 6896 6895 6894 ] final  152.20 input  -60.11 | X-H torsion
[ 7974 7965 7964 7962 ] final  164.50 input  175.53 | X-H torsion
[ 8008 7997 7996 7995 ] final -140.70 input   59.86 | X-H torsion
[ 10167 10162 10161 10158 ] final  -19.93 input  -65.29 | X-H torsion
[ 10718 10713 10712 10709 ] final -163.49 input   66.30 | X-H torsion
[ 10763 10752 10751 10750 ] final  -91.76 input  -60.55 | X-H torsion
[ 11005 11000 10999 10996 ] final  -98.70 input  -57.11 | X-H torsion

> <Gold.Protein.ActiveResidues>
 VAL166  LYS551  ARG553  GLY616  TRP617  ASP618  TYR619  PRO620  LYS621  CYS622 
 ASP623  PHE694  ASN695  SER759  ASP760  ASP761  ALA762  ILE779  LEU786  VAL792 
 PHE793  MET794  SER795  GLU796  ALA797  LYS798  CYS799  TRP800  GLU811  SER814 

> <Gold.Protein.RotatedAtoms>
  152.0900  133.4196  159.4539 H   0  0  0  0  0  0  0  0  0  0  0  0  # atno 6907 bound_to 6896
  150.6862  134.2882  159.4665 H   0  0  0  0  0  0  0  0  0  0  0  0  # atno 6908 bound_to 6896
  152.0733  134.9519  160.0625 H   0  0  0  0  0  0  0  0  0  0  0  0  # atno 6909 bound_to 6896
  144.7542  139.8335  143.6355 H   0  0  0  0  0  0  0  0  0  0  0  0  # atno 7974 bound_to 7965
  155.4657  140.0549  157.2985 H   0  0  0  0  0  0  0  0  0  0  0  0  # atno 8008 bound_to 7997
  154.4719  140.2044  155.9928 H   0  0  0  0  0  0  0  0  0  0  0  0  # atno 8009 bound_to 7997
  156.1069  140.3210  155.8024 H   0  0  0  0  0  0  0  0  0  0  0  0  # atno 8010 bound_to 7997
  140.7272  143.4771  151.0168 H   0  0  0  0  0  0  0  0  0  0  0  0  # atno 10167 bound_to 10162
  156.6254  130.8907  151.2966 H   0  0  0  0  0  0  0  0  0  0  0  0  # atno 10718 bound_to 10713
  154.6793  135.5256  153.8242 H   0  0  0  0  0  0  0  0  0  0  0  0  # atno 10763 bound_to 10752
  153.0554  135.6548  154.0600 H   0  0  0  0  0  0  0  0  0  0  0  0  # atno 10764 bound_to 10752
  154.0490  135.2971  155.3323 H   0  0  0  0  0  0  0  0  0  0  0  0  # atno 10765 bound_to 10752
  141.1335  133.8265  157.0874 H   0  0  0  0  0  0  0  0  0  0  0  0  # atno 11005 bound_to 11000
  146.1532  139.4622  143.0035 LP  0  0  0  0  0  0  0  0  0  0  0  0  # atno 17320 bound_to 7965
  145.6836  141.0184  143.1593 LP  0  0  0  0  0  0  0  0  0  0  0  0  # atno 17321 bound_to 7965
  139.8467  143.7492  152.3179 LP  0  0  0  0  0  0  0  0  0  0  0  0  # atno 17342 bound_to 10162
  139.7660  144.7492  151.0294 LP  0  0  0  0  0  0  0  0  0  0  0  0  # atno 17343 bound_to 10162
  157.7215  130.9565  150.1460 LP  0  0  0  0  0  0  0  0  0  0  0  0  # atno 17370 bound_to 10713
  156.2277  130.3679  149.8481 LP  0  0  0  0  0  0  0  0  0  0  0  0  # atno 17371 bound_to 10713
  140.0414  134.9852  157.0968 LP  0  0  0  0  0  0  0  0  0  0  0  0  # atno 17394 bound_to 11000
  140.4130  134.1961  155.7163 LP  0  0  0  0  0  0  0  0  0  0  0  0  # atno 17395 bound_to 11000

$$$$
