AV-unprocessed.smi:1813|AV-procd|sdf|7346|dock3
  -GOLD-   22720 9 03D 1   1.00000     0.00000
 Structure written by MMmdl.
 39 40  0  0  0  0  0  0  0  0  3 V2000
  143.1551  136.9928  152.9873 C   0  0  0  0  0  0  0  0  0  0  0  0
  144.2961  137.7870  152.5576 N   0  0  0  0  0  0  0  0  0  0  0  0
  145.4938  137.7716  153.1585 C   0  0  0  0  0  0  0  0  0  0  0  0
  145.7479  137.0703  154.1384 O   0  0  0  0  0  0  0  0  0  0  0  0
  146.5704  138.6731  152.5455 C   0  0  0  0  0  0  0  0  0  0  0  0
  147.2423  139.5409  153.5465 N   0  3  2  0  0  0  0  0  0  0  0  0
  147.5633  140.8958  153.0235 C   0  0  0  0  0  0  0  0  0  0  0  0
  148.1246  141.7983  154.1339 C   0  0  0  0  0  0  0  0  0  0  0  0
  149.3630  141.1662  154.7882 C   0  0  1  0  0  0  0  0  0  0  0  0
  149.8194  142.0039  155.8928 N   0  0  0  0  0  0  0  0  0  0  0  0
  150.8481  141.7362  156.7099 C   0  0  0  0  0  0  0  0  0  0  0  0
  151.5015  140.7015  156.5575 O   0  0  0  0  0  0  0  0  0  0  0  0
  151.0512  142.6821  157.6541 N   0  5  0  0  0  0  0  0  0  0  0  0
  151.9007  142.4472  158.6674 C   0  0  0  0  0  0  0  0  0  0  0  0
  152.6099  141.3183  158.7778 N   0  0  0  0  0  0  0  0  0  0  0  0
  153.4325  141.2876  159.9053 C   0  0  0  0  0  0  0  0  0  0  0  0
  153.3547  142.4236  160.6663 C   0  0  0  0  0  0  0  0  0  0  0  0
  152.2396  143.5732  159.9850 S   0  0  0  0  0  0  0  0  0  0  0  0
  149.0195  139.7484  155.2810 C   0  0  0  0  0  0  0  0  0  0  0  0
  148.4359  138.8924  154.1461 C   0  0  0  0  0  0  0  0  0  0  0  0
  142.3037  137.1811  152.3331 H   0  0  0  0  0  0  0  0  0  0  0  0
  142.8643  137.2493  154.0068 H   0  0  0  0  0  0  0  0  0  0  0  0
  143.3855  135.9274  152.9477 H   0  0  0  0  0  0  0  0  0  0  0  0
  144.1657  138.3823  151.7523 H   0  0  0  0  0  0  0  0  0  0  0  0
  147.3035  138.0104  152.0839 H   0  0  0  0  0  0  0  0  0  0  0  0
  146.1509  139.2831  151.7435 H   0  0  0  0  0  0  0  0  0  0  0  0
  148.2847  140.8115  152.2093 H   0  0  0  0  0  0  0  0  0  0  0  0
  146.6700  141.3601  152.6054 H   0  0  0  0  0  0  0  0  0  0  0  0
  148.3783  142.7758  153.7217 H   0  0  0  0  0  0  0  0  0  0  0  0
  147.3527  141.9704  154.8856 H   0  0  0  0  0  0  0  0  0  0  0  0
  150.1527  141.1040  154.0368 H   0  0  0  0  0  0  0  0  0  0  0  0
  149.3151  142.8632  156.0557 H   0  0  0  0  0  0  0  0  0  0  0  0
  154.0426  140.4157  160.0876 H   0  0  0  0  0  0  0  0  0  0  0  0
  153.8821  142.6546  161.5792 H   0  0  0  0  0  0  0  0  0  0  0  0
  149.9083  139.2622  155.6847 H   0  0  0  0  0  0  0  0  0  0  0  0
  148.3006  139.8046  156.0999 H   0  0  0  0  0  0  0  0  0  0  0  0
  148.1649  137.9132  154.5422 H   0  0  0  0  0  0  0  0  0  0  0  0
  149.1885  138.7261  153.3736 H   0  0  0  0  0  0  0  0  0  0  0  0
  146.5803  139.6658  154.2996 H   0  0  0  0  0  0  0  0  0  0  0  0
  1  2  1  0  0  0  0
  1 21  1  0  0  0  0
  1 22  1  0  0  0  0
  1 23  1  0  0  0  0
  2  3  1  0  0  0  0
  2 24  1  0  0  0  0
  3  4  2  0  0  0  0
  3  5  1  0  0  0  0
  5  6  1  0  0  0  0
  5 25  1  0  0  0  0
  5 26  1  0  0  0  0
  6 20  1  0  0  0  0
  6  7  1  0  0  0  0
  6 39  1  0  0  0  0
  7  8  1  0  0  0  0
  7 27  1  0  0  0  0
  7 28  1  0  0  0  0
  8  9  1  0  0  0  0
  8 29  1  0  0  0  0
  8 30  1  0  0  0  0
  9 10  1  0  0  0  0
  9 19  1  0  0  0  0
  9 31  1  0  0  0  0
 10 11  1  0  0  0  0
 10 32  1  0  0  0  0
 11 12  2  0  0  0  0
 11 13  1  0  0  0  0
 13 14  1  0  0  0  0
 14 18  1  0  0  0  0
 14 15  2  0  0  0  0
 15 16  1  0  0  0  0
 16 17  2  0  0  0  0
 16 33  1  0  0  0  0
 17 18  1  0  0  0  0
 17 34  1  0  0  0  0
 19 20  1  0  0  0  0
 19 35  1  0  0  0  0
 19 36  1  0  0  0  0
 20 37  1  0  0  0  0
 20 38  1  0  0  0  0
M  CHG  1   6   1
M  CHG  1  13  -1
M  END
> <s_m_source_file>
AV-unprocessed.smi

> <i_m_source_file_index>
1813

> <i_lp_mmshare_version>
43012

> <i_f3d_flags>
0

> <s_epik_input>
W0NIM11bTkhdQyg9TylbQ0gyXU4xW0NIMl1bQ0gyXVtDSF0oW0NIMl1bQ0gyXTEpW05IXUMoPU8pW05IXWMybltjSF1bY0hdczI=

> <s_epik_cmdline>
J2VwaWtfcHl0aG9uJywgJy1waCcsICc3LjAnLCAnLXRuJywgJzgnLCAnLW1hJywgJzIwMCcsICctbWV0YWxfYmluZGluZycsICctaW1hZScsICc8aW5maWxlLm1hZT4nLCAnLW9tYWUnLCAnPG91dGZpbGUubWFlPic=

> <r_lp_tautomer_probability>
0.999

> <r_epik_Ionization_Penalty>
7.12128

> <r_epik_Ionization_Penalty_Charging>
6.25357

> <r_epik_Ionization_Penalty_Neutral>
0.867707

> <r_epik_State_Penalty>
6.33838

> <r_epik_Charging_Adjusted_Penalty>
12.592

> <i_epik_Tot_Q>
0

> <i_epik_Tot_abs_Q>
2

> <r_epik_Metal_State_Penalty>
2.34161

> <b_epik_Metal_Only>
1

> <s_lp_Force_Field>
OPLS_2005

> <r_lp_Energy>
3.88073

> <b_lp_Chiralities_Consistent>
1

> <s_lp_Variant>
AV-unprocessed.smi:1813-7

> <Gold.Version>
5.8.1

> <Gold.Id.Protein>
6NUR|6NUR_protein|mol2

> <Gold.PLP.Fitness>
41.9047

> <Gold.PLP.PLP>
-37.0092

> <Gold.PLP.part.hbond>
-3.2283

> <Gold.PLP.part.metal>
0.0000

> <Gold.PLP.part.buried>
-2.7866

> <Gold.PLP.part.nonpolar>
-31.5905

> <Gold.PLP.part.repulsive>
0.3647

> <Gold.PLP.ligand.clash>
0.0000

> <Gold.PLP.ligand.torsion>
0.5598

> <Gold.PLP.Chemscore.Hbond>
1.9920

> <Gold.PLP.Chemscore.CHOScore>
0.0000

> <Gold.PLP.Chemscore.Metal>
0.0000

> <Gold.Chemscore.Hbonds>
donor molecule, donor type, donor heavy atom, donor atom, acceptor molecule, acceptor atom, score
      L1  H     2    24       P1 10171  1.00
      L1  H    10    32       P1  8028  1.00

> <Gold.PLP.Chemscore.Internal.Correction>
0.0390

> <Gold.Rescore>
     Score         DG    S(hbond)    S(metal)    S(lipo)     H(rot)  DE(clash)    DE(int)     intcor
     12.12     -16.48       1.93        0.00      77.53       1.76       0.84       3.52       ----

> <Gold.Chemscore.Fitness>
12.1240

> <Gold.Chemscore.DG>
-16.4789

> <Gold.Chemscore.ZeroCoef>
-5.4800

> <Gold.Chemscore.Hbond>
1.9263

> <Gold.Chemscore.Metal>
0.0000

> <Gold.Chemscore.Lipo>
77.5332

> <Gold.Chemscore.Internal_Hbond>
0.0000

> <Gold.Chemscore.DEClash>
0.8394

> <Gold.Chemscore.DEInternal>
3.5155

> <Gold.Chemscore.Rot>
1.7603

> <Gold.Chemscore.Internal.Correction>
   9.000000E+99

> <Gold.Chemscore.Hbonds>
donor molecule, donor type, donor heavy atom, donor atom, acceptor molecule, acceptor atom, score
      L1  H     2    24       P1 10171  0.94
      L1  H    10    32       P1  8028  0.96

> <Gold.Chemscore.Hbond.Weighted>
-6.4339

> <Gold.Chemscore.Metal.Weighted>
-0.0000

> <Gold.Chemscore.Lipo.Weighted>
-9.0714

> <Gold.Chemscore.Internal_Hbond.Weighted>
0.0000

> <Gold.Chemscore.DEClash.Weighted>
0.8394

> <Gold.Chemscore.DEInternal.Weighted>
3.5155

> <Gold.Chemscore.Rot.Weighted>
4.5064

> <Gold.Chemscore.Internal.Correction.Weighted>
   9.000000E+99

> <Gold.Protein.RotatedTorsions>
[ 6907 6896 6895 6894 ] final -156.50 input  -60.11 | X-H torsion
[ 7974 7965 7964 7962 ] final  113.93 input  175.53 | X-H torsion
[ 8008 7997 7996 7995 ] final   34.78 input   59.86 | X-H torsion
[ 10167 10162 10161 10158 ] final  123.48 input  -65.29 | X-H torsion
[ 10718 10713 10712 10709 ] final  -35.83 input   66.30 | X-H torsion
[ 10763 10752 10751 10750 ] final  -18.81 input  -60.55 | X-H torsion
[ 11005 11000 10999 10996 ] final   59.97 input  -57.11 | X-H torsion

> <Gold.Protein.ActiveResidues>
 VAL166  LYS551  ARG553  GLY616  TRP617  ASP618  TYR619  PRO620  LYS621  CYS622 
 ASP623  PHE694  ASN695  SER759  ASP760  ASP761  ALA762  ILE779  LEU786  VAL792 
 PHE793  MET794  SER795  GLU796  ALA797  LYS798  CYS799  TRP800  GLU811  SER814 

> <Gold.Protein.RotatedAtoms>
  151.2885  133.4176  159.2631 H   0  0  0  0  0  0  0  0  0  0  0  0  # atno 6907 bound_to 6896
  151.0298  134.9531  159.8115 H   0  0  0  0  0  0  0  0  0  0  0  0  # atno 6908 bound_to 6896
  152.5343  134.2846  159.9073 H   0  0  0  0  0  0  0  0  0  0  0  0  # atno 6909 bound_to 6896
  145.2107  139.2907  143.4270 H   0  0  0  0  0  0  0  0  0  0  0  0  # atno 7974 bound_to 7965
  155.1604  140.3283  155.4412 H   0  0  0  0  0  0  0  0  0  0  0  0  # atno 8008 bound_to 7997
  156.2544  140.1961  156.6662 H   0  0  0  0  0  0  0  0  0  0  0  0  # atno 8009 bound_to 7997
  154.6409  140.0570  156.9831 H   0  0  0  0  0  0  0  0  0  0  0  0  # atno 8010 bound_to 7997
  139.5797  144.6980  151.3560 H   0  0  0  0  0  0  0  0  0  0  0  0  # atno 10167 bound_to 10162
  156.3340  130.4283  149.7847 H   0  0  0  0  0  0  0  0  0  0  0  0  # atno 10718 bound_to 10713
  153.5950  135.7001  153.5407 H   0  0  0  0  0  0  0  0  0  0  0  0  # atno 10763 bound_to 10752
  153.3146  135.4091  155.1364 H   0  0  0  0  0  0  0  0  0  0  0  0  # atno 10764 bound_to 10752
  154.8593  135.3680  154.5483 H   0  0  0  0  0  0  0  0  0  0  0  0  # atno 10765 bound_to 10752
  140.0265  134.6075  155.9566 H   0  0  0  0  0  0  0  0  0  0  0  0  # atno 11005 bound_to 11000
  146.3398  140.2382  142.8595 LP  0  0  0  0  0  0  0  0  0  0  0  0  # atno 17320 bound_to 7965
  144.9858  140.8502  143.5369 LP  0  0  0  0  0  0  0  0  0  0  0  0  # atno 17321 bound_to 7965
  140.7076  143.7472  150.7510 LP  0  0  0  0  0  0  0  0  0  0  0  0  # atno 17342 bound_to 10162
  140.1002  143.4795  152.2430 LP  0  0  0  0  0  0  0  0  0  0  0  0  # atno 17343 bound_to 10162
  156.5108  130.8171  151.3168 LP  0  0  0  0  0  0  0  0  0  0  0  0  # atno 17370 bound_to 10713
  157.7435  130.9914  150.2601 LP  0  0  0  0  0  0  0  0  0  0  0  0  # atno 17371 bound_to 10713
  141.1806  133.6546  156.5003 LP  0  0  0  0  0  0  0  0  0  0  0  0  # atno 17394 bound_to 11000
  140.4298  134.7112  157.4935 LP  0  0  0  0  0  0  0  0  0  0  0  0  # atno 17395 bound_to 11000

$$$$
