AV-unprocessed.smi:49|AV-procd|sdf|486|dock3
  -GOLD-   2262016343D 1   1.00000     0.00000
 Structure written by MMmdl.
 27 28  0  0  0  0  0  0  0  0  3 V2000
  152.7537  141.6088  159.2718 C   0  0  0  0  0  0  0  0  0  0  0  0
  152.3491  140.2466  158.6998 C   0  0  0  0  0  0  0  0  0  0  0  0
  151.7824  140.3619  157.3016 C   0  0  0  0  0  0  0  0  0  0  0  0
  150.6729  141.0104  156.9614 N   0  0  0  0  0  0  0  0  0  0  0  0
  150.5667  140.8818  155.6323 C   0  0  0  0  0  0  0  0  0  0  0  0
  149.4528  141.4922  154.8036 C   0  0  1  0  0  0  0  0  0  0  0  0
  148.6060  140.4271  154.0918 C   0  0  0  0  0  0  0  0  0  0  0  0
  147.3937  140.2582  155.0034 C   0  0  2  0  0  0  0  0  0  0  0  0
  146.2675  139.7681  154.3067 O   0  0  0  0  0  0  0  0  0  0  0  0
  147.1750  141.6738  155.5349 C   0  0  0  0  0  0  0  0  0  0  0  0
  148.5241  142.2541  155.6658 N   0  3  0  0  0  0  0  0  0  0  0  0
  151.6051  140.1880  155.1386 N   0  0  0  0  0  0  0  0  0  0  0  0
  152.3439  139.8735  156.1816 N   0  5  0  0  0  0  0  0  0  0  0  0
  149.8994  142.1675  154.0727 H   0  0  0  0  0  0  0  0  0  0  0  0
  147.6396  139.5847  155.8258 H   0  0  0  0  0  0  0  0  0  0  0  0
  153.1604  141.5028  160.2775 H   0  0  0  0  0  0  0  0  0  0  0  0
  151.8972  142.2812  159.3264 H   0  0  0  0  0  0  0  0  0  0  0  0
  153.5147  142.0839  158.6518 H   0  0  0  0  0  0  0  0  0  0  0  0
  153.2120  139.5805  158.6768 H   0  0  0  0  0  0  0  0  0  0  0  0
  151.6060  139.7768  159.3448 H   0  0  0  0  0  0  0  0  0  0  0  0
  148.2807  140.8219  153.1276 H   0  0  0  0  0  0  0  0  0  0  0  0
  149.1424  139.4967  153.9006 H   0  0  0  0  0  0  0  0  0  0  0  0
  146.2837  140.1139  153.4269 H   0  0  0  0  0  0  0  0  0  0  0  0
  146.6188  142.2725  154.8123 H   0  0  0  0  0  0  0  0  0  0  0  0
  146.6326  141.6926  156.4805 H   0  0  0  0  0  0  0  0  0  0  0  0
  148.8379  142.1463  156.6203 H   0  0  0  0  0  0  0  0  0  0  0  0
  148.5203  143.2325  155.4170 H   0  0  0  0  0  0  0  0  0  0  0  0
  1  2  1  0  0  0  0
  1 16  1  0  0  0  0
  1 17  1  0  0  0  0
  1 18  1  0  0  0  0
  2  3  1  0  0  0  0
  2 19  1  0  0  0  0
  2 20  1  0  0  0  0
  3 13  1  0  0  0  0
  3  4  2  0  0  0  0
  4  5  1  0  0  0  0
  5  6  1  0  0  0  0
  5 12  2  0  0  0  0
  6 14  1  0  0  0  0
  6 11  1  0  0  0  0
  6  7  1  0  0  0  0
  7  8  1  0  0  0  0
  7 21  1  0  0  0  0
  7 22  1  0  0  0  0
  8 15  1  0  0  0  0
  8  9  1  0  0  0  0
  8 10  1  0  0  0  0
  9 23  1  0  0  0  0
 10 11  1  0  0  0  0
 10 24  1  0  0  0  0
 10 25  1  0  0  0  0
 11 26  1  0  0  0  0
 11 27  1  0  0  0  0
 12 13  1  0  0  0  0
M  CHG  1  11   1
M  CHG  1  13  -1
M  END
> <s_m_source_file>
AV-unprocessed.smi

> <i_m_source_file_index>
49

> <i_lp_mmshare_version>
43012

> <i_f3d_flags>
0

> <s_epik_input>
W0NIM11bQ0gyXWMxbmMobltuSF0xKVtDQEBIXTJbQ0gyXVtDQEBIXShbT0hdKVtDSDJdW05IXTI=

> <s_epik_cmdline>
J2VwaWtfcHl0aG9uJywgJy1waCcsICc3LjAnLCAnLXRuJywgJzgnLCAnLW1hJywgJzIwMCcsICctbWV0YWxfYmluZGluZycsICctaW1hZScsICc8aW5maWxlLm1hZT4nLCAnLW9tYWUnLCAnPG91dGZpbGUubWFlPic=

> <r_lp_tautomer_probability>
0.948284

> <r_epik_Ionization_Penalty>
3.22013

> <r_epik_Ionization_Penalty_Charging>
3.22013

> <r_epik_Ionization_Penalty_Neutral>
3.9133e-08

> <r_epik_State_Penalty>
2.79459

> <r_epik_Charging_Adjusted_Penalty>
6.01472

> <i_epik_Tot_Q>
0

> <i_epik_Tot_abs_Q>
2

> <r_epik_Metal_State_Penalty>
0.589377

> <b_epik_Metal_Only>
1

> <s_lp_Force_Field>
OPLS_2005

> <r_lp_Energy>
10.3781

> <b_lp_Chiralities_Consistent>
1

> <s_lp_Variant>
AV-unprocessed.smi:49-24

> <Gold.Version>
5.8.1

> <Gold.Id.Protein>
6NUR|6NUR_protein|mol2

> <Gold.PLP.Fitness>
35.9497

> <Gold.PLP.PLP>
-21.0968

> <Gold.PLP.part.hbond>
-3.0988

> <Gold.PLP.part.metal>
0.0000

> <Gold.PLP.part.buried>
-1.5079

> <Gold.PLP.part.nonpolar>
-15.4550

> <Gold.PLP.part.repulsive>
0.1848

> <Gold.PLP.ligand.clash>
0.0000

> <Gold.PLP.ligand.torsion>
0.0450

> <Gold.PLP.Chemscore.Hbond>
4.9760

> <Gold.PLP.Chemscore.CHOScore>
0.0000

> <Gold.PLP.Chemscore.Metal>
0.0000

> <Gold.Chemscore.Hbonds>
donor molecule, donor type, donor heavy atom, donor atom, acceptor molecule, acceptor atom, score
      L1  H    11    27       P1  8028  2.00
      P1  H  7989  7998       L1    12  0.93
      P1  H  7997  8010       L1    13  1.89

> <Gold.PLP.Chemscore.Internal.Correction>
0.0148

> <Gold.Rescore>
     Score         DG    S(hbond)    S(metal)    S(lipo)     H(rot)  DE(clash)    DE(int)     intcor
     12.89     -13.02       2.40        0.00      36.68       1.86       0.05       0.07       ----

> <Gold.Chemscore.Fitness>
12.8912

> <Gold.Chemscore.DG>
-13.0185

> <Gold.Chemscore.ZeroCoef>
-5.4800

> <Gold.Chemscore.Hbond>
2.3951

> <Gold.Chemscore.Metal>
0.0000

> <Gold.Chemscore.Lipo>
36.6836

> <Gold.Chemscore.Internal_Hbond>
0.0000

> <Gold.Chemscore.DEClash>
0.0537

> <Gold.Chemscore.DEInternal>
0.0736

> <Gold.Chemscore.Rot>
1.8567

> <Gold.Chemscore.Internal.Correction>
   9.000000E+99

> <Gold.Chemscore.Hbonds>
donor molecule, donor type, donor heavy atom, donor atom, acceptor molecule, acceptor atom, score
      L1  H    11    27       P1  8028  0.91
      P1  H  7989  7998       L1    12  0.20
      P1  H  7997  8010       L1    13  0.73

> <Gold.Chemscore.Hbond.Weighted>
-7.9996

> <Gold.Chemscore.Metal.Weighted>
-0.0000

> <Gold.Chemscore.Lipo.Weighted>
-4.2920

> <Gold.Chemscore.Internal_Hbond.Weighted>
0.0000

> <Gold.Chemscore.DEClash.Weighted>
0.0537

> <Gold.Chemscore.DEInternal.Weighted>
0.0736

> <Gold.Chemscore.Rot.Weighted>
4.7531

> <Gold.Chemscore.Internal.Correction.Weighted>
   9.000000E+99

> <Gold.Protein.RotatedTorsions>
[ 6907 6896 6895 6894 ] final -163.71 input  -60.11 | X-H torsion
[ 7974 7965 7964 7962 ] final  -73.46 input  175.53 | X-H torsion
[ 8008 7997 7996 7995 ] final   92.85 input   59.86 | X-H torsion
[ 10167 10162 10161 10158 ] final  165.04 input  -65.29 | X-H torsion
[ 10718 10713 10712 10709 ] final   16.91 input   66.30 | X-H torsion
[ 10763 10752 10751 10750 ] final   63.14 input  -60.55 | X-H torsion
[ 11005 11000 10999 10996 ] final  -17.42 input  -57.11 | X-H torsion

> <Gold.Protein.ActiveResidues>
 VAL166  LYS551  ARG553  GLY616  TRP617  ASP618  TYR619  PRO620  LYS621  CYS622 
 ASP623  PHE694  ASN695  SER759  ASP760  ASP761  ALA762  ILE779  LEU786  VAL792 
 PHE793  MET794  SER795  GLU796  ALA797  LYS798  CYS799  TRP800  GLU811  SER814 

> <Gold.Protein.RotatedAtoms>
  151.4003  133.3759  159.2731 H   0  0  0  0  0  0  0  0  0  0  0  0  # atno 6907 bound_to 6896
  150.9438  134.8846  159.7640 H   0  0  0  0  0  0  0  0  0  0  0  0  # atno 6908 bound_to 6896
  152.5083  134.3955  159.9451 H   0  0  0  0  0  0  0  0  0  0  0  0  # atno 6909 bound_to 6896
  145.6518  140.9280  143.0980 H   0  0  0  0  0  0  0  0  0  0  0  0  # atno 7974 bound_to 7965
  156.0401  140.3320  155.7234 H   0  0  0  0  0  0  0  0  0  0  0  0  # atno 8008 bound_to 7997
  155.5757  140.0632  157.2813 H   0  0  0  0  0  0  0  0  0  0  0  0  # atno 8009 bound_to 7997
  154.4389  140.1853  156.0913 H   0  0  0  0  0  0  0  0  0  0  0  0  # atno 8010 bound_to 7997
  139.4899  144.4173  151.9228 H   0  0  0  0  0  0  0  0  0  0  0  0  # atno 10167 bound_to 10162
  157.0746  130.6362  149.5813 H   0  0  0  0  0  0  0  0  0  0  0  0  # atno 10718 bound_to 10713
  153.0007  135.5440  154.6304 H   0  0  0  0  0  0  0  0  0  0  0  0  # atno 10763 bound_to 10752
  154.5583  135.2832  155.0945 H   0  0  0  0  0  0  0  0  0  0  0  0  # atno 10764 bound_to 10752
  154.2158  135.6459  153.5182 H   0  0  0  0  0  0  0  0  0  0  0  0  # atno 10765 bound_to 10752
  140.8167  133.8100  155.9617 H   0  0  0  0  0  0  0  0  0  0  0  0  # atno 11005 bound_to 11000
  144.7120  139.8336  143.7411 LP  0  0  0  0  0  0  0  0  0  0  0  0  # atno 17320 bound_to 7965
  146.1197  139.4213  143.0236 LP  0  0  0  0  0  0  0  0  0  0  0  0  # atno 17321 bound_to 7965
  140.3616  144.2965  150.5932 LP  0  0  0  0  0  0  0  0  0  0  0  0  # atno 17342 bound_to 10162
  140.5397  143.2226  151.8104 LP  0  0  0  0  0  0  0  0  0  0  0  0  # atno 17343 bound_to 10162
  155.9941  130.5004  150.7405 LP  0  0  0  0  0  0  0  0  0  0  0  0  # atno 17370 bound_to 10713
  157.4850  131.0906  151.0492 LP  0  0  0  0  0  0  0  0  0  0  0  0  # atno 17371 bound_to 10713
  140.9142  134.2222  157.4967 LP  0  0  0  0  0  0  0  0  0  0  0  0  # atno 17394 bound_to 11000
  139.8711  134.9764  156.4918 LP  0  0  0  0  0  0  0  0  0  0  0  0  # atno 17395 bound_to 11000

$$$$
