AV-unprocessed.smi:2385|AV-procd|sdf|9464|dock3
  -GOLD-   2272013 93D 1   1.00000     0.00000
 Structure written by MMmdl.
 50 52  0  0  0  0  0  0  0  0  2 V2000
  138.6627  136.9238  153.9565 C   0  0  0  0  0  0  0  0  0  0  0  0
  139.8699  137.7615  154.3218 C   0  0  0  0  0  0  0  0  0  0  0  0
  139.9247  139.1302  153.9977 C   0  0  0  0  0  0  0  0  0  0  0  0
  141.0707  139.8669  154.3540 C   0  0  0  0  0  0  0  0  0  0  0  0
  142.1336  139.2196  155.0232 C   0  0  0  0  0  0  0  0  0  0  0  0
  143.2451  140.0491  155.3313 N   0  0  0  0  0  0  0  0  0  0  0  0
  144.5190  139.6806  155.5542 C   0  0  0  0  0  0  0  0  0  0  0  0
  144.9358  138.5219  155.5587 O   0  0  0  0  0  0  0  0  0  0  0  0
  145.3040  140.7455  155.7764 N   0  0  0  0  0  0  0  0  0  0  0  0
  146.7425  140.6854  156.0198 C   0  0  2  0  0  0  0  0  0  0  0  0
  147.1211  141.4441  157.3043 C   0  0  0  0  0  0  0  0  0  0  0  0
  148.6446  141.4467  157.5158 C   0  0  0  0  0  0  0  0  0  0  0  0
  149.3545  142.0189  156.3415 N   0  3  1  0  0  0  0  0  0  0  0  0
  150.8185  142.1489  156.5657 C   0  0  0  0  0  0  0  0  0  0  0  0
  151.1491  143.0055  157.8034 C   0  0  1  0  0  0  0  0  0  0  0  0
  152.1710  142.3617  158.7199 C   0  0  0  0  0  0  0  0  0  0  0  0
  152.6479  143.5449  159.5561 C   0  0  0  0  0  0  0  0  0  0  0  0
  152.5315  144.6865  158.7127 O   0  0  0  0  0  0  0  0  0  0  0  0
  151.8346  144.3436  157.5197 C   0  0  0  0  0  0  0  0  0  0  0  0
  149.0208  141.2832  155.0927 C   0  0  0  0  0  0  0  0  0  0  0  0
  147.5058  141.2870  154.8303 C   0  0  0  0  0  0  0  0  0  0  0  0
  142.0711  137.9001  155.3317 N   0  0  0  0  0  0  0  0  0  0  0  0
  140.9725  137.1947  154.9904 C   0  0  0  0  0  0  0  0  0  0  0  0
  137.7436  137.4933  154.0956 H   0  0  0  0  0  0  0  0  0  0  0  0
  138.6046  136.0293  154.5775 H   0  0  0  0  0  0  0  0  0  0  0  0
  138.7219  136.6142  152.9129 H   0  0  0  0  0  0  0  0  0  0  0  0
  139.1047  139.6098  153.4836 H   0  0  0  0  0  0  0  0  0  0  0  0
  141.1288  140.9180  154.1115 H   0  0  0  0  0  0  0  0  0  0  0  0
  143.0492  141.0384  155.3677 H   0  0  0  0  0  0  0  0  0  0  0  0
  144.8802  141.6617  155.7572 H   0  0  0  0  0  0  0  0  0  0  0  0
  147.0409  139.6401  156.1225 H   0  0  0  0  0  0  0  0  0  0  0  0
  146.7594  142.4721  157.2498 H   0  0  0  0  0  0  0  0  0  0  0  0
  146.6342  140.9912  158.1688 H   0  0  0  0  0  0  0  0  0  0  0  0
  148.8767  142.0310  158.4071 H   0  0  0  0  0  0  0  0  0  0  0  0
  149.0006  140.4315  157.6984 H   0  0  0  0  0  0  0  0  0  0  0  0
  151.2448  141.1590  156.7355 H   0  0  0  0  0  0  0  0  0  0  0  0
  151.3157  142.5314  155.6729 H   0  0  0  0  0  0  0  0  0  0  0  0
  150.2397  143.1845  158.3798 H   0  0  0  0  0  0  0  0  0  0  0  0
  151.7570  141.5552  159.3259 H   0  0  0  0  0  0  0  0  0  0  0  0
  153.0025  141.9583  158.1397 H   0  0  0  0  0  0  0  0  0  0  0  0
  152.0001  143.6858  160.4224 H   0  0  0  0  0  0  0  0  0  0  0  0
  153.6695  143.4156  159.9144 H   0  0  0  0  0  0  0  0  0  0  0  0
  152.5640  144.2432  156.7147 H   0  0  0  0  0  0  0  0  0  0  0  0
  151.1274  145.1258  157.2432 H   0  0  0  0  0  0  0  0  0  0  0  0
  149.5298  141.7318  154.2413 H   0  0  0  0  0  0  0  0  0  0  0  0
  149.3826  140.2563  155.1669 H   0  0  0  0  0  0  0  0  0  0  0  0
  147.2887  140.7229  153.9224 H   0  0  0  0  0  0  0  0  0  0  0  0
  147.1707  142.3093  154.6483 H   0  0  0  0  0  0  0  0  0  0  0  0
  140.9767  136.1484  155.2589 H   0  0  0  0  0  0  0  0  0  0  0  0
  148.9992  142.9584  156.2353 H   0  0  0  0  0  0  0  0  0  0  0  0
  1  2  1  0  0  0  0
  1 24  1  0  0  0  0
  1 25  1  0  0  0  0
  1 26  1  0  0  0  0
  2 23  1  0  0  0  0
  2  3  2  0  0  0  0
  3  4  1  0  0  0  0
  3 27  1  0  0  0  0
  4  5  2  0  0  0  0
  4 28  1  0  0  0  0
  5  6  1  0  0  0  0
  5 22  1  0  0  0  0
  6  7  1  0  0  0  0
  6 29  1  0  0  0  0
  7  8  2  0  0  0  0
  7  9  1  0  0  0  0
  9 10  1  0  0  0  0
  9 30  1  0  0  0  0
 10 21  1  0  0  0  0
 10 11  1  0  0  0  0
 10 31  1  0  0  0  0
 11 12  1  0  0  0  0
 11 32  1  0  0  0  0
 11 33  1  0  0  0  0
 12 13  1  0  0  0  0
 12 34  1  0  0  0  0
 12 35  1  0  0  0  0
 13 14  1  0  0  0  0
 13 20  1  0  0  0  0
 13 50  1  0  0  0  0
 14 15  1  0  0  0  0
 14 36  1  0  0  0  0
 14 37  1  0  0  0  0
 15 19  1  0  0  0  0
 15 16  1  0  0  0  0
 15 38  1  0  0  0  0
 16 17  1  0  0  0  0
 16 39  1  0  0  0  0
 16 40  1  0  0  0  0
 17 18  1  0  0  0  0
 17 41  1  0  0  0  0
 17 42  1  0  0  0  0
 18 19  1  0  0  0  0
 19 43  1  0  0  0  0
 19 44  1  0  0  0  0
 20 21  1  0  0  0  0
 20 45  1  0  0  0  0
 20 46  1  0  0  0  0
 21 47  1  0  0  0  0
 21 48  1  0  0  0  0
 22 23  2  0  0  0  0
 23 49  1  0  0  0  0
M  CHG  1  13   1
M  END
> <s_m_source_file>
AV-unprocessed.smi

> <i_m_source_file_index>
2385

> <i_lp_mmshare_version>
43012

> <i_f3d_flags>
0

> <s_epik_input>
W0NIM11jMVtjSF1bY0hdYyhuW2NIXTEpW05IXUMoPU8pW05IXVtDSF0yW0NIMl1bQ0gyXU4oW0NIMl1bQ0gyXTIpW0NIMl1bQ0BASF0zW0NIMl1bQ0gyXU9bQ0gyXTM=

> <s_epik_cmdline>
J2VwaWtfcHl0aG9uJywgJy1waCcsICc3LjAnLCAnLXRuJywgJzgnLCAnLW1hJywgJzIwMCcsICctbWV0YWxfYmluZGluZycsICctaW1hZScsICc8aW5maWxlLm1hZT4nLCAnLW9tYWUnLCAnPG91dGZpbGUubWFlPic=

> <r_epik_Ionization_Penalty>
0.00752367

> <r_epik_Ionization_Penalty_Charging>
0.00747775

> <r_epik_Ionization_Penalty_Neutral>
4.59207e-05

> <r_epik_State_Penalty>
0.00558817

> <r_epik_Charging_Adjusted_Penalty>
0.0130659

> <i_epik_Tot_Q>
1

> <i_epik_Tot_abs_Q>
1

> <r_epik_Metal_State_Penalty>
-0

> <b_epik_Metal_Only>
0

> <s_lp_Force_Field>
OPLS_2005

> <r_lp_Energy>
36.1133

> <b_lp_Chiralities_Consistent>
1

> <s_lp_Variant>
AV-unprocessed.smi:2385-2

> <Gold.Version>
5.8.1

> <Gold.Id.Protein>
6NUR|6NUR_protein|mol2

> <Gold.PLP.Fitness>
42.5976

> <Gold.PLP.PLP>
-35.3461

> <Gold.PLP.part.hbond>
-2.0000

> <Gold.PLP.part.metal>
0.0000

> <Gold.PLP.part.buried>
-4.4037

> <Gold.PLP.part.nonpolar>
-28.8007

> <Gold.PLP.part.repulsive>
0.1807

> <Gold.PLP.ligand.clash>
0.0000

> <Gold.PLP.ligand.torsion>
0.8916

> <Gold.PLP.Chemscore.Hbond>
2.0000

> <Gold.PLP.Chemscore.CHOScore>
0.9970

> <Gold.PLP.Chemscore.Metal>
0.0000

> <Gold.Chemscore.Hbonds>
donor molecule, donor type, donor heavy atom, donor atom, acceptor molecule, acceptor atom, score
      L1  H    13    50       P1  8028  2.00
      L1  C    23    49       P1 11000  1.00

> <Gold.PLP.Chemscore.Internal.Correction>
0.0438

> <Gold.Rescore>
     Score         DG    S(hbond)    S(metal)    S(lipo)     H(rot)  DE(clash)    DE(int)     intcor
     14.65     -16.75       1.00        0.00      98.50       1.41       0.02       2.07       ----

> <Gold.Chemscore.Fitness>
14.6499

> <Gold.Chemscore.DG>
-16.7461

> <Gold.Chemscore.ZeroCoef>
-5.4800

> <Gold.Chemscore.Hbond>
1.0000

> <Gold.Chemscore.Metal>
0.0000

> <Gold.Chemscore.Lipo>
98.4992

> <Gold.Chemscore.Internal_Hbond>
0.0000

> <Gold.Chemscore.DEClash>
0.0224

> <Gold.Chemscore.DEInternal>
2.0738

> <Gold.Chemscore.Rot>
1.4056

> <Gold.Chemscore.Internal.Correction>
   9.000000E+99

> <Gold.Chemscore.Hbonds>
donor molecule, donor type, donor heavy atom, donor atom, acceptor molecule, acceptor atom, score
      L1  H    13    50       P1  8028  1.00

> <Gold.Chemscore.Hbond.Weighted>
-3.3399

> <Gold.Chemscore.Metal.Weighted>
-0.0000

> <Gold.Chemscore.Lipo.Weighted>
-11.5244

> <Gold.Chemscore.Internal_Hbond.Weighted>
0.0000

> <Gold.Chemscore.DEClash.Weighted>
0.0224

> <Gold.Chemscore.DEInternal.Weighted>
2.0738

> <Gold.Chemscore.Rot.Weighted>
3.5982

> <Gold.Chemscore.Internal.Correction.Weighted>
   9.000000E+99

> <Gold.Protein.RotatedTorsions>
[ 6907 6896 6895 6894 ] final  126.66 input  -60.11 | X-H torsion
[ 7974 7965 7964 7962 ] final    7.89 input  175.53 | X-H torsion
[ 8008 7997 7996 7995 ] final  -87.58 input   59.86 | X-H torsion
[ 10167 10162 10161 10158 ] final  -43.92 input  -65.29 | X-H torsion
[ 10718 10713 10712 10709 ] final -110.18 input   66.30 | X-H torsion
[ 10763 10752 10751 10750 ] final -131.33 input  -60.55 | X-H torsion
[ 11005 11000 10999 10996 ] final -110.29 input  -57.11 | X-H torsion

> <Gold.Protein.ActiveResidues>
 VAL166  LYS551  ARG553  GLY616  TRP617  ASP618  TYR619  PRO620  LYS621  CYS622 
 ASP623  PHE694  ASN695  SER759  ASP760  ASP761  ALA762  ILE779  LEU786  VAL792 
 PHE793  MET794  SER795  GLU796  ALA797  LYS798  CYS799  TRP800  GLU811  SER814 

> <Gold.Protein.RotatedAtoms>
  152.3883  133.6643  159.6216 H   0  0  0  0  0  0  0  0  0  0  0  0  # atno 6907 bound_to 6896
  150.7797  133.8997  159.3346 H   0  0  0  0  0  0  0  0  0  0  0  0  # atno 6908 bound_to 6896
  151.6789  135.0966  160.0263 H   0  0  0  0  0  0  0  0  0  0  0  0  # atno 6909 bound_to 6896
  146.2422  140.0015  142.8415 H   0  0  0  0  0  0  0  0  0  0  0  0  # atno 7974 bound_to 7965
  154.6649  140.0564  157.0102 H   0  0  0  0  0  0  0  0  0  0  0  0  # atno 8008 bound_to 7997
  155.1174  140.3244  155.4487 H   0  0  0  0  0  0  0  0  0  0  0  0  # atno 8009 bound_to 7997
  156.2633  140.2003  156.6297 H   0  0  0  0  0  0  0  0  0  0  0  0  # atno 8010 bound_to 7997
  140.6916  143.2957  151.3422 H   0  0  0  0  0  0  0  0  0  0  0  0  # atno 10167 bound_to 10162
  156.0577  130.5802  150.8202 H   0  0  0  0  0  0  0  0  0  0  0  0  # atno 10718 bound_to 10713
  154.8751  135.3833  154.4229 H   0  0  0  0  0  0  0  0  0  0  0  0  # atno 10763 bound_to 10752
  153.4931  135.7030  153.5878 H   0  0  0  0  0  0  0  0  0  0  0  0  # atno 10764 bound_to 10752
  153.4243  135.3894  155.2098 H   0  0  0  0  0  0  0  0  0  0  0  0  # atno 10765 bound_to 10752
  141.0800  133.9236  157.2309 H   0  0  0  0  0  0  0  0  0  0  0  0  # atno 11005 bound_to 11000
  145.1411  140.9571  143.4488 LP  0  0  0  0  0  0  0  0  0  0  0  0  # atno 17320 bound_to 7965
  145.0295  139.3353  143.6032 LP  0  0  0  0  0  0  0  0  0  0  0  0  # atno 17321 bound_to 7965
  139.6325  144.0694  152.2488 LP  0  0  0  0  0  0  0  0  0  0  0  0  # atno 17342 bound_to 10162
  140.0173  144.6179  150.7596 LP  0  0  0  0  0  0  0  0  0  0  0  0  # atno 17343 bound_to 10162
  157.5560  131.0945  150.9628 LP  0  0  0  0  0  0  0  0  0  0  0  0  # atno 17370 bound_to 10713
  156.9876  130.5551  149.5301 LP  0  0  0  0  0  0  0  0  0  0  0  0  # atno 17371 bound_to 10713
  139.9613  135.0153  156.9269 LP  0  0  0  0  0  0  0  0  0  0  0  0  # atno 17394 bound_to 11000
  140.5489  134.0646  155.7363 LP  0  0  0  0  0  0  0  0  0  0  0  0  # atno 17395 bound_to 11000

$$$$
