AV-unprocessed.smi:1280|AV-procd|sdf|5357|dock3
  -GOLD-   22720 4493D 1   1.00000     0.00000
 Structure written by MMmdl.
 45 46  0  0  0  0  0  0  0  0  1 V2000
  145.9333  131.1710  151.3323 C   0  0  0  0  0  0  0  0  0  0  0  0
  146.3285  132.8352  152.0039 S   0  0  0  0  0  0  0  0  0  0  0  0
  145.7494  133.8487  151.1089 O   0  0  0  0  0  0  0  0  0  0  0  0
  146.0229  132.8566  153.4424 O   0  0  0  0  0  0  0  0  0  0  0  0
  148.0426  132.9062  151.8380 N   0  0  0  0  0  0  0  0  0  0  0  0
  148.8397  133.0577  153.0532 C   0  0  0  0  0  0  0  0  0  0  0  0
  148.3974  134.3049  153.8283 C   0  0  0  0  0  0  0  0  0  0  0  0
  149.5817  135.0350  154.4807 C   0  0  0  0  0  0  0  0  0  0  0  0
  149.4712  136.4795  154.3254 N   0  0  0  0  0  0  0  0  0  0  0  0
  149.2166  137.3474  155.3182 C   0  0  0  0  0  0  0  0  0  0  0  0
  149.0950  137.0130  156.4968 O   0  0  0  0  0  0  0  0  0  0  0  0
  149.1546  138.8003  154.9248 C   0  0  0  0  0  0  0  0  0  0  0  0
  147.9569  139.2929  154.3594 C   0  0  0  0  0  0  0  0  0  0  0  0
  147.8659  140.6463  153.9903 C   0  0  0  0  0  0  0  0  0  0  0  0
  148.9877  141.4670  154.1948 C   0  0  0  0  0  0  0  0  0  0  0  0
  150.1462  141.0141  154.7142 N   0  0  0  0  0  0  0  0  0  0  0  0
  150.2486  139.7084  155.0665 C   0  0  0  0  0  0  0  0  0  0  0  0
  151.5079  139.2874  155.5399 N   0  0  0  0  0  0  0  0  0  0  0  0
  152.5476  139.2562  154.5185 C   0  0  0  0  0  0  0  0  0  0  0  0
  153.7791  138.5048  155.0522 C   0  0  0  0  0  0  0  0  0  0  0  0
  154.2194  139.1064  156.2670 O   0  0  0  0  0  0  0  0  0  0  0  0
  153.2187  139.0666  157.2812 C   0  0  0  0  0  0  0  0  0  0  0  0
  151.9740  139.8371  156.8085 C   0  0  0  0  0  0  0  0  0  0  0  0
  144.8573  131.0064  151.3848 H   0  0  0  0  0  0  0  0  0  0  0  0
  146.4447  130.4082  151.9186 H   0  0  0  0  0  0  0  0  0  0  0  0
  146.2576  131.1109  150.2936 H   0  0  0  0  0  0  0  0  0  0  0  0
  148.3827  132.1232  151.2801 H   0  0  0  0  0  0  0  0  0  0  0  0
  148.7285  132.1642  153.6685 H   0  0  0  0  0  0  0  0  0  0  0  0
  149.8926  133.1366  152.7802 H   0  0  0  0  0  0  0  0  0  0  0  0
  147.8762  134.9838  153.1517 H   0  0  0  0  0  0  0  0  0  0  0  0
  147.6776  134.0207  154.5972 H   0  0  0  0  0  0  0  0  0  0  0  0
  149.6133  134.8132  155.5478 H   0  0  0  0  0  0  0  0  0  0  0  0
  150.5269  134.6839  154.0632 H   0  0  0  0  0  0  0  0  0  0  0  0
  149.5782  136.8482  153.3914 H   0  0  0  0  0  0  0  0  0  0  0  0
  147.1044  138.6441  154.2178 H   0  0  0  0  0  0  0  0  0  0  0  0
  146.9574  141.0455  153.5646 H   0  0  0  0  0  0  0  0  0  0  0  0
  148.9571  142.5132  153.9281 H   0  0  0  0  0  0  0  0  0  0  0  0
  152.1851  138.7771  153.6088 H   0  0  0  0  0  0  0  0  0  0  0  0
  152.8184  140.2793  154.2535 H   0  0  0  0  0  0  0  0  0  0  0  0
  153.5478  137.4514  155.2189 H   0  0  0  0  0  0  0  0  0  0  0  0
  154.5880  138.5422  154.3224 H   0  0  0  0  0  0  0  0  0  0  0  0
  152.9683  138.0313  157.5183 H   0  0  0  0  0  0  0  0  0  0  0  0
  153.6162  139.5159  158.1913 H   0  0  0  0  0  0  0  0  0  0  0  0
  152.2185  140.8933  156.6856 H   0  0  0  0  0  0  0  0  0  0  0  0
  151.1835  139.7691  157.5568 H   0  0  0  0  0  0  0  0  0  0  0  0
  1  2  1  0  0  0  0
  1 24  1  0  0  0  0
  1 25  1  0  0  0  0
  1 26  1  0  0  0  0
  2  3  2  0  0  0  0
  2  4  2  0  0  0  0
  2  5  1  0  0  0  0
  5  6  1  0  0  0  0
  5 27  1  0  0  0  0
  6  7  1  0  0  0  0
  6 28  1  0  0  0  0
  6 29  1  0  0  0  0
  7  8  1  0  0  0  0
  7 30  1  0  0  0  0
  7 31  1  0  0  0  0
  8  9  1  0  0  0  0
  8 32  1  0  0  0  0
  8 33  1  0  0  0  0
  9 10  1  0  0  0  0
  9 34  1  0  0  0  0
 10 11  2  0  0  0  0
 10 12  1  0  0  0  0
 12 17  1  0  0  0  0
 12 13  2  0  0  0  0
 13 14  1  0  0  0  0
 13 35  1  0  0  0  0
 14 15  2  0  0  0  0
 14 36  1  0  0  0  0
 15 16  1  0  0  0  0
 15 37  1  0  0  0  0
 16 17  2  0  0  0  0
 17 18  1  0  0  0  0
 18 23  1  0  0  0  0
 18 19  1  0  0  0  0
 19 20  1  0  0  0  0
 19 38  1  0  0  0  0
 19 39  1  0  0  0  0
 20 21  1  0  0  0  0
 20 40  1  0  0  0  0
 20 41  1  0  0  0  0
 21 22  1  0  0  0  0
 22 23  1  0  0  0  0
 22 42  1  0  0  0  0
 22 43  1  0  0  0  0
 23 44  1  0  0  0  0
 23 45  1  0  0  0  0
M  END
> <s_m_source_file>
AV-unprocessed.smi

> <i_m_source_file_index>
1280

> <i_lp_mmshare_version>
43012

> <i_f3d_flags>
0

> <s_epik_input>
W0NIM11TKD1PKSg9TylbTkhdW0NIMl1bQ0gyXVtDSDJdW05IXUMoPU8pYzFbY0hdW2NIXVtjSF1uYzFOMltDSDJdW0NIMl1PW0NIMl1bQ0gyXTI=

> <s_epik_cmdline>
J2VwaWtfcHl0aG9uJywgJy1waCcsICc3LjAnLCAnLXRuJywgJzgnLCAnLW1hJywgJzIwMCcsICctbWV0YWxfYmluZGluZycsICctaW1hZScsICc8aW5maWxlLm1hZT4nLCAnLW9tYWUnLCAnPG91dGZpbGUubWFlPic=

> <r_lp_tautomer_probability>
1

> <r_epik_Ionization_Penalty>
2.29251e-05

> <r_epik_Ionization_Penalty_Charging>
0

> <r_epik_Ionization_Penalty_Neutral>
2.29251e-05

> <r_epik_State_Penalty>
-0

> <r_epik_Charging_Adjusted_Penalty>
0

> <i_epik_Tot_Q>
0

> <i_epik_Tot_abs_Q>
0

> <r_epik_Metal_State_Penalty>
0.00766126

> <b_epik_Metal_Only>
0

> <s_lp_Force_Field>
OPLS_2005

> <r_lp_Energy>
17.2463

> <b_lp_Chiralities_Consistent>
1

> <s_lp_Variant>
AV-unprocessed.smi:1280-1

> <Gold.Version>
5.8.1

> <Gold.Id.Protein>
6NUR|6NUR_protein|mol2

> <Gold.PLP.Fitness>
36.5038

> <Gold.PLP.PLP>
-29.5498

> <Gold.PLP.part.hbond>
-3.8331

> <Gold.PLP.part.metal>
0.0000

> <Gold.PLP.part.buried>
0.0899

> <Gold.PLP.part.nonpolar>
-25.5154

> <Gold.PLP.part.repulsive>
0.3877

> <Gold.PLP.ligand.clash>
0.0000

> <Gold.PLP.ligand.torsion>
2.2285

> <Gold.PLP.Chemscore.Hbond>
3.2950

> <Gold.PLP.Chemscore.CHOScore>
0.2806

> <Gold.PLP.Chemscore.Metal>
0.0000

> <Gold.Chemscore.Hbonds>
donor molecule, donor type, donor heavy atom, donor atom, acceptor molecule, acceptor atom, score
      L1  H     5    27       P1 10747  1.00
      L1  H     9    34       P1  7948  0.61
      P1  H  7989  7998       L1    16  0.43
      L1  C    15    37       P1  8028  0.37

> <Gold.PLP.Chemscore.Internal.Correction>
0.6840

> <Gold.Rescore>
     Score         DG    S(hbond)    S(metal)    S(lipo)     H(rot)  DE(clash)    DE(int)     intcor
     13.10     -15.77       2.55        0.00      71.72       2.58       0.12       2.55       ----

> <Gold.Chemscore.Fitness>
13.1006

> <Gold.Chemscore.DG>
-15.7742

> <Gold.Chemscore.ZeroCoef>
-5.4800

> <Gold.Chemscore.Hbond>
2.5498

> <Gold.Chemscore.Metal>
0.0000

> <Gold.Chemscore.Lipo>
71.7230

> <Gold.Chemscore.Internal_Hbond>
0.0000

> <Gold.Chemscore.DEClash>
0.1218

> <Gold.Chemscore.DEInternal>
2.5517

> <Gold.Chemscore.Rot>
2.5835

> <Gold.Chemscore.Internal.Correction>
   9.000000E+99

> <Gold.Chemscore.Hbonds>
donor molecule, donor type, donor heavy atom, donor atom, acceptor molecule, acceptor atom, score
      L1  H     5    27       P1 10747  1.00
      L1  H     9    34       P1  7948  0.43
      P1  H  7989  7998       L1    16  0.03

> <Gold.Chemscore.Hbond.Weighted>
-8.5163

> <Gold.Chemscore.Metal.Weighted>
-0.0000

> <Gold.Chemscore.Lipo.Weighted>
-8.3916

> <Gold.Chemscore.Internal_Hbond.Weighted>
0.0000

> <Gold.Chemscore.DEClash.Weighted>
0.1218

> <Gold.Chemscore.DEInternal.Weighted>
2.5517

> <Gold.Chemscore.Rot.Weighted>
6.6137

> <Gold.Chemscore.Internal.Correction.Weighted>
   9.000000E+99

> <Gold.Protein.RotatedTorsions>
[ 6907 6896 6895 6894 ] final  111.50 input  -60.11 | X-H torsion
[ 7974 7965 7964 7962 ] final   46.83 input  175.53 | X-H torsion
[ 8008 7997 7996 7995 ] final   45.10 input   59.86 | X-H torsion
[ 10167 10162 10161 10158 ] final  176.88 input  -65.29 | X-H torsion
[ 10718 10713 10712 10709 ] final   61.94 input   66.30 | X-H torsion
[ 10763 10752 10751 10750 ] final -150.47 input  -60.55 | X-H torsion
[ 11005 11000 10999 10996 ] final  -11.20 input  -57.11 | X-H torsion

> <Gold.Protein.ActiveResidues>
 VAL166  LYS551  ARG553  GLY616  TRP617  ASP618  TYR619  PRO620  LYS621  CYS622 
 ASP623  PHE694  ASN695  SER759  ASP760  ASP761  ALA762  ILE779  LEU786  VAL792 
 PHE793  MET794  SER795  GLU796  ALA797  LYS798  CYS799  TRP800  GLU811  SER814 

> <Gold.Protein.RotatedAtoms>
  152.4966  133.8648  159.7268 H   0  0  0  0  0  0  0  0  0  0  0  0  # atno 6907 bound_to 6896
  150.9150  133.6941  159.2852 H   0  0  0  0  0  0  0  0  0  0  0  0  # atno 6908 bound_to 6896
  151.4337  135.1017  159.9702 H   0  0  0  0  0  0  0  0  0  0  0  0  # atno 6909 bound_to 6896
  146.0354  139.4814  142.9812 H   0  0  0  0  0  0  0  0  0  0  0  0  # atno 7974 bound_to 7965
  155.3302  140.3402  155.4239 H   0  0  0  0  0  0  0  0  0  0  0  0  # atno 8008 bound_to 7997
  156.1865  140.1682  156.8211 H   0  0  0  0  0  0  0  0  0  0  0  0  # atno 8009 bound_to 7997
  154.5392  140.0728  156.8464 H   0  0  0  0  0  0  0  0  0  0  0  0  # atno 8010 bound_to 7997
  139.5231  144.2864  152.0502 H   0  0  0  0  0  0  0  0  0  0  0  0  # atno 10167 bound_to 10162
  157.5865  130.9023  149.9525 H   0  0  0  0  0  0  0  0  0  0  0  0  # atno 10718 bound_to 10713
  154.8117  135.3283  154.7287 H   0  0  0  0  0  0  0  0  0  0  0  0  # atno 10763 bound_to 10752
  153.7936  135.6909  153.4872 H   0  0  0  0  0  0  0  0  0  0  0  0  # atno 10764 bound_to 10752
  153.1901  135.4554  155.0084 H   0  0  0  0  0  0  0  0  0  0  0  0  # atno 10765 bound_to 10752
  140.7528  133.8578  155.9059 H   0  0  0  0  0  0  0  0  0  0  0  0  # atno 11005 bound_to 11000
  145.6972  141.0146  143.1523 LP  0  0  0  0  0  0  0  0  0  0  0  0  # atno 17320 bound_to 7965
  144.7049  139.8602  143.7433 LP  0  0  0  0  0  0  0  0  0  0  0  0  # atno 17321 bound_to 7965
  140.2317  144.4362  150.6297 LP  0  0  0  0  0  0  0  0  0  0  0  0  # atno 17342 bound_to 10162
  140.6351  143.2193  151.6412 LP  0  0  0  0  0  0  0  0  0  0  0  0  # atno 17343 bound_to 10162
  156.0914  130.3663  150.0387 LP  0  0  0  0  0  0  0  0  0  0  0  0  # atno 17370 bound_to 10713
  156.8517  130.9461  151.3625 LP  0  0  0  0  0  0  0  0  0  0  0  0  # atno 17371 bound_to 10713
  140.9735  134.1500  157.4556 LP  0  0  0  0  0  0  0  0  0  0  0  0  # atno 17394 bound_to 11000
  139.8784  134.9986  156.5912 LP  0  0  0  0  0  0  0  0  0  0  0  0  # atno 17395 bound_to 11000

$$$$
