AV-unprocessed.smi:2883|AV-procd|sdf|11079|dock8
  -GOLD-   2272015553D 1   1.00000     0.00000
 Structure written by MMmdl.
 39 41  0  0  0  0  0  0  0  0  1 V2000
  151.4822  137.1922  155.8049 C   0  0  0  0  0  0  0  0  0  0  0  0
  152.1217  138.6005  155.7795 C   0  0  0  0  0  0  0  0  0  0  0  0
  152.8575  138.7617  157.1311 C   0  0  0  0  0  0  0  0  0  0  0  0
  153.1373  138.6847  154.6254 C   0  0  0  0  0  0  0  0  0  0  0  0
  151.0524  139.6917  155.6011 C   0  0  0  0  0  0  0  0  0  0  0  0
  150.2551  139.6016  154.5283 N   0  0  0  0  0  0  0  0  0  0  0  0
  149.4017  140.6215  154.2978 C   0  0  0  0  0  0  0  0  0  0  0  0
  149.3645  141.7594  155.1267 C   0  0  0  0  0  0  0  0  0  0  0  0
  150.2706  141.7793  156.2052 C   0  0  0  0  0  0  0  0  0  0  0  0
  150.2981  142.8871  157.0635 N   0  0  0  0  0  0  0  0  0  0  0  0
  150.8553  142.7810  158.4078 C   0  0  2  0  0  0  0  0  0  0  0  0
  150.5625  144.0088  159.2800 C   0  0  0  0  0  0  0  0  0  0  0  0
  151.9715  144.4370  159.7078 C   0  0  1  0  0  0  0  0  0  0  0  0
  152.6182  143.4330  160.6718 C   0  0  0  0  0  0  0  0  0  0  0  0
  152.9487  142.2701  159.7363 C   0  0  0  0  0  0  0  0  0  0  0  0
  152.3933  142.7739  158.3971 C   0  0  2  0  0  0  0  0  0  0  0  0
  152.6864  144.1569  158.5174 O   0  0  0  0  0  0  0  0  0  0  0  0
  151.1205  140.7487  156.4207 N   0  0  0  0  0  0  0  0  0  0  0  0
  152.2314  136.4187  155.9775 H   0  0  0  0  0  0  0  0  0  0  0  0
  150.9916  136.9489  154.8619 H   0  0  0  0  0  0  0  0  0  0  0  0
  150.7370  137.1085  156.5969 H   0  0  0  0  0  0  0  0  0  0  0  0
  152.1594  138.7365  157.9688 H   0  0  0  0  0  0  0  0  0  0  0  0
  153.4076  139.7020  157.1885 H   0  0  0  0  0  0  0  0  0  0  0  0
  153.5837  137.9628  157.2853 H   0  0  0  0  0  0  0  0  0  0  0  0
  153.9143  137.9257  154.7224 H   0  0  0  0  0  0  0  0  0  0  0  0
  153.6294  139.6577  154.6015 H   0  0  0  0  0  0  0  0  0  0  0  0
  152.6523  138.5385  153.6598 H   0  0  0  0  0  0  0  0  0  0  0  0
  148.7486  140.5320  153.4426 H   0  0  0  0  0  0  0  0  0  0  0  0
  148.6808  142.5736  154.9370 H   0  0  0  0  0  0  0  0  0  0  0  0
  149.7847  143.7212  156.8181 H   0  0  0  0  0  0  0  0  0  0  0  0
  150.4879  141.8653  158.8733 H   0  0  0  0  0  0  0  0  0  0  0  0
  150.0875  144.8063  158.7064 H   0  0  0  0  0  0  0  0  0  0  0  0
  149.9201  143.7764  160.1300 H   0  0  0  0  0  0  0  0  0  0  0  0
  152.0361  145.4742  160.0376 H   0  0  0  0  0  0  0  0  0  0  0  0
  153.5294  143.8428  161.1090 H   0  0  0  0  0  0  0  0  0  0  0  0
  151.9468  143.1479  161.4824 H   0  0  0  0  0  0  0  0  0  0  0  0
  154.0279  142.1243  159.6759 H   0  0  0  0  0  0  0  0  0  0  0  0
  152.4947  141.3299  160.0508 H   0  0  0  0  0  0  0  0  0  0  0  0
  152.8396  142.2862  157.5296 H   0  0  0  0  0  0  0  0  0  0  0  0
  1  2  1  0  0  0  0
  1 19  1  0  0  0  0
  1 20  1  0  0  0  0
  1 21  1  0  0  0  0
  2  3  1  0  0  0  0
  2  4  1  0  0  0  0
  2  5  1  0  0  0  0
  3 22  1  0  0  0  0
  3 23  1  0  0  0  0
  3 24  1  0  0  0  0
  4 25  1  0  0  0  0
  4 26  1  0  0  0  0
  4 27  1  0  0  0  0
  5 18  1  0  0  0  0
  5  6  2  0  0  0  0
  6  7  1  0  0  0  0
  7  8  2  0  0  0  0
  7 28  1  0  0  0  0
  8  9  1  0  0  0  0
  8 29  1  0  0  0  0
  9 10  1  0  0  0  0
  9 18  2  0  0  0  0
 10 11  1  0  0  0  0
 10 30  1  0  0  0  0
 11 16  1  0  0  0  0
 11 12  1  0  0  0  0
 11 31  1  0  0  0  0
 12 13  1  0  0  0  0
 12 32  1  0  0  0  0
 12 33  1  0  0  0  0
 13 17  1  0  0  0  0
 13 14  1  0  0  0  0
 13 34  1  0  0  0  0
 14 15  1  0  0  0  0
 14 35  1  0  0  0  0
 14 36  1  0  0  0  0
 15 16  1  0  0  0  0
 15 37  1  0  0  0  0
 15 38  1  0  0  0  0
 16 17  1  0  0  0  0
 16 39  1  0  0  0  0
M  END
> <s_m_source_file>
AV-unprocessed.smi

> <i_m_source_file_index>
2883

> <i_lp_mmshare_version>
43012

> <i_f3d_flags>
0

> <s_epik_input>
W0NIM11DKFtDSDNdKShbQ0gzXSljMW5bY0hdW2NIXWMobjEpW05IXVtDQEhdKFtDSDJdW0NAQEhdMjMpW0NAQEhdKE8zKVtDSDJdW0NIMl0y

> <s_epik_cmdline>
J2VwaWtfcHl0aG9uJywgJy1waCcsICc3LjAnLCAnLXRuJywgJzgnLCAnLW1hJywgJzIwMCcsICctbWV0YWxfYmluZGluZycsICctaW1hZScsICc8aW5maWxlLm1hZT4nLCAnLW9tYWUnLCAnPG91dGZpbGUubWFlPic=

> <r_lp_tautomer_probability>
1

> <r_epik_Ionization_Penalty>
0.453006

> <r_epik_Ionization_Penalty_Charging>
0

> <r_epik_Ionization_Penalty_Neutral>
0.453006

> <r_epik_State_Penalty>
0.455155

> <r_epik_Charging_Adjusted_Penalty>
0.455155

> <i_epik_Tot_Q>
0

> <i_epik_Tot_abs_Q>
0

> <r_epik_Metal_State_Penalty>
0.255592

> <b_epik_Metal_Only>
0

> <s_lp_Force_Field>
OPLS_2005

> <r_lp_Energy>
33.3258

> <b_lp_Chiralities_Consistent>
1

> <s_lp_Variant>
AV-unprocessed.smi:2883-5

> <Gold.Version>
5.8.1

> <Gold.Id.Protein>
6NUR|6NUR_protein|mol2

> <Gold.PLP.Fitness>
42.5019

> <Gold.PLP.PLP>
-37.6402

> <Gold.PLP.part.hbond>
-1.8987

> <Gold.PLP.part.metal>
0.0000

> <Gold.PLP.part.buried>
-1.6570

> <Gold.PLP.part.nonpolar>
-34.3448

> <Gold.PLP.part.repulsive>
0.1534

> <Gold.PLP.ligand.clash>
0.0000

> <Gold.PLP.ligand.torsion>
0.5538

> <Gold.PLP.Chemscore.Hbond>
1.0241

> <Gold.PLP.Chemscore.CHOScore>
0.9148

> <Gold.PLP.Chemscore.Metal>
0.0000

> <Gold.Chemscore.Hbonds>
donor molecule, donor type, donor heavy atom, donor atom, acceptor molecule, acceptor atom, score
      L1  H    10    30       P1  8028  1.00
      P1  H  7989  7998       L1     6  0.04
      L1  C     7    28       P1  7957  0.85

> <Gold.PLP.Chemscore.Internal.Correction>
0.1526

> <Gold.Rescore>
     Score         DG    S(hbond)    S(metal)    S(lipo)     H(rot)  DE(clash)    DE(int)     intcor
     17.59     -18.01       0.98        0.00     104.19       1.15       0.09       0.33       ----

> <Gold.Chemscore.Fitness>
17.5895

> <Gold.Chemscore.DG>
-18.0054

> <Gold.Chemscore.ZeroCoef>
-5.4800

> <Gold.Chemscore.Hbond>
0.9805

> <Gold.Chemscore.Metal>
0.0000

> <Gold.Chemscore.Lipo>
104.1853

> <Gold.Chemscore.Internal_Hbond>
0.0000

> <Gold.Chemscore.DEClash>
0.0866

> <Gold.Chemscore.DEInternal>
0.3293

> <Gold.Chemscore.Rot>
1.1482

> <Gold.Chemscore.Internal.Correction>
   9.000000E+99

> <Gold.Chemscore.Hbonds>
donor molecule, donor type, donor heavy atom, donor atom, acceptor molecule, acceptor atom, score
      L1  H    10    30       P1  8028  0.96

> <Gold.Chemscore.Hbond.Weighted>
-3.2750

> <Gold.Chemscore.Metal.Weighted>
-0.0000

> <Gold.Chemscore.Lipo.Weighted>
-12.1897

> <Gold.Chemscore.Internal_Hbond.Weighted>
0.0000

> <Gold.Chemscore.DEClash.Weighted>
0.0866

> <Gold.Chemscore.DEInternal.Weighted>
0.3293

> <Gold.Chemscore.Rot.Weighted>
2.9393

> <Gold.Chemscore.Internal.Correction.Weighted>
   9.000000E+99

> <Gold.Protein.RotatedTorsions>
[ 6907 6896 6895 6894 ] final  121.00 input  -60.11 | X-H torsion
[ 7974 7965 7964 7962 ] final -121.63 input  175.53 | X-H torsion
[ 8008 7997 7996 7995 ] final  106.32 input   59.86 | X-H torsion
[ 10167 10162 10161 10158 ] final  -50.90 input  -65.29 | X-H torsion
[ 10718 10713 10712 10709 ] final   55.76 input   66.30 | X-H torsion
[ 10763 10752 10751 10750 ] final  163.75 input  -60.55 | X-H torsion
[ 11005 11000 10999 10996 ] final   11.14 input  -57.11 | X-H torsion

> <Gold.Protein.ActiveResidues>
 VAL166  LYS551  ARG553  GLY616  TRP617  ASP618  TYR619  PRO620  LYS621  CYS622 
 ASP623  PHE694  ASN695  SER759  ASP760  ASP761  ALA762  ILE779  LEU786  VAL792 
 PHE793  MET794  SER795  GLU796  ALA797  LYS798  CYS799  TRP800  GLU811  SER814 

> <Gold.Protein.RotatedAtoms>
  152.4355  133.7353  159.6610 H   0  0  0  0  0  0  0  0  0  0  0  0  # atno 6907 bound_to 6896
  150.8238  133.8196  159.3133 H   0  0  0  0  0  0  0  0  0  0  0  0  # atno 6908 bound_to 6896
  151.5870  135.1058  160.0082 H   0  0  0  0  0  0  0  0  0  0  0  0  # atno 6909 bound_to 6896
  145.0382  140.8123  143.4282 H   0  0  0  0  0  0  0  0  0  0  0  0  # atno 7974 bound_to 7965
  156.1733  140.3115  155.9013 H   0  0  0  0  0  0  0  0  0  0  0  0  # atno 8008 bound_to 7997
  155.3541  140.0472  157.3063 H   0  0  0  0  0  0  0  0  0  0  0  0  # atno 8009 bound_to 7997
  154.5263  140.2215  155.8894 H   0  0  0  0  0  0  0  0  0  0  0  0  # atno 8010 bound_to 7997
  140.6615  143.2640  151.4427 H   0  0  0  0  0  0  0  0  0  0  0  0  # atno 10167 bound_to 10162
  157.5373  130.8672  149.8771 H   0  0  0  0  0  0  0  0  0  0  0  0  # atno 10718 bound_to 10713
  154.2984  135.2759  155.2622 H   0  0  0  0  0  0  0  0  0  0  0  0  # atno 10763 bound_to 10752
  154.5070  135.5793  153.6578 H   0  0  0  0  0  0  0  0  0  0  0  0  # atno 10764 bound_to 10752
  152.9904  135.6172  154.3153 H   0  0  0  0  0  0  0  0  0  0  0  0  # atno 10765 bound_to 10752
  140.5066  134.0693  155.7807 H   0  0  0  0  0  0  0  0  0  0  0  0  # atno 11005 bound_to 11000
  145.1682  139.2419  143.5356 LP  0  0  0  0  0  0  0  0  0  0  0  0  # atno 17320 bound_to 7965
  146.3506  140.1426  142.8594 LP  0  0  0  0  0  0  0  0  0  0  0  0  # atno 17321 bound_to 7965
  139.5850  144.1625  152.2017 LP  0  0  0  0  0  0  0  0  0  0  0  0  # atno 17342 bound_to 10162
  140.0962  144.5579  150.7020 LP  0  0  0  0  0  0  0  0  0  0  0  0  # atno 17343 bound_to 10162
  156.0468  130.3726  150.1297 LP  0  0  0  0  0  0  0  0  0  0  0  0  # atno 17370 bound_to 10713
  156.9479  130.9765  151.3504 LP  0  0  0  0  0  0  0  0  0  0  0  0  # atno 17371 bound_to 10713
  141.1407  133.9142  157.2331 LP  0  0  0  0  0  0  0  0  0  0  0  0  # atno 17394 bound_to 11000
  139.9683  135.0136  156.9444 LP  0  0  0  0  0  0  0  0  0  0  0  0  # atno 17395 bound_to 11000

$$$$
