AV-unprocessed.smi:749|AV-procd|sdf|3587|dock4
  -GOLD-   22720 0583D 1   1.00000     0.00000
 Structure written by MMmdl.
 42 43  0  0  0  0  0  0  0  0  2 V2000
  153.0708  143.8469  160.2767 C   0  0  0  0  0  0  0  0  0  0  0  0
  152.3637  142.9514  159.3599 N   0  0  0  0  0  0  0  0  0  0  0  0
  152.4593  141.5223  159.6952 C   0  0  0  0  0  0  0  0  0  0  0  0
  151.4376  140.6337  158.9653 C   0  0  2  0  0  0  0  0  0  0  0  0
  151.8086  139.2306  159.1216 N   0  0  0  0  0  0  0  0  0  0  0  0
  152.9748  138.6633  158.7548 C   0  0  0  0  0  0  0  0  0  0  0  0
  153.8422  139.3663  158.2379 O   0  0  0  0  0  0  0  0  0  0  0  0
  153.1306  137.3313  158.9795 N   0  5  0  0  0  0  0  0  0  0  0  0
  153.7948  136.8463  160.0434 C   0  0  0  0  0  0  0  0  0  0  0  0
  154.2800  137.6080  161.1404 C   0  0  0  0  0  0  0  0  0  0  0  0
  154.8789  136.6721  161.9383 C   0  0  0  0  0  0  0  0  0  0  0  0
  155.6144  136.7469  163.2470 C   0  0  0  0  0  0  0  0  0  0  0  0
  154.7134  137.3382  164.3496 C   0  0  0  0  0  0  0  0  0  0  0  0
  156.8558  137.6465  163.1004 C   0  0  0  0  0  0  0  0  0  0  0  0
  156.0567  135.3381  163.6851 C   0  0  0  0  0  0  0  0  0  0  0  0
  154.7569  135.4383  161.3738 O   0  0  0  0  0  0  0  0  0  0  0  0
  154.0568  135.5571  160.1680 N   0  0  0  0  0  0  0  0  0  0  0  0
  151.3839  141.0226  157.4842 C   0  0  0  0  0  0  0  0  0  0  0  0
  150.9795  142.4936  157.3311 C   0  0  0  0  0  0  0  0  0  0  0  0
  151.7493  143.4469  158.2581 C   0  0  0  0  0  0  0  0  0  0  0  0
  151.7541  144.6469  157.9810 O   0  0  0  0  0  0  0  0  0  0  0  0
  152.3733  144.5438  160.7432 H   0  0  0  0  0  0  0  0  0  0  0  0
  153.8284  144.4254  159.7460 H   0  0  0  0  0  0  0  0  0  0  0  0
  153.5780  143.3030  161.0745 H   0  0  0  0  0  0  0  0  0  0  0  0
  153.4720  141.1998  159.4464 H   0  0  0  0  0  0  0  0  0  0  0  0
  152.3457  141.3841  160.7715 H   0  0  0  0  0  0  0  0  0  0  0  0
  150.4561  140.7992  159.4140 H   0  0  0  0  0  0  0  0  0  0  0  0
  151.1204  138.6282  159.5487 H   0  0  0  0  0  0  0  0  0  0  0  0
  154.2068  138.6722  161.3069 H   0  0  0  0  0  0  0  0  0  0  0  0
  155.2365  137.3929  165.3050 H   0  0  0  0  0  0  0  0  0  0  0  0
  153.8200  136.7312  164.5014 H   0  0  0  0  0  0  0  0  0  0  0  0
  154.3866  138.3481  164.0987 H   0  0  0  0  0  0  0  0  0  0  0  0
  156.5782  138.6550  162.7915 H   0  0  0  0  0  0  0  0  0  0  0  0
  157.5474  137.2545  162.3538 H   0  0  0  0  0  0  0  0  0  0  0  0
  157.4024  137.7283  164.0405 H   0  0  0  0  0  0  0  0  0  0  0  0
  156.5858  135.3646  164.6385 H   0  0  0  0  0  0  0  0  0  0  0  0
  156.7260  134.8837  162.9537 H   0  0  0  0  0  0  0  0  0  0  0  0
  155.1999  134.6735  163.8022 H   0  0  0  0  0  0  0  0  0  0  0  0
  152.3552  140.8546  157.0168 H   0  0  0  0  0  0  0  0  0  0  0  0
  150.6705  140.3937  156.9500 H   0  0  0  0  0  0  0  0  0  0  0  0
  151.1129  142.8083  156.2956 H   0  0  0  0  0  0  0  0  0  0  0  0
  149.9178  142.6023  157.5554 H   0  0  0  0  0  0  0  0  0  0  0  0
  1  2  1  0  0  0  0
  1 22  1  0  0  0  0
  1 23  1  0  0  0  0
  1 24  1  0  0  0  0
  2 20  1  0  0  0  0
  2  3  1  0  0  0  0
  3  4  1  0  0  0  0
  3 25  1  0  0  0  0
  3 26  1  0  0  0  0
  4  5  1  0  0  0  0
  4 18  1  0  0  0  0
  4 27  1  0  0  0  0
  5  6  1  0  0  0  0
  5 28  1  0  0  0  0
  6  7  2  0  0  0  0
  6  8  1  0  0  0  0
  8  9  1  0  0  0  0
  9 17  2  0  0  0  0
  9 10  1  0  0  0  0
 10 11  2  0  0  0  0
 10 29  1  0  0  0  0
 11 12  1  0  0  0  0
 11 16  1  0  0  0  0
 12 13  1  0  0  0  0
 12 14  1  0  0  0  0
 12 15  1  0  0  0  0
 13 30  1  0  0  0  0
 13 31  1  0  0  0  0
 13 32  1  0  0  0  0
 14 33  1  0  0  0  0
 14 34  1  0  0  0  0
 14 35  1  0  0  0  0
 15 36  1  0  0  0  0
 15 37  1  0  0  0  0
 15 38  1  0  0  0  0
 16 17  1  0  0  0  0
 18 19  1  0  0  0  0
 18 39  1  0  0  0  0
 18 40  1  0  0  0  0
 19 20  1  0  0  0  0
 19 41  1  0  0  0  0
 19 42  1  0  0  0  0
 20 21  2  0  0  0  0
M  CHG  1   8  -1
M  END
> <s_m_source_file>
AV-unprocessed.smi

> <i_m_source_file_index>
749

> <i_lp_mmshare_version>
43012

> <i_f3d_flags>
0

> <s_epik_input>
Tz1DMVtDSDJdW0NIMl1bQ0BASF0oW0NIMl1OMVtDSDNdKVtOSF1DKD1PKVtOSF1jMltjSF1jKG9uMilDKFtDSDNdKShbQ0gzXSlbQ0gzXQ==

> <s_epik_cmdline>
J2VwaWtfcHl0aG9uJywgJy1waCcsICc3LjAnLCAnLXRuJywgJzgnLCAnLW1hJywgJzIwMCcsICctbWV0YWxfYmluZGluZycsICctaW1hZScsICc8aW5maWxlLm1hZT4nLCAnLW9tYWUnLCAnPG91dGZpbGUubWFlPic=

> <r_lp_tautomer_probability>
1

> <r_epik_Ionization_Penalty>
6.47858

> <r_epik_Ionization_Penalty_Charging>
6.47844

> <r_epik_Ionization_Penalty_Neutral>
0.000138814

> <r_epik_State_Penalty>
6.47843

> <r_epik_Charging_Adjusted_Penalty>
12.9569

> <i_epik_Tot_Q>
-1

> <i_epik_Tot_abs_Q>
1

> <r_epik_Metal_State_Penalty>
2.40644

> <b_epik_Metal_Only>
1

> <s_lp_Force_Field>
OPLS_2005

> <r_lp_Energy>
10.0372

> <b_lp_Chiralities_Consistent>
1

> <s_lp_Variant>
AV-unprocessed.smi:749-4

> <Gold.Version>
5.8.1

> <Gold.Id.Protein>
6NUR|6NUR_protein|mol2

> <Gold.PLP.Fitness>
42.5940

> <Gold.PLP.PLP>
-38.0794

> <Gold.PLP.part.hbond>
-2.0000

> <Gold.PLP.part.metal>
0.0000

> <Gold.PLP.part.buried>
-5.3518

> <Gold.PLP.part.nonpolar>
-29.6923

> <Gold.PLP.part.repulsive>
0.2139

> <Gold.PLP.ligand.clash>
0.0000

> <Gold.PLP.ligand.torsion>
0.7561

> <Gold.PLP.Chemscore.Hbond>
2.0000

> <Gold.PLP.Chemscore.CHOScore>
0.0000

> <Gold.PLP.Chemscore.Metal>
0.0000

> <Gold.Chemscore.Hbonds>
donor molecule, donor type, donor heavy atom, donor atom, acceptor molecule, acceptor atom, score
      P1  H  6896  6908       L1    17  1.00
      P1  H  7997  8008       L1     7  0.96

> <Gold.PLP.Chemscore.Internal.Correction>
0.0268

> <Gold.Rescore>
     Score         DG    S(hbond)    S(metal)    S(lipo)     H(rot)  DE(clash)    DE(int)     intcor
     15.79     -17.90       1.80        0.00      81.33       1.22       0.04       2.07       ----

> <Gold.Chemscore.Fitness>
15.7882

> <Gold.Chemscore.DG>
-17.8962

> <Gold.Chemscore.ZeroCoef>
-5.4800

> <Gold.Chemscore.Hbond>
1.8033

> <Gold.Chemscore.Metal>
0.0000

> <Gold.Chemscore.Lipo>
81.3342

> <Gold.Chemscore.Internal_Hbond>
0.0000

> <Gold.Chemscore.DEClash>
0.0406

> <Gold.Chemscore.DEInternal>
2.0674

> <Gold.Chemscore.Rot>
1.2198

> <Gold.Chemscore.Internal.Correction>
   9.000000E+99

> <Gold.Chemscore.Hbonds>
donor molecule, donor type, donor heavy atom, donor atom, acceptor molecule, acceptor atom, score
      P1  H  6896  6908       L1    17  0.74
      P1  H  7997  8008       L1     7  0.92

> <Gold.Chemscore.Hbond.Weighted>
-6.0229

> <Gold.Chemscore.Metal.Weighted>
-0.0000

> <Gold.Chemscore.Lipo.Weighted>
-9.5161

> <Gold.Chemscore.Internal_Hbond.Weighted>
0.0000

> <Gold.Chemscore.DEClash.Weighted>
0.0406

> <Gold.Chemscore.DEInternal.Weighted>
2.0674

> <Gold.Chemscore.Rot.Weighted>
3.1228

> <Gold.Chemscore.Internal.Correction.Weighted>
   9.000000E+99

> <Gold.Protein.RotatedTorsions>
[ 6907 6896 6895 6894 ] final  -51.21 input  -60.11 | X-H torsion
[ 7974 7965 7964 7962 ] final   92.89 input  175.53 | X-H torsion
[ 8008 7997 7996 7995 ] final -117.00 input   59.86 | X-H torsion
[ 10167 10162 10161 10158 ] final  170.85 input  -65.29 | X-H torsion
[ 10718 10713 10712 10709 ] final  -16.69 input   66.30 | X-H torsion
[ 10763 10752 10751 10750 ] final  154.19 input  -60.55 | X-H torsion
[ 11005 11000 10999 10996 ] final -106.78 input  -57.11 | X-H torsion

> <Gold.Protein.ActiveResidues>
 VAL166  LYS551  ARG553  GLY616  TRP617  ASP618  TYR619  PRO620  LYS621  CYS622 
 ASP623  PHE694  ASN695  SER759  ASP760  ASP761  ALA762  ILE779  LEU786  VAL792 
 PHE793  MET794  SER795  GLU796  ALA797  LYS798  CYS799  TRP800  GLU811  SER814 

> <Gold.Protein.RotatedAtoms>
  150.8633  134.7990  159.7099 H   0  0  0  0  0  0  0  0  0  0  0  0  # atno 6907 bound_to 6896
  152.4663  134.5065  159.9750 H   0  0  0  0  0  0  0  0  0  0  0  0  # atno 6908 bound_to 6896
  151.5165  133.3436  159.2929 H   0  0  0  0  0  0  0  0  0  0  0  0  # atno 6909 bound_to 6896
  145.4863  139.2277  143.2855 H   0  0  0  0  0  0  0  0  0  0  0  0  # atno 7974 bound_to 7965
  155.0768  140.0394  157.2626 H   0  0  0  0  0  0  0  0  0  0  0  0  # atno 8008 bound_to 7997
  154.6938  140.2659  155.6761 H   0  0  0  0  0  0  0  0  0  0  0  0  # atno 8009 bound_to 7997
  156.2738  140.2754  156.1525 H   0  0  0  0  0  0  0  0  0  0  0  0  # atno 8010 bound_to 7997
  139.5030  144.3551  151.9882 H   0  0  0  0  0  0  0  0  0  0  0  0  # atno 10167 bound_to 10162
  156.5841  130.4781  149.6308 H   0  0  0  0  0  0  0  0  0  0  0  0  # atno 10718 bound_to 10713
  154.1483  135.2816  155.3142 H   0  0  0  0  0  0  0  0  0  0  0  0  # atno 10763 bound_to 10752
  154.6236  135.5459  153.7606 H   0  0  0  0  0  0  0  0  0  0  0  0  # atno 10764 bound_to 10752
  153.0229  135.6445  154.1628 H   0  0  0  0  0  0  0  0  0  0  0  0  # atno 10765 bound_to 10752
  141.0987  133.8924  157.1897 H   0  0  0  0  0  0  0  0  0  0  0  0  # atno 11005 bound_to 11000
  146.2311  140.5653  142.8975 LP  0  0  0  0  0  0  0  0  0  0  0  0  # atno 17320 bound_to 7965
  144.7860  140.5936  143.6574 LP  0  0  0  0  0  0  0  0  0  0  0  0  # atno 17321 bound_to 7965
  140.2988  144.3670  150.6066 LP  0  0  0  0  0  0  0  0  0  0  0  0  # atno 17342 bound_to 10162
  140.5890  143.2169  151.7289 LP  0  0  0  0  0  0  0  0  0  0  0  0  # atno 17343 bound_to 10162
  156.2606  130.6960  151.1728 LP  0  0  0  0  0  0  0  0  0  0  0  0  # atno 17370 bound_to 10713
  157.7319  131.0604  150.5652 LP  0  0  0  0  0  0  0  0  0  0  0  0  # atno 17371 bound_to 10713
  139.9832  135.0091  156.9799 LP  0  0  0  0  0  0  0  0  0  0  0  0  # atno 17394 bound_to 11000
  140.5076  134.1034  155.7263 LP  0  0  0  0  0  0  0  0  0  0  0  0  # atno 17395 bound_to 11000

$$$$
