AV-unprocessed.smi:1560|AV-procd|sdf|6276|dock3
  -GOLD-   22720 6473D 1   1.00000     0.00000
 Structure written by MMmdl.
 47 48  0  0  0  0  0  0  0  0  1 V2000
  147.2650  141.5742  154.5567 C   0  0  0  0  0  0  0  0  0  0  0  0
  148.5450  140.8615  154.0840 C   0  0  0  0  0  0  0  0  0  0  0  0
  149.1646  139.8452  155.0964 C   0  0  2  0  0  0  0  0  0  0  0  0
  150.2681  139.0734  154.3209 C   0  0  0  0  0  0  0  0  0  0  0  0
  148.0524  138.8294  155.5071 C   0  0  0  0  0  0  0  0  0  0  0  0
  147.3249  138.3062  154.3561 N   0  0  0  0  0  0  0  0  0  0  0  0
  146.7042  137.1184  154.2821 C   0  0  0  0  0  0  0  0  0  0  0  0
  146.7146  136.2998  155.2005 O   0  0  0  0  0  0  0  0  0  0  0  0
  145.9478  136.7851  152.9839 C   0  0  0  0  0  0  0  0  0  0  0  0
  144.5758  136.2886  153.1873 N   0  0  0  0  0  0  0  0  0  0  0  0
  143.4923  137.0297  152.7368 C   0  0  0  0  0  0  0  0  0  0  0  0
  142.2044  136.6528  152.9168 C   0  0  0  0  0  0  0  0  0  0  0  0
  141.8886  135.4116  153.6153 C   0  0  0  0  0  0  0  0  0  0  0  0
  140.7556  134.9872  153.8304 O   0  0  0  0  0  0  0  0  0  0  0  0
  143.0049  134.6932  154.0520 N   0  0  0  0  0  0  0  0  0  0  0  0
  144.3347  135.0752  153.8691 C   0  0  0  0  0  0  0  0  0  0  0  0
  145.2454  134.3724  154.3050 O   0  0  0  0  0  0  0  0  0  0  0  0
  149.7460  140.5483  156.2750 N   0  0  0  0  0  0  0  0  0  0  0  0
  150.6475  141.6619  155.9567 C   0  0  0  0  0  0  0  0  0  0  0  0
  151.0900  142.4230  157.2180 C   0  0  0  0  0  0  0  0  0  0  0  0
  151.7112  141.5239  158.1284 O   0  0  0  0  0  0  0  0  0  0  0  0
  150.8524  140.4550  158.5078 C   0  0  0  0  0  0  0  0  0  0  0  0
  150.4065  139.6789  157.2568 C   0  0  0  0  0  0  0  0  0  0  0  0
  142.8346  133.8266  154.5416 H   0  0  0  0  0  0  0  0  0  0  0  0
  146.9043  142.2578  153.7881 H   0  0  0  0  0  0  0  0  0  0  0  0
  147.4382  142.1634  155.4565 H   0  0  0  0  0  0  0  0  0  0  0  0
  146.4613  140.8686  154.7664 H   0  0  0  0  0  0  0  0  0  0  0  0
  148.3428  140.3711  153.1318 H   0  0  0  0  0  0  0  0  0  0  0  0
  149.2730  141.6352  153.8381 H   0  0  0  0  0  0  0  0  0  0  0  0
  149.9310  138.7528  153.3342 H   0  0  0  0  0  0  0  0  0  0  0  0
  150.5798  138.1706  154.8466 H   0  0  0  0  0  0  0  0  0  0  0  0
  151.1579  139.6855  154.1708 H   0  0  0  0  0  0  0  0  0  0  0  0
  148.4746  137.9734  156.0330 H   0  0  0  0  0  0  0  0  0  0  0  0
  147.3451  139.2986  156.1916 H   0  0  0  0  0  0  0  0  0  0  0  0
  147.2625  138.9141  153.5523 H   0  0  0  0  0  0  0  0  0  0  0  0
  145.9294  137.6830  152.3643 H   0  0  0  0  0  0  0  0  0  0  0  0
  146.5330  136.0609  152.4142 H   0  0  0  0  0  0  0  0  0  0  0  0
  143.6790  137.9603  152.2195 H   0  0  0  0  0  0  0  0  0  0  0  0
  141.4031  137.2746  152.5443 H   0  0  0  0  0  0  0  0  0  0  0  0
  151.5348  141.2961  155.4405 H   0  0  0  0  0  0  0  0  0  0  0  0
  150.1650  142.3759  155.2914 H   0  0  0  0  0  0  0  0  0  0  0  0
  151.7980  143.2098  156.9568 H   0  0  0  0  0  0  0  0  0  0  0  0
  150.2363  142.9056  157.6967 H   0  0  0  0  0  0  0  0  0  0  0  0
  151.3873  139.7958  159.1913 H   0  0  0  0  0  0  0  0  0  0  0  0
  149.9889  140.8450  159.0488 H   0  0  0  0  0  0  0  0  0  0  0  0
  149.7431  138.8788  157.5798 H   0  0  0  0  0  0  0  0  0  0  0  0
  151.2818  139.2043  156.8135 H   0  0  0  0  0  0  0  0  0  0  0  0
  1  2  1  0  0  0  0
  1 25  1  0  0  0  0
  1 26  1  0  0  0  0
  1 27  1  0  0  0  0
  2  3  1  0  0  0  0
  2 28  1  0  0  0  0
  2 29  1  0  0  0  0
  3  4  1  0  0  0  0
  3  5  1  0  0  0  0
  3 18  1  0  0  0  0
  4 30  1  0  0  0  0
  4 31  1  0  0  0  0
  4 32  1  0  0  0  0
  5  6  1  0  0  0  0
  5 33  1  0  0  0  0
  5 34  1  0  0  0  0
  6  7  1  0  0  0  0
  6 35  1  0  0  0  0
  7  8  2  0  0  0  0
  7  9  1  0  0  0  0
  9 10  1  0  0  0  0
  9 36  1  0  0  0  0
  9 37  1  0  0  0  0
 10 16  1  0  0  0  0
 10 11  1  0  0  0  0
 11 12  2  0  0  0  0
 11 38  1  0  0  0  0
 12 13  1  0  0  0  0
 12 39  1  0  0  0  0
 13 14  2  0  0  0  0
 13 15  1  0  0  0  0
 15 24  1  0  0  0  0
 15 16  1  0  0  0  0
 16 17  2  0  0  0  0
 18 23  1  0  0  0  0
 18 19  1  0  0  0  0
 19 20  1  0  0  0  0
 19 40  1  0  0  0  0
 19 41  1  0  0  0  0
 20 21  1  0  0  0  0
 20 42  1  0  0  0  0
 20 43  1  0  0  0  0
 21 22  1  0  0  0  0
 22 23  1  0  0  0  0
 22 44  1  0  0  0  0
 22 45  1  0  0  0  0
 23 46  1  0  0  0  0
 23 47  1  0  0  0  0
M  END
> <s_m_source_file>
AV-unprocessed.smi

> <i_m_source_file_index>
1560

> <i_lp_mmshare_version>
43012

> <i_f3d_flags>
0

> <s_epik_input>
W0NIMl0xW0NIMl1PW0NIMl1bQ0gyXU4xW0NAQF0oW0NIM10pKFtDSDJdW0NIM10pW0NIMl1bTkhdQyg9TylbQ0gyXW4yW2NIXVtjSF1jKD1PKVtuSF1jMj1P

> <s_epik_cmdline>
J2VwaWtfcHl0aG9uJywgJy1waCcsICc3LjAnLCAnLXRuJywgJzgnLCAnLW1hJywgJzIwMCcsICctbWV0YWxfYmluZGluZycsICctaW1hZScsICc8aW5maWxlLm1hZT4nLCAnLW9tYWUnLCAnPG91dGZpbGUubWFlPic=

> <r_lp_tautomer_probability>
0.999537

> <r_epik_Ionization_Penalty>
0.321965

> <r_epik_Ionization_Penalty_Charging>
0.00329831

> <r_epik_Ionization_Penalty_Neutral>
0.318667

> <r_epik_State_Penalty>
0.288097

> <r_epik_Charging_Adjusted_Penalty>
0.291396

> <i_epik_Tot_Q>
0

> <i_epik_Tot_abs_Q>
0

> <r_epik_Metal_State_Penalty>
0.654595

> <b_epik_Metal_Only>
0

> <s_lp_Force_Field>
OPLS_2005

> <r_lp_Energy>
43.0709

> <b_lp_Chiralities_Consistent>
1

> <s_lp_Variant>
AV-unprocessed.smi:1560-2

> <Gold.Version>
5.8.1

> <Gold.Id.Protein>
6NUR|6NUR_protein|mol2

> <Gold.PLP.Fitness>
41.3599

> <Gold.PLP.PLP>
-30.2841

> <Gold.PLP.part.hbond>
-2.7603

> <Gold.PLP.part.metal>
0.0000

> <Gold.PLP.part.buried>
-6.3467

> <Gold.PLP.part.nonpolar>
-21.8250

> <Gold.PLP.part.repulsive>
0.3650

> <Gold.PLP.ligand.clash>
0.0000

> <Gold.PLP.ligand.torsion>
0.5147

> <Gold.PLP.Chemscore.Hbond>
2.0000

> <Gold.PLP.Chemscore.CHOScore>
2.0000

> <Gold.PLP.Chemscore.Metal>
0.0000

> <Gold.Chemscore.Hbonds>
donor molecule, donor type, donor heavy atom, donor atom, acceptor molecule, acceptor atom, score
      L1  H    15    24       P1 10957  0.88
      P1  H 11000 11005       L1    14  0.88
      L1  C    11    38       P1 10171  1.00
      L1  C    11    38       P1 10175  1.00

> <Gold.PLP.Chemscore.Internal.Correction>
0.1051

> <Gold.Rescore>
     Score         DG    S(hbond)    S(metal)    S(lipo)     H(rot)  DE(clash)    DE(int)     intcor
     10.41     -13.44       1.98        0.00      65.83       2.49       0.16       2.86       ----

> <Gold.Chemscore.Fitness>
10.4109

> <Gold.Chemscore.DG>
-13.4402

> <Gold.Chemscore.ZeroCoef>
-5.4800

> <Gold.Chemscore.Hbond>
1.9828

> <Gold.Chemscore.Metal>
0.0000

> <Gold.Chemscore.Lipo>
65.8306

> <Gold.Chemscore.Internal_Hbond>
0.0000

> <Gold.Chemscore.DEClash>
0.1646

> <Gold.Chemscore.DEInternal>
2.8646

> <Gold.Chemscore.Rot>
2.4862

> <Gold.Chemscore.Internal.Correction>
   9.000000E+99

> <Gold.Chemscore.Hbonds>
donor molecule, donor type, donor heavy atom, donor atom, acceptor molecule, acceptor atom, score
      L1  H    15    24       P1 10957  0.85
      P1  H 11000 11005       L1    14  0.82

> <Gold.Chemscore.Hbond.Weighted>
-6.6226

> <Gold.Chemscore.Metal.Weighted>
-0.0000

> <Gold.Chemscore.Lipo.Weighted>
-7.7022

> <Gold.Chemscore.Internal_Hbond.Weighted>
0.0000

> <Gold.Chemscore.DEClash.Weighted>
0.1646

> <Gold.Chemscore.DEInternal.Weighted>
2.8646

> <Gold.Chemscore.Rot.Weighted>
6.3646

> <Gold.Chemscore.Internal.Correction.Weighted>
   9.000000E+99

> <Gold.Protein.RotatedTorsions>
[ 6907 6896 6895 6894 ] final  -88.20 input  -60.11 | X-H torsion
[ 7974 7965 7964 7962 ] final   56.26 input  175.53 | X-H torsion
[ 8008 7997 7996 7995 ] final -100.37 input   59.86 | X-H torsion
[ 10167 10162 10161 10158 ] final  107.59 input  -65.29 | X-H torsion
[ 10718 10713 10712 10709 ] final  163.72 input   66.30 | X-H torsion
[ 10763 10752 10751 10750 ] final  133.39 input  -60.55 | X-H torsion
[ 11005 11000 10999 10996 ] final   41.76 input  -57.11 | X-H torsion

> <Gold.Protein.ActiveResidues>
 VAL166  LYS551  ARG553  GLY616  TRP617  ASP618  TYR619  PRO620  LYS621  CYS622 
 ASP623  PHE694  ASN695  SER759  ASP760  ASP761  ALA762  ILE779  LEU786  VAL792 
 PHE793  MET794  SER795  GLU796  ALA797  LYS798  CYS799  TRP800  GLU811  SER814 

> <Gold.Protein.RotatedAtoms>
  150.6868  134.2778  159.4614 H   0  0  0  0  0  0  0  0  0  0  0  0  # atno 6907 bound_to 6896
  152.0694  134.9540  160.0584 H   0  0  0  0  0  0  0  0  0  0  0  0  # atno 6908 bound_to 6896
  152.0936  133.4178  159.4592 H   0  0  0  0  0  0  0  0  0  0  0  0  # atno 6909 bound_to 6896
  145.9416  139.3894  143.0360 H   0  0  0  0  0  0  0  0  0  0  0  0  # atno 7974 bound_to 7965
  154.8276  140.0441  157.1454 H   0  0  0  0  0  0  0  0  0  0  0  0  # atno 8008 bound_to 7997
  154.9188  140.3024  155.5207 H   0  0  0  0  0  0  0  0  0  0  0  0  # atno 8009 bound_to 7997
  156.2985  140.2344  156.4236 H   0  0  0  0  0  0  0  0  0  0  0  0  # atno 8010 bound_to 7997
  139.6914  144.7107  151.1341 H   0  0  0  0  0  0  0  0  0  0  0  0  # atno 10167 bound_to 10162
  157.1045  131.0452  151.2483 H   0  0  0  0  0  0  0  0  0  0  0  0  # atno 10718 bound_to 10713
  153.8064  135.3135  155.3396 H   0  0  0  0  0  0  0  0  0  0  0  0  # atno 10763 bound_to 10752
  154.8069  135.4692  154.0417 H   0  0  0  0  0  0  0  0  0  0  0  0  # atno 10764 bound_to 10752
  153.1782  135.6889  153.8603 H   0  0  0  0  0  0  0  0  0  0  0  0  # atno 10765 bound_to 10752
  140.1804  134.4111  155.8204 H   0  0  0  0  0  0  0  0  0  0  0  0  # atno 11005 bound_to 11000
  145.8291  140.9640  143.0858 LP  0  0  0  0  0  0  0  0  0  0  0  0  # atno 17320 bound_to 7965
  144.6780  140.0140  143.7484 LP  0  0  0  0  0  0  0  0  0  0  0  0  # atno 17321 bound_to 7965
  140.7684  143.5553  150.9159 LP  0  0  0  0  0  0  0  0  0  0  0  0  # atno 17342 bound_to 10162
  139.9231  143.6582  152.3092 LP  0  0  0  0  0  0  0  0  0  0  0  0  # atno 17343 bound_to 10162
  157.4612  130.7654  149.7237 LP  0  0  0  0  0  0  0  0  0  0  0  0  # atno 17370 bound_to 10713
  155.9865  130.3974  150.3208 LP  0  0  0  0  0  0  0  0  0  0  0  0  # atno 17371 bound_to 10713
  141.2222  133.6997  156.7920 LP  0  0  0  0  0  0  0  0  0  0  0  0  # atno 17394 bound_to 11000
  140.2274  134.8711  157.3441 LP  0  0  0  0  0  0  0  0  0  0  0  0  # atno 17395 bound_to 11000

$$$$
