AV-unprocessed.smi:2442|AV-procd|sdf|9623|dock8
  -GOLD-   2272013253D 1   1.00000     0.00000
 Structure written by MMmdl.
 46 47  0  0  0  0  0  0  0  0  1 V2000
  151.6991  140.0560  157.2915 C   0  0  0  0  0  0  0  0  0  0  0  0
  152.6690  140.5571  158.1974 O   0  0  0  0  0  0  0  0  0  0  0  0
  152.1697  141.5403  159.0964 C   0  0  2  0  0  0  0  0  0  0  0  0
  151.8063  142.8254  158.3228 C   0  0  0  0  0  0  0  0  0  0  0  0
  151.3937  143.9595  159.2755 C   0  0  0  0  0  0  0  0  0  0  0  0
  152.4901  144.2456  160.3138 C   0  0  0  0  0  0  0  0  0  0  0  0
  152.8559  142.9757  161.0968 C   0  0  0  0  0  0  0  0  0  0  0  0
  153.2724  141.8363  160.1411 C   0  0  1  0  0  0  0  0  0  0  0  0
  153.7010  140.6417  160.8728 N   0  0  0  0  0  0  0  0  0  0  0  0
  154.4216  139.6131  160.4003 C   0  0  0  0  0  0  0  0  0  0  0  0
  154.8745  139.5456  159.2576 O   0  0  0  0  0  0  0  0  0  0  0  0
  154.5629  138.6465  161.3191 N   0  0  0  0  0  0  0  0  0  0  0  0
  155.2205  137.3608  161.0958 C   0  0  0  0  0  0  0  0  0  0  0  0
  154.2369  136.1715  161.1425 C   0  0  0  0  0  0  0  0  0  0  0  0
  154.5012  135.1788  162.2696 C   0  0  0  0  0  0  0  0  0  0  0  0
  154.8677  133.8531  161.9519 C   0  0  0  0  0  0  0  0  0  0  0  0
  155.1459  132.9548  162.9998 C   0  0  0  0  0  0  0  0  0  0  0  0
  155.0756  133.2933  164.3032 N   0  0  0  0  0  0  0  0  0  0  0  0
  154.7171  134.5585  164.6060 C   0  0  0  0  0  0  0  0  0  0  0  0
  154.4157  135.5408  163.6376 C   0  0  0  0  0  0  0  0  0  0  0  0
  154.0295  136.9393  164.0843 C   0  0  0  0  0  0  0  0  0  0  0  0
  152.1579  139.3066  156.6467 H   0  0  0  0  0  0  0  0  0  0  0  0
  151.2955  140.8416  156.6533 H   0  0  0  0  0  0  0  0  0  0  0  0
  150.8754  139.5780  157.8235 H   0  0  0  0  0  0  0  0  0  0  0  0
  151.2783  141.1703  159.6051 H   0  0  0  0  0  0  0  0  0  0  0  0
  152.6605  143.1468  157.7253 H   0  0  0  0  0  0  0  0  0  0  0  0
  150.9949  142.6339  157.6211 H   0  0  0  0  0  0  0  0  0  0  0  0
  151.1787  144.8635  158.7050 H   0  0  0  0  0  0  0  0  0  0  0  0
  150.4687  143.6887  159.7862 H   0  0  0  0  0  0  0  0  0  0  0  0
  153.3767  144.6349  159.8118 H   0  0  0  0  0  0  0  0  0  0  0  0
  152.1571  145.0232  161.0017 H   0  0  0  0  0  0  0  0  0  0  0  0
  153.6654  143.1952  161.7940 H   0  0  0  0  0  0  0  0  0  0  0  0
  152.0014  142.6733  161.7031 H   0  0  0  0  0  0  0  0  0  0  0  0
  154.1575  142.1727  159.5993 H   0  0  0  0  0  0  0  0  0  0  0  0
  153.3916  140.5829  161.8317 H   0  0  0  0  0  0  0  0  0  0  0  0
  154.1558  138.7962  162.2306 H   0  0  0  0  0  0  0  0  0  0  0  0
  155.7593  137.3736  160.1480 H   0  0  0  0  0  0  0  0  0  0  0  0
  155.9805  137.2313  161.8664 H   0  0  0  0  0  0  0  0  0  0  0  0
  153.2137  136.5398  161.2112 H   0  0  0  0  0  0  0  0  0  0  0  0
  154.2854  135.6360  160.1936 H   0  0  0  0  0  0  0  0  0  0  0  0
  154.9503  133.5308  160.9245 H   0  0  0  0  0  0  0  0  0  0  0  0
  155.4365  131.9372  162.7845 H   0  0  0  0  0  0  0  0  0  0  0  0
  154.6718  134.7935  165.6593 H   0  0  0  0  0  0  0  0  0  0  0  0
  153.8866  136.9799  165.1646 H   0  0  0  0  0  0  0  0  0  0  0  0
  153.0971  137.2550  163.6170 H   0  0  0  0  0  0  0  0  0  0  0  0
  154.8116  137.6527  163.8265 H   0  0  0  0  0  0  0  0  0  0  0  0
  1  2  1  0  0  0  0
  1 22  1  0  0  0  0
  1 23  1  0  0  0  0
  1 24  1  0  0  0  0
  2  3  1  0  0  0  0
  3  8  1  0  0  0  0
  3  4  1  0  0  0  0
  3 25  1  0  0  0  0
  4  5  1  0  0  0  0
  4 26  1  0  0  0  0
  4 27  1  0  0  0  0
  5  6  1  0  0  0  0
  5 28  1  0  0  0  0
  5 29  1  0  0  0  0
  6  7  1  0  0  0  0
  6 30  1  0  0  0  0
  6 31  1  0  0  0  0
  7  8  1  0  0  0  0
  7 32  1  0  0  0  0
  7 33  1  0  0  0  0
  8  9  1  0  0  0  0
  8 34  1  0  0  0  0
  9 10  1  0  0  0  0
  9 35  1  0  0  0  0
 10 11  2  0  0  0  0
 10 12  1  0  0  0  0
 12 13  1  0  0  0  0
 12 36  1  0  0  0  0
 13 14  1  0  0  0  0
 13 37  1  0  0  0  0
 13 38  1  0  0  0  0
 14 15  1  0  0  0  0
 14 39  1  0  0  0  0
 14 40  1  0  0  0  0
 15 20  1  0  0  0  0
 15 16  2  0  0  0  0
 16 17  1  0  0  0  0
 16 41  1  0  0  0  0
 17 18  2  0  0  0  0
 17 42  1  0  0  0  0
 18 19  1  0  0  0  0
 19 20  2  0  0  0  0
 19 43  1  0  0  0  0
 20 21  1  0  0  0  0
 21 44  1  0  0  0  0
 21 45  1  0  0  0  0
 21 46  1  0  0  0  0
M  END
> <s_m_source_file>
AV-unprocessed.smi

> <i_m_source_file_index>
2442

> <i_lp_mmshare_version>
43012

> <i_f3d_flags>
0

> <s_epik_input>
W0NIM11PW0NAQEhdMVtDSDJdW0NIMl1bQ0gyXVtDSDJdW0NASF0xW05IXUMoPU8pW05IXVtDSDJdW0NIMl1jMltjSF1bY0hdbltjSF1jMltDSDNd

> <s_epik_cmdline>
J2VwaWtfcHl0aG9uJywgJy1waCcsICc3LjAnLCAnLXRuJywgJzgnLCAnLW1hJywgJzIwMCcsICctbWV0YWxfYmluZGluZycsICctaW1hZScsICc8aW5maWxlLm1hZT4nLCAnLW9tYWUnLCAnPG91dGZpbGUubWFlPic=

> <r_epik_Ionization_Penalty>
0.106136

> <r_epik_Ionization_Penalty_Charging>
0

> <r_epik_Ionization_Penalty_Neutral>
0.106136

> <r_epik_State_Penalty>
0.0959393

> <r_epik_Charging_Adjusted_Penalty>
0.0959393

> <i_epik_Tot_Q>
0

> <i_epik_Tot_abs_Q>
0

> <r_epik_Metal_State_Penalty>
0.0812517

> <b_epik_Metal_Only>
0

> <s_lp_Force_Field>
OPLS_2005

> <r_lp_Energy>
10.1716

> <b_lp_Chiralities_Consistent>
1

> <s_lp_Variant>
AV-unprocessed.smi:2442-1

> <Gold.Version>
5.8.1

> <Gold.Id.Protein>
6NUR|6NUR_protein|mol2

> <Gold.PLP.Fitness>
40.8440

> <Gold.PLP.PLP>
-39.0323

> <Gold.PLP.part.hbond>
-2.0000

> <Gold.PLP.part.metal>
0.0000

> <Gold.PLP.part.buried>
-4.2592

> <Gold.PLP.part.nonpolar>
-32.4344

> <Gold.PLP.part.repulsive>
0.0838

> <Gold.PLP.ligand.clash>
0.0000

> <Gold.PLP.ligand.torsion>
0.6210

> <Gold.PLP.Chemscore.Hbond>
1.0000

> <Gold.PLP.Chemscore.CHOScore>
0.0000

> <Gold.PLP.Chemscore.Metal>
0.0000

> <Gold.Chemscore.Hbonds>
donor molecule, donor type, donor heavy atom, donor atom, acceptor molecule, acceptor atom, score
      P1  H  7997  8009       L1    11  1.00

> <Gold.PLP.Chemscore.Internal.Correction>
0.0537

> <Gold.Rescore>
     Score         DG    S(hbond)    S(metal)    S(lipo)     H(rot)  DE(clash)    DE(int)     intcor
     15.58     -18.63       0.97        0.00     120.45       1.64       0.01       3.04       ----

> <Gold.Chemscore.Fitness>
15.5789

> <Gold.Chemscore.DG>
-18.6296

> <Gold.Chemscore.ZeroCoef>
-5.4800

> <Gold.Chemscore.Hbond>
0.9731

> <Gold.Chemscore.Metal>
0.0000

> <Gold.Chemscore.Lipo>
120.4519

> <Gold.Chemscore.Internal_Hbond>
0.0000

> <Gold.Chemscore.DEClash>
0.0149

> <Gold.Chemscore.DEInternal>
3.0358

> <Gold.Chemscore.Rot>
1.6380

> <Gold.Chemscore.Internal.Correction>
   9.000000E+99

> <Gold.Chemscore.Hbonds>
donor molecule, donor type, donor heavy atom, donor atom, acceptor molecule, acceptor atom, score
      P1  H  7997  8009       L1    11  0.96

> <Gold.Chemscore.Hbond.Weighted>
-3.2501

> <Gold.Chemscore.Metal.Weighted>
-0.0000

> <Gold.Chemscore.Lipo.Weighted>
-14.0929

> <Gold.Chemscore.Internal_Hbond.Weighted>
0.0000

> <Gold.Chemscore.DEClash.Weighted>
0.0149

> <Gold.Chemscore.DEInternal.Weighted>
3.0358

> <Gold.Chemscore.Rot.Weighted>
4.1934

> <Gold.Chemscore.Internal.Correction.Weighted>
   9.000000E+99

> <Gold.Protein.RotatedTorsions>
[ 6907 6896 6895 6894 ] final   53.15 input  -60.11 | X-H torsion
[ 7974 7965 7964 7962 ] final -162.05 input  175.53 | X-H torsion
[ 8008 7997 7996 7995 ] final  106.44 input   59.86 | X-H torsion
[ 10167 10162 10161 10158 ] final  101.61 input  -65.29 | X-H torsion
[ 10718 10713 10712 10709 ] final  -41.13 input   66.30 | X-H torsion
[ 10763 10752 10751 10750 ] final  -74.97 input  -60.55 | X-H torsion
[ 11005 11000 10999 10996 ] final  115.12 input  -57.11 | X-H torsion

> <Gold.Protein.ActiveResidues>
 VAL166  LYS551  ARG553  GLY616  TRP617  ASP618  TYR619  PRO620  LYS621  CYS622 
 ASP623  PHE694  ASN695  SER759  ASP760  ASP761  ALA762  ILE779  LEU786  VAL792 
 PHE793  MET794  SER795  GLU796  ALA797  LYS798  CYS799  TRP800  GLU811  SER814 

> <Gold.Protein.RotatedAtoms>
  152.3307  134.7263  160.0289 H   0  0  0  0  0  0  0  0  0  0  0  0  # atno 6907 bound_to 6896
  151.7680  133.3333  159.3444 H   0  0  0  0  0  0  0  0  0  0  0  0  # atno 6908 bound_to 6896
  150.7421  134.5976  159.6064 H   0  0  0  0  0  0  0  0  0  0  0  0  # atno 6909 bound_to 6896
  144.7370  140.3308  143.6153 H   0  0  0  0  0  0  0  0  0  0  0  0  # atno 7974 bound_to 7965
  156.1743  140.3113  155.9030 H   0  0  0  0  0  0  0  0  0  0  0  0  # atno 8008 bound_to 7997
  155.3521  140.0471  157.3063 H   0  0  0  0  0  0  0  0  0  0  0  0  # atno 8009 bound_to 7997
  154.5273  140.2219  155.8877 H   0  0  0  0  0  0  0  0  0  0  0  0  # atno 8010 bound_to 7997
  139.7423  144.7008  151.0557 H   0  0  0  0  0  0  0  0  0  0  0  0  # atno 10167 bound_to 10162
  156.2737  130.4209  149.8410 H   0  0  0  0  0  0  0  0  0  0  0  0  # atno 10718 bound_to 10713
  154.4802  135.5847  153.6384 H   0  0  0  0  0  0  0  0  0  0  0  0  # atno 10763 bound_to 10752
  152.9846  135.6088  154.3255 H   0  0  0  0  0  0  0  0  0  0  0  0  # atno 10764 bound_to 10752
  154.3146  135.2844  155.2529 H   0  0  0  0  0  0  0  0  0  0  0  0  # atno 10765 bound_to 10752
  139.9000  134.9579  156.6997 H   0  0  0  0  0  0  0  0  0  0  0  0  # atno 11005 bound_to 11000
  145.7473  139.1782  143.2341 LP  0  0  0  0  0  0  0  0  0  0  0  0  # atno 17320 bound_to 7965
  146.1088  140.7454  142.9513 LP  0  0  0  0  0  0  0  0  0  0  0  0  # atno 17321 bound_to 7965
  140.7787  143.4910  150.9894 LP  0  0  0  0  0  0  0  0  0  0  0  0  # atno 17342 bound_to 10162
  139.8598  143.7329  152.3174 LP  0  0  0  0  0  0  0  0  0  0  0  0  # atno 17343 bound_to 10162
  156.5882  130.8495  151.3401 LP  0  0  0  0  0  0  0  0  0  0  0  0  # atno 17370 bound_to 10713
  157.7292  130.9668  150.1778 LP  0  0  0  0  0  0  0  0  0  0  0  0  # atno 17371 bound_to 10713
  140.7160  133.9182  155.8115 LP  0  0  0  0  0  0  0  0  0  0  0  0  # atno 17394 bound_to 11000
  141.0264  134.0818  157.4064 LP  0  0  0  0  0  0  0  0  0  0  0  0  # atno 17395 bound_to 11000

$$$$
