AV-unprocessed.smi:1978|AV-procd|sdf|8001|dock10
  -GOLD-   2272010183D 1   1.00000     0.00000
 Structure written by MMmdl.
 44 45  0  0  0  0  0  0  0  0  3 V2000
  150.7924  141.0746  156.4286 C   0  0  0  0  0  0  0  0  0  0  0  0
  151.1925  139.7306  155.9230 C   0  0  0  0  0  0  0  0  0  0  0  0
  150.5091  138.5584  155.7653 C   0  0  0  0  0  0  0  0  0  0  0  0
  151.4939  137.6763  155.2423 C   0  0  0  0  0  0  0  0  0  0  0  0
  151.3027  136.3916  154.9052 N   0  5  0  0  0  0  0  0  0  0  0  0
  150.2300  135.7166  155.3761 C   0  0  0  0  0  0  0  0  0  0  0  0
  149.7300  135.8252  156.4982 O   0  0  0  0  0  0  0  0  0  0  0  0
  149.6962  134.8666  154.4871 N   0  0  0  0  0  0  0  0  0  0  0  0
  148.5194  134.0308  154.7080 C   0  0  0  0  0  0  0  0  0  0  0  0
  147.1807  134.7694  154.4163 C   0  0  1  0  0  0  0  0  0  0  0  0
  147.2984  136.2427  154.8870 C   0  0  0  0  0  0  0  0  0  0  0  0
  146.7863  134.6516  152.9691 N   0  3  1  0  0  0  0  0  0  0  0  0
  146.8126  133.2513  152.4447 C   0  0  0  0  0  0  0  0  0  0  0  0
  146.6445  133.2119  150.9168 C   0  0  0  0  0  0  0  0  0  0  0  0
  145.3583  133.9134  150.4759 C   0  0  0  0  0  0  0  0  0  0  0  0
  145.3297  135.3361  151.0451 C   0  0  0  0  0  0  0  0  0  0  0  0
  145.5190  135.3563  152.5768 C   0  0  1  0  0  0  0  0  0  0  0  0
  144.2677  134.8334  153.3195 C   0  0  0  0  0  0  0  0  0  0  0  0
  152.6665  138.2659  155.0807 N   0  0  0  0  0  0  0  0  0  0  0  0
  152.4833  139.5824  155.5205 O   0  0  0  0  0  0  0  0  0  0  0  0
  150.1342  141.5735  155.7172 H   0  0  0  0  0  0  0  0  0  0  0  0
  151.6636  141.7108  156.5871 H   0  0  0  0  0  0  0  0  0  0  0  0
  150.2621  140.9869  157.3767 H   0  0  0  0  0  0  0  0  0  0  0  0
  149.4720  138.3617  155.9907 H   0  0  0  0  0  0  0  0  0  0  0  0
  150.1409  134.8036  153.5827 H   0  0  0  0  0  0  0  0  0  0  0  0
  148.6059  133.1539  154.0659 H   0  0  0  0  0  0  0  0  0  0  0  0
  148.5889  133.6676  155.7311 H   0  0  0  0  0  0  0  0  0  0  0  0
  146.3934  134.2973  155.0052 H   0  0  0  0  0  0  0  0  0  0  0  0
  147.6283  136.3161  155.9228 H   0  0  0  0  0  0  0  0  0  0  0  0
  146.3479  136.7727  154.8571 H   0  0  0  0  0  0  0  0  0  0  0  0
  148.0145  136.7960  154.2785 H   0  0  0  0  0  0  0  0  0  0  0  0
  147.7555  132.7569  152.6591 H   0  0  0  0  0  0  0  0  0  0  0  0
  146.0413  132.6538  152.9311 H   0  0  0  0  0  0  0  0  0  0  0  0
  147.5027  133.6919  150.4445 H   0  0  0  0  0  0  0  0  0  0  0  0
  146.6406  132.1782  150.5696 H   0  0  0  0  0  0  0  0  0  0  0  0
  145.3005  133.9424  149.3874 H   0  0  0  0  0  0  0  0  0  0  0  0
  144.4892  133.3501  150.8167 H   0  0  0  0  0  0  0  0  0  0  0  0
  146.1238  135.9210  150.5790 H   0  0  0  0  0  0  0  0  0  0  0  0
  144.3949  135.8274  150.7723 H   0  0  0  0  0  0  0  0  0  0  0  0
  145.6231  136.4128  152.8187 H   0  0  0  0  0  0  0  0  0  0  0  0
  143.3842  135.4016  153.0279 H   0  0  0  0  0  0  0  0  0  0  0  0
  144.3608  134.9282  154.4007 H   0  0  0  0  0  0  0  0  0  0  0  0
  144.0609  133.7862  153.1021 H   0  0  0  0  0  0  0  0  0  0  0  0
  147.5155  135.1372  152.4668 H   0  0  0  0  0  0  0  0  0  0  0  0
  1  2  1  0  0  0  0
  1 21  1  0  0  0  0
  1 22  1  0  0  0  0
  1 23  1  0  0  0  0
  2 20  1  0  0  0  0
  2  3  2  0  0  0  0
  3  4  1  0  0  0  0
  3 24  1  0  0  0  0
  4  5  1  0  0  0  0
  4 19  2  0  0  0  0
  5  6  1  0  0  0  0
  6  7  2  0  0  0  0
  6  8  1  0  0  0  0
  8  9  1  0  0  0  0
  8 25  1  0  0  0  0
  9 10  1  0  0  0  0
  9 26  1  0  0  0  0
  9 27  1  0  0  0  0
 10 11  1  0  0  0  0
 10 12  1  0  0  0  0
 10 28  1  0  0  0  0
 11 29  1  0  0  0  0
 11 30  1  0  0  0  0
 11 31  1  0  0  0  0
 12 17  1  0  0  0  0
 12 13  1  0  0  0  0
 12 44  1  0  0  0  0
 13 14  1  0  0  0  0
 13 32  1  0  0  0  0
 13 33  1  0  0  0  0
 14 15  1  0  0  0  0
 14 34  1  0  0  0  0
 14 35  1  0  0  0  0
 15 16  1  0  0  0  0
 15 36  1  0  0  0  0
 15 37  1  0  0  0  0
 16 17  1  0  0  0  0
 16 38  1  0  0  0  0
 16 39  1  0  0  0  0
 17 18  1  0  0  0  0
 17 40  1  0  0  0  0
 18 41  1  0  0  0  0
 18 42  1  0  0  0  0
 18 43  1  0  0  0  0
 19 20  1  0  0  0  0
M  CHG  1   5  -1
M  CHG  1  12   1
M  END
> <s_m_source_file>
AV-unprocessed.smi

> <i_m_source_file_index>
1978

> <i_lp_mmshare_version>
43012

> <i_f3d_flags>
0

> <s_epik_input>
W0NIM11jMVtjSF1jKG5vMSlbTkhdQyg9TylbTkhdW0NIMl1bQ0BIXShbQ0gzXSlOMltDSDJdW0NIMl1bQ0gyXVtDSDJdW0NASF0yW0NIM10=

> <s_epik_cmdline>
J2VwaWtfcHl0aG9uJywgJy1waCcsICc3LjAnLCAnLXRuJywgJzgnLCAnLW1hJywgJzIwMCcsICctbWV0YWxfYmluZGluZycsICctaW1hZScsICc8aW5maWxlLm1hZT4nLCAnLW9tYWUnLCAnPG91dGZpbGUubWFlPic=

> <r_epik_Ionization_Penalty>
6.22372

> <r_epik_Ionization_Penalty_Charging>
6.22362

> <r_epik_Ionization_Penalty_Neutral>
9.65074e-05

> <r_epik_State_Penalty>
6.22363

> <r_epik_Charging_Adjusted_Penalty>
12.4472

> <i_epik_Tot_Q>
0

> <i_epik_Tot_abs_Q>
2

> <r_epik_Metal_State_Penalty>
2.16675

> <b_epik_Metal_Only>
1

> <s_lp_Force_Field>
OPLS_2005

> <r_lp_Energy>
13.574

> <b_lp_Chiralities_Consistent>
1

> <s_lp_Variant>
AV-unprocessed.smi:1978-10

> <Gold.Version>
5.8.1

> <Gold.Id.Protein>
6NUR|6NUR_protein|mol2

> <Gold.PLP.Fitness>
45.6433

> <Gold.PLP.PLP>
-32.2065

> <Gold.PLP.part.hbond>
-5.3855

> <Gold.PLP.part.metal>
0.0000

> <Gold.PLP.part.buried>
-3.2858

> <Gold.PLP.part.nonpolar>
-23.0314

> <Gold.PLP.part.repulsive>
0.2860

> <Gold.PLP.ligand.clash>
0.0000

> <Gold.PLP.ligand.torsion>
0.8380

> <Gold.PLP.Chemscore.Hbond>
5.0000

> <Gold.PLP.Chemscore.CHOScore>
0.0000

> <Gold.PLP.Chemscore.Metal>
0.0000

> <Gold.Chemscore.Hbonds>
donor molecule, donor type, donor heavy atom, donor atom, acceptor molecule, acceptor atom, score
      L1  H    12    44       P1  7948  2.00
      P1  H  7997  8010       L1    20  0.84
      P1  H 10752 10763       L1     5  2.00

> <Gold.PLP.Chemscore.Internal.Correction>
0.1128

> <Gold.Rescore>
     Score         DG    S(hbond)    S(metal)    S(lipo)     H(rot)  DE(clash)    DE(int)     intcor
     15.02     -17.21       2.72        0.00      55.96       1.52       0.01       2.18       ----

> <Gold.Chemscore.Fitness>
15.0248

> <Gold.Chemscore.DG>
-17.2118

> <Gold.Chemscore.ZeroCoef>
-5.4800

> <Gold.Chemscore.Hbond>
2.7165

> <Gold.Chemscore.Metal>
0.0000

> <Gold.Chemscore.Lipo>
55.9592

> <Gold.Chemscore.Internal_Hbond>
0.0000

> <Gold.Chemscore.DEClash>
0.0115

> <Gold.Chemscore.DEInternal>
2.1754

> <Gold.Chemscore.Rot>
1.5190

> <Gold.Chemscore.Internal.Correction>
   9.000000E+99

> <Gold.Chemscore.Hbonds>
donor molecule, donor type, donor heavy atom, donor atom, acceptor molecule, acceptor atom, score
      L1  H    12    44       P1  7948  0.99
      P1  H  7997  8010       L1    20  0.28
      P1  H 10752 10763       L1     5  0.74

> <Gold.Chemscore.Hbond.Weighted>
-9.0732

> <Gold.Chemscore.Metal.Weighted>
-0.0000

> <Gold.Chemscore.Lipo.Weighted>
-6.5472

> <Gold.Chemscore.Internal_Hbond.Weighted>
0.0000

> <Gold.Chemscore.DEClash.Weighted>
0.0115

> <Gold.Chemscore.DEInternal.Weighted>
2.1754

> <Gold.Chemscore.Rot.Weighted>
3.8886

> <Gold.Chemscore.Internal.Correction.Weighted>
   9.000000E+99

> <Gold.Protein.RotatedTorsions>
[ 6907 6896 6895 6894 ] final   56.09 input  -60.11 | X-H torsion
[ 7974 7965 7964 7962 ] final   38.57 input  175.53 | X-H torsion
[ 8008 7997 7996 7995 ] final  104.61 input   59.86 | X-H torsion
[ 10167 10162 10161 10158 ] final  -35.70 input  -65.29 | X-H torsion
[ 10718 10713 10712 10709 ] final   25.59 input   66.30 | X-H torsion
[ 10763 10752 10751 10750 ] final   46.74 input  -60.55 | X-H torsion
[ 11005 11000 10999 10996 ] final  149.46 input  -57.11 | X-H torsion

> <Gold.Protein.ActiveResidues>
 VAL166  LYS551  ARG553  GLY616  TRP617  ASP618  TYR619  PRO620  LYS621  CYS622 
 ASP623  PHE694  ASN695  SER759  ASP760  ASP761  ALA762  ILE779  LEU786  VAL792 
 PHE793  MET794  SER795  GLU796  ALA797  LYS798  CYS799  TRP800  GLU811  SER814 

> <Gold.Protein.RotatedAtoms>
  152.3602  134.6883  160.0209 H   0  0  0  0  0  0  0  0  0  0  0  0  # atno 6907 bound_to 6896
  151.7209  133.3309  159.3323 H   0  0  0  0  0  0  0  0  0  0  0  0  # atno 6908 bound_to 6896
  150.7599  134.6383  159.6268 H   0  0  0  0  0  0  0  0  0  0  0  0  # atno 6909 bound_to 6896
  146.1052  139.5757  142.9388 H   0  0  0  0  0  0  0  0  0  0  0  0  # atno 7974 bound_to 7965
  156.1588  140.3145  155.8771 H   0  0  0  0  0  0  0  0  0  0  0  0  # atno 8008 bound_to 7997
  155.3824  140.0488  157.3060 H   0  0  0  0  0  0  0  0  0  0  0  0  # atno 8009 bound_to 7997
  154.5126  140.2170  155.9137 H   0  0  0  0  0  0  0  0  0  0  0  0  # atno 8010 bound_to 7997
  140.7159  143.3459  151.2257 H   0  0  0  0  0  0  0  0  0  0  0  0  # atno 10167 bound_to 10162
  157.1954  130.6865  149.6167 H   0  0  0  0  0  0  0  0  0  0  0  0  # atno 10718 bound_to 10713
  152.9807  135.5998  154.3649 H   0  0  0  0  0  0  0  0  0  0  0  0  # atno 10763 bound_to 10752
  154.3328  135.2768  155.2465 H   0  0  0  0  0  0  0  0  0  0  0  0  # atno 10764 bound_to 10752
  154.4581  135.5973  153.6292 H   0  0  0  0  0  0  0  0  0  0  0  0  # atno 10765 bound_to 10752
  140.1046  134.8962  157.1847 H   0  0  0  0  0  0  0  0  0  0  0  0  # atno 11005 bound_to 11000
  145.5775  141.0386  143.2140 LP  0  0  0  0  0  0  0  0  0  0  0  0  # atno 17320 bound_to 7965
  144.7465  139.7307  143.7290 LP  0  0  0  0  0  0  0  0  0  0  0  0  # atno 17321 bound_to 7965
  139.6979  143.9583  152.2891 LP  0  0  0  0  0  0  0  0  0  0  0  0  # atno 17342 bound_to 10162
  139.9266  144.6767  150.8406 LP  0  0  0  0  0  0  0  0  0  0  0  0  # atno 17343 bound_to 10162
  155.9706  130.4600  150.6058 LP  0  0  0  0  0  0  0  0  0  0  0  0  # atno 17370 bound_to 10713
  157.3819  131.0782  151.1469 LP  0  0  0  0  0  0  0  0  0  0  0  0  # atno 17371 bound_to 10713
  140.3173  134.2956  155.7253 LP  0  0  0  0  0  0  0  0  0  0  0  0  # atno 17394 bound_to 11000
  141.2115  133.7687  156.9861 LP  0  0  0  0  0  0  0  0  0  0  0  0  # atno 17395 bound_to 11000

$$$$
