AV-unprocessed.smi:3210|AV-procd|sdf|12273|dock4
  -GOLD-   2272018113D 1   1.00000     0.00000
 Structure written by MMmdl.
 34 35  0  0  0  0  0  0  0  0  1 V2000
  146.2236  139.0976  153.7182 O   0  0  0  0  0  0  0  0  0  0  0  0
  147.0269  139.2783  152.8026 C   0  0  0  0  0  0  0  0  0  0  0  0
  146.9787  138.3921  151.5587 C   0  0  0  0  0  0  0  0  0  0  0  0
  145.7133  137.6584  151.4735 N   0  0  0  0  0  0  0  0  0  0  0  0
  145.9114  136.3607  150.8440 C   0  0  0  0  0  0  0  0  0  0  0  0
  144.6981  135.4503  151.0973 C   0  0  0  0  0  0  0  0  0  0  0  0
  144.8622  134.1359  150.5014 N   0  0  0  0  0  0  0  0  0  0  0  0
  144.0806  133.5290  149.5408 C   0  0  0  0  0  0  0  0  0  0  0  0
  144.6151  132.2955  149.3015 C   0  0  0  0  0  0  0  0  0  0  0  0
  145.7375  132.2387  150.1746 C   0  0  0  0  0  0  0  0  0  0  0  0
  145.8827  133.3415  150.8910 N   0  0  0  0  0  0  0  0  0  0  0  0
  147.9708  140.2314  152.8252 N   0  0  0  0  0  0  0  0  0  0  0  0
  148.1780  141.1779  153.9136 C   0  0  0  0  0  0  0  0  0  0  0  0
  149.3664  140.8779  154.8080 C   0  0  0  0  0  0  0  0  0  0  0  0
  150.0988  139.5599  154.7161 C   0  0  0  0  0  0  0  0  0  0  0  0
  149.2468  139.8675  155.9243 C   0  0  0  0  0  0  0  0  0  0  0  0
  147.0977  139.0270  150.6795 H   0  0  0  0  0  0  0  0  0  0  0  0
  147.8133  137.6886  151.5663 H   0  0  0  0  0  0  0  0  0  0  0  0
  145.0239  138.1785  150.9482 H   0  0  0  0  0  0  0  0  0  0  0  0
  146.0691  136.4795  149.7707 H   0  0  0  0  0  0  0  0  0  0  0  0
  146.8100  135.8971  151.2534 H   0  0  0  0  0  0  0  0  0  0  0  0
  144.5590  135.3155  152.1705 H   0  0  0  0  0  0  0  0  0  0  0  0
  143.7818  135.9087  150.7211 H   0  0  0  0  0  0  0  0  0  0  0  0
  143.2172  134.0189  149.1149 H   0  0  0  0  0  0  0  0  0  0  0  0
  144.2585  131.5474  148.6092 H   0  0  0  0  0  0  0  0  0  0  0  0
  146.4454  131.4341  150.3085 H   0  0  0  0  0  0  0  0  0  0  0  0
  148.5902  140.3047  152.0312 H   0  0  0  0  0  0  0  0  0  0  0  0
  148.2946  142.1824  153.5041 H   0  0  0  0  0  0  0  0  0  0  0  0
  147.2713  141.1998  154.5189 H   0  0  0  0  0  0  0  0  0  0  0  0
  149.9760  141.7502  155.0363 H   0  0  0  0  0  0  0  0  0  0  0  0
  149.7242  138.8191  154.0125 H   0  0  0  0  0  0  0  0  0  0  0  0
  151.1792  139.5770  154.8443 H   0  0  0  0  0  0  0  0  0  0  0  0
  149.7595  140.0884  156.8583 H   0  0  0  0  0  0  0  0  0  0  0  0
  148.3060  139.3297  156.0243 H   0  0  0  0  0  0  0  0  0  0  0  0
  1  2  2  0  0  0  0
  2  3  1  0  0  0  0
  2 12  1  0  0  0  0
  3  4  1  0  0  0  0
  3 17  1  0  0  0  0
  3 18  1  0  0  0  0
  4  5  1  0  0  0  0
  4 19  1  0  0  0  0
  5  6  1  0  0  0  0
  5 20  1  0  0  0  0
  5 21  1  0  0  0  0
  6  7  1  0  0  0  0
  6 22  1  0  0  0  0
  6 23  1  0  0  0  0
  7 11  1  0  0  0  0
  7  8  1  0  0  0  0
  8  9  2  0  0  0  0
  8 24  1  0  0  0  0
  9 10  1  0  0  0  0
  9 25  1  0  0  0  0
 10 11  2  0  0  0  0
 10 26  1  0  0  0  0
 12 13  1  0  0  0  0
 12 27  1  0  0  0  0
 13 14  1  0  0  0  0
 13 28  1  0  0  0  0
 13 29  1  0  0  0  0
 14 16  1  0  0  0  0
 14 15  1  0  0  0  0
 14 30  1  0  0  0  0
 15 16  1  0  0  0  0
 15 31  1  0  0  0  0
 15 32  1  0  0  0  0
 16 33  1  0  0  0  0
 16 34  1  0  0  0  0
M  END
> <s_m_source_file>
AV-unprocessed.smi

> <i_m_source_file_index>
3210

> <i_lp_mmshare_version>
43012

> <i_f3d_flags>
0

> <s_epik_input>
W0NIMl0xW0NIMl1bQ0hdMVtDSDJdW05IXUMoPU8pW0NIMl1bTkhdW0NIMl1bQ0gyXW4yW2NIXVtjSF1bY0hdbjI=

> <s_epik_cmdline>
J2VwaWtfcHl0aG9uJywgJy1waCcsICc3LjAnLCAnLXRuJywgJzgnLCAnLW1hJywgJzIwMCcsICctbWV0YWxfYmluZGluZycsICctaW1hZScsICc8aW5maWxlLm1hZT4nLCAnLW9tYWUnLCAnPG91dGZpbGUubWFlPic=

> <r_lp_tautomer_probability>
1

> <r_epik_Ionization_Penalty>
0.724936

> <r_epik_Ionization_Penalty_Charging>
0

> <r_epik_Ionization_Penalty_Neutral>
0.724936

> <r_epik_State_Penalty>
0.747957

> <r_epik_Charging_Adjusted_Penalty>
0.747957

> <i_epik_Tot_Q>
0

> <i_epik_Tot_abs_Q>
0

> <r_epik_Metal_State_Penalty>
0.746186

> <b_epik_Metal_Only>
0

> <s_lp_Force_Field>
OPLS_2005

> <r_lp_Energy>
13.4578

> <b_lp_Chiralities_Consistent>
1

> <s_lp_Variant>
AV-unprocessed.smi:3210-2

> <Gold.Version>
5.8.1

> <Gold.Id.Protein>
6NUR|6NUR_protein|mol2

> <Gold.PLP.Fitness>
44.7446

> <Gold.PLP.PLP>
-34.1766

> <Gold.PLP.part.hbond>
-2.0000

> <Gold.PLP.part.metal>
0.0000

> <Gold.PLP.part.buried>
-2.9111

> <Gold.PLP.part.nonpolar>
-30.8106

> <Gold.PLP.part.repulsive>
0.4582

> <Gold.PLP.ligand.clash>
0.0000

> <Gold.PLP.ligand.torsion>
1.0360

> <Gold.PLP.Chemscore.Hbond>
2.0000

> <Gold.PLP.Chemscore.CHOScore>
2.0000

> <Gold.PLP.Chemscore.Metal>
0.0000

> <Gold.Chemscore.Hbonds>
donor molecule, donor type, donor heavy atom, donor atom, acceptor molecule, acceptor atom, score
      L1  H     4    19       P1 10171  1.00
      L1  H    12    27       P1  7957  0.55
      L1  C     8    24       P1 10186  1.00
      L1  C    10    26       P1 10747  0.86

> <Gold.PLP.Chemscore.Internal.Correction>
0.6399

> <Gold.Rescore>
     Score         DG    S(hbond)    S(metal)    S(lipo)     H(rot)  DE(clash)    DE(int)     intcor
     13.72     -15.00       1.86        0.00      78.05       2.27       0.58       0.70       ----

> <Gold.Chemscore.Fitness>
13.7168

> <Gold.Chemscore.DG>
-14.9970

> <Gold.Chemscore.ZeroCoef>
-5.4800

> <Gold.Chemscore.Hbond>
1.8577

> <Gold.Chemscore.Metal>
0.0000

> <Gold.Chemscore.Lipo>
78.0538

> <Gold.Chemscore.Internal_Hbond>
0.0000

> <Gold.Chemscore.DEClash>
0.5847

> <Gold.Chemscore.DEInternal>
0.6955

> <Gold.Chemscore.Rot>
2.2734

> <Gold.Chemscore.Internal.Correction>
   9.000000E+99

> <Gold.Chemscore.Hbonds>
donor molecule, donor type, donor heavy atom, donor atom, acceptor molecule, acceptor atom, score
      L1  H     4    19       P1 10171  1.00
      L1  H    12    27       P1  7957  0.54

> <Gold.Chemscore.Hbond.Weighted>
-6.2046

> <Gold.Chemscore.Metal.Weighted>
-0.0000

> <Gold.Chemscore.Lipo.Weighted>
-9.1323

> <Gold.Chemscore.Internal_Hbond.Weighted>
0.0000

> <Gold.Chemscore.DEClash.Weighted>
0.5847

> <Gold.Chemscore.DEInternal.Weighted>
0.6955

> <Gold.Chemscore.Rot.Weighted>
5.8199

> <Gold.Chemscore.Internal.Correction.Weighted>
   9.000000E+99

> <Gold.Protein.RotatedTorsions>
[ 6907 6896 6895 6894 ] final -136.35 input  -60.11 | X-H torsion
[ 7974 7965 7964 7962 ] final -117.12 input  175.53 | X-H torsion
[ 8008 7997 7996 7995 ] final -149.43 input   59.86 | X-H torsion
[ 10167 10162 10161 10158 ] final  147.30 input  -65.29 | X-H torsion
[ 10718 10713 10712 10709 ] final  161.55 input   66.30 | X-H torsion
[ 10763 10752 10751 10750 ] final -170.81 input  -60.55 | X-H torsion
[ 11005 11000 10999 10996 ] final   43.60 input  -57.11 | X-H torsion

> <Gold.Protein.ActiveResidues>
 VAL166  LYS551  ARG553  GLY616  TRP617  ASP618  TYR619  PRO620  LYS621  CYS622 
 ASP623  PHE694  ASN695  SER759  ASP760  ASP761  ALA762  ILE779  LEU786  VAL792 
 PHE793  MET794  SER795  GLU796  ALA797  LYS798  CYS799  TRP800  GLU811  SER814 

> <Gold.Protein.RotatedAtoms>
  151.0090  133.5983  159.2684 H   0  0  0  0  0  0  0  0  0  0  0  0  # atno 6907 bound_to 6896
  151.3142  135.0801  159.9293 H   0  0  0  0  0  0  0  0  0  0  0  0  # atno 6908 bound_to 6896
  152.5294  133.9749  159.7833 H   0  0  0  0  0  0  0  0  0  0  0  0  # atno 6909 bound_to 6896
  145.0889  140.8476  143.3994 H   0  0  0  0  0  0  0  0  0  0  0  0  # atno 7974 bound_to 7965
  155.6075  140.0668  157.2716 H   0  0  0  0  0  0  0  0  0  0  0  0  # atno 8008 bound_to 7997
  154.4262  140.1807  156.1285 H   0  0  0  0  0  0  0  0  0  0  0  0  # atno 8009 bound_to 7997
  156.0111  140.3326  155.6945 H   0  0  0  0  0  0  0  0  0  0  0  0  # atno 8010 bound_to 7997
  139.4892  144.5765  151.6954 H   0  0  0  0  0  0  0  0  0  0  0  0  # atno 10167 bound_to 10162
  157.1350  131.0526  151.2354 H   0  0  0  0  0  0  0  0  0  0  0  0  # atno 10718 bound_to 10713
  154.6374  135.2894  155.0144 H   0  0  0  0  0  0  0  0  0  0  0  0  # atno 10763 bound_to 10752
  154.1283  135.6537  153.4920 H   0  0  0  0  0  0  0  0  0  0  0  0  # atno 10764 bound_to 10752
  153.0309  135.5304  154.7227 H   0  0  0  0  0  0  0  0  0  0  0  0  # atno 10765 bound_to 10752
  140.1630  134.4317  155.8305 H   0  0  0  0  0  0  0  0  0  0  0  0  # atno 11005 bound_to 11000
  145.1089  139.2770  143.5647 LP  0  0  0  0  0  0  0  0  0  0  0  0  # atno 17320 bound_to 7965
  146.3531  140.0679  142.8625 LP  0  0  0  0  0  0  0  0  0  0  0  0  # atno 17321 bound_to 7965
  140.5363  144.0651  150.6071 LP  0  0  0  0  0  0  0  0  0  0  0  0  # atno 17342 bound_to 10162
  140.3658  143.2882  152.0333 LP  0  0  0  0  0  0  0  0  0  0  0  0  # atno 17343 bound_to 10162
  157.4358  130.7516  149.7028 LP  0  0  0  0  0  0  0  0  0  0  0  0  # atno 17370 bound_to 10713
  155.9800  130.4034  150.3554 LP  0  0  0  0  0  0  0  0  0  0  0  0  # atno 17371 bound_to 10713
  141.2211  133.6922  156.7628 LP  0  0  0  0  0  0  0  0  0  0  0  0  # atno 17394 bound_to 11000
  140.2467  134.8572  157.3627 LP  0  0  0  0  0  0  0  0  0  0  0  0  # atno 17395 bound_to 11000

$$$$
