AV-unprocessed.smi:1953|AV-procd|sdf|7893|dock6
  -GOLD-   2272010 53D 1   1.00000     0.00000
 Structure written by MMmdl.
 43 45  0  0  0  0  0  0  0  0  1 V2000
  151.3619  135.9801  155.5320 N   0  0  0  0  0  0  0  0  0  0  0  0
  150.9946  137.0677  155.3834 C   0  0  0  0  0  0  0  0  0  0  0  0
  150.5341  138.4079  155.2308 C   0  0  0  0  0  0  0  0  0  0  0  0
  149.4500  138.7064  154.4856 C   0  0  0  0  0  0  0  0  0  0  0  0
  148.9831  139.9944  154.3398 N   0  0  0  0  0  0  0  0  0  0  0  0
  147.9166  140.3095  153.4317 C   0  0  0  0  0  0  0  0  0  0  0  0
  146.4736  140.1371  153.8651 C   0  0  0  0  0  0  0  0  0  0  0  0
  147.0778  139.1860  152.8620 C   0  0  0  0  0  0  0  0  0  0  0  0
  149.6893  141.0746  154.9118 C   0  0  0  0  0  0  0  0  0  0  0  0
  149.3311  142.2406  154.7265 O   0  0  0  0  0  0  0  0  0  0  0  0
  150.8247  140.7789  155.7052 N   0  0  0  0  0  0  0  0  0  0  0  0
  151.5327  141.9000  156.3611 C   0  0  0  0  0  0  0  0  0  0  0  0
  151.2213  142.0081  157.8610 C   0  0  0  0  0  0  0  0  0  0  0  0
  150.1344  141.6381  158.3074 O   0  0  0  0  0  0  0  0  0  0  0  0
  152.1986  142.5122  158.6295 N   0  0  0  0  0  0  0  0  0  0  0  0
  152.1160  142.7222  160.0717 C   0  0  0  0  0  0  0  0  0  0  0  0
  152.3034  144.2154  160.4162 C   0  0  0  0  0  0  0  0  0  0  0  0
  152.3057  144.4472  161.9357 C   0  0  0  0  0  0  0  0  0  0  0  0
  153.3716  143.5854  162.6297 C   0  0  0  0  0  0  0  0  0  0  0  0
  153.1819  142.0974  162.2970 C   0  0  0  0  0  0  0  0  0  0  0  0
  153.1806  141.8613  160.7780 C   0  0  0  0  0  0  0  0  0  0  0  0
  151.2893  139.4552  155.9149 C   0  0  0  0  0  0  0  0  0  0  0  0
  152.2667  139.2300  156.6305 O   0  0  0  0  0  0  0  0  0  0  0  0
  148.9197  137.9054  153.9907 H   0  0  0  0  0  0  0  0  0  0  0  0
  148.1117  141.1422  152.7581 H   0  0  0  0  0  0  0  0  0  0  0  0
  146.2783  139.7477  154.8626 H   0  0  0  0  0  0  0  0  0  0  0  0
  145.7505  140.8631  153.4993 H   0  0  0  0  0  0  0  0  0  0  0  0
  146.7558  139.2771  151.8268 H   0  0  0  0  0  0  0  0  0  0  0  0
  147.2810  138.1713  153.1986 H   0  0  0  0  0  0  0  0  0  0  0  0
  152.6142  141.8185  156.2451 H   0  0  0  0  0  0  0  0  0  0  0  0
  151.2859  142.8437  155.8710 H   0  0  0  0  0  0  0  0  0  0  0  0
  153.0607  142.7842  158.1798 H   0  0  0  0  0  0  0  0  0  0  0  0
  151.1325  142.3996  160.4194 H   0  0  0  0  0  0  0  0  0  0  0  0
  153.2423  144.5769  159.9942 H   0  0  0  0  0  0  0  0  0  0  0  0
  151.5120  144.8116  159.9606 H   0  0  0  0  0  0  0  0  0  0  0  0
  152.4819  145.5016  162.1499 H   0  0  0  0  0  0  0  0  0  0  0  0
  151.3218  144.2093  162.3420 H   0  0  0  0  0  0  0  0  0  0  0  0
  154.3650  143.9073  162.3144 H   0  0  0  0  0  0  0  0  0  0  0  0
  153.3260  143.7346  163.7088 H   0  0  0  0  0  0  0  0  0  0  0  0
  153.9721  141.5086  162.7635 H   0  0  0  0  0  0  0  0  0  0  0  0
  152.2412  141.7448  162.7222 H   0  0  0  0  0  0  0  0  0  0  0  0
  153.0044  140.8048  160.5716 H   0  0  0  0  0  0  0  0  0  0  0  0
  154.1687  142.0935  160.3778 H   0  0  0  0  0  0  0  0  0  0  0  0
  1  2  3  0  0  0  0
  2  3  1  0  0  0  0
  3 22  1  0  0  0  0
  3  4  2  0  0  0  0
  4  5  1  0  0  0  0
  4 24  1  0  0  0  0
  5  6  1  0  0  0  0
  5  9  1  0  0  0  0
  6  8  1  0  0  0  0
  6  7  1  0  0  0  0
  6 25  1  0  0  0  0
  7  8  1  0  0  0  0
  7 26  1  0  0  0  0
  7 27  1  0  0  0  0
  8 28  1  0  0  0  0
  8 29  1  0  0  0  0
  9 10  2  0  0  0  0
  9 11  1  0  0  0  0
 11 12  1  0  0  0  0
 11 22  1  0  0  0  0
 12 13  1  0  0  0  0
 12 30  1  0  0  0  0
 12 31  1  0  0  0  0
 13 14  2  0  0  0  0
 13 15  1  0  0  0  0
 15 16  1  0  0  0  0
 15 32  1  0  0  0  0
 16 21  1  0  0  0  0
 16 17  1  0  0  0  0
 16 33  1  0  0  0  0
 17 18  1  0  0  0  0
 17 34  1  0  0  0  0
 17 35  1  0  0  0  0
 18 19  1  0  0  0  0
 18 36  1  0  0  0  0
 18 37  1  0  0  0  0
 19 20  1  0  0  0  0
 19 38  1  0  0  0  0
 19 39  1  0  0  0  0
 20 21  1  0  0  0  0
 20 40  1  0  0  0  0
 20 41  1  0  0  0  0
 21 42  1  0  0  0  0
 21 43  1  0  0  0  0
 22 23  2  0  0  0  0
M  END
> <s_m_source_file>
AV-unprocessed.smi

> <i_m_source_file_index>
1953

> <i_lp_mmshare_version>
43012

> <i_f3d_flags>
0

> <s_epik_input>
TiNDYzFbY0hdbihbQ0hdMltDSDJdW0NIMl0yKWMoPU8pbihjMT1PKVtDSDJdQyg9TylbTkhdW0NIXTNbQ0gyXVtDSDJdW0NIMl1bQ0gyXVtDSDJdMw==

> <s_epik_cmdline>
J2VwaWtfcHl0aG9uJywgJy1waCcsICc3LjAnLCAnLXRuJywgJzgnLCAnLW1hJywgJzIwMCcsICctbWV0YWxfYmluZGluZycsICctaW1hZScsICc8aW5maWxlLm1hZT4nLCAnLW9tYWUnLCAnPG91dGZpbGUubWFlPic=

> <r_lp_tautomer_probability>
1

> <r_epik_Ionization_Penalty>
1.91355e-08

> <r_epik_Ionization_Penalty_Charging>
8.86257e-11

> <r_epik_Ionization_Penalty_Neutral>
1.90469e-08

> <r_epik_State_Penalty>
-0

> <r_epik_Charging_Adjusted_Penalty>
8.86257e-11

> <i_epik_Tot_Q>
0

> <i_epik_Tot_abs_Q>
0

> <r_epik_Metal_State_Penalty>
-0

> <b_epik_Metal_Only>
0

> <s_lp_Force_Field>
OPLS_2005

> <r_lp_Energy>
34.5376

> <b_lp_Chiralities_Consistent>
1

> <s_lp_Variant>
AV-unprocessed.smi:1953-1

> <Gold.Version>
5.8.1

> <Gold.Id.Protein>
6NUR|6NUR_protein|mol2

> <Gold.PLP.Fitness>
47.1098

> <Gold.PLP.PLP>
-40.4257

> <Gold.PLP.part.hbond>
-2.4263

> <Gold.PLP.part.metal>
0.0000

> <Gold.PLP.part.buried>
0.6135

> <Gold.PLP.part.nonpolar>
-40.2444

> <Gold.PLP.part.repulsive>
2.8707

> <Gold.PLP.ligand.clash>
0.0000

> <Gold.PLP.ligand.torsion>
0.9269

> <Gold.PLP.Chemscore.Hbond>
1.7800

> <Gold.PLP.Chemscore.CHOScore>
0.9991

> <Gold.PLP.Chemscore.Metal>
0.0000

> <Gold.Chemscore.Hbonds>
donor molecule, donor type, donor heavy atom, donor atom, acceptor molecule, acceptor atom, score
      P1  H  7997  8009       L1    23  0.44
      P1  H 10752 10763       L1     1  0.93
      L1  C     4    24       P1  7948  0.60

> <Gold.PLP.Chemscore.Internal.Correction>
0.2006

> <Gold.Rescore>
     Score         DG    S(hbond)    S(metal)    S(lipo)     H(rot)  DE(clash)    DE(int)     intcor
     13.05     -19.64       1.70        0.00     110.21       1.73       5.47       1.12       ----

> <Gold.Chemscore.Fitness>
13.0471

> <Gold.Chemscore.DG>
-19.6373

> <Gold.Chemscore.ZeroCoef>
-5.4800

> <Gold.Chemscore.Hbond>
1.7041

> <Gold.Chemscore.Metal>
0.0000

> <Gold.Chemscore.Lipo>
110.2059

> <Gold.Chemscore.Internal_Hbond>
0.0000

> <Gold.Chemscore.DEClash>
5.4676

> <Gold.Chemscore.DEInternal>
1.1226

> <Gold.Chemscore.Rot>
1.7298

> <Gold.Chemscore.Internal.Correction>
   9.000000E+99

> <Gold.Chemscore.Hbonds>
donor molecule, donor type, donor heavy atom, donor atom, acceptor molecule, acceptor atom, score
      P1  H  7997  8009       L1    23  0.44
      P1  H 10752 10763       L1     1  0.71

> <Gold.Chemscore.Hbond.Weighted>
-5.6916

> <Gold.Chemscore.Metal.Weighted>
-0.0000

> <Gold.Chemscore.Lipo.Weighted>
-12.8941

> <Gold.Chemscore.Internal_Hbond.Weighted>
0.0000

> <Gold.Chemscore.DEClash.Weighted>
5.4676

> <Gold.Chemscore.DEInternal.Weighted>
1.1226

> <Gold.Chemscore.Rot.Weighted>
4.4284

> <Gold.Chemscore.Internal.Correction.Weighted>
   9.000000E+99

> <Gold.Protein.RotatedTorsions>
[ 6907 6896 6895 6894 ] final  -30.10 input  -60.11 | X-H torsion
[ 7974 7965 7964 7962 ] final   24.93 input  175.53 | X-H torsion
[ 8008 7997 7996 7995 ] final -173.94 input   59.86 | X-H torsion
[ 10167 10162 10161 10158 ] final  152.24 input  -65.29 | X-H torsion
[ 10718 10713 10712 10709 ] final  148.13 input   66.30 | X-H torsion
[ 10763 10752 10751 10750 ] final   48.55 input  -60.55 | X-H torsion
[ 11005 11000 10999 10996 ] final   17.72 input  -57.11 | X-H torsion

> <Gold.Protein.ActiveResidues>
 VAL166  LYS551  ARG553  GLY616  TRP617  ASP618  TYR619  PRO620  LYS621  CYS622 
 ASP623  PHE694  ASN695  SER759  ASP760  ASP761  ALA762  ILE779  LEU786  VAL792 
 PHE793  MET794  SER795  GLU796  ALA797  LYS798  CYS799  TRP800  GLU811  SER814 

> <Gold.Protein.RotatedAtoms>
  151.1101  135.0022  159.8489 H   0  0  0  0  0  0  0  0  0  0  0  0  # atno 6907 bound_to 6896
  152.5442  134.1846  159.8659 H   0  0  0  0  0  0  0  0  0  0  0  0  # atno 6908 bound_to 6896
  151.1895  133.4631  159.2628 H   0  0  0  0  0  0  0  0  0  0  0  0  # atno 6909 bound_to 6896
  146.1913  139.7536  142.8829 H   0  0  0  0  0  0  0  0  0  0  0  0  # atno 7974 bound_to 7965
  155.9639  140.1149  157.0872 H   0  0  0  0  0  0  0  0  0  0  0  0  # atno 8008 bound_to 7997
  154.4139  140.1176  156.5282 H   0  0  0  0  0  0  0  0  0  0  0  0  # atno 8009 bound_to 7997
  155.6685  140.3473  155.4811 H   0  0  0  0  0  0  0  0  0  0  0  0  # atno 8010 bound_to 7997
  139.4834  144.5374  151.7622 H   0  0  0  0  0  0  0  0  0  0  0  0  # atno 10167 bound_to 10162
  157.3125  131.0890  151.1305 H   0  0  0  0  0  0  0  0  0  0  0  0  # atno 10718 bound_to 10713
  152.9791  135.5940  154.3945 H   0  0  0  0  0  0  0  0  0  0  0  0  # atno 10763 bound_to 10752
  154.3597  135.2767  155.2329 H   0  0  0  0  0  0  0  0  0  0  0  0  # atno 10764 bound_to 10752
  154.4331  135.6031  153.6136 H   0  0  0  0  0  0  0  0  0  0  0  0  # atno 10765 bound_to 10752
  140.4328  134.1402  155.7682 H   0  0  0  0  0  0  0  0  0  0  0  0  # atno 11005 bound_to 11000
  145.3782  141.0354  143.3192 LP  0  0  0  0  0  0  0  0  0  0  0  0  # atno 17320 bound_to 7965
  144.8493  139.5347  143.6864 LP  0  0  0  0  0  0  0  0  0  0  0  0  # atno 17321 bound_to 7965
  140.4909  144.1312  150.5950 LP  0  0  0  0  0  0  0  0  0  0  0  0  # atno 17342 bound_to 10162
  140.4172  143.2628  151.9760 LP  0  0  0  0  0  0  0  0  0  0  0  0  # atno 17343 bound_to 10162
  157.2622  130.6664  149.5980 LP  0  0  0  0  0  0  0  0  0  0  0  0  # atno 17370 bound_to 10713
  155.9679  130.4505  150.5700 LP  0  0  0  0  0  0  0  0  0  0  0  0  # atno 17371 bound_to 10713
  141.1738  133.8555  157.1486 LP  0  0  0  0  0  0  0  0  0  0  0  0  # atno 17394 bound_to 11000
  140.0122  134.9983  157.0420 LP  0  0  0  0  0  0  0  0  0  0  0  0  # atno 17395 bound_to 11000

$$$$
