AV-unprocessed.smi:3032|AV-procd|sdf|11569|dock8
  -GOLD-   2272016533D 1   1.00000     0.00000
 Structure written by MMmdl.
 36 37  0  0  0  0  0  0  0  0  2 V2000
  153.4228  141.7981  160.8466 C   0  0  0  0  0  0  0  0  0  0  0  0
  152.6027  142.8650  160.1076 C   0  0  2  0  0  0  0  0  0  0  0  0
  153.4159  143.5134  158.9720 C   0  0  0  0  0  0  0  0  0  0  0  0
  152.5930  144.5704  158.2199 C   0  0  0  0  0  0  0  0  0  0  0  0
  152.0352  145.6417  159.1770 C   0  0  0  0  0  0  0  0  0  0  0  0
  151.2657  145.0581  160.3867 C   0  0  1  0  0  0  0  0  0  0  0  0
  149.8403  144.5884  160.0398 C   0  0  0  0  0  0  0  0  0  0  0  0
  149.6505  143.6087  159.3187 O   0  0  0  0  0  0  0  0  0  0  0  0
  148.8386  145.3044  160.5722 N   0  0  0  0  0  0  0  0  0  0  0  0
  147.4200  144.9859  160.4479 C   0  0  0  0  0  0  0  0  0  0  0  0
  146.8724  144.2362  161.6775 C   0  0  0  0  0  0  0  0  0  0  0  0
  145.6957  143.3349  161.3578 C   0  0  0  0  0  0  0  0  0  0  0  0
  145.7230  142.2747  160.5242 N   0  5  0  0  0  0  0  0  0  0  0  0
  144.5235  141.7332  160.4391 N   0  0  0  0  0  0  0  0  0  0  0  0
  143.7634  142.4941  161.2355 C   0  0  0  0  0  0  0  0  0  0  0  0
  144.4523  143.4864  161.8085 N   0  0  0  0  0  0  0  0  0  0  0  0
  152.0884  143.9477  161.0793 C   0  0  0  0  0  0  0  0  0  0  0  0
  154.3052  142.2312  161.3185 H   0  0  0  0  0  0  0  0  0  0  0  0
  153.7587  141.0182  160.1625 H   0  0  0  0  0  0  0  0  0  0  0  0
  152.8291  141.3187  161.6257 H   0  0  0  0  0  0  0  0  0  0  0  0
  151.7443  142.3590  159.6646 H   0  0  0  0  0  0  0  0  0  0  0  0
  154.3152  143.9766  159.3804 H   0  0  0  0  0  0  0  0  0  0  0  0
  153.7536  142.7495  158.2710 H   0  0  0  0  0  0  0  0  0  0  0  0
  153.2143  145.0466  157.4609 H   0  0  0  0  0  0  0  0  0  0  0  0
  151.7824  144.0843  157.6781 H   0  0  0  0  0  0  0  0  0  0  0  0
  152.8664  146.2404  159.5511 H   0  0  0  0  0  0  0  0  0  0  0  0
  151.3994  146.3333  158.6224 H   0  0  0  0  0  0  0  0  0  0  0  0
  151.1522  145.8707  161.1066 H   0  0  0  0  0  0  0  0  0  0  0  0
  149.0771  146.0878  161.1630 H   0  0  0  0  0  0  0  0  0  0  0  0
  146.8829  145.9274  160.3314 H   0  0  0  0  0  0  0  0  0  0  0  0
  147.2369  144.4120  159.5384 H   0  0  0  0  0  0  0  0  0  0  0  0
  147.6632  143.6343  162.1258 H   0  0  0  0  0  0  0  0  0  0  0  0
  146.5612  144.9507  162.4405 H   0  0  0  0  0  0  0  0  0  0  0  0
  142.7056  142.3264  161.3958 H   0  0  0  0  0  0  0  0  0  0  0  0
  151.4937  143.4822  161.8671 H   0  0  0  0  0  0  0  0  0  0  0  0
  152.9385  144.4068  161.5857 H   0  0  0  0  0  0  0  0  0  0  0  0
  1  2  1  0  0  0  0
  1 18  1  0  0  0  0
  1 19  1  0  0  0  0
  1 20  1  0  0  0  0
  2 17  1  0  0  0  0
  2  3  1  0  0  0  0
  2 21  1  0  0  0  0
  3  4  1  0  0  0  0
  3 22  1  0  0  0  0
  3 23  1  0  0  0  0
  4  5  1  0  0  0  0
  4 24  1  0  0  0  0
  4 25  1  0  0  0  0
  5  6  1  0  0  0  0
  5 26  1  0  0  0  0
  5 27  1  0  0  0  0
  6  7  1  0  0  0  0
  6 17  1  0  0  0  0
  6 28  1  0  0  0  0
  7  8  2  0  0  0  0
  7  9  1  0  0  0  0
  9 10  1  0  0  0  0
  9 29  1  0  0  0  0
 10 11  1  0  0  0  0
 10 30  1  0  0  0  0
 10 31  1  0  0  0  0
 11 32  1  0  0  0  0
 11 33  1  0  0  0  0
 11 12  1  0  0  0  0
 12 16  2  0  0  0  0
 12 13  1  0  0  0  0
 13 14  1  0  0  0  0
 14 15  2  0  0  0  0
 15 16  1  0  0  0  0
 15 34  1  0  0  0  0
 17 35  1  0  0  0  0
 17 36  1  0  0  0  0
M  CHG  1  13  -1
M  END
> <s_m_source_file>
AV-unprocessed.smi

> <i_m_source_file_index>
3032

> <i_lp_mmshare_version>
43012

> <i_f3d_flags>
0

> <s_epik_input>
W0NIM11bQ0BASF0xW0NIMl1bQ0gyXVtDSDJdW0NASF0oW0NIMl0xKUMoPU8pW05IXVtDSDJdW0NIMl1jMm5uW2NIXVtuSF0y

> <s_epik_cmdline>
J2VwaWtfcHl0aG9uJywgJy1waCcsICc3LjAnLCAnLXRuJywgJzgnLCAnLW1hJywgJzIwMCcsICctbWV0YWxfYmluZGluZycsICctaW1hZScsICc8aW5maWxlLm1hZT4nLCAnLW9tYWUnLCAnPG91dGZpbGUubWFlPic=

> <r_lp_tautomer_probability>
0.948284

> <r_epik_Ionization_Penalty>
12.042

> <r_epik_Ionization_Penalty_Charging>
12.042

> <r_epik_Ionization_Penalty_Neutral>
4.36781e-08

> <r_epik_State_Penalty>
4.67286

> <r_epik_Charging_Adjusted_Penalty>
16.7149

> <i_epik_Tot_Q>
-1

> <i_epik_Tot_abs_Q>
1

> <r_epik_Metal_State_Penalty>
0.981637

> <b_epik_Metal_Only>
1

> <s_lp_Force_Field>
OPLS_2005

> <r_lp_Energy>
8.77891

> <b_lp_Chiralities_Consistent>
1

> <s_lp_Variant>
AV-unprocessed.smi:3032-13

> <Gold.Version>
5.8.1

> <Gold.Id.Protein>
6NUR|6NUR_protein|mol2

> <Gold.PLP.Fitness>
49.5499

> <Gold.PLP.PLP>
-44.3228

> <Gold.PLP.part.hbond>
-1.9292

> <Gold.PLP.part.metal>
0.0000

> <Gold.PLP.part.buried>
-7.3127

> <Gold.PLP.part.nonpolar>
-36.1312

> <Gold.PLP.part.repulsive>
0.4257

> <Gold.PLP.ligand.clash>
0.0000

> <Gold.PLP.ligand.torsion>
0.4113

> <Gold.PLP.Chemscore.Hbond>
2.0000

> <Gold.PLP.Chemscore.CHOScore>
0.0000

> <Gold.PLP.Chemscore.Metal>
0.0000

> <Gold.Chemscore.Hbonds>
donor molecule, donor type, donor heavy atom, donor atom, acceptor molecule, acceptor atom, score
      P1  H  6934  6946       L1    13  2.00

> <Gold.PLP.Chemscore.Internal.Correction>
0.0497

> <Gold.Rescore>
     Score         DG    S(hbond)    S(metal)    S(lipo)     H(rot)  DE(clash)    DE(int)     intcor
     13.78     -14.11       0.93        0.00      95.53       2.21       0.01       0.32       ----

> <Gold.Chemscore.Fitness>
13.7793

> <Gold.Chemscore.DG>
-14.1091

> <Gold.Chemscore.ZeroCoef>
-5.4800

> <Gold.Chemscore.Hbond>
0.9347

> <Gold.Chemscore.Metal>
0.0000

> <Gold.Chemscore.Lipo>
95.5333

> <Gold.Chemscore.Internal_Hbond>
0.0000

> <Gold.Chemscore.DEClash>
0.0053

> <Gold.Chemscore.DEInternal>
0.3246

> <Gold.Chemscore.Rot>
2.2149

> <Gold.Chemscore.Internal.Correction>
   9.000000E+99

> <Gold.Chemscore.Hbonds>
donor molecule, donor type, donor heavy atom, donor atom, acceptor molecule, acceptor atom, score
      P1  H  6934  6946       L1    13  0.55

> <Gold.Chemscore.Hbond.Weighted>
-3.1219

> <Gold.Chemscore.Metal.Weighted>
-0.0000

> <Gold.Chemscore.Lipo.Weighted>
-11.1774

> <Gold.Chemscore.Internal_Hbond.Weighted>
0.0000

> <Gold.Chemscore.DEClash.Weighted>
0.0053

> <Gold.Chemscore.DEInternal.Weighted>
0.3246

> <Gold.Chemscore.Rot.Weighted>
5.6702

> <Gold.Chemscore.Internal.Correction.Weighted>
   9.000000E+99

> <Gold.Protein.RotatedTorsions>
[ 6907 6896 6895 6894 ] final   18.34 input  -60.11 | X-H torsion
[ 7974 7965 7964 7962 ] final -118.34 input  175.53 | X-H torsion
[ 8008 7997 7996 7995 ] final   12.73 input   59.86 | X-H torsion
[ 10167 10162 10161 10158 ] final   50.28 input  -65.29 | X-H torsion
[ 10718 10713 10712 10709 ] final   62.97 input   66.30 | X-H torsion
[ 10763 10752 10751 10750 ] final   19.72 input  -60.55 | X-H torsion
[ 11005 11000 10999 10996 ] final  171.62 input  -57.11 | X-H torsion

> <Gold.Protein.ActiveResidues>
 VAL166  LYS551  ARG553  GLY616  TRP617  ASP618  TYR619  PRO620  LYS621  CYS622 
 ASP623  PHE694  ASN695  SER759  ASP760  ASP761  ALA762  ILE779  LEU786  VAL792 
 PHE793  MET794  SER795  GLU796  ALA797  LYS798  CYS799  TRP800  GLU811  SER814 

> <Gold.Protein.RotatedAtoms>
  151.8638  135.0514  160.0471 H   0  0  0  0  0  0  0  0  0  0  0  0  # atno 6907 bound_to 6896
  152.2642  133.5320  159.5408 H   0  0  0  0  0  0  0  0  0  0  0  0  # atno 6908 bound_to 6896
  150.7127  134.0704  159.3905 H   0  0  0  0  0  0  0  0  0  0  0  0  # atno 6909 bound_to 6896
  145.0750  140.8386  143.4073 H   0  0  0  0  0  0  0  0  0  0  0  0  # atno 7974 bound_to 7965
  154.8247  140.2889  155.5763 H   0  0  0  0  0  0  0  0  0  0  0  0  # atno 8008 bound_to 7997
  156.3000  140.2543  156.3092 H   0  0  0  0  0  0  0  0  0  0  0  0  # atno 8009 bound_to 7997
  154.9299  140.0384  157.2032 H   0  0  0  0  0  0  0  0  0  0  0  0  # atno 8010 bound_to 7997
  140.2741  144.3232  150.6282 H   0  0  0  0  0  0  0  0  0  0  0  0  # atno 10167 bound_to 10162
  157.5938  130.9079  149.9656 H   0  0  0  0  0  0  0  0  0  0  0  0  # atno 10718 bound_to 10713
  153.1138  135.6703  153.9454 H   0  0  0  0  0  0  0  0  0  0  0  0  # atno 10763 bound_to 10752
  153.8990  135.3038  155.3449 H   0  0  0  0  0  0  0  0  0  0  0  0  # atno 10764 bound_to 10752
  154.7556  135.5013  153.9446 H   0  0  0  0  0  0  0  0  0  0  0  0  # atno 10765 bound_to 10752
  140.3210  134.7437  157.4064 H   0  0  0  0  0  0  0  0  0  0  0  0  # atno 11005 bound_to 11000
  145.1247  139.2671  143.5570 LP  0  0  0  0  0  0  0  0  0  0  0  0  # atno 17320 bound_to 7965
  146.3530  140.0881  142.8614 LP  0  0  0  0  0  0  0  0  0  0  0  0  # atno 17321 bound_to 7965
  140.5865  143.2170  151.7331 LP  0  0  0  0  0  0  0  0  0  0  0  0  # atno 17342 bound_to 10162
  139.4980  144.4002  152.0189 LP  0  0  0  0  0  0  0  0  0  0  0  0  # atno 17343 bound_to 10162
  156.0997  130.3656  150.0240 LP  0  0  0  0  0  0  0  0  0  0  0  0  # atno 17370 bound_to 10713
  156.8358  130.9408  151.3635 LP  0  0  0  0  0  0  0  0  0  0  0  0  # atno 17371 bound_to 10713
  140.0942  134.5560  155.8415 LP  0  0  0  0  0  0  0  0  0  0  0  0  # atno 17394 bound_to 11000
  141.2086  133.6676  156.6385 LP  0  0  0  0  0  0  0  0  0  0  0  0  # atno 17395 bound_to 11000

$$$$
