AV-unprocessed.smi:897|AV-procd|sdf|4082|dock2
  -GOLD-   22720 1573D 1   1.00000     0.00000
 Structure written by MMmdl.
 35 37  0  0  0  0  0  0  0  0  1 V2000
  151.0672  145.3425  159.4716 C   0  0  0  0  0  0  0  0  0  0  0  0
  151.7513  144.0187  159.7407 C   0  0  0  0  0  0  0  0  0  0  0  0
  152.3940  143.7710  160.9677 C   0  0  0  0  0  0  0  0  0  0  0  0
  153.0140  142.5208  161.1662 C   0  0  0  0  0  0  0  0  0  0  0  0
  153.7067  142.2398  162.4911 C   0  0  0  0  0  0  0  0  0  0  0  0
  152.9695  141.5633  160.1194 C   0  0  0  0  0  0  0  0  0  0  0  0
  153.6048  140.2567  160.2827 C   0  0  0  0  0  0  0  0  0  0  0  0
  154.1073  139.2225  160.4124 N   0  0  0  0  0  0  0  0  0  0  0  0
  152.2966  141.9101  158.9150 C   0  0  0  0  0  0  0  0  0  0  0  0
  152.2218  140.9937  157.8492 N   0  0  0  0  0  0  0  0  0  0  0  0
  150.9421  140.5616  157.2970 C   0  0  1  0  0  0  0  0  0  0  0  0
  150.1587  141.7003  156.6310 C   0  0  0  0  0  0  0  0  0  0  0  0
  149.9399  141.1503  155.2163 C   0  0  2  0  0  0  0  0  0  0  0  0
  148.9661  139.9642  155.1967 C   0  0  0  0  0  0  0  0  0  0  0  0
  149.8174  138.8510  155.8067 C   0  0  0  0  0  0  0  0  0  0  0  0
  151.1259  139.5892  156.1196 C   0  0  1  0  0  0  0  0  0  0  0  0
  151.1726  140.4815  155.0176 O   0  0  0  0  0  0  0  0  0  0  0  0
  151.7016  143.1148  158.7418 N   0  0  0  0  0  0  0  0  0  0  0  0
  151.0689  145.9765  160.3587 H   0  0  0  0  0  0  0  0  0  0  0  0
  150.0310  145.1815  159.1727 H   0  0  0  0  0  0  0  0  0  0  0  0
  151.5781  145.8760  158.6695 H   0  0  0  0  0  0  0  0  0  0  0  0
  152.4101  144.5251  161.7412 H   0  0  0  0  0  0  0  0  0  0  0  0
  154.7687  142.0490  162.3347 H   0  0  0  0  0  0  0  0  0  0  0  0
  153.2655  141.3691  162.9766 H   0  0  0  0  0  0  0  0  0  0  0  0
  153.6147  143.0844  163.1743 H   0  0  0  0  0  0  0  0  0  0  0  0
  153.0590  140.7823  157.3252 H   0  0  0  0  0  0  0  0  0  0  0  0
  150.3584  140.0798  158.0827 H   0  0  0  0  0  0  0  0  0  0  0  0
  149.2214  141.9195  157.1432 H   0  0  0  0  0  0  0  0  0  0  0  0
  150.7431  142.6209  156.5886 H   0  0  0  0  0  0  0  0  0  0  0  0
  149.7203  141.9179  154.4738 H   0  0  0  0  0  0  0  0  0  0  0  0
  148.0581  140.1653  155.7661 H   0  0  0  0  0  0  0  0  0  0  0  0
  148.6812  139.7105  154.1750 H   0  0  0  0  0  0  0  0  0  0  0  0
  149.3651  138.4078  156.6946 H   0  0  0  0  0  0  0  0  0  0  0  0
  149.9870  138.0569  155.0785 H   0  0  0  0  0  0  0  0  0  0  0  0
  151.9888  138.9277  156.2072 H   0  0  0  0  0  0  0  0  0  0  0  0
  1  2  1  0  0  0  0
  1 19  1  0  0  0  0
  1 20  1  0  0  0  0
  1 21  1  0  0  0  0
  2 18  1  0  0  0  0
  2  3  2  0  0  0  0
  3  4  1  0  0  0  0
  3 22  1  0  0  0  0
  4  5  1  0  0  0  0
  4  6  2  0  0  0  0
  5 23  1  0  0  0  0
  5 24  1  0  0  0  0
  5 25  1  0  0  0  0
  6  7  1  0  0  0  0
  6  9  1  0  0  0  0
  7  8  3  0  0  0  0
  9 10  1  0  0  0  0
  9 18  2  0  0  0  0
 10 11  1  0  0  0  0
 10 26  1  0  0  0  0
 11 16  1  0  0  0  0
 11 12  1  0  0  0  0
 11 27  1  0  0  0  0
 12 13  1  0  0  0  0
 12 28  1  0  0  0  0
 12 29  1  0  0  0  0
 13 17  1  0  0  0  0
 13 14  1  0  0  0  0
 13 30  1  0  0  0  0
 14 15  1  0  0  0  0
 14 31  1  0  0  0  0
 14 32  1  0  0  0  0
 15 16  1  0  0  0  0
 15 33  1  0  0  0  0
 15 34  1  0  0  0  0
 16 17  1  0  0  0  0
 16 35  1  0  0  0  0
M  END
> <s_m_source_file>
AV-unprocessed.smi

> <i_m_source_file_index>
897

> <i_lp_mmshare_version>
43012

> <i_f3d_flags>
0

> <s_epik_input>
W0NIM11jMVtjSF1jKFtDSDNdKWMoQyNOKWMobjEpW05IXVtDQEhdKFtDSDJdW0NAQEhdMjMpW0NAQEhdKE8zKVtDSDJdW0NIMl0y

> <s_epik_cmdline>
J2VwaWtfcHl0aG9uJywgJy1waCcsICc3LjAnLCAnLXRuJywgJzgnLCAnLW1hJywgJzIwMCcsICctbWV0YWxfYmluZGluZycsICctaW1hZScsICc8aW5maWxlLm1hZT4nLCAnLW9tYWUnLCAnPG91dGZpbGUubWFlPic=

> <r_lp_tautomer_probability>
1

> <r_epik_Ionization_Penalty>
0.000502654

> <r_epik_Ionization_Penalty_Charging>
0

> <r_epik_Ionization_Penalty_Neutral>
0.000502654

> <r_epik_State_Penalty>
-0

> <r_epik_Charging_Adjusted_Penalty>
0

> <i_epik_Tot_Q>
0

> <i_epik_Tot_abs_Q>
0

> <r_epik_Metal_State_Penalty>
-0

> <b_epik_Metal_Only>
0

> <s_lp_Force_Field>
OPLS_2005

> <r_lp_Energy>
43.6408

> <b_lp_Chiralities_Consistent>
1

> <s_lp_Variant>
AV-unprocessed.smi:897-4

> <Gold.Version>
5.8.1

> <Gold.Id.Protein>
6NUR|6NUR_protein|mol2

> <Gold.PLP.Fitness>
40.3392

> <Gold.PLP.PLP>
-38.4009

> <Gold.PLP.part.hbond>
-1.0000

> <Gold.PLP.part.metal>
0.0000

> <Gold.PLP.part.buried>
-3.6765

> <Gold.PLP.part.nonpolar>
-33.1342

> <Gold.PLP.part.repulsive>
0.1678

> <Gold.PLP.ligand.clash>
0.0000

> <Gold.PLP.ligand.torsion>
0.5409

> <Gold.PLP.Chemscore.Hbond>
1.0000

> <Gold.PLP.Chemscore.CHOScore>
0.0000

> <Gold.PLP.Chemscore.Metal>
0.0000

> <Gold.Chemscore.Hbonds>
donor molecule, donor type, donor heavy atom, donor atom, acceptor molecule, acceptor atom, score
      P1  H  7989  7998       L1    17  1.00

> <Gold.PLP.Chemscore.Internal.Correction>
0.0202

> <Gold.Rescore>
     Score         DG    S(hbond)    S(metal)    S(lipo)     H(rot)  DE(clash)    DE(int)     intcor
     16.30     -17.78       0.90        0.00     101.35       1.00       0.01       1.47       ----

> <Gold.Chemscore.Fitness>
16.2985

> <Gold.Chemscore.DG>
-17.7779

> <Gold.Chemscore.ZeroCoef>
-5.4800

> <Gold.Chemscore.Hbond>
0.8980

> <Gold.Chemscore.Metal>
0.0000

> <Gold.Chemscore.Lipo>
101.3543

> <Gold.Chemscore.Internal_Hbond>
0.0000

> <Gold.Chemscore.DEClash>
0.0098

> <Gold.Chemscore.DEInternal>
1.4696

> <Gold.Chemscore.Rot>
1.0000

> <Gold.Chemscore.Internal.Correction>
   9.000000E+99

> <Gold.Chemscore.Hbonds>
donor molecule, donor type, donor heavy atom, donor atom, acceptor molecule, acceptor atom, score
      P1  H  7989  7998       L1    17  0.47

> <Gold.Chemscore.Hbond.Weighted>
-2.9995

> <Gold.Chemscore.Metal.Weighted>
-0.0000

> <Gold.Chemscore.Lipo.Weighted>
-11.8585

> <Gold.Chemscore.Internal_Hbond.Weighted>
0.0000

> <Gold.Chemscore.DEClash.Weighted>
0.0098

> <Gold.Chemscore.DEInternal.Weighted>
1.4696

> <Gold.Chemscore.Rot.Weighted>
2.5600

> <Gold.Chemscore.Internal.Correction.Weighted>
   9.000000E+99

> <Gold.Protein.RotatedTorsions>
[ 6907 6896 6895 6894 ] final   98.84 input  -60.11 | X-H torsion
[ 7974 7965 7964 7962 ] final -138.08 input  175.53 | X-H torsion
[ 8008 7997 7996 7995 ] final -135.37 input   59.86 | X-H torsion
[ 10167 10162 10161 10158 ] final -163.83 input  -65.29 | X-H torsion
[ 10718 10713 10712 10709 ] final   44.99 input   66.30 | X-H torsion
[ 10763 10752 10751 10750 ] final   57.29 input  -60.55 | X-H torsion
[ 11005 11000 10999 10996 ] final  -81.91 input  -57.11 | X-H torsion

> <Gold.Protein.ActiveResidues>
 VAL166  LYS551  ARG553  GLY616  TRP617  ASP618  TYR619  PRO620  LYS621  CYS622 
 ASP623  PHE694  ASN695  SER759  ASP760  ASP761  ALA762  ILE779  LEU786  VAL792 
 PHE793  MET794  SER795  GLU796  ALA797  LYS798  CYS799  TRP800  GLU811  SER814 

> <Gold.Protein.RotatedAtoms>
  152.5402  134.0519  159.8113 H   0  0  0  0  0  0  0  0  0  0  0  0  # atno 6907 bound_to 6896
  151.0660  133.5498  159.2638 H   0  0  0  0  0  0  0  0  0  0  0  0  # atno 6908 bound_to 6896
  151.2379  135.0586  159.9067 H   0  0  0  0  0  0  0  0  0  0  0  0  # atno 6909 bound_to 6896
  144.8788  140.6476  143.5219 H   0  0  0  0  0  0  0  0  0  0  0  0  # atno 7974 bound_to 7965
  155.3776  140.0492  157.3044 H   0  0  0  0  0  0  0  0  0  0  0  0  # atno 8008 bound_to 7997
  154.5098  140.2187  155.9140 H   0  0  0  0  0  0  0  0  0  0  0  0  # atno 8009 bound_to 7997
  156.1569  140.3124  155.8747 H   0  0  0  0  0  0  0  0  0  0  0  0  # atno 8010 bound_to 7997
  139.6293  144.0470  152.2002 H   0  0  0  0  0  0  0  0  0  0  0  0  # atno 10167 bound_to 10162
  157.4327  130.8034  149.7619 H   0  0  0  0  0  0  0  0  0  0  0  0  # atno 10718 bound_to 10713
  152.9847  135.5646  154.5368 H   0  0  0  0  0  0  0  0  0  0  0  0  # atno 10763 bound_to 10752
  154.4829  135.2789  155.1558 H   0  0  0  0  0  0  0  0  0  0  0  0  # atno 10764 bound_to 10752
  154.3059  135.6298  153.5498 H   0  0  0  0  0  0  0  0  0  0  0  0  # atno 10765 bound_to 10752
  141.1665  133.7219  156.8493 H   0  0  0  0  0  0  0  0  0  0  0  0  # atno 11005 bound_to 11000
  145.3993  139.1601  143.4186 LP  0  0  0  0  0  0  0  0  0  0  0  0  # atno 17320 bound_to 7965
  146.2980  140.4089  142.8714 LP  0  0  0  0  0  0  0  0  0  0  0  0  # atno 17321 bound_to 7965
  140.0132  144.6208  150.7630 LP  0  0  0  0  0  0  0  0  0  0  0  0  # atno 17342 bound_to 10162
  140.7430  143.2839  151.3518 LP  0  0  0  0  0  0  0  0  0  0  0  0  # atno 17343 bound_to 10162
  155.9919  130.3934  150.2964 LP  0  0  0  0  0  0  0  0  0  0  0  0  # atno 17370 bound_to 10713
  157.1122  131.0224  151.3043 LP  0  0  0  0  0  0  0  0  0  0  0  0  # atno 17371 bound_to 10713
  140.1927  134.8954  157.3079 LP  0  0  0  0  0  0  0  0  0  0  0  0  # atno 17394 bound_to 11000
  140.2272  134.3952  155.7538 LP  0  0  0  0  0  0  0  0  0  0  0  0  # atno 17395 bound_to 11000

$$$$
