#       Name:                AV-unprocessed.smi:1645
#       Creating user name   scv26
#       Creation time:       Fri Mar 27 07:30:40 2020


#       File generated by GOLD software.
#

@<TRIPOS>MOLECULE
AV-unprocessed.smi:1645
    59    62     1
SMALL
NO_CHARGES


@<TRIPOS>ATOM
      1 ****        -0.9244   1.3349   0.1321 O.2            1 S1                 0.0000
      2 ****        -1.1702   0.2221   0.5963 C.2            1 S1                 0.0000
      3 ****        -0.2641  -0.7446   0.8196 N.am           1 S1                 0.0000
      4 ****         1.1460  -0.6858   0.6563 C.ar           1 S1                 0.0000
      5 ****         1.8995   0.5106   0.6738 C.ar           1 S1                 0.0000
      6 ****         3.2985   0.4373   0.5314 C.ar           1 S1                 0.0000
      7 ****         3.9150  -0.8273   0.3826 C.ar           1 S1                 0.0000
      8 ****         5.3176  -0.9208   0.2478 N.3            1 S1                 0.0000
      9 ****         5.8710  -2.1873  -0.2393 C.3            1 S1                 0.0000
     10 ****         7.3334  -2.0209  -0.6866 C.3            1 S1                 0.0000
     11 ****         8.1843  -1.3960   0.4283 C.3            1 S1                 0.0000
     12 ****         7.5564  -0.0726   0.8893 C.3            1 S1                 0.0000
     13 ****         6.0902  -0.2719   1.3095 C.3            1 S1                 0.0000
     14 ****         3.1890  -1.9721   0.3697 N.ar           1 S1                 0.0000
     15 ****         1.8491  -1.8978   0.5094 C.ar           1 S1                 0.0000
     16 ****        -2.4051  -0.1850   0.9220 N.am           1 S1                 0.0000
     17 ****        -3.6160   0.6204   0.7907 C.3            1 S1                 0.0000
     18 ****        -4.7592   0.1514   1.6971 C.3            1 S1                 0.0000
     19 ****        -6.0089   0.5293   0.9043 C.3            1 S1                 0.0000
     20 ****        -5.6241   0.2402  -0.4845 N.4            1 S1                 1.0000
     21 ****        -6.5821   0.6245  -1.5535 C.3            1 S1                 0.0000
     22 ****        -6.3456   2.0351  -2.1049 C.3            1 S1                 0.0000
     23 ****        -4.8904   2.1847  -2.5498 C.3            1 S1                 0.0000
     24 ****        -3.9859   1.9789  -1.3346 C.3            1 S1                 0.0000
     25 ****        -4.1891   0.6028  -0.6512 C.3            1 S1                 0.0000
     26 ****        -0.6279  -1.6413   1.1069 H              1 S1                 0.0000
     27 ****         1.4382   1.4767   0.8073 H              1 S1                 0.0000
     28 ****         3.8793   1.3477   0.5308 H              1 S1                 0.0000
     29 ****         5.8064  -2.9343   0.5531 H              1 S1                 0.0000
     30 ****         5.2819  -2.5565  -1.0799 H              1 S1                 0.0000
     31 ****         7.7468  -2.9871  -0.9762 H              1 S1                 0.0000
     32 ****         7.3730  -1.3878  -1.5739 H              1 S1                 0.0000
     33 ****         8.2511  -2.0858   1.2705 H              1 S1                 0.0000
     34 ****         9.2030  -1.2291   0.0773 H              1 S1                 0.0000
     35 ****         8.1289   0.3435   1.7186 H              1 S1                 0.0000
     36 ****         7.6072   0.6576   0.0805 H              1 S1                 0.0000
     37 ****         5.6689   0.6947   1.5825 H              1 S1                 0.0000
     38 ****         6.0424  -0.8960   2.2029 H              1 S1                 0.0000
     39 ****         1.3216  -2.8405   0.5001 H              1 S1                 0.0000
     40 ****        -2.5142  -1.1169   1.2945 H              1 S1                 0.0000
     41 ****        -3.3811   1.6432   1.0918 H              1 S1                 0.0000
     42 ****        -4.7235  -0.9315   1.8284 H              1 S1                 0.0000
     43 ****        -4.7317   0.6099   2.6860 H              1 S1                 0.0000
     44 ****        -6.8865  -0.0403   1.2114 H              1 S1                 0.0000
     45 ****        -6.2285   1.5927   1.0131 H              1 S1                 0.0000
     46 ****        -6.4659  -0.0931  -2.3667 H              1 S1                 0.0000
     47 ****        -7.6064   0.5153  -1.1949 H              1 S1                 0.0000
     48 ****        -7.0140   2.2202  -2.9465 H              1 S1                 0.0000
     49 ****        -6.5866   2.7811  -1.3465 H              1 S1                 0.0000
     50 ****        -4.6518   1.4611  -3.3304 H              1 S1                 0.0000
     51 ****        -4.7268   3.1755  -2.9750 H              1 S1                 0.0000
     52 ****        -2.9415   2.0954  -1.6250 H              1 S1                 0.0000
     53 ****        -4.1938   2.7840  -0.6284 H              1 S1                 0.0000
     54 ****        -3.7302  -0.1765  -1.2618 H              1 S1                 0.0000
     55 ****        -5.6238  -0.7695  -0.5060 H              1 S1                 0.0000
     56 ****         0.0143   1.5787  -0.1118 LP             1 S1                 0.0000
     57 ****        -1.6633   1.9954  -0.0012 LP             1 S1                 0.0000
     58 ****         5.4621  -0.3387  -0.5524 LP             1 S1                 0.0000
     59 ****         3.6396  -2.8579   0.2584 LP             1 S1                 0.0000
@<TRIPOS>BOND
    1    1    2 2     
    2    2    3 am    
    3    2   16 am    
    4    3    4 1     
    5    3   26 1     
    6    4   15 ar    
    7    4    5 ar    
    8    5    6 ar    
    9    5   27 1     
   10    6    7 ar    
   11    6   28 1     
   12    7    8 1     
   13    7   14 ar    
   14    8   13 1     
   15    8    9 1     
   16    9   10 1     
   17    9   29 1     
   18    9   30 1     
   19   10   11 1     
   20   10   31 1     
   21   10   32 1     
   22   11   12 1     
   23   11   33 1     
   24   11   34 1     
   25   12   13 1     
   26   12   35 1     
   27   12   36 1     
   28   13   37 1     
   29   13   38 1     
   30   14   15 ar    
   31   15   39 1     
   32   16   17 1     
   33   16   40 1     
   34   17   25 1     
   35   17   18 1     
   36   17   41 1     
   37   18   19 1     
   38   18   42 1     
   39   18   43 1     
   40   19   20 1     
   41   19   44 1     
   42   19   45 1     
   43   20   25 1     
   44   20   21 1     
   45   20   55 1     
   46   21   22 1     
   47   21   46 1     
   48   21   47 1     
   49   22   23 1     
   50   22   48 1     
   51   22   49 1     
   52   23   24 1     
   53   23   50 1     
   54   23   51 1     
   55   24   25 1     
   56   24   52 1     
   57   24   53 1     
   58   25   54 1     
   59    1   56 1     
   60    1   57 1     
   61    8   58 1     
   62   14   59 1     
@<TRIPOS>SUBSTRUCTURE
      1 S1             1
@<TRIPOS>SET
LONE_PAIRS      STATIC     ATOMS    <user>   **** ""
4 56 57 58 59
DONOR_HYDROGENS      STATIC     ATOMS    <user>   **** ""
3 26 40 55
ATOM$BLUE        STATIC     ATOMS    COLORGROUP SYSTEM
4 56 57 58 59
ATOM$RED        STATIC     ATOMS    COLORGROUP SYSTEM
3 26 40 55
