AV-unprocessed.smi:1703|AV-procd|sdf|6866|dock4
  -GOLD-   22720 8 63D 1   1.00000     0.00000
 Structure written by MMmdl.
 49 51  0  0  0  0  0  0  0  0  2 V2000
  154.1619  136.2176  164.0268 C   0  0  0  0  0  0  0  0  0  0  0  0
  155.6474  136.5586  164.2422 C   0  0  1  0  0  0  0  0  0  0  0  0
  156.3574  137.0415  162.9625 C   0  0  0  0  0  0  0  0  0  0  0  0
  155.9322  138.4179  162.6084 N   0  3  2  0  0  0  0  0  0  0  0  0
  156.5209  138.9176  161.3400 C   0  0  0  0  0  0  0  0  0  0  0  0
  155.5183  139.7487  160.5160 C   0  0  1  0  0  0  0  0  0  0  0  0
  155.8179  139.5904  159.1420 O   0  0  0  0  0  0  0  0  0  0  0  0
  154.0622  139.3175  160.7823 C   0  0  0  0  0  0  0  0  0  0  0  0
  153.1206  139.9039  159.8376 N   0  0  0  0  0  0  0  0  0  0  0  0
  152.3951  139.2757  158.8780 C   0  0  0  0  0  0  0  0  0  0  0  0
  152.4861  137.7989  158.6430 C   0  0  0  0  0  0  0  0  0  0  0  0
  151.3135  137.1128  159.0259 O   0  0  0  0  0  0  0  0  0  0  0  0
  151.5961  140.0564  158.1502 N   0  0  0  0  0  0  0  0  0  0  0  0
  151.8281  141.3097  158.6824 C   0  0  0  0  0  0  0  0  0  0  0  0
  151.2809  142.5677  158.3423 C   0  0  0  0  0  0  0  0  0  0  0  0
  151.6762  143.7296  159.0370 C   0  0  0  0  0  0  0  0  0  0  0  0
  152.6226  143.6510  160.0791 C   0  0  0  0  0  0  0  0  0  0  0  0
  153.1802  142.4077  160.4340 C   0  0  0  0  0  0  0  0  0  0  0  0
  152.7810  141.2502  159.7385 C   0  0  0  0  0  0  0  0  0  0  0  0
  156.1650  139.3345  163.7475 C   0  0  0  0  0  0  0  0  0  0  0  0
  155.4245  138.8312  164.9999 C   0  0  2  0  0  0  0  0  0  0  0  0
  155.7139  139.7034  166.2264 C   0  0  0  0  0  0  0  0  0  0  0  0
  155.8418  137.5008  165.2974 O   0  0  0  0  0  0  0  0  0  0  0  0
  154.0530  135.4053  163.3078 H   0  0  0  0  0  0  0  0  0  0  0  0
  153.5922  137.0643  163.6447 H   0  0  0  0  0  0  0  0  0  0  0  0
  153.6981  135.8952  164.9592 H   0  0  0  0  0  0  0  0  0  0  0  0
  156.1368  135.6393  164.5656 H   0  0  0  0  0  0  0  0  0  0  0  0
  157.4375  137.0322  163.1191 H   0  0  0  0  0  0  0  0  0  0  0  0
  156.1542  136.3473  162.1479 H   0  0  0  0  0  0  0  0  0  0  0  0
  157.3910  139.5396  161.5566 H   0  0  0  0  0  0  0  0  0  0  0  0
  156.8899  138.0720  160.7573 H   0  0  0  0  0  0  0  0  0  0  0  0
  155.6182  140.8057  160.7584 H   0  0  0  0  0  0  0  0  0  0  0  0
  156.6683  139.1855  159.0615 H   0  0  0  0  0  0  0  0  0  0  0  0
  153.9721  138.2315  160.7325 H   0  0  0  0  0  0  0  0  0  0  0  0
  153.7654  139.5946  161.7940 H   0  0  0  0  0  0  0  0  0  0  0  0
  152.6943  137.6018  157.5917 H   0  0  0  0  0  0  0  0  0  0  0  0
  153.3259  137.3950  159.2096 H   0  0  0  0  0  0  0  0  0  0  0  0
  150.7051  137.1300  158.3031 H   0  0  0  0  0  0  0  0  0  0  0  0
  150.5558  142.6390  157.5453 H   0  0  0  0  0  0  0  0  0  0  0  0
  151.2513  144.6859  158.7691 H   0  0  0  0  0  0  0  0  0  0  0  0
  152.9197  144.5457  160.6060 H   0  0  0  0  0  0  0  0  0  0  0  0
  153.9042  142.3459  161.2324 H   0  0  0  0  0  0  0  0  0  0  0  0
  157.2365  139.4108  163.9407 H   0  0  0  0  0  0  0  0  0  0  0  0
  155.8121  140.3351  163.4946 H   0  0  0  0  0  0  0  0  0  0  0  0
  154.3493  138.8475  164.8209 H   0  0  0  0  0  0  0  0  0  0  0  0
  155.4019  140.7343  166.0576 H   0  0  0  0  0  0  0  0  0  0  0  0
  156.7777  139.7106  166.4652 H   0  0  0  0  0  0  0  0  0  0  0  0
  155.1787  139.3345  167.1018 H   0  0  0  0  0  0  0  0  0  0  0  0
  154.9323  138.3928  162.4644 H   0  0  0  0  0  0  0  0  0  0  0  0
  1  2  1  0  0  0  0
  1 24  1  0  0  0  0
  1 25  1  0  0  0  0
  1 26  1  0  0  0  0
  2 23  1  0  0  0  0
  2  3  1  0  0  0  0
  2 27  1  0  0  0  0
  3  4  1  0  0  0  0
  3 28  1  0  0  0  0
  3 29  1  0  0  0  0
  4  5  1  0  0  0  0
  4 20  1  0  0  0  0
  4 49  1  0  0  0  0
  5  6  1  0  0  0  0
  5 30  1  0  0  0  0
  5 31  1  0  0  0  0
  6  7  1  0  0  0  0
  6  8  1  0  0  0  0
  6 32  1  0  0  0  0
  7 33  1  0  0  0  0
  8  9  1  0  0  0  0
  8 34  1  0  0  0  0
  8 35  1  0  0  0  0
  9 19  1  0  0  0  0
  9 10  1  0  0  0  0
 10 11  1  0  0  0  0
 10 13  2  0  0  0  0
 11 12  1  0  0  0  0
 11 36  1  0  0  0  0
 11 37  1  0  0  0  0
 12 38  1  0  0  0  0
 13 14  1  0  0  0  0
 14 19  2  0  0  0  0
 14 15  1  0  0  0  0
 15 16  2  0  0  0  0
 15 39  1  0  0  0  0
 16 17  1  0  0  0  0
 16 40  1  0  0  0  0
 17 18  2  0  0  0  0
 17 41  1  0  0  0  0
 18 19  1  0  0  0  0
 18 42  1  0  0  0  0
 20 21  1  0  0  0  0
 20 43  1  0  0  0  0
 20 44  1  0  0  0  0
 21 22  1  0  0  0  0
 21 23  1  0  0  0  0
 21 45  1  0  0  0  0
 22 46  1  0  0  0  0
 22 47  1  0  0  0  0
 22 48  1  0  0  0  0
M  CHG  1   4   1
M  END
> <s_m_source_file>
AV-unprocessed.smi

> <i_m_source_file_index>
1703

> <i_lp_mmshare_version>
43012

> <i_f3d_flags>
0

> <s_epik_input>
W0NIM11bQ0BASF0xW0NIMl1OKFtDSDJdW0NASF0oTzEpW0NIM10pW0NIMl1bQ0BIXShbT0hdKVtDSDJdbihjKG4yKVtDSDJdW09IXSljKGMyMylbY0hdW2NIXVtjSF1bY0hdMw==

> <s_epik_cmdline>
J2VwaWtfcHl0aG9uJywgJy1waCcsICc3LjAnLCAnLXRuJywgJzgnLCAnLW1hJywgJzIwMCcsICctbWV0YWxfYmluZGluZycsICctaW1hZScsICc8aW5maWxlLm1hZT4nLCAnLW9tYWUnLCAnPG91dGZpbGUubWFlPic=

> <r_epik_Ionization_Penalty>
0.655661

> <r_epik_Ionization_Penalty_Charging>
0.608065

> <r_epik_Ionization_Penalty_Neutral>
0.0475963

> <r_epik_State_Penalty>
0.695267

> <r_epik_Charging_Adjusted_Penalty>
1.30333

> <i_epik_Tot_Q>
1

> <i_epik_Tot_abs_Q>
1

> <r_epik_Metal_State_Penalty>
0.653591

> <b_epik_Metal_Only>
0

> <s_lp_Force_Field>
OPLS_2005

> <r_lp_Energy>
24.2834

> <b_lp_Chiralities_Consistent>
1

> <s_lp_Variant>
AV-unprocessed.smi:1703-14

> <Gold.Version>
5.8.1

> <Gold.Id.Protein>
6NUR|6NUR_protein|mol2

> <Gold.PLP.Fitness>
44.4133

> <Gold.PLP.PLP>
-40.5893

> <Gold.PLP.part.hbond>
-2.0000

> <Gold.PLP.part.metal>
0.0000

> <Gold.PLP.part.buried>
-6.4542

> <Gold.PLP.part.nonpolar>
-32.8228

> <Gold.PLP.part.repulsive>
0.0836

> <Gold.PLP.ligand.clash>
0.0000

> <Gold.PLP.ligand.torsion>
1.0937

> <Gold.PLP.Chemscore.Hbond>
1.9913

> <Gold.PLP.Chemscore.CHOScore>
0.0000

> <Gold.PLP.Chemscore.Metal>
0.0000

> <Gold.Chemscore.Hbonds>
donor molecule, donor type, donor heavy atom, donor atom, acceptor molecule, acceptor atom, score
      P1  H  6896  6907       L1    12  0.68
      P1  H  7997  8010       L1     7  1.00

> <Gold.PLP.Chemscore.Internal.Correction>
0.0377

> <Gold.Rescore>
     Score         DG    S(hbond)    S(metal)    S(lipo)     H(rot)  DE(clash)    DE(int)     intcor
     16.19     -17.07       1.72        0.00     114.63       2.96       0.00       0.88       ----

> <Gold.Chemscore.Fitness>
16.1937

> <Gold.Chemscore.DG>
-17.0712

> <Gold.Chemscore.ZeroCoef>
-5.4800

> <Gold.Chemscore.Hbond>
1.7244

> <Gold.Chemscore.Metal>
0.0000

> <Gold.Chemscore.Lipo>
114.6338

> <Gold.Chemscore.Internal_Hbond>
0.0000

> <Gold.Chemscore.DEClash>
0.0000

> <Gold.Chemscore.DEInternal>
0.8775

> <Gold.Chemscore.Rot>
2.9611

> <Gold.Chemscore.Internal.Correction>
   9.000000E+99

> <Gold.Chemscore.Hbonds>
donor molecule, donor type, donor heavy atom, donor atom, acceptor molecule, acceptor atom, score
      P1  H  6896  6907       L1    12  0.42
      P1  H  7997  8010       L1     7  0.53

> <Gold.Chemscore.Hbond.Weighted>
-5.7594

> <Gold.Chemscore.Metal.Weighted>
-0.0000

> <Gold.Chemscore.Lipo.Weighted>
-13.4122

> <Gold.Chemscore.Internal_Hbond.Weighted>
0.0000

> <Gold.Chemscore.DEClash.Weighted>
0.0000

> <Gold.Chemscore.DEInternal.Weighted>
0.8775

> <Gold.Chemscore.Rot.Weighted>
7.5803

> <Gold.Chemscore.Internal.Correction.Weighted>
   9.000000E+99

> <Gold.Protein.RotatedTorsions>
[ 6907 6896 6895 6894 ] final  -18.54 input  -60.11 | X-H torsion
[ 7974 7965 7964 7962 ] final  125.27 input  175.53 | X-H torsion
[ 8008 7997 7996 7995 ] final   -7.03 input   59.86 | X-H torsion
[ 10167 10162 10161 10158 ] final  161.72 input  -65.29 | X-H torsion
[ 10718 10713 10712 10709 ] final -153.97 input   66.30 | X-H torsion
[ 10763 10752 10751 10750 ] final   27.87 input  -60.55 | X-H torsion
[ 11005 11000 10999 10996 ] final   23.45 input  -57.11 | X-H torsion

> <Gold.Protein.ActiveResidues>
 VAL166  LYS551  ARG553  GLY616  TRP617  ASP618  TYR619  PRO620  LYS621  CYS622 
 ASP623  PHE694  ASN695  SER759  ASP760  ASP761  ALA762  ILE779  LEU786  VAL792 
 PHE793  MET794  SER795  GLU796  ALA797  LYS798  CYS799  TRP800  GLU811  SER814 

> <Gold.Protein.RotatedAtoms>
  151.2766  135.0701  159.9153 H   0  0  0  0  0  0  0  0  0  0  0  0  # atno 6907 bound_to 6896
  152.5341  134.0074  159.7933 H   0  0  0  0  0  0  0  0  0  0  0  0  # atno 6908 bound_to 6896
  151.0321  133.5730  159.2690 H   0  0  0  0  0  0  0  0  0  0  0  0  # atno 6909 bound_to 6896
  145.0749  139.3701  143.4939 H   0  0  0  0  0  0  0  0  0  0  0  0  # atno 7974 bound_to 7965
  154.5878  140.2417  155.7962 H   0  0  0  0  0  0  0  0  0  0  0  0  # atno 8008 bound_to 7997
  156.2226  140.2993  155.9944 H   0  0  0  0  0  0  0  0  0  0  0  0  # atno 8009 bound_to 7997
  155.2426  140.0407  157.2967 H   0  0  0  0  0  0  0  0  0  0  0  0  # atno 8010 bound_to 7997
  139.4852  144.4509  151.8831 H   0  0  0  0  0  0  0  0  0  0  0  0  # atno 10167 bound_to 10162
  156.4929  130.8356  151.2578 H   0  0  0  0  0  0  0  0  0  0  0  0  # atno 10718 bound_to 10713
  153.0528  135.6527  154.0651 H   0  0  0  0  0  0  0  0  0  0  0  0  # atno 10763 bound_to 10752
  154.0335  135.2909  155.3366 H   0  0  0  0  0  0  0  0  0  0  0  0  # atno 10764 bound_to 10752
  154.6826  135.5314  153.8351 H   0  0  0  0  0  0  0  0  0  0  0  0  # atno 10765 bound_to 10752
  140.3694  134.2039  155.7667 H   0  0  0  0  0  0  0  0  0  0  0  0  # atno 11005 bound_to 11000
  146.3530  140.0511  142.8636 LP  0  0  0  0  0  0  0  0  0  0  0  0  # atno 17320 bound_to 7965
  145.1248  140.9483  143.4579 LP  0  0  0  0  0  0  0  0  0  0  0  0  # atno 17321 bound_to 7965
  140.3965  144.2548  150.5896 LP  0  0  0  0  0  0  0  0  0  0  0  0  # atno 17342 bound_to 10162
  140.5097  143.2294  151.8554 LP  0  0  0  0  0  0  0  0  0  0  0  0  # atno 17343 bound_to 10162
  157.7472  131.0007  150.2937 LP  0  0  0  0  0  0  0  0  0  0  0  0  # atno 17370 bound_to 10713
  156.3408  130.3815  149.7410 LP  0  0  0  0  0  0  0  0  0  0  0  0  # atno 17371 bound_to 10713
  141.1959  133.8094  157.0694 LP  0  0  0  0  0  0  0  0  0  0  0  0  # atno 17394 bound_to 11000
  140.0563  134.9778  157.1227 LP  0  0  0  0  0  0  0  0  0  0  0  0  # atno 17395 bound_to 11000

$$$$
