AV-unprocessed.smi:1760|AV-procd|sdf|7094|dock4
  -GOLD-   22720 8313D 1   1.00000     0.00000
 Structure written by MMmdl.
 42 44  0  0  0  0  0  0  0  0  2 V2000
  153.6148  137.4125  160.6393 O   0  0  0  0  0  0  0  0  0  0  0  0
  154.1895  137.6983  159.5893 C   0  0  0  0  0  0  0  0  0  0  0  0
  155.0412  136.9062  158.9127 N   0  0  0  0  0  0  0  0  0  0  0  0
  155.4749  135.6002  159.2009 C   0  0  0  0  0  0  0  0  0  0  0  0
  155.6726  135.1000  160.4524 C   0  0  0  0  0  0  0  0  0  0  0  0
  156.1210  133.7326  160.6845 C   0  0  0  0  0  0  0  0  0  0  0  0
  156.4509  133.1735  162.0571 C   0  0  0  0  0  0  0  0  0  0  0  0
  156.2275  134.0798  163.0091 F   0  0  0  0  0  0  0  0  0  0  0  0
  155.7159  132.0939  162.3242 F   0  0  0  0  0  0  0  0  0  0  0  0
  157.7359  132.8257  162.1091 F   0  0  0  0  0  0  0  0  0  0  0  0
  156.3182  133.0384  159.5069 C   0  0  0  0  0  0  0  0  0  0  0  0
  156.1184  133.4469  158.2348 N   0  5  0  0  0  0  0  0  0  0  0  0
  155.7003  134.7277  158.0292 C   0  0  0  0  0  0  0  0  0  0  0  0
  155.5078  135.1671  156.8948 O   0  0  0  0  0  0  0  0  0  0  0  0
  154.0535  138.8814  158.9729 N   0  0  0  0  0  0  0  0  0  0  0  0
  153.2354  140.0002  159.4344 C   0  0  0  0  0  0  0  0  0  0  0  0
  152.3308  140.5011  158.2976 C   0  0  0  0  0  0  0  0  0  0  0  0
  151.5785  141.7774  158.7141 C   0  0  0  0  0  0  0  0  0  0  0  0
  152.5287  142.8249  159.0887 N   0  0  0  0  0  0  0  0  0  0  0  0
  151.7894  144.0284  159.4334 C   0  0  0  0  0  0  0  0  0  0  0  0
  152.3028  145.3433  158.8924 C   0  0  0  0  0  0  0  0  0  0  0  0
  152.4589  145.0191  160.3584 C   0  0  0  0  0  0  0  0  0  0  0  0
  153.3062  142.3988  160.2526 C   0  0  0  0  0  0  0  0  0  0  0  0
  154.1374  141.1500  159.9093 C   0  0  0  0  0  0  0  0  0  0  0  0
  155.4711  137.3097  158.0930 H   0  0  0  0  0  0  0  0  0  0  0  0
  155.4878  135.7014  161.3265 H   0  0  0  0  0  0  0  0  0  0  0  0
  156.7002  131.9994  159.6012 H   0  0  0  0  0  0  0  0  0  0  0  0
  154.5691  139.0249  158.1170 H   0  0  0  0  0  0  0  0  0  0  0  0
  152.6014  139.6973  160.2696 H   0  0  0  0  0  0  0  0  0  0  0  0
  152.9268  140.7078  157.4071 H   0  0  0  0  0  0  0  0  0  0  0  0
  151.6165  139.7255  158.0194 H   0  0  0  0  0  0  0  0  0  0  0  0
  150.9637  142.1240  157.8826 H   0  0  0  0  0  0  0  0  0  0  0  0
  150.9034  141.5654  159.5449 H   0  0  0  0  0  0  0  0  0  0  0  0
  150.7072  143.9610  159.5324 H   0  0  0  0  0  0  0  0  0  0  0  0
  153.2004  145.3265  158.2770 H   0  0  0  0  0  0  0  0  0  0  0  0
  151.5646  146.0942  158.6185 H   0  0  0  0  0  0  0  0  0  0  0  0
  151.8252  145.5550  161.0621 H   0  0  0  0  0  0  0  0  0  0  0  0
  153.4607  144.7882  160.7161 H   0  0  0  0  0  0  0  0  0  0  0  0
  153.9727  143.2054  160.5604 H   0  0  0  0  0  0  0  0  0  0  0  0
  152.6432  142.1925  161.0947 H   0  0  0  0  0  0  0  0  0  0  0  0
  154.7113  140.8371  160.7822 H   0  0  0  0  0  0  0  0  0  0  0  0
  154.8638  141.4014  159.1347 H   0  0  0  0  0  0  0  0  0  0  0  0
  1  2  2  0  0  0  0
  2  3  1  0  0  0  0
  2 15  1  0  0  0  0
  3  4  1  0  0  0  0
  3 25  1  0  0  0  0
  4 13  1  0  0  0  0
  4  5  2  0  0  0  0
  5  6  1  0  0  0  0
  5 26  1  0  0  0  0
  6  7  1  0  0  0  0
  6 11  2  0  0  0  0
  7  8  1  0  0  0  0
  7  9  1  0  0  0  0
  7 10  1  0  0  0  0
 11 12  1  0  0  0  0
 11 27  1  0  0  0  0
 12 13  1  0  0  0  0
 13 14  2  0  0  0  0
 15 16  1  0  0  0  0
 15 28  1  0  0  0  0
 16 24  1  0  0  0  0
 16 17  1  0  0  0  0
 16 29  1  0  0  0  0
 17 18  1  0  0  0  0
 17 30  1  0  0  0  0
 17 31  1  0  0  0  0
 18 19  1  0  0  0  0
 18 32  1  0  0  0  0
 18 33  1  0  0  0  0
 19 20  1  0  0  0  0
 19 23  1  0  0  0  0
 20 22  1  0  0  0  0
 20 21  1  0  0  0  0
 20 34  1  0  0  0  0
 21 22  1  0  0  0  0
 21 35  1  0  0  0  0
 21 36  1  0  0  0  0
 22 37  1  0  0  0  0
 22 38  1  0  0  0  0
 23 24  1  0  0  0  0
 23 39  1  0  0  0  0
 23 40  1  0  0  0  0
 24 41  1  0  0  0  0
 24 42  1  0  0  0  0
M  CHG  1  12  -1
M  END
> <s_m_source_file>
AV-unprocessed.smi

> <i_m_source_file_index>
1760

> <i_lp_mmshare_version>
43012

> <i_f3d_flags>
0

> <s_epik_input>
W0NIMl0xW0NIMl1bQ0hdMU4oW0NIMl1bQ0gyXTIpW0NIMl1bQ0gyXVtDSF0yW05IXUMoPU8pW05IXWMzW2NIXWMoQyhGKShGKUYpW2NIXVtuSF1jMz1P

> <s_epik_cmdline>
J2VwaWtfcHl0aG9uJywgJy1waCcsICc3LjAnLCAnLXRuJywgJzgnLCAnLW1hJywgJzIwMCcsICctbWV0YWxfYmluZGluZycsICctaW1hZScsICc8aW5maWxlLm1hZT4nLCAnLW9tYWUnLCAnPG91dGZpbGUubWFlPic=

> <r_lp_tautomer_probability>
0.999

> <r_epik_Ionization_Penalty>
4.20788

> <r_epik_Ionization_Penalty_Charging>
0.176783

> <r_epik_Ionization_Penalty_Neutral>
4.0311

> <r_epik_State_Penalty>
4.02505

> <r_epik_Charging_Adjusted_Penalty>
4.20183

> <i_epik_Tot_Q>
-1

> <i_epik_Tot_abs_Q>
1

> <r_epik_Metal_State_Penalty>
1.4828

> <b_epik_Metal_Only>
1

> <s_lp_Force_Field>
OPLS_2005

> <r_lp_Energy>
35.3535

> <b_lp_Chiralities_Consistent>
1

> <s_lp_Variant>
AV-unprocessed.smi:1760-6

> <Gold.Version>
5.8.1

> <Gold.Id.Protein>
6NUR|6NUR_protein|mol2

> <Gold.PLP.Fitness>
38.8024

> <Gold.PLP.PLP>
-35.6226

> <Gold.PLP.part.hbond>
-1.2747

> <Gold.PLP.part.metal>
0.0000

> <Gold.PLP.part.buried>
-5.7219

> <Gold.PLP.part.nonpolar>
-29.4172

> <Gold.PLP.part.repulsive>
0.1566

> <Gold.PLP.ligand.clash>
0.0000

> <Gold.PLP.ligand.torsion>
1.2561

> <Gold.PLP.Chemscore.Hbond>
1.4875

> <Gold.PLP.Chemscore.CHOScore>
0.0000

> <Gold.PLP.Chemscore.Metal>
0.0000

> <Gold.Chemscore.Hbonds>
donor molecule, donor type, donor heavy atom, donor atom, acceptor molecule, acceptor atom, score
      P1  H 10752 10765       L1    14  1.00

> <Gold.PLP.Chemscore.Internal.Correction>
1.2296

> <Gold.Rescore>
     Score         DG    S(hbond)    S(metal)    S(lipo)     H(rot)  DE(clash)    DE(int)     intcor
     16.61     -18.64       1.89        0.00      86.21       1.26       0.06       1.97       ----

> <Gold.Chemscore.Fitness>
16.6078

> <Gold.Chemscore.DG>
-18.6363

> <Gold.Chemscore.ZeroCoef>
-5.4800

> <Gold.Chemscore.Hbond>
1.8881

> <Gold.Chemscore.Metal>
0.0000

> <Gold.Chemscore.Lipo>
86.2110

> <Gold.Chemscore.Internal_Hbond>
0.0000

> <Gold.Chemscore.DEClash>
0.0557

> <Gold.Chemscore.DEInternal>
1.9728

> <Gold.Chemscore.Rot>
1.2644

> <Gold.Chemscore.Internal.Correction>
   9.000000E+99

> <Gold.Chemscore.Hbonds>
donor molecule, donor type, donor heavy atom, donor atom, acceptor molecule, acceptor atom, score
      P1  H 10752 10765       L1    14  0.94

> <Gold.Chemscore.Hbond.Weighted>
-6.3064

> <Gold.Chemscore.Metal.Weighted>
-0.0000

> <Gold.Chemscore.Lipo.Weighted>
-10.0867

> <Gold.Chemscore.Internal_Hbond.Weighted>
0.0000

> <Gold.Chemscore.DEClash.Weighted>
0.0557

> <Gold.Chemscore.DEInternal.Weighted>
1.9728

> <Gold.Chemscore.Rot.Weighted>
3.2367

> <Gold.Chemscore.Internal.Correction.Weighted>
   9.000000E+99

> <Gold.Protein.RotatedTorsions>
[ 6907 6896 6895 6894 ] final  -97.98 input  -60.11 | X-H torsion
[ 7974 7965 7964 7962 ] final  135.44 input  175.53 | X-H torsion
[ 8008 7997 7996 7995 ] final  108.05 input   59.86 | X-H torsion
[ 10167 10162 10161 10158 ] final -114.35 input  -65.29 | X-H torsion
[ 10718 10713 10712 10709 ] final   86.73 input   66.30 | X-H torsion
[ 10763 10752 10751 10750 ] final  -83.25 input  -60.55 | X-H torsion
[ 11005 11000 10999 10996 ] final   25.05 input  -57.11 | X-H torsion

> <Gold.Protein.ActiveResidues>
 VAL166  LYS551  ARG553  GLY616  TRP617  ASP618  TYR619  PRO620  LYS621  CYS622 
 ASP623  PHE694  ASN695  SER759  ASP760  ASP761  ALA762  ILE779  LEU786  VAL792 
 PHE793  MET794  SER795  GLU796  ALA797  LYS798  CYS799  TRP800  GLU811  SER814 

> <Gold.Protein.RotatedAtoms>
  150.7032  134.1265  159.4053 H   0  0  0  0  0  0  0  0  0  0  0  0  # atno 6907 bound_to 6896
  151.9251  135.0279  160.0534 H   0  0  0  0  0  0  0  0  0  0  0  0  # atno 6908 bound_to 6896
  152.2223  133.4958  159.5206 H   0  0  0  0  0  0  0  0  0  0  0  0  # atno 6909 bound_to 6896
  144.9663  139.4654  143.5455 H   0  0  0  0  0  0  0  0  0  0  0  0  # atno 7974 bound_to 7965
  156.1872  140.3083  155.9262 H   0  0  0  0  0  0  0  0  0  0  0  0  # atno 8008 bound_to 7997
  155.3253  140.0458  157.3058 H   0  0  0  0  0  0  0  0  0  0  0  0  # atno 8009 bound_to 7997
  154.5410  140.2261  155.8651 H   0  0  0  0  0  0  0  0  0  0  0  0  # atno 8010 bound_to 7997
  140.1019  143.4605  152.1807 H   0  0  0  0  0  0  0  0  0  0  0  0  # atno 10167 bound_to 10162
  157.6932  131.0227  150.3016 H   0  0  0  0  0  0  0  0  0  0  0  0  # atno 10718 bound_to 10713
  154.5854  135.5563  153.7226 H   0  0  0  0  0  0  0  0  0  0  0  0  # atno 10763 bound_to 10752
  153.0097  135.6330  154.1923 H   0  0  0  0  0  0  0  0  0  0  0  0  # atno 10764 bound_to 10752
  154.1864  135.2884  155.3016 H   0  0  0  0  0  0  0  0  0  0  0  0  # atno 10765 bound_to 10752
  140.3520  134.2218  155.7679 H   0  0  0  0  0  0  0  0  0  0  0  0  # atno 11005 bound_to 11000
  146.3369  139.8846  142.8819 LP  0  0  0  0  0  0  0  0  0  0  0  0  # atno 17320 bound_to 7965
  145.2625  141.0082  143.3818 LP  0  0  0  0  0  0  0  0  0  0  0  0  # atno 17321 bound_to 7965
  139.5666  144.7439  151.4004 LP  0  0  0  0  0  0  0  0  0  0  0  0  # atno 17342 bound_to 10162
  140.6973  143.7718  150.7347 LP  0  0  0  0  0  0  0  0  0  0  0  0  # atno 17343 bound_to 10162
  156.3531  130.3834  149.7312 LP  0  0  0  0  0  0  0  0  0  0  0  0  # atno 17370 bound_to 10713
  156.4783  130.8029  151.3044 LP  0  0  0  0  0  0  0  0  0  0  0  0  # atno 17371 bound_to 10713
  141.2009  133.7975  157.0465 LP  0  0  0  0  0  0  0  0  0  0  0  0  # atno 17394 bound_to 11000
  140.0695  134.9710  157.1444 LP  0  0  0  0  0  0  0  0  0  0  0  0  # atno 17395 bound_to 11000

$$$$
