AV-unprocessed.smi:2173|AV-procd|sdf|8840|dock1
  -GOLD-   2272012 33D 1   1.00000     0.00000
 Structure written by MMmdl.
 36 37  0  0  0  0  0  0  0  0  2 V2000
  152.9601  139.4677  158.0537 O   0  0  0  0  0  0  0  0  0  0  0  0
  152.1860  140.3347  157.6472 C   0  0  0  0  0  0  0  0  0  0  0  0
  151.2332  140.0996  156.7305 N   0  0  0  0  0  0  0  0  0  0  0  0
  150.9862  138.8179  156.0738 C   0  0  0  0  0  0  0  0  0  0  0  0
  150.8718  138.9404  154.5401 C   0  0  0  0  0  0  0  0  0  0  0  0
  149.5531  139.5257  154.0633 C   0  0  0  0  0  0  0  0  0  0  0  0
  149.1673  140.8481  154.3716 C   0  0  0  0  0  0  0  0  0  0  0  0
  147.9112  141.3187  153.9358 C   0  0  0  0  0  0  0  0  0  0  0  0
  147.0679  140.4587  153.2021 C   0  0  0  0  0  0  0  0  0  0  0  0
  147.5032  139.1478  152.9210 C   0  0  0  0  0  0  0  0  0  0  0  0
  148.7140  138.7345  153.3548 N   0  3  0  0  0  0  0  0  0  0  0  0
  152.2994  141.7741  158.1632 C   0  0  2  0  0  0  0  0  0  0  0  0
  153.1447  141.8312  159.4565 C   0  0  0  0  0  0  0  0  0  0  0  0
  153.0706  143.1913  160.1279 C   0  0  0  0  0  0  0  0  0  0  0  0
  152.1318  144.1082  159.8372 C   0  0  0  0  0  0  0  0  0  0  0  0
  151.0358  143.8858  158.8097 C   0  0  0  0  0  0  0  0  0  0  0  0
  150.9131  142.4062  158.3991 C   0  0  0  0  0  0  0  0  0  0  0  0
  150.6368  140.8697  156.4630 H   0  0  0  0  0  0  0  0  0  0  0  0
  151.7654  138.0998  156.3346 H   0  0  0  0  0  0  0  0  0  0  0  0
  150.0573  138.4107  156.4734 H   0  0  0  0  0  0  0  0  0  0  0  0
  151.6851  139.5620  154.1643 H   0  0  0  0  0  0  0  0  0  0  0  0
  151.0087  137.9589  154.0838 H   0  0  0  0  0  0  0  0  0  0  0  0
  149.8192  141.4906  154.9455 H   0  0  0  0  0  0  0  0  0  0  0  0
  147.5962  142.3259  154.1661 H   0  0  0  0  0  0  0  0  0  0  0  0
  146.1005  140.7992  152.8631 H   0  0  0  0  0  0  0  0  0  0  0  0
  146.9228  138.4209  152.3718 H   0  0  0  0  0  0  0  0  0  0  0  0
  152.8055  142.3697  157.4008 H   0  0  0  0  0  0  0  0  0  0  0  0
  152.8171  141.0815  160.1784 H   0  0  0  0  0  0  0  0  0  0  0  0
  154.1883  141.6146  159.2257 H   0  0  0  0  0  0  0  0  0  0  0  0
  153.8138  143.4044  160.8822 H   0  0  0  0  0  0  0  0  0  0  0  0
  152.1415  145.0644  160.3398 H   0  0  0  0  0  0  0  0  0  0  0  0
  150.0864  144.2396  159.2125 H   0  0  0  0  0  0  0  0  0  0  0  0
  151.2608  144.5004  157.9376 H   0  0  0  0  0  0  0  0  0  0  0  0
  150.2909  142.3229  157.5069 H   0  0  0  0  0  0  0  0  0  0  0  0
  150.3928  141.8605  159.1881 H   0  0  0  0  0  0  0  0  0  0  0  0
  149.0046  137.7787  153.1484 H   0  0  0  0  0  0  0  0  0  0  0  0
  1  2  2  0  0  0  0
  2  3  1  0  0  0  0
  2 12  1  0  0  0  0
  3  4  1  0  0  0  0
  3 18  1  0  0  0  0
  4  5  1  0  0  0  0
  4 19  1  0  0  0  0
  4 20  1  0  0  0  0
  5  6  1  0  0  0  0
  5 21  1  0  0  0  0
  5 22  1  0  0  0  0
  6 11  1  0  0  0  0
  6  7  2  0  0  0  0
  7  8  1  0  0  0  0
  7 23  1  0  0  0  0
  8  9  2  0  0  0  0
  8 24  1  0  0  0  0
  9 10  1  0  0  0  0
  9 25  1  0  0  0  0
 10 11  2  0  0  0  0
 10 26  1  0  0  0  0
 11 36  1  0  0  0  0
 12 17  1  0  0  0  0
 12 13  1  0  0  0  0
 12 27  1  0  0  0  0
 13 14  1  0  0  0  0
 13 28  1  0  0  0  0
 13 29  1  0  0  0  0
 14 15  2  0  0  0  0
 14 30  1  0  0  0  0
 15 16  1  0  0  0  0
 15 31  1  0  0  0  0
 16 17  1  0  0  0  0
 16 32  1  0  0  0  0
 16 33  1  0  0  0  0
 17 34  1  0  0  0  0
 17 35  1  0  0  0  0
M  CHG  1  11   1
M  END
> <s_m_source_file>
AV-unprocessed.smi

> <i_m_source_file_index>
2173

> <i_lp_mmshare_version>
43012

> <i_f3d_flags>
0

> <s_epik_input>
W0NIMl0xW0NIMl1bQ0hdPVtDSF1bQ0gyXVtDQEhdMUMoPU8pW05IXVtDSDJdW0NIMl1jMltjSF1bY0hdW2NIXVtjSF1uMg==

> <s_epik_cmdline>
J2VwaWtfcHl0aG9uJywgJy1waCcsICc3LjAnLCAnLXRuJywgJzgnLCAnLW1hJywgJzIwMCcsICctbWV0YWxfYmluZGluZycsICctaW1hZScsICc8aW5maWxlLm1hZT4nLCAnLW9tYWUnLCAnPG91dGZpbGUubWFlPic=

> <r_epik_Ionization_Penalty>
1.84586

> <r_epik_Ionization_Penalty_Charging>
1.84586

> <r_epik_Ionization_Penalty_Neutral>
1.53635e-08

> <r_epik_State_Penalty>
1.96297

> <r_epik_Charging_Adjusted_Penalty>
3.80883

> <i_epik_Tot_Q>
1

> <i_epik_Tot_abs_Q>
1

> <r_epik_Metal_State_Penalty>
1.98887

> <b_epik_Metal_Only>
0

> <s_lp_Force_Field>
OPLS_2005

> <r_lp_Energy>
13.6363

> <b_lp_Chiralities_Consistent>
1

> <s_lp_Variant>
AV-unprocessed.smi:2173-3

> <Gold.Version>
5.8.1

> <Gold.Id.Protein>
6NUR|6NUR_protein|mol2

> <Gold.PLP.Fitness>
44.6299

> <Gold.PLP.PLP>
-36.9611

> <Gold.PLP.part.hbond>
-3.0000

> <Gold.PLP.part.metal>
0.0000

> <Gold.PLP.part.buried>
0.0715

> <Gold.PLP.part.nonpolar>
-33.2459

> <Gold.PLP.part.repulsive>
0.1598

> <Gold.PLP.ligand.clash>
0.0000

> <Gold.PLP.ligand.torsion>
0.6234

> <Gold.PLP.Chemscore.Hbond>
2.9579

> <Gold.PLP.Chemscore.CHOScore>
0.0000

> <Gold.PLP.Chemscore.Metal>
0.0000

> <Gold.Chemscore.Hbonds>
donor molecule, donor type, donor heavy atom, donor atom, acceptor molecule, acceptor atom, score
      L1  H    11    36       P1  7948  1.89
      P1  H  7997  8008       L1     1  0.96

> <Gold.PLP.Chemscore.Internal.Correction>
0.0419

> <Gold.Rescore>
     Score         DG    S(hbond)    S(metal)    S(lipo)     H(rot)  DE(clash)    DE(int)     intcor
     18.97     -20.12       1.72        0.00     108.41       1.48       0.55       0.60       ----

> <Gold.Chemscore.Fitness>
18.9688

> <Gold.Chemscore.DG>
-20.1195

> <Gold.Chemscore.ZeroCoef>
-5.4800

> <Gold.Chemscore.Hbond>
1.7201

> <Gold.Chemscore.Metal>
0.0000

> <Gold.Chemscore.Lipo>
108.4059

> <Gold.Chemscore.Internal_Hbond>
0.0000

> <Gold.Chemscore.DEClash>
0.5536

> <Gold.Chemscore.DEInternal>
0.5971

> <Gold.Chemscore.Rot>
1.4801

> <Gold.Chemscore.Internal.Correction>
   9.000000E+99

> <Gold.Chemscore.Hbonds>
donor molecule, donor type, donor heavy atom, donor atom, acceptor molecule, acceptor atom, score
      L1  H    11    36       P1  7948  0.88
      P1  H  7997  8008       L1     1  0.27

> <Gold.Chemscore.Hbond.Weighted>
-5.7452

> <Gold.Chemscore.Metal.Weighted>
-0.0000

> <Gold.Chemscore.Lipo.Weighted>
-12.6835

> <Gold.Chemscore.Internal_Hbond.Weighted>
0.0000

> <Gold.Chemscore.DEClash.Weighted>
0.5536

> <Gold.Chemscore.DEInternal.Weighted>
0.5971

> <Gold.Chemscore.Rot.Weighted>
3.7892

> <Gold.Chemscore.Internal.Correction.Weighted>
   9.000000E+99

> <Gold.Protein.RotatedTorsions>
[ 6907 6896 6895 6894 ] final  144.69 input  -60.11 | X-H torsion
[ 7974 7965 7964 7962 ] final   23.71 input  175.53 | X-H torsion
[ 8008 7997 7996 7995 ] final  -95.29 input   59.86 | X-H torsion
[ 10167 10162 10161 10158 ] final   63.23 input  -65.29 | X-H torsion
[ 10718 10713 10712 10709 ] final  -48.78 input   66.30 | X-H torsion
[ 10763 10752 10751 10750 ] final   63.73 input  -60.55 | X-H torsion
[ 11005 11000 10999 10996 ] final   84.44 input  -57.11 | X-H torsion

> <Gold.Protein.ActiveResidues>
 VAL166  LYS551  ARG553  GLY616  TRP617  ASP618  TYR619  PRO620  LYS621  CYS622 
 ASP623  PHE694  ASN695  SER759  ASP760  ASP761  ALA762  ILE779  LEU786  VAL792 
 PHE793  MET794  SER795  GLU796  ALA797  LYS798  CYS799  TRP800  GLU811  SER814 

> <Gold.Protein.RotatedAtoms>
  152.1905  133.4770  159.5005 H   0  0  0  0  0  0  0  0  0  0  0  0  # atno 6907 bound_to 6896
  150.6950  134.1718  159.4224 H   0  0  0  0  0  0  0  0  0  0  0  0  # atno 6908 bound_to 6896
  151.9633  135.0112  160.0599 H   0  0  0  0  0  0  0  0  0  0  0  0  # atno 6909 bound_to 6896
  146.1972  139.7706  142.8789 H   0  0  0  0  0  0  0  0  0  0  0  0  # atno 7974 bound_to 7965
  154.7595  140.0481  157.0961 H   0  0  0  0  0  0  0  0  0  0  0  0  # atno 8008 bound_to 7997
  154.9956  140.3118  155.4869 H   0  0  0  0  0  0  0  0  0  0  0  0  # atno 8009 bound_to 7997
  156.2901  140.2211  156.5063 H   0  0  0  0  0  0  0  0  0  0  0  0  # atno 8010 bound_to 7997
  140.1353  144.4604  150.6841 H   0  0  0  0  0  0  0  0  0  0  0  0  # atno 10167 bound_to 10162
  156.1955  130.4154  149.9312 H   0  0  0  0  0  0  0  0  0  0  0  0  # atno 10718 bound_to 10713
  153.0029  135.5418  154.6398 H   0  0  0  0  0  0  0  0  0  0  0  0  # atno 10763 bound_to 10752
  154.5656  135.2837  155.0879 H   0  0  0  0  0  0  0  0  0  0  0  0  # atno 10764 bound_to 10752
  154.2065  135.6475  153.5155 H   0  0  0  0  0  0  0  0  0  0  0  0  # atno 10765 bound_to 10752
  139.9000  134.8217  156.2446 H   0  0  0  0  0  0  0  0  0  0  0  0  # atno 11005 bound_to 11000
  145.3605  141.0325  143.3287 LP  0  0  0  0  0  0  0  0  0  0  0  0  # atno 17320 bound_to 7965
  144.8605  139.5185  143.6814 LP  0  0  0  0  0  0  0  0  0  0  0  0  # atno 17321 bound_to 7965
  140.6792  143.2319  151.5427 LP  0  0  0  0  0  0  0  0  0  0  0  0  # atno 17342 bound_to 10162
  139.5499  144.2423  152.1511 LP  0  0  0  0  0  0  0  0  0  0  0  0  # atno 17343 bound_to 10162
  156.7039  130.8943  151.3602 LP  0  0  0  0  0  0  0  0  0  0  0  0  # atno 17370 bound_to 10713
  157.6955  130.9277  150.0632 LP  0  0  0  0  0  0  0  0  0  0  0  0  # atno 17371 bound_to 10713
  141.0263  133.7013  156.1353 LP  0  0  0  0  0  0  0  0  0  0  0  0  # atno 17394 bound_to 11000
  140.7161  134.4409  157.5578 LP  0  0  0  0  0  0  0  0  0  0  0  0  # atno 17395 bound_to 11000

$$$$
