AV-unprocessed.smi:1726|AV-procd|sdf|6959|dock3
  -GOLD-   22720 8173D 1   1.00000     0.00000
 Structure written by MMmdl.
 43 44  0  0  0  0  0  0  0  0  2 V2000
  145.3132  131.1368  151.6144 C   0  0  0  0  0  0  0  0  0  0  0  0
  146.4384  132.1634  151.4203 C   0  0  0  0  0  0  0  0  0  0  0  0
  145.9623  133.5601  151.5793 N   0  3  1  0  0  0  0  0  0  0  0  0
  145.0231  133.9649  150.5010 C   0  0  0  0  0  0  0  0  0  0  0  0
  144.6661  135.4583  150.6040 C   0  0  0  0  0  0  0  0  0  0  0  0
  144.1166  135.8100  151.9968 C   0  0  0  0  0  0  0  0  0  0  0  0
  145.0779  135.3390  153.1027 C   0  0  2  0  0  0  0  0  0  0  0  0
  146.2957  136.1503  153.0813 N   0  0  0  0  0  0  0  0  0  0  0  0
  146.4584  137.3264  153.7042 C   0  0  0  0  0  0  0  0  0  0  0  0
  145.5807  137.8490  154.3894 O   0  0  0  0  0  0  0  0  0  0  0  0
  147.6899  137.8194  153.4774 N   0  0  0  0  0  0  0  0  0  0  0  0
  148.2839  139.0121  153.9269 C   0  0  0  0  0  0  0  0  0  0  0  0
  149.3040  139.0965  154.8213 C   0  0  0  0  0  0  0  0  0  0  0  0
  149.8620  140.3726  155.2378 C   0  0  0  0  0  0  0  0  0  0  0  0
  150.9572  140.4593  156.2897 C   0  0  0  0  0  0  0  0  0  0  0  0
  152.0632  139.8678  155.8408 F   0  0  0  0  0  0  0  0  0  0  0  0
  151.2521  141.7278  156.5771 F   0  0  0  0  0  0  0  0  0  0  0  0
  150.5889  139.8500  157.4169 F   0  0  0  0  0  0  0  0  0  0  0  0
  149.3017  141.4748  154.7075 C   0  0  0  0  0  0  0  0  0  0  0  0
  148.2612  141.3974  153.7798 N   0  0  0  0  0  0  0  0  0  0  0  0
  147.7106  140.2402  153.3504 C   0  0  0  0  0  0  0  0  0  0  0  0
  146.7933  140.2558  152.5301 O   0  0  0  0  0  0  0  0  0  0  0  0
  145.3855  133.8357  152.9222 C   0  0  0  0  0  0  0  0  0  0  0  0
  147.9047  142.2695  153.4160 H   0  0  0  0  0  0  0  0  0  0  0  0
  145.7115  130.1223  151.5817 H   0  0  0  0  0  0  0  0  0  0  0  0
  144.5517  131.2081  150.8385 H   0  0  0  0  0  0  0  0  0  0  0  0
  144.8234  131.2674  152.5797 H   0  0  0  0  0  0  0  0  0  0  0  0
  147.2053  131.9581  152.1683 H   0  0  0  0  0  0  0  0  0  0  0  0
  146.9149  132.0368  150.4472 H   0  0  0  0  0  0  0  0  0  0  0  0
  145.4732  133.7736  149.5261 H   0  0  0  0  0  0  0  0  0  0  0  0
  144.1191  133.3562  150.5574 H   0  0  0  0  0  0  0  0  0  0  0  0
  145.5514  136.0595  150.3933 H   0  0  0  0  0  0  0  0  0  0  0  0
  143.9327  135.7185  149.8400 H   0  0  0  0  0  0  0  0  0  0  0  0
  143.9375  136.8830  152.0746 H   0  0  0  0  0  0  0  0  0  0  0  0
  143.1475  135.3282  152.1326 H   0  0  0  0  0  0  0  0  0  0  0  0
  144.5895  135.4882  154.0673 H   0  0  0  0  0  0  0  0  0  0  0  0
  147.0659  135.7974  152.5316 H   0  0  0  0  0  0  0  0  0  0  0  0
  148.2938  137.2538  152.8983 H   0  0  0  0  0  0  0  0  0  0  0  0
  149.7402  138.2155  155.2599 H   0  0  0  0  0  0  0  0  0  0  0  0
  149.5976  142.4848  154.9506 H   0  0  0  0  0  0  0  0  0  0  0  0
  144.4718  133.2525  153.0480 H   0  0  0  0  0  0  0  0  0  0  0  0
  146.0653  133.5040  153.7057 H   0  0  0  0  0  0  0  0  0  0  0  0
  146.7763  134.1501  151.4820 H   0  0  0  0  0  0  0  0  0  0  0  0
  1  2  1  0  0  0  0
  1 25  1  0  0  0  0
  1 26  1  0  0  0  0
  1 27  1  0  0  0  0
  2  3  1  0  0  0  0
  2 28  1  0  0  0  0
  2 29  1  0  0  0  0
  3 23  1  0  0  0  0
  3  4  1  0  0  0  0
  3 43  1  0  0  0  0
  4  5  1  0  0  0  0
  4 30  1  0  0  0  0
  4 31  1  0  0  0  0
  5  6  1  0  0  0  0
  5 32  1  0  0  0  0
  5 33  1  0  0  0  0
  6  7  1  0  0  0  0
  6 34  1  0  0  0  0
  6 35  1  0  0  0  0
  7  8  1  0  0  0  0
  7 23  1  0  0  0  0
  7 36  1  0  0  0  0
  8  9  1  0  0  0  0
  8 37  1  0  0  0  0
  9 10  2  0  0  0  0
  9 11  1  0  0  0  0
 11 12  1  0  0  0  0
 11 38  1  0  0  0  0
 12 21  1  0  0  0  0
 12 13  2  0  0  0  0
 13 14  1  0  0  0  0
 13 39  1  0  0  0  0
 14 15  1  0  0  0  0
 14 19  2  0  0  0  0
 15 16  1  0  0  0  0
 15 17  1  0  0  0  0
 15 18  1  0  0  0  0
 19 20  1  0  0  0  0
 19 40  1  0  0  0  0
 20 24  1  0  0  0  0
 20 21  1  0  0  0  0
 21 22  2  0  0  0  0
 23 41  1  0  0  0  0
 23 42  1  0  0  0  0
M  CHG  1   3   1
M  END
> <s_m_source_file>
AV-unprocessed.smi

> <i_m_source_file_index>
1726

> <i_lp_mmshare_version>
43012

> <i_f3d_flags>
0

> <s_epik_input>
W0NIM11bQ0gyXU4xW0NIMl1bQ0gyXVtDSDJdW0NASF0oW0NIMl0xKVtOSF1DKD1PKVtOSF1jMltjSF1jKEMoRikoRilGKVtjSF1bbkhdYzI9Tw==

> <s_epik_cmdline>
J2VwaWtfcHl0aG9uJywgJy1waCcsICc3LjAnLCAnLXRuJywgJzgnLCAnLW1hJywgJzIwMCcsICctbWV0YWxfYmluZGluZycsICctaW1hZScsICc8aW5maWxlLm1hZT4nLCAnLW9tYWUnLCAnPG91dGZpbGUubWFlPic=

> <r_lp_tautomer_probability>
1

> <r_epik_Ionization_Penalty>
0.00745721

> <r_epik_Ionization_Penalty_Charging>
0.00743804

> <r_epik_Ionization_Penalty_Neutral>
1.91703e-05

> <r_epik_State_Penalty>
-0

> <r_epik_Charging_Adjusted_Penalty>
0.00743804

> <i_epik_Tot_Q>
1

> <i_epik_Tot_abs_Q>
1

> <r_epik_Metal_State_Penalty>
0.37929

> <b_epik_Metal_Only>
0

> <s_lp_Force_Field>
OPLS_2005

> <r_lp_Energy>
34.9839

> <b_lp_Chiralities_Consistent>
1

> <s_lp_Variant>
AV-unprocessed.smi:1726-3

> <Gold.Version>
5.8.1

> <Gold.Id.Protein>
6NUR|6NUR_protein|mol2

> <Gold.PLP.Fitness>
38.4754

> <Gold.PLP.PLP>
-33.1606

> <Gold.PLP.part.hbond>
-2.3913

> <Gold.PLP.part.metal>
0.0000

> <Gold.PLP.part.buried>
-1.6688

> <Gold.PLP.part.nonpolar>
-30.3180

> <Gold.PLP.part.repulsive>
0.9801

> <Gold.PLP.ligand.clash>
1.3160

> <Gold.PLP.ligand.torsion>
1.0584

> <Gold.PLP.Chemscore.Hbond>
1.8960

> <Gold.PLP.Chemscore.CHOScore>
1.0000

> <Gold.PLP.Chemscore.Metal>
0.0000

> <Gold.Chemscore.Hbonds>
donor molecule, donor type, donor heavy atom, donor atom, acceptor molecule, acceptor atom, score
      L1  H     8    37       P1  7948  0.89
      L1  H    11    38       P1  7948  1.00
      L1  C    19    40       P1  8028  1.00

> <Gold.PLP.Chemscore.Internal.Correction>
0.0597

> <Gold.Rescore>
     Score         DG    S(hbond)    S(metal)    S(lipo)     H(rot)  DE(clash)    DE(int)     intcor
     15.10     -16.55       1.93        0.00      67.81       1.29       0.50       0.96       ----

> <Gold.Chemscore.Fitness>
15.0953

> <Gold.Chemscore.DG>
-16.5508

> <Gold.Chemscore.ZeroCoef>
-5.4800

> <Gold.Chemscore.Hbond>
1.9269

> <Gold.Chemscore.Metal>
0.0000

> <Gold.Chemscore.Lipo>
67.8059

> <Gold.Chemscore.Internal_Hbond>
0.0000

> <Gold.Chemscore.DEClash>
0.4952

> <Gold.Chemscore.DEInternal>
0.9603

> <Gold.Chemscore.Rot>
1.2884

> <Gold.Chemscore.Internal.Correction>
   9.000000E+99

> <Gold.Chemscore.Hbonds>
donor molecule, donor type, donor heavy atom, donor atom, acceptor molecule, acceptor atom, score
      L1  H     8    37       P1  7948  0.81
      L1  H    11    38       P1  7948  0.98

> <Gold.Chemscore.Hbond.Weighted>
-6.4358

> <Gold.Chemscore.Metal.Weighted>
-0.0000

> <Gold.Chemscore.Lipo.Weighted>
-7.9333

> <Gold.Chemscore.Internal_Hbond.Weighted>
0.0000

> <Gold.Chemscore.DEClash.Weighted>
0.4952

> <Gold.Chemscore.DEInternal.Weighted>
0.9603

> <Gold.Chemscore.Rot.Weighted>
3.2983

> <Gold.Chemscore.Internal.Correction.Weighted>
   9.000000E+99

> <Gold.Protein.RotatedTorsions>
[ 6907 6896 6895 6894 ] final -127.69 input  -60.11 | X-H torsion
[ 7974 7965 7964 7962 ] final   77.74 input  175.53 | X-H torsion
[ 8008 7997 7996 7995 ] final -125.66 input   59.86 | X-H torsion
[ 10167 10162 10161 10158 ] final -130.89 input  -65.29 | X-H torsion
[ 10718 10713 10712 10709 ] final -122.20 input   66.30 | X-H torsion
[ 10763 10752 10751 10750 ] final  155.43 input  -60.55 | X-H torsion
[ 11005 11000 10999 10996 ] final -118.13 input  -57.11 | X-H torsion

> <Gold.Protein.ActiveResidues>
 VAL166  LYS551  ARG553  GLY616  TRP617  ASP618  TYR619  PRO620  LYS621  CYS622 
 ASP623  PHE694  ASN695  SER759  ASP760  ASP761  ALA762  ILE779  LEU786  VAL792 
 PHE793  MET794  SER795  GLU796  ALA797  LYS798  CYS799  TRP800  GLU811  SER814 

> <Gold.Protein.RotatedAtoms>
  150.9100  133.7010  159.2857 H   0  0  0  0  0  0  0  0  0  0  0  0  # atno 6907 bound_to 6896
  151.4500  135.1027  159.9704 H   0  0  0  0  0  0  0  0  0  0  0  0  # atno 6908 bound_to 6896
  152.4924  133.8488  159.7246 H   0  0  0  0  0  0  0  0  0  0  0  0  # atno 6909 bound_to 6896
  145.6862  139.2538  143.1786 H   0  0  0  0  0  0  0  0  0  0  0  0  # atno 7974 bound_to 7965
  155.2169  140.0420  157.2942 H   0  0  0  0  0  0  0  0  0  0  0  0  # atno 8008 bound_to 7997
  154.5975  140.2443  155.7808 H   0  0  0  0  0  0  0  0  0  0  0  0  # atno 8009 bound_to 7997
  156.2299  140.2941  156.0172 H   0  0  0  0  0  0  0  0  0  0  0  0  # atno 8010 bound_to 7997
  139.9246  143.6343  152.2545 H   0  0  0  0  0  0  0  0  0  0  0  0  # atno 10167 bound_to 10162
  156.1399  130.6458  150.9755 H   0  0  0  0  0  0  0  0  0  0  0  0  # atno 10718 bound_to 10713
  154.1682  135.2806  155.3089 H   0  0  0  0  0  0  0  0  0  0  0  0  # atno 10763 bound_to 10752
  154.6095  135.5503  153.7462 H   0  0  0  0  0  0  0  0  0  0  0  0  # atno 10764 bound_to 10752
  153.0172  135.6412  154.1823 H   0  0  0  0  0  0  0  0  0  0  0  0  # atno 10765 bound_to 10752
  141.0307  133.9985  157.3147 H   0  0  0  0  0  0  0  0  0  0  0  0  # atno 11005 bound_to 11000
  146.0922  140.7643  142.9590 LP  0  0  0  0  0  0  0  0  0  0  0  0  # atno 17320 bound_to 7965
  144.7011  140.3655  143.7155 LP  0  0  0  0  0  0  0  0  0  0  0  0  # atno 17321 bound_to 7965
  139.6833  144.7654  151.1569 LP  0  0  0  0  0  0  0  0  0  0  0  0  # atno 17342 bound_to 10162
  140.7653  143.5693  150.9013 LP  0  0  0  0  0  0  0  0  0  0  0  0  # atno 17343 bound_to 10162
  157.6566  131.0888  150.7933 LP  0  0  0  0  0  0  0  0  0  0  0  0  # atno 17370 bound_to 10713
  156.8009  130.4921  149.5370 LP  0  0  0  0  0  0  0  0  0  0  0  0  # atno 17371 bound_to 10713
  139.9206  135.0200  156.8049 LP  0  0  0  0  0  0  0  0  0  0  0  0  # atno 17394 bound_to 11000
  140.6411  133.9817  155.7708 LP  0  0  0  0  0  0  0  0  0  0  0  0  # atno 17395 bound_to 11000

$$$$
