#       Name:                AV-unprocessed.smi:851
#       Creating user name   scv26
#       Creation time:       Fri Mar 27 01:42:07 2020


#       File generated by GOLD software.
#

@<TRIPOS>MOLECULE
AV-unprocessed.smi:851
    39    40     1
SMALL
NO_CHARGES


@<TRIPOS>ATOM
      1 ****        -0.9976   3.5835   0.0508 C.3            1 S1                 0.0000
      2 ****        -0.2390   2.3796   0.0315 O.3            1 S1                 0.0000
      3 ****         1.1404   2.4675   0.0315 C.ar           1 S1                 0.0000
      4 ****         1.7103   3.6984   0.0568 N.ar           1 S1                 0.0000
      5 ****         3.0567   3.7825   0.0523 C.ar           1 S1                 0.0000
      6 ****         3.8990   2.6560   0.0158 C.ar           1 S1                 0.0000
      7 ****         3.3101   1.3783  -0.0100 C.ar           1 S1                 0.0000
      8 ****         1.8983   1.2739   0.0089 C.ar           1 S1                 0.0000
      9 ****         1.1936   0.0404  -0.0327 N.am           1 S1                 0.0000
     10 ****         1.6119  -1.1909   0.3177 C.2            1 S1                 0.0000
     11 ****         2.7407  -1.4607   0.7216 O.2            1 S1                 0.0000
     12 ****         0.6642  -2.1403   0.2136 N.am           1 S1                 0.0000
     13 ****         0.7803  -3.5693   0.5114 C.3            1 S1                 0.0000
     14 ****        -0.6083  -4.2114   0.6883 C.3            1 S1                 0.0000
     15 ****        -0.4539  -5.7371   0.6514 C.3            1 S1                 0.0000
     16 ****         0.9794  -6.0778  -0.4402 S.o2           1 S1                 0.0000
     17 ****         1.9923  -6.8223   0.3233 O.2            1 S1                 0.0000
     18 ****         0.5044  -6.5644  -1.7442 O.2            1 S1                 0.0000
     19 ****         1.5078  -4.3325  -0.6079 C.3            1 S1                 0.0000
     20 ****        -2.0598   3.3390   0.0510 H              1 S1                 0.0000
     21 ****        -0.7990   4.1942  -0.8310 H              1 S1                 0.0000
     22 ****        -0.7935   4.1703   0.9476 H              1 S1                 0.0000
     23 ****         3.4752   4.7779   0.0724 H              1 S1                 0.0000
     24 ****         4.9728   2.7695   0.0032 H              1 S1                 0.0000
     25 ****         3.9504   0.5115  -0.0581 H              1 S1                 0.0000
     26 ****         0.2175   0.1162  -0.2794 H              1 S1                 0.0000
     27 ****        -0.2477  -1.8294  -0.0893 H              1 S1                 0.0000
     28 ****         1.3251  -3.7108   1.4468 H              1 S1                 0.0000
     29 ****        -1.0942  -3.8813   1.6070 H              1 S1                 0.0000
     30 ****        -1.2520  -3.9073  -0.1386 H              1 S1                 0.0000
     31 ****        -0.2206  -6.1261   1.6428 H              1 S1                 0.0000
     32 ****        -1.3430  -6.2455   0.2782 H              1 S1                 0.0000
     33 ****         1.1931  -3.9833  -1.5920 H              1 S1                 0.0000
     34 ****         2.5941  -4.2633  -0.5454 H              1 S1                 0.0000
     35 ****        -0.5025   1.8781  -0.7926 LP             1 S1                 0.0000
     36 ****        -0.5009   1.8530   0.8402 LP             1 S1                 0.0000
     37 ****         1.1459   4.5236   0.0783 LP             1 S1                 0.0000
     38 ****         3.4263  -0.7380   0.8096 LP             1 S1                 0.0000
     39 ****         2.9737  -2.4029   0.9623 LP             1 S1                 0.0000
@<TRIPOS>BOND
    1    1    2 1     
    2    1   20 1     
    3    1   21 1     
    4    1   22 1     
    5    2    3 1     
    6    3    8 ar    
    7    3    4 ar    
    8    4    5 ar    
    9    5    6 ar    
   10    5   23 1     
   11    6    7 ar    
   12    6   24 1     
   13    7    8 ar    
   14    7   25 1     
   15    8    9 1     
   16    9   10 am    
   17    9   26 1     
   18   10   11 2     
   19   10   12 am    
   20   12   13 1     
   21   12   27 1     
   22   13   19 1     
   23   13   14 1     
   24   13   28 1     
   25   14   15 1     
   26   14   29 1     
   27   14   30 1     
   28   15   16 1     
   29   15   31 1     
   30   15   32 1     
   31   16   17 2     
   32   16   18 2     
   33   16   19 1     
   34   19   33 1     
   35   19   34 1     
   36    2   35 1     
   37    2   36 1     
   38    4   37 1     
   39   11   38 1     
   40   11   39 1     
@<TRIPOS>SUBSTRUCTURE
      1 S1             1
@<TRIPOS>SET
LONE_PAIRS      STATIC     ATOMS    <user>   **** ""
7 35 36 37 38 39 17 18
DONOR_HYDROGENS      STATIC     ATOMS    <user>   **** ""
2 26 27
ATOM$BLUE        STATIC     ATOMS    COLORGROUP SYSTEM
7 35 36 37 38 39 17 18
ATOM$RED        STATIC     ATOMS    COLORGROUP SYSTEM
2 26 27
