AV-unprocessed.smi:630|AV-procd|sdf|3124|dock2
  -GOLD-   22720 0 43D 1   1.00000     0.00000
 Structure written by MMmdl.
 36 37  0  0  0  0  0  0  0  0  2 V2000
  150.6947  137.2643  154.0792 N   0  0  0  0  0  0  0  0  0  0  0  0
  151.1432  137.2113  155.3363 C   0  0  0  0  0  0  0  0  0  0  0  0
  151.8294  136.2752  155.7429 O   0  0  0  0  0  0  0  0  0  0  0  0
  150.7596  138.3748  156.2721 C   0  0  1  0  0  0  0  0  0  0  0  0
  151.2140  139.7302  155.6739 C   0  0  0  0  0  0  0  0  0  0  0  0
  150.2160  140.4365  154.7402 C   0  0  0  0  0  0  0  0  0  0  0  0
  149.2327  141.3369  155.5040 C   0  0  0  0  0  0  0  0  0  0  0  0
  148.1523  140.5796  156.2879 C   0  0  0  0  0  0  0  0  0  0  0  0
  148.6790  139.5633  157.3172 C   0  0  0  0  0  0  0  0  0  0  0  0
  149.2586  138.2849  156.6732 C   0  0  2  0  0  0  0  0  0  0  0  0
  149.0855  137.1634  157.6025 N   0  0  0  0  0  0  0  0  0  0  0  0
  149.4674  137.1067  158.8873 C   0  0  0  0  0  0  0  0  0  0  0  0
  150.0482  138.0623  159.4067 O   0  0  0  0  0  0  0  0  0  0  0  0
  149.1452  135.9411  159.4935 N   0  5  0  0  0  0  0  0  0  0  0  0
  148.3053  135.9390  160.5414 C   0  0  0  0  0  0  0  0  0  0  0  0
  147.8977  137.0572  161.1529 N   0  0  0  0  0  0  0  0  0  0  0  0
  147.0319  136.8209  162.2224 C   0  0  0  0  0  0  0  0  0  0  0  0
  146.7821  135.4913  162.4363 C   0  0  0  0  0  0  0  0  0  0  0  0
  147.6307  134.4903  161.2930 S   0  0  0  0  0  0  0  0  0  0  0  0
  150.9491  136.5381  153.4259 H   0  0  0  0  0  0  0  0  0  0  0  0
  150.1294  138.0451  153.7788 H   0  0  0  0  0  0  0  0  0  0  0  0
  151.3495  138.2539  157.1831 H   0  0  0  0  0  0  0  0  0  0  0  0
  151.4877  140.4059  156.4852 H   0  0  0  0  0  0  0  0  0  0  0  0
  152.1459  139.5813  155.1256 H   0  0  0  0  0  0  0  0  0  0  0  0
  150.7841  141.0720  154.0602 H   0  0  0  0  0  0  0  0  0  0  0  0
  149.6866  139.7240  154.1071 H   0  0  0  0  0  0  0  0  0  0  0  0
  149.7814  141.9960  156.1779 H   0  0  0  0  0  0  0  0  0  0  0  0
  148.7366  141.9946  154.7896 H   0  0  0  0  0  0  0  0  0  0  0  0
  147.5384  141.3139  156.8105 H   0  0  0  0  0  0  0  0  0  0  0  0
  147.4783  140.0791  155.5915 H   0  0  0  0  0  0  0  0  0  0  0  0
  149.4029  140.0249  157.9898 H   0  0  0  0  0  0  0  0  0  0  0  0
  147.8302  139.2864  157.9447 H   0  0  0  0  0  0  0  0  0  0  0  0
  148.6769  138.0877  155.7709 H   0  0  0  0  0  0  0  0  0  0  0  0
  148.6212  136.3463  157.2342 H   0  0  0  0  0  0  0  0  0  0  0  0
  146.6420  137.6600  162.7789 H   0  0  0  0  0  0  0  0  0  0  0  0
  146.1553  135.0416  163.1913 H   0  0  0  0  0  0  0  0  0  0  0  0
  1  2  1  0  0  0  0
  1 20  1  0  0  0  0
  1 21  1  0  0  0  0
  2  3  2  0  0  0  0
  2  4  1  0  0  0  0
  4 10  1  0  0  0  0
  4  5  1  0  0  0  0
  4 22  1  0  0  0  0
  5  6  1  0  0  0  0
  5 23  1  0  0  0  0
  5 24  1  0  0  0  0
  6  7  1  0  0  0  0
  6 25  1  0  0  0  0
  6 26  1  0  0  0  0
  7  8  1  0  0  0  0
  7 27  1  0  0  0  0
  7 28  1  0  0  0  0
  8  9  1  0  0  0  0
  8 29  1  0  0  0  0
  8 30  1  0  0  0  0
  9 10  1  0  0  0  0
  9 31  1  0  0  0  0
  9 32  1  0  0  0  0
 10 11  1  0  0  0  0
 10 33  1  0  0  0  0
 11 12  1  0  0  0  0
 11 34  1  0  0  0  0
 12 13  2  0  0  0  0
 12 14  1  0  0  0  0
 14 15  1  0  0  0  0
 15 19  1  0  0  0  0
 15 16  2  0  0  0  0
 16 17  1  0  0  0  0
 17 18  2  0  0  0  0
 17 35  1  0  0  0  0
 18 19  1  0  0  0  0
 18 36  1  0  0  0  0
M  CHG  1  14  -1
M  END
> <s_m_source_file>
AV-unprocessed.smi

> <i_m_source_file_index>
630

> <i_lp_mmshare_version>
43012

> <i_f3d_flags>
0

> <s_epik_input>
W05IMl1DKD1PKVtDQEBIXTFbQ0gyXVtDSDJdW0NIMl1bQ0gyXVtDSDJdW0NASF0xW05IXUMoPU8pW05IXWMybltjSF1bY0hdczI=

> <s_epik_cmdline>
J2VwaWtfcHl0aG9uJywgJy1waCcsICc3LjAnLCAnLXRuJywgJzgnLCAnLW1hJywgJzIwMCcsICctbWV0YWxfYmluZGluZycsICctaW1hZScsICc8aW5maWxlLm1hZT4nLCAnLW9tYWUnLCAnPG91dGZpbGUubWFlPic=

> <r_lp_tautomer_probability>
0.999

> <r_epik_Ionization_Penalty>
8.29606

> <r_epik_Ionization_Penalty_Charging>
6.67551

> <r_epik_Ionization_Penalty_Neutral>
1.62055

> <r_epik_State_Penalty>
6.67568

> <r_epik_Charging_Adjusted_Penalty>
13.3512

> <i_epik_Tot_Q>
-1

> <i_epik_Tot_abs_Q>
1

> <r_epik_Metal_State_Penalty>
2.59802

> <b_epik_Metal_Only>
1

> <s_lp_Force_Field>
OPLS_2005

> <r_lp_Energy>
8.13293

> <b_lp_Chiralities_Consistent>
1

> <s_lp_Variant>
AV-unprocessed.smi:630-8

> <Gold.Version>
5.8.1

> <Gold.Id.Protein>
6NUR|6NUR_protein|mol2

> <Gold.PLP.Fitness>
44.7760

> <Gold.PLP.PLP>
-30.3180

> <Gold.PLP.part.hbond>
-7.0000

> <Gold.PLP.part.metal>
0.0000

> <Gold.PLP.part.buried>
-1.8978

> <Gold.PLP.part.nonpolar>
-21.7155

> <Gold.PLP.part.repulsive>
0.1640

> <Gold.PLP.ligand.clash>
0.0000

> <Gold.PLP.ligand.torsion>
0.8725

> <Gold.PLP.Chemscore.Hbond>
5.3542

> <Gold.PLP.Chemscore.CHOScore>
0.0000

> <Gold.PLP.Chemscore.Metal>
0.0000

> <Gold.Chemscore.Hbonds>
donor molecule, donor type, donor heavy atom, donor atom, acceptor molecule, acceptor atom, score
      L1  H     1    20       P1  7949  0.86
      P1  H  6896  6909       L1    14  2.00
      P1  H  6931  6943       L1    16  1.00
      P1  H  6934  6947       L1    16  0.39
      P1  H 10752 10765       L1     3  1.00

> <Gold.PLP.Chemscore.Internal.Correction>
0.1403

> <Gold.Rescore>
     Score         DG    S(hbond)    S(metal)    S(lipo)     H(rot)  DE(clash)    DE(int)     intcor
     13.92     -17.56       2.92        0.00      52.69       1.50       0.27       3.37       ----

> <Gold.Chemscore.Fitness>
13.9213

> <Gold.Chemscore.DG>
-17.5606

> <Gold.Chemscore.ZeroCoef>
-5.4800

> <Gold.Chemscore.Hbond>
2.9242

> <Gold.Chemscore.Metal>
0.0000

> <Gold.Chemscore.Lipo>
52.6910

> <Gold.Chemscore.Internal_Hbond>
0.0000

> <Gold.Chemscore.DEClash>
0.2680

> <Gold.Chemscore.DEInternal>
3.3714

> <Gold.Chemscore.Rot>
1.5044

> <Gold.Chemscore.Internal.Correction>
   9.000000E+99

> <Gold.Chemscore.Hbonds>
donor molecule, donor type, donor heavy atom, donor atom, acceptor molecule, acceptor atom, score
      L1  H     1    20       P1  7949  0.16
      P1  H  6896  6909       L1    14  0.57
      P1  H  6931  6943       L1    16  0.29
      P1  H  6934  6947       L1    16  0.03
      P1  H 10752 10765       L1     3  1.00

> <Gold.Chemscore.Hbond.Weighted>
-9.7670

> <Gold.Chemscore.Metal.Weighted>
-0.0000

> <Gold.Chemscore.Lipo.Weighted>
-6.1648

> <Gold.Chemscore.Internal_Hbond.Weighted>
0.0000

> <Gold.Chemscore.DEClash.Weighted>
0.2680

> <Gold.Chemscore.DEInternal.Weighted>
3.3714

> <Gold.Chemscore.Rot.Weighted>
3.8512

> <Gold.Chemscore.Internal.Correction.Weighted>
   9.000000E+99

> <Gold.Protein.RotatedTorsions>
[ 6907 6896 6895 6894 ] final   73.61 input  -60.11 | X-H torsion
[ 7974 7965 7964 7962 ] final  111.09 input  175.53 | X-H torsion
[ 8008 7997 7996 7995 ] final  -66.41 input   59.86 | X-H torsion
[ 10167 10162 10161 10158 ] final  -41.30 input  -65.29 | X-H torsion
[ 10718 10713 10712 10709 ] final  -84.22 input   66.30 | X-H torsion
[ 10763 10752 10751 10750 ] final -152.61 input  -60.55 | X-H torsion
[ 11005 11000 10999 10996 ] final -131.43 input  -57.11 | X-H torsion

> <Gold.Protein.ActiveResidues>
 VAL166  LYS551  ARG553  GLY616  TRP617  ASP618  TYR619  PRO620  LYS621  CYS622 
 ASP623  PHE694  ASN695  SER759  ASP760  ASP761  ALA762  ILE779  LEU786  VAL792 
 PHE793  MET794  SER795  GLU796  ALA797  LYS798  CYS799  TRP800  GLU811  SER814 

> <Gold.Protein.RotatedAtoms>
  152.4932  134.4396  159.9538 H   0  0  0  0  0  0  0  0  0  0  0  0  # atno 6907 bound_to 6896
  151.4379  133.3645  159.2785 H   0  0  0  0  0  0  0  0  0  0  0  0  # atno 6908 bound_to 6896
  150.9108  134.8548  159.7484 H   0  0  0  0  0  0  0  0  0  0  0  0  # atno 6909 bound_to 6896
  145.2467  139.2756  143.4089 H   0  0  0  0  0  0  0  0  0  0  0  0  # atno 7974 bound_to 7965
  154.4733  140.0913  156.7199 H   0  0  0  0  0  0  0  0  0  0  0  0  # atno 8008 bound_to 7997
  155.4665  140.3463  155.4301 H   0  0  0  0  0  0  0  0  0  0  0  0  # atno 8009 bound_to 7997
  156.1075  140.1438  156.9373 H   0  0  0  0  0  0  0  0  0  0  0  0  # atno 8010 bound_to 7997
  140.7007  143.3102  151.3047 H   0  0  0  0  0  0  0  0  0  0  0  0  # atno 10167 bound_to 10162
  156.0009  130.4691  150.4377 H   0  0  0  0  0  0  0  0  0  0  0  0  # atno 10718 bound_to 10713
  154.7983  135.3232  154.7614 H   0  0  0  0  0  0  0  0  0  0  0  0  # atno 10763 bound_to 10752
  153.8287  135.6881  153.4821 H   0  0  0  0  0  0  0  0  0  0  0  0  # atno 10764 bound_to 10752
  153.1685  135.4632  154.9813 H   0  0  0  0  0  0  0  0  0  0  0  0  # atno 10765 bound_to 10752
  140.9259  134.1383  157.4275 H   0  0  0  0  0  0  0  0  0  0  0  0  # atno 11005 bound_to 11000
  146.3314  140.2846  142.8612 LP  0  0  0  0  0  0  0  0  0  0  0  0  # atno 17320 bound_to 7965
  144.9540  140.8207  143.5554 LP  0  0  0  0  0  0  0  0  0  0  0  0  # atno 17321 bound_to 7965
  139.6523  144.0340  152.2635 LP  0  0  0  0  0  0  0  0  0  0  0  0  # atno 17342 bound_to 10162
  139.9881  144.6381  150.7840 LP  0  0  0  0  0  0  0  0  0  0  0  0  # atno 17343 bound_to 10162
  157.2420  131.0527  151.2430 LP  0  0  0  0  0  0  0  0  0  0  0  0  # atno 17370 bound_to 10713
  157.3611  130.7132  149.6502 LP  0  0  0  0  0  0  0  0  0  0  0  0  # atno 17371 bound_to 10713
  139.8785  134.9988  156.5920 LP  0  0  0  0  0  0  0  0  0  0  0  0  # atno 17394 bound_to 11000
  140.7927  133.8569  155.8659 LP  0  0  0  0  0  0  0  0  0  0  0  0  # atno 17395 bound_to 11000

$$$$
