AV-unprocessed.smi:1844|AV-procd|sdf|7510|dock5
  -GOLD-   22720 9213D 1   1.00000     0.00000
 Structure written by MMmdl.
 45 46  0  0  0  0  0  0  0  0  1 V2000
  148.8253  134.0144  161.1246 C   0  0  0  0  0  0  0  0  0  0  0  0
  149.1804  134.9130  160.0367 N   0  0  0  0  0  0  0  0  0  0  0  0
  149.1146  136.2530  160.1039 C   0  0  0  0  0  0  0  0  0  0  0  0
  148.7363  136.8314  161.1243 O   0  0  0  0  0  0  0  0  0  0  0  0
  149.5303  136.9291  158.8724 C   0  0  0  0  0  0  0  0  0  0  0  0
  149.8368  136.2196  157.6391 C   0  0  0  0  0  0  0  0  0  0  0  0
  150.2086  136.8950  156.5339 C   0  0  0  0  0  0  0  0  0  0  0  0
  150.3228  138.3562  156.5237 C   0  0  0  0  0  0  0  0  0  0  0  0
  150.6600  138.9784  155.5159 O   0  0  0  0  0  0  0  0  0  0  0  0
  150.0320  138.9832  157.7037 N   0  0  0  0  0  0  0  0  0  0  0  0
  150.1118  140.4494  157.8167 C   0  0  0  0  0  0  0  0  0  0  0  0
  151.5160  140.9594  158.1706 C   0  0  0  0  0  0  0  0  0  0  0  0
  152.4571  140.1766  158.3074 O   0  0  0  0  0  0  0  0  0  0  0  0
  151.6366  142.2904  158.2929 N   0  0  0  0  0  0  0  0  0  0  0  0
  152.8610  143.0233  158.6223 C   0  0  2  0  0  0  0  0  0  0  0  0
  153.5278  142.3948  159.8627 C   0  0  0  0  0  0  0  0  0  0  0  0
  152.7223  142.6487  161.1489 C   0  0  0  0  0  0  0  0  0  0  0  0
  152.4671  144.1486  161.3583 C   0  0  0  0  0  0  0  0  0  0  0  0
  151.7788  144.7754  160.1351 C   0  0  0  0  0  0  0  0  0  0  0  0
  152.5866  144.5331  158.8429 C   0  0  2  0  0  0  0  0  0  0  0  0
  151.9279  145.2107  157.6290 C   0  0  0  0  0  0  0  0  0  0  0  0
  149.6392  138.2722  158.8549 C   0  0  0  0  0  0  0  0  0  0  0  0
  148.9836  132.9804  160.8185 H   0  0  0  0  0  0  0  0  0  0  0  0
  147.7761  134.1320  161.3981 H   0  0  0  0  0  0  0  0  0  0  0  0
  149.4392  134.2074  162.0051 H   0  0  0  0  0  0  0  0  0  0  0  0
  149.4969  134.4923  159.1752 H   0  0  0  0  0  0  0  0  0  0  0  0
  149.7730  135.1432  157.5789 H   0  0  0  0  0  0  0  0  0  0  0  0
  150.4298  136.3466  155.6300 H   0  0  0  0  0  0  0  0  0  0  0  0
  149.8052  140.9231  156.8832 H   0  0  0  0  0  0  0  0  0  0  0  0
  149.3995  140.8065  158.5630 H   0  0  0  0  0  0  0  0  0  0  0  0
  150.8074  142.8487  158.1501 H   0  0  0  0  0  0  0  0  0  0  0  0
  153.5688  142.9286  157.7971 H   0  0  0  0  0  0  0  0  0  0  0  0
  153.6671  141.3231  159.7146 H   0  0  0  0  0  0  0  0  0  0  0  0
  154.5273  142.8150  159.9817 H   0  0  0  0  0  0  0  0  0  0  0  0
  151.7703  142.1187  161.1008 H   0  0  0  0  0  0  0  0  0  0  0  0
  153.2570  142.2402  162.0069 H   0  0  0  0  0  0  0  0  0  0  0  0
  151.8552  144.3009  162.2478 H   0  0  0  0  0  0  0  0  0  0  0  0
  153.4139  144.6569  161.5444 H   0  0  0  0  0  0  0  0  0  0  0  0
  150.7745  144.3634  160.0297 H   0  0  0  0  0  0  0  0  0  0  0  0
  151.6537  145.8462  160.3005 H   0  0  0  0  0  0  0  0  0  0  0  0
  153.5566  145.0142  158.9776 H   0  0  0  0  0  0  0  0  0  0  0  0
  150.9177  144.8385  157.4569 H   0  0  0  0  0  0  0  0  0  0  0  0
  152.5067  145.0365  156.7215 H   0  0  0  0  0  0  0  0  0  0  0  0
  151.8594  146.2891  157.7740 H   0  0  0  0  0  0  0  0  0  0  0  0
  149.4288  138.8958  159.7126 H   0  0  0  0  0  0  0  0  0  0  0  0
  1  2  1  0  0  0  0
  1 23  1  0  0  0  0
  1 24  1  0  0  0  0
  1 25  1  0  0  0  0
  2  3  1  0  0  0  0
  2 26  1  0  0  0  0
  3  4  2  0  0  0  0
  3  5  1  0  0  0  0
  5 22  2  0  0  0  0
  5  6  1  0  0  0  0
  6  7  2  0  0  0  0
  6 27  1  0  0  0  0
  7  8  1  0  0  0  0
  7 28  1  0  0  0  0
  8  9  2  0  0  0  0
  8 10  1  0  0  0  0
 10 11  1  0  0  0  0
 10 22  1  0  0  0  0
 11 12  1  0  0  0  0
 11 29  1  0  0  0  0
 11 30  1  0  0  0  0
 12 13  2  0  0  0  0
 12 14  1  0  0  0  0
 14 15  1  0  0  0  0
 14 31  1  0  0  0  0
 15 20  1  0  0  0  0
 15 16  1  0  0  0  0
 15 32  1  0  0  0  0
 16 17  1  0  0  0  0
 16 33  1  0  0  0  0
 16 34  1  0  0  0  0
 17 18  1  0  0  0  0
 17 35  1  0  0  0  0
 17 36  1  0  0  0  0
 18 19  1  0  0  0  0
 18 37  1  0  0  0  0
 18 38  1  0  0  0  0
 19 20  1  0  0  0  0
 19 39  1  0  0  0  0
 19 40  1  0  0  0  0
 20 21  1  0  0  0  0
 20 41  1  0  0  0  0
 21 42  1  0  0  0  0
 21 43  1  0  0  0  0
 21 44  1  0  0  0  0
 22 45  1  0  0  0  0
M  END
> <s_m_source_file>
AV-unprocessed.smi

> <i_m_source_file_index>
1844

> <i_lp_mmshare_version>
43012

> <i_f3d_flags>
0

> <s_epik_input>
W0NIM11bTkhdQyg9TyljMVtjSF1bY0hdYyg9TyluKFtjSF0xKVtDSDJdQyg9TylbTkhdW0NAQEhdMltDSDJdW0NIMl1bQ0gyXVtDSDJdW0NASF0yW0NIM10=

> <s_epik_cmdline>
J2VwaWtfcHl0aG9uJywgJy1waCcsICc3LjAnLCAnLXRuJywgJzgnLCAnLW1hJywgJzIwMCcsICctbWV0YWxfYmluZGluZycsICctaW1hZScsICc8aW5maWxlLm1hZT4nLCAnLW9tYWUnLCAnPG91dGZpbGUubWFlPic=

> <r_lp_tautomer_probability>
1

> <r_epik_Ionization_Penalty>
3.66612e-07

> <r_epik_Ionization_Penalty_Charging>
5.18929e-08

> <r_epik_Ionization_Penalty_Neutral>
3.14719e-07

> <r_epik_State_Penalty>
-0

> <r_epik_Charging_Adjusted_Penalty>
5.18929e-08

> <i_epik_Tot_Q>
0

> <i_epik_Tot_abs_Q>
0

> <r_epik_Metal_State_Penalty>
-0

> <b_epik_Metal_Only>
0

> <s_lp_Force_Field>
OPLS_2005

> <r_lp_Energy>
22.5965

> <b_lp_Chiralities_Consistent>
1

> <s_lp_Variant>
AV-unprocessed.smi:1844-3

> <Gold.Version>
5.8.1

> <Gold.Id.Protein>
6NUR|6NUR_protein|mol2

> <Gold.PLP.Fitness>
43.7569

> <Gold.PLP.PLP>
-39.5920

> <Gold.PLP.part.hbond>
-2.0000

> <Gold.PLP.part.metal>
0.0000

> <Gold.PLP.part.buried>
-6.7498

> <Gold.PLP.part.nonpolar>
-30.7200

> <Gold.PLP.part.repulsive>
0.1817

> <Gold.PLP.ligand.clash>
0.0000

> <Gold.PLP.ligand.torsion>
0.4562

> <Gold.PLP.Chemscore.Hbond>
1.6887

> <Gold.PLP.Chemscore.CHOScore>
0.0000

> <Gold.PLP.Chemscore.Metal>
0.0000

> <Gold.Chemscore.Hbonds>
donor molecule, donor type, donor heavy atom, donor atom, acceptor molecule, acceptor atom, score
      P1  H  6931  6943       L1     4  1.00

> <Gold.PLP.Chemscore.Internal.Correction>
0.0111

> <Gold.Rescore>
     Score         DG    S(hbond)    S(metal)    S(lipo)     H(rot)  DE(clash)    DE(int)     intcor
     18.20     -19.50       1.67        0.00     104.77       1.49       0.11       1.19       ----

> <Gold.Chemscore.Fitness>
18.2048

> <Gold.Chemscore.DG>
-19.4998

> <Gold.Chemscore.ZeroCoef>
-5.4800

> <Gold.Chemscore.Hbond>
1.6713

> <Gold.Chemscore.Metal>
0.0000

> <Gold.Chemscore.Lipo>
104.7696

> <Gold.Chemscore.Internal_Hbond>
0.0000

> <Gold.Chemscore.DEClash>
0.1059

> <Gold.Chemscore.DEInternal>
1.1891

> <Gold.Chemscore.Rot>
1.4923

> <Gold.Chemscore.Internal.Correction>
   9.000000E+99

> <Gold.Chemscore.Hbonds>
donor molecule, donor type, donor heavy atom, donor atom, acceptor molecule, acceptor atom, score
      P1  H  6931  6943       L1     4  0.98
      P1  H  7997  8008       L1    13  0.02

> <Gold.Chemscore.Hbond.Weighted>
-5.5822

> <Gold.Chemscore.Metal.Weighted>
-0.0000

> <Gold.Chemscore.Lipo.Weighted>
-12.2580

> <Gold.Chemscore.Internal_Hbond.Weighted>
0.0000

> <Gold.Chemscore.DEClash.Weighted>
0.1059

> <Gold.Chemscore.DEInternal.Weighted>
1.1891

> <Gold.Chemscore.Rot.Weighted>
3.8204

> <Gold.Chemscore.Internal.Correction.Weighted>
   9.000000E+99

> <Gold.Protein.RotatedTorsions>
[ 6907 6896 6895 6894 ] final   22.33 input  -60.11 | X-H torsion
[ 7974 7965 7964 7962 ] final  141.03 input  175.53 | X-H torsion
[ 8008 7997 7996 7995 ] final  -85.21 input   59.86 | X-H torsion
[ 10167 10162 10161 10158 ] final -141.91 input  -65.29 | X-H torsion
[ 10718 10713 10712 10709 ] final   -8.18 input   66.30 | X-H torsion
[ 10763 10752 10751 10750 ] final -176.98 input  -60.55 | X-H torsion
[ 11005 11000 10999 10996 ] final  -48.34 input  -57.11 | X-H torsion

> <Gold.Protein.ActiveResidues>
 VAL166  LYS551  ARG553  GLY616  TRP617  ASP618  TYR619  PRO620  LYS621  CYS622 
 ASP623  PHE694  ASN695  SER759  ASP760  ASP761  ALA762  ILE779  LEU786  VAL792 
 PHE793  MET794  SER795  GLU796  ALA797  LYS798  CYS799  TRP800  GLU811  SER814 

> <Gold.Protein.RotatedAtoms>
  151.9254  135.0280  160.0524 H   0  0  0  0  0  0  0  0  0  0  0  0  # atno 6907 bound_to 6896
  152.2164  133.4945  159.5146 H   0  0  0  0  0  0  0  0  0  0  0  0  # atno 6908 bound_to 6896
  150.6988  134.1317  159.4115 H   0  0  0  0  0  0  0  0  0  0  0  0  # atno 6909 bound_to 6896
  144.9133  139.5263  143.5698 H   0  0  0  0  0  0  0  0  0  0  0  0  # atno 7974 bound_to 7965
  154.6382  140.0594  156.9814 H   0  0  0  0  0  0  0  0  0  0  0  0  # atno 8008 bound_to 7997
  155.1558  140.3278  155.4403 H   0  0  0  0  0  0  0  0  0  0  0  0  # atno 8009 bound_to 7997
  156.2518  140.1939  156.6668 H   0  0  0  0  0  0  0  0  0  0  0  0  # atno 8010 bound_to 7997
  139.8139  143.7665  152.2664 H   0  0  0  0  0  0  0  0  0  0  0  0  # atno 10167 bound_to 10162
  156.7063  130.5108  149.5904 H   0  0  0  0  0  0  0  0  0  0  0  0  # atno 10718 bound_to 10713
  154.5657  135.2824  155.0876 H   0  0  0  0  0  0  0  0  0  0  0  0  # atno 10763 bound_to 10752
  154.2267  135.6381  153.5166 H   0  0  0  0  0  0  0  0  0  0  0  0  # atno 10764 bound_to 10752
  153.0042  135.5527  154.6265 H   0  0  0  0  0  0  0  0  0  0  0  0  # atno 10765 bound_to 10752
  141.0695  133.6683  156.3427 H   0  0  0  0  0  0  0  0  0  0  0  0  # atno 11005 bound_to 11000
  146.3169  139.7957  142.8976 LP  0  0  0  0  0  0  0  0  0  0  0  0  # atno 17320 bound_to 7965
  145.3417  141.0289  143.3388 LP  0  0  0  0  0  0  0  0  0  0  0  0  # atno 17321 bound_to 7965
  139.7822  144.7440  151.0072 LP  0  0  0  0  0  0  0  0  0  0  0  0  # atno 17342 bound_to 10162
  140.7816  143.4530  151.0386 LP  0  0  0  0  0  0  0  0  0  0  0  0  # atno 17343 bound_to 10162
  156.1693  130.6426  151.0817 LP  0  0  0  0  0  0  0  0  0  0  0  0  # atno 17370 bound_to 10713
  157.6953  131.0796  150.6986 LP  0  0  0  0  0  0  0  0  0  0  0  0  # atno 17371 bound_to 10713
  140.5704  134.5846  157.5456 LP  0  0  0  0  0  0  0  0  0  0  0  0  # atno 17394 bound_to 11000
  139.9509  134.7619  156.0451 LP  0  0  0  0  0  0  0  0  0  0  0  0  # atno 17395 bound_to 11000

$$$$
