AV-unprocessed.smi:290|AV-procd|sdf|2215|dock5
  -GOLD-   2262022 53D 1   1.00000     0.00000
 Structure written by MMmdl.
 59 62  0  0  0  0  0  0  0  0  2 V2000
  152.7610  142.4198  162.1259 C   0  0  0  0  0  0  0  0  0  0  0  0
  152.9473  143.1996  160.8157 C   0  0  2  0  0  0  0  0  0  0  0  0
  151.8269  144.0441  160.5654 O   0  0  0  0  0  0  0  0  0  0  0  0
  151.5886  144.1430  159.1637 C   0  0  0  0  0  0  0  0  0  0  0  0
  152.7498  143.4144  158.4935 C   0  0  0  0  0  0  0  0  0  0  0  0
  153.1283  142.3660  159.5331 C   0  0  1  0  0  0  0  0  0  0  0  0
  154.4895  142.0167  159.3614 O   0  0  0  0  0  0  0  0  0  0  0  0
  152.2536  141.0839  159.4816 C   0  0  0  0  0  0  0  0  0  0  0  0
  151.2525  141.0988  158.4267 N   0  0  0  0  0  0  0  0  0  0  0  0
  150.0044  141.6775  158.4797 C   0  0  0  0  0  0  0  0  0  0  0  0
  149.2874  141.5552  157.3959 N   0  0  0  0  0  0  0  0  0  0  0  0
  150.1049  140.8402  156.5289 C   0  0  0  0  0  0  0  0  0  0  0  0
  149.9642  140.3582  155.1969 C   0  0  0  0  0  0  0  0  0  0  0  0
  148.8682  140.5257  154.4269 N   0  0  0  0  0  0  0  0  0  0  0  0
  148.5137  141.9194  154.1673 C   0  0  0  0  0  0  0  0  0  0  0  0
  146.9877  141.9601  154.0581 C   0  0  0  0  0  0  0  0  0  0  0  0
  146.5930  140.8361  155.0191 C   0  0  1  0  0  0  0  0  0  0  0  0
  145.1732  140.3643  155.0041 N   0  3  1  0  0  0  0  0  0  0  0  0
  145.0464  139.0019  155.5792 C   0  0  0  0  0  0  0  0  0  0  0  0
  144.1738  141.3152  155.5680 C   0  0  0  0  0  0  0  0  0  0  0  0
  144.3814  141.5883  157.0687 C   0  0  0  0  0  0  0  0  0  0  0  0
  143.3856  142.4672  157.5470 O   0  0  0  0  0  0  0  0  0  0  0  0
  147.6758  139.7616  154.7941 C   0  0  1  0  0  0  0  0  0  0  0  0
  147.3866  138.7157  153.7049 C   0  0  0  0  0  0  0  0  0  0  0  0
  151.0082  139.6935  154.6454 N   0  0  0  0  0  0  0  0  0  0  0  0
  152.1233  139.4960  155.3555 C   0  0  0  0  0  0  0  0  0  0  0  0
  152.3956  139.8767  156.6057 N   0  0  0  0  0  0  0  0  0  0  0  0
  151.3483  140.5540  157.1583 C   0  0  0  0  0  0  0  0  0  0  0  0
  146.7905  141.2203  156.0216 H   0  0  0  0  0  0  0  0  0  0  0  0
  147.8289  139.2195  155.7286 H   0  0  0  0  0  0  0  0  0  0  0  0
  153.6007  141.7479  162.3050 H   0  0  0  0  0  0  0  0  0  0  0  0
  151.8472  141.8257  162.1173 H   0  0  0  0  0  0  0  0  0  0  0  0
  152.6968  143.1024  162.9734 H   0  0  0  0  0  0  0  0  0  0  0  0
  153.8068  143.8634  160.9273 H   0  0  0  0  0  0  0  0  0  0  0  0
  150.6422  143.6520  158.9345 H   0  0  0  0  0  0  0  0  0  0  0  0
  151.5152  145.1831  158.8453 H   0  0  0  0  0  0  0  0  0  0  0  0
  152.4980  143.0168  157.5111 H   0  0  0  0  0  0  0  0  0  0  0  0
  153.5717  144.1188  158.3533 H   0  0  0  0  0  0  0  0  0  0  0  0
  154.9939  142.4341  160.0427 H   0  0  0  0  0  0  0  0  0  0  0  0
  152.8786  140.2019  159.3356 H   0  0  0  0  0  0  0  0  0  0  0  0
  151.7409  140.9366  160.4328 H   0  0  0  0  0  0  0  0  0  0  0  0
  149.6390  142.1934  159.3557 H   0  0  0  0  0  0  0  0  0  0  0  0
  148.8475  142.5576  154.9873 H   0  0  0  0  0  0  0  0  0  0  0  0
  148.9889  142.2770  153.2535 H   0  0  0  0  0  0  0  0  0  0  0  0
  146.5706  142.9286  154.3353 H   0  0  0  0  0  0  0  0  0  0  0  0
  146.7022  141.7466  153.0287 H   0  0  0  0  0  0  0  0  0  0  0  0
  145.2976  139.0041  156.6407 H   0  0  0  0  0  0  0  0  0  0  0  0
  145.7133  138.3029  155.0732 H   0  0  0  0  0  0  0  0  0  0  0  0
  144.0393  138.6039  155.4685 H   0  0  0  0  0  0  0  0  0  0  0  0
  144.2117  142.2519  155.0101 H   0  0  0  0  0  0  0  0  0  0  0  0
  143.1633  140.9307  155.4452 H   0  0  0  0  0  0  0  0  0  0  0  0
  144.3850  140.6760  157.6635 H   0  0  0  0  0  0  0  0  0  0  0  0
  145.3517  142.0614  157.2223 H   0  0  0  0  0  0  0  0  0  0  0  0
  143.7849  143.3042  157.7319 H   0  0  0  0  0  0  0  0  0  0  0  0
  146.4956  138.1330  153.9351 H   0  0  0  0  0  0  0  0  0  0  0  0
  148.2156  138.0122  153.6219 H   0  0  0  0  0  0  0  0  0  0  0  0
  147.2562  139.1754  152.7255 H   0  0  0  0  0  0  0  0  0  0  0  0
  152.9096  138.9547  154.8501 H   0  0  0  0  0  0  0  0  0  0  0  0
  144.9386  140.2677  154.0259 H   0  0  0  0  0  0  0  0  0  0  0  0
  1  2  1  0  0  0  0
  1 31  1  0  0  0  0
  1 32  1  0  0  0  0
  1 33  1  0  0  0  0
  2  6  1  0  0  0  0
  2  3  1  0  0  0  0
  2 34  1  0  0  0  0
  3  4  1  0  0  0  0
  4  5  1  0  0  0  0
  4 35  1  0  0  0  0
  4 36  1  0  0  0  0
  5  6  1  0  0  0  0
  5 37  1  0  0  0  0
  5 38  1  0  0  0  0
  6  7  1  0  0  0  0
  6  8  1  0  0  0  0
  7 39  1  0  0  0  0
  8  9  1  0  0  0  0
  8 40  1  0  0  0  0
  8 41  1  0  0  0  0
  9 28  1  0  0  0  0
  9 10  1  0  0  0  0
 10 11  2  0  0  0  0
 10 42  1  0  0  0  0
 11 12  1  0  0  0  0
 12 28  2  0  0  0  0
 12 13  1  0  0  0  0
 13 14  1  0  0  0  0
 13 25  2  0  0  0  0
 14 23  1  0  0  0  0
 14 15  1  0  0  0  0
 15 16  1  0  0  0  0
 15 43  1  0  0  0  0
 15 44  1  0  0  0  0
 16 17  1  0  0  0  0
 16 45  1  0  0  0  0
 16 46  1  0  0  0  0
 17 29  1  0  0  0  0
 17 18  1  0  0  0  0
 17 23  1  0  0  0  0
 18 19  1  0  0  0  0
 18 20  1  0  0  0  0
 18 59  1  0  0  0  0
 19 47  1  0  0  0  0
 19 48  1  0  0  0  0
 19 49  1  0  0  0  0
 20 21  1  0  0  0  0
 20 50  1  0  0  0  0
 20 51  1  0  0  0  0
 21 22  1  0  0  0  0
 21 52  1  0  0  0  0
 21 53  1  0  0  0  0
 22 54  1  0  0  0  0
 23 30  1  0  0  0  0
 23 24  1  0  0  0  0
 24 55  1  0  0  0  0
 24 56  1  0  0  0  0
 24 57  1  0  0  0  0
 25 26  1  0  0  0  0
 26 27  2  0  0  0  0
 26 58  1  0  0  0  0
 27 28  1  0  0  0  0
M  CHG  1  18   1
M  END
> <s_m_source_file>
AV-unprocessed.smi

> <i_m_source_file_index>
290

> <i_lp_mmshare_version>
43012

> <i_f3d_flags>
0

> <s_epik_input>
W0NIMl0xW0NIMl1PW0NAQEhdKFtDSDNdKVtDQEBdMShbT0hdKVtDSDJdbihbY0hdbjIpYyhjMjMpbltjSF1uYzNONFtDSDJdW0NIMl1bQ0BIXShbQ0BIXTRbQ0gzXSlOKFtDSDNdKVtDSDJdW0NIMl1bT0hd

> <s_epik_cmdline>
J2VwaWtfcHl0aG9uJywgJy1waCcsICc3LjAnLCAnLXRuJywgJzgnLCAnLW1hJywgJzIwMCcsICctbWV0YWxfYmluZGluZycsICctaW1hZScsICc8aW5maWxlLm1hZT4nLCAnLW9tYWUnLCAnPG91dGZpbGUubWFlPic=

> <r_lp_tautomer_probability>
1

> <r_epik_Ionization_Penalty>
0.0036983

> <r_epik_Ionization_Penalty_Charging>
0.0032725

> <r_epik_Ionization_Penalty_Neutral>
0.000425798

> <r_epik_State_Penalty>
-0

> <r_epik_Charging_Adjusted_Penalty>
0.0032725

> <i_epik_Tot_Q>
1

> <i_epik_Tot_abs_Q>
1

> <r_epik_Metal_State_Penalty>
-0

> <b_epik_Metal_Only>
0

> <s_lp_Force_Field>
OPLS_2005

> <r_lp_Energy>
65.3188

> <b_lp_Chiralities_Consistent>
1

> <s_lp_Variant>
AV-unprocessed.smi:290-1

> <Gold.Version>
5.8.1

> <Gold.Id.Protein>
6NUR|6NUR_protein|mol2

> <Gold.PLP.Fitness>
51.0181

> <Gold.PLP.PLP>
-42.4840

> <Gold.PLP.part.hbond>
-3.0000

> <Gold.PLP.part.metal>
0.0000

> <Gold.PLP.part.buried>
-0.7171

> <Gold.PLP.part.nonpolar>
-39.3595

> <Gold.PLP.part.repulsive>
0.3990

> <Gold.PLP.ligand.clash>
0.0000

> <Gold.PLP.ligand.torsion>
1.9110

> <Gold.PLP.Chemscore.Hbond>
4.0000

> <Gold.PLP.Chemscore.CHOScore>
0.0000

> <Gold.PLP.Chemscore.Metal>
0.0000

> <Gold.Chemscore.Hbonds>
donor molecule, donor type, donor heavy atom, donor atom, acceptor molecule, acceptor atom, score
      L1  H    18    59       P1 10175  2.00
      P1  H  7989  7998       L1    25  0.90
      P1  H  7997  8009       L1    27  1.00

> <Gold.PLP.Chemscore.Internal.Correction>
0.3562

> <Gold.Rescore>
     Score         DG    S(hbond)    S(metal)    S(lipo)     H(rot)  DE(clash)    DE(int)     intcor
      7.34     -12.72       1.34        0.00     103.95       3.67       1.81       3.57       ----

> <Gold.Chemscore.Fitness>
7.3408

> <Gold.Chemscore.DG>
-12.7221

> <Gold.Chemscore.ZeroCoef>
-5.4800

> <Gold.Chemscore.Hbond>
1.3368

> <Gold.Chemscore.Metal>
0.0000

> <Gold.Chemscore.Lipo>
103.9454

> <Gold.Chemscore.Internal_Hbond>
0.0000

> <Gold.Chemscore.DEClash>
1.8128

> <Gold.Chemscore.DEInternal>
3.5685

> <Gold.Chemscore.Rot>
3.6658

> <Gold.Chemscore.Internal.Correction>
   9.000000E+99

> <Gold.Chemscore.Hbonds>
donor molecule, donor type, donor heavy atom, donor atom, acceptor molecule, acceptor atom, score
      L1  H    18    59       P1 10175  0.92
      P1  H  7989  7998       L1    25  0.07
      P1  H  7997  8009       L1    27  0.30

> <Gold.Chemscore.Hbond.Weighted>
-4.4649

> <Gold.Chemscore.Metal.Weighted>
-0.0000

> <Gold.Chemscore.Lipo.Weighted>
-12.1616

> <Gold.Chemscore.Internal_Hbond.Weighted>
0.0000

> <Gold.Chemscore.DEClash.Weighted>
1.8128

> <Gold.Chemscore.DEInternal.Weighted>
3.5685

> <Gold.Chemscore.Rot.Weighted>
9.3844

> <Gold.Chemscore.Internal.Correction.Weighted>
   9.000000E+99

> <Gold.Protein.RotatedTorsions>
[ 6907 6896 6895 6894 ] final  101.33 input  -60.11 | X-H torsion
[ 7974 7965 7964 7962 ] final   -6.71 input  175.53 | X-H torsion
[ 8008 7997 7996 7995 ] final -172.90 input   59.86 | X-H torsion
[ 10167 10162 10161 10158 ] final  -20.72 input  -65.29 | X-H torsion
[ 10718 10713 10712 10709 ] final   31.12 input   66.30 | X-H torsion
[ 10763 10752 10751 10750 ] final -120.66 input  -60.55 | X-H torsion
[ 11005 11000 10999 10996 ] final   35.13 input  -57.11 | X-H torsion

> <Gold.Protein.ActiveResidues>
 VAL166  LYS551  ARG553  GLY616  TRP617  ASP618  TYR619  PRO620  LYS621  CYS622 
 ASP623  PHE694  ASN695  SER759  ASP760  ASP761  ALA762  ILE779  LEU786  VAL792 
 PHE793  MET794  SER795  GLU796  ALA797  LYS798  CYS799  TRP800  GLU811  SER814 

> <Gold.Protein.RotatedAtoms>
  152.5352  134.0142  159.7952 H   0  0  0  0  0  0  0  0  0  0  0  0  # atno 6907 bound_to 6896
  151.0339  133.5758  159.2665 H   0  0  0  0  0  0  0  0  0  0  0  0  # atno 6908 bound_to 6896
  151.2752  135.0704  159.9202 H   0  0  0  0  0  0  0  0  0  0  0  0  # atno 6909 bound_to 6896
  146.2324  140.2212  142.8337 H   0  0  0  0  0  0  0  0  0  0  0  0  # atno 7974 bound_to 7965
  155.9506  140.1125  157.0980 H   0  0  0  0  0  0  0  0  0  0  0  0  # atno 8008 bound_to 7997
  154.4109  140.1201  156.5113 H   0  0  0  0  0  0  0  0  0  0  0  0  # atno 8009 bound_to 7997
  155.6847  140.3473  155.4871 H   0  0  0  0  0  0  0  0  0  0  0  0  # atno 8010 bound_to 7997
  140.7278  143.4696  151.0266 H   0  0  0  0  0  0  0  0  0  0  0  0  # atno 10167 bound_to 10162
  157.2684  130.7196  149.6491 H   0  0  0  0  0  0  0  0  0  0  0  0  # atno 10718 bound_to 10713
  154.8649  135.4195  154.2495 H   0  0  0  0  0  0  0  0  0  0  0  0  # atno 10763 bound_to 10752
  153.3444  135.6995  153.6846 H   0  0  0  0  0  0  0  0  0  0  0  0  # atno 10764 bound_to 10752
  153.5811  135.3572  155.2848 H   0  0  0  0  0  0  0  0  0  0  0  0  # atno 10765 bound_to 10752
  140.2458  134.3361  155.7908 H   0  0  0  0  0  0  0  0  0  0  0  0  # atno 11005 bound_to 11000
  144.9631  140.8294  143.5501 LP  0  0  0  0  0  0  0  0  0  0  0  0  # atno 17320 bound_to 7965
  145.2185  139.2170  143.5106 LP  0  0  0  0  0  0  0  0  0  0  0  0  # atno 17321 bound_to 7965
  139.8386  143.7594  152.3180 LP  0  0  0  0  0  0  0  0  0  0  0  0  # atno 17342 bound_to 10162
  139.7734  144.7469  151.0191 LP  0  0  0  0  0  0  0  0  0  0  0  0  # atno 17343 bound_to 10162
  155.9663  130.4375  150.5179 LP  0  0  0  0  0  0  0  0  0  0  0  0  # atno 17370 bound_to 10713
  157.3098  131.0661  151.2009 LP  0  0  0  0  0  0  0  0  0  0  0  0  # atno 17371 bound_to 10713
  141.2206  133.7325  156.8958 LP  0  0  0  0  0  0  0  0  0  0  0  0  # atno 17394 bound_to 11000
  140.1608  134.9167  157.2712 LP  0  0  0  0  0  0  0  0  0  0  0  0  # atno 17395 bound_to 11000

$$$$
