#       Name:                AV-unprocessed.smi:234
#       Creating user name   scv26
#       Creation time:       Thu Mar 26 20:34:55 2020


#       File generated by GOLD software.
#

@<TRIPOS>MOLECULE
AV-unprocessed.smi:234
    69    72     1
SMALL
NO_CHARGES


@<TRIPOS>ATOM
      1 ****        -5.9701  -1.5740   3.9321 C.3            1 S1                 0.0000
      2 ****        -5.2714  -0.2281   3.7274 C.3            1 S1                 0.0000
      3 ****        -4.3358  -0.3542   2.6701 O.3            1 S1                 0.0000
      4 ****        -3.6292   0.8489   2.4105 C.3            1 S1                 0.0000
      5 ****        -2.5073   1.1564   3.4059 C.3            1 S1                 0.0000
      6 ****        -1.7334   1.6810   2.1936 C.3            1 S1                 0.0000
      7 ****        -0.2940   1.4135   2.2505 N.3            1 S1                 0.0000
      8 ****         0.4370   2.0283   3.3510 C.3            1 S1                 0.0000
      9 ****         0.3760   1.5793   1.0861 C.ar           1 S1                 0.0000
     10 ****         0.1043   2.6436   0.2847 N.ar           1 S1                 0.0000
     11 ****         0.7678   2.8019  -0.8645 C.ar           1 S1                 0.0000
     12 ****         1.7240   2.0324  -1.3897 N.ar           1 S1                 0.0000
     13 ****         2.0025   0.9686  -0.5824 C.ar           1 S1                 0.0000
     14 ****         1.3864   0.6746   0.6655 C.ar           1 S1                 0.0000
     15 ****         1.9280  -0.4854   1.2043 N.2            1 S1                 0.0000
     16 ****         2.8129  -0.8598   0.3208 C.2            1 S1                 0.0000
     17 ****         2.9178  -0.0484  -0.7871 N.pl3          1 S1                 0.0000
     18 ****         3.8091  -0.2306  -1.9212 C.3            1 S1                 0.0000
     19 ****         3.1993  -1.0933  -3.0520 C.3            1 S1                 0.0000
     20 ****         2.0252  -0.4555  -3.5302 O.3            1 S1                 0.0000
     21 ****         2.8292  -2.5058  -2.6229 C.3            1 S1                 0.0000
     22 ****         2.8764  -3.2722  -3.9385 C.3            1 S1                 0.0000
     23 ****         3.9739  -2.7044  -4.6393 O.3            1 S1                 0.0000
     24 ****         4.1920  -1.3621  -4.2068 C.3            1 S1                 0.0000
     25 ****         4.1418  -0.3905  -5.3971 C.3            1 S1                 0.0000
     26 ****        -2.5568   0.7052   1.3022 C.3            1 S1                 0.0000
     27 ****        -2.0044  -0.7180   1.0994 C.3            1 S1                 0.0000
     28 ****        -2.9674   1.2269  -0.0746 C.3            1 S1                 0.0000
     29 ****        -6.6954  -1.5167   4.7437 H              1 S1                 0.0000
     30 ****        -5.2502  -2.3542   4.1805 H              1 S1                 0.0000
     31 ****        -6.5003  -1.8811   3.0303 H              1 S1                 0.0000
     32 ****        -6.0070   0.5410   3.4880 H              1 S1                 0.0000
     33 ****        -4.7675   0.0710   4.6474 H              1 S1                 0.0000
     34 ****        -4.2877   1.7042   2.2391 H              1 S1                 0.0000
     35 ****        -2.7544   1.9126   4.1512 H              1 S1                 0.0000
     36 ****        -2.0742   0.2637   3.8604 H              1 S1                 0.0000
     37 ****        -1.9794   2.7269   1.9970 H              1 S1                 0.0000
     38 ****         1.4922   1.7525   3.3311 H              1 S1                 0.0000
     39 ****         0.0313   1.7037   4.3091 H              1 S1                 0.0000
     40 ****         0.3650   3.1153   3.3011 H              1 S1                 0.0000
     41 ****         0.4918   3.6680  -1.4475 H              1 S1                 0.0000
     42 ****         3.4136  -1.7481   0.4513 H              1 S1                 0.0000
     43 ****         4.0873   0.7522  -2.3040 H              1 S1                 0.0000
     44 ****         4.7300  -0.6856  -1.5540 H              1 S1                 0.0000
     45 ****         2.2584   0.4024  -3.8507 H              1 S1                 0.0000
     46 ****         3.5871  -2.9066  -1.9484 H              1 S1                 0.0000
     47 ****         1.8633  -2.5753  -2.1208 H              1 S1                 0.0000
     48 ****         3.0031  -4.3456  -3.7972 H              1 S1                 0.0000
     49 ****         1.9640  -3.1088  -4.5137 H              1 S1                 0.0000
     50 ****         5.2065  -1.3512  -3.8061 H              1 S1                 0.0000
     51 ****         4.2984   0.6380  -5.0710 H              1 S1                 0.0000
     52 ****         3.1852  -0.4397  -5.9179 H              1 S1                 0.0000
     53 ****         4.9199  -0.6300  -6.1221 H              1 S1                 0.0000
     54 ****        -1.1867  -0.7368   0.3787 H              1 S1                 0.0000
     55 ****        -2.7745  -1.3931   0.7252 H              1 S1                 0.0000
     56 ****        -1.6244  -1.1490   2.0256 H              1 S1                 0.0000
     57 ****        -2.1359   1.2022  -0.7796 H              1 S1                 0.0000
     58 ****        -3.3153   2.2588  -0.0235 H              1 S1                 0.0000
     59 ****        -3.7763   0.6322  -0.5000 H              1 S1                 0.0000
     60 ****        -4.8261  -0.6215   1.8405 LP             1 S1                 0.0000
     61 ****        -3.6760  -1.0659   2.9112 LP             1 S1                 0.0000
     62 ****        -0.3132   0.4327   2.4446 LP             1 S1                 0.0000
     63 ****        -0.5923   3.3081   0.5553 LP             1 S1                 0.0000
     64 ****         2.1776   2.2126  -2.2625 LP             1 S1                 0.0000
     65 ****         1.6942  -0.9306   2.0687 LP             1 S1                 0.0000
     66 ****         1.3620  -0.3689  -2.7868 LP             1 S1                 0.0000
     67 ****         1.6263  -0.9954  -4.2715 LP             1 S1                 0.0000
     68 ****         3.7774  -2.7080  -5.6198 LP             1 S1                 0.0000
     69 ****         4.7953  -3.2464  -4.4620 LP             1 S1                 0.0000
@<TRIPOS>BOND
    1    1    2 1     
    2    1   29 1     
    3    1   30 1     
    4    1   31 1     
    5    2    3 1     
    6    2   32 1     
    7    2   33 1     
    8    3    4 1     
    9    4   26 1     
   10    4    5 1     
   11    4   34 1     
   12    5    6 1     
   13    5   35 1     
   14    5   36 1     
   15    6    7 1     
   16    6   26 1     
   17    6   37 1     
   18    7    8 1     
   19    7    9 1     
   20    8   38 1     
   21    8   39 1     
   22    8   40 1     
   23    9   14 ar    
   24    9   10 ar    
   25   10   11 ar    
   26   11   12 ar    
   27   11   41 1     
   28   12   13 ar    
   29   13   17 1     
   30   13   14 ar    
   31   14   15 1     
   32   15   16 2     
   33   16   17 1     
   34   16   42 1     
   35   17   18 1     
   36   18   19 1     
   37   18   43 1     
   38   18   44 1     
   39   19   24 1     
   40   19   20 1     
   41   19   21 1     
   42   20   45 1     
   43   21   22 1     
   44   21   46 1     
   45   21   47 1     
   46   22   23 1     
   47   22   48 1     
   48   22   49 1     
   49   23   24 1     
   50   24   25 1     
   51   24   50 1     
   52   25   51 1     
   53   25   52 1     
   54   25   53 1     
   55   26   27 1     
   56   26   28 1     
   57   27   54 1     
   58   27   55 1     
   59   27   56 1     
   60   28   57 1     
   61   28   58 1     
   62   28   59 1     
   63    3   60 1     
   64    3   61 1     
   65    7   62 1     
   66   10   63 1     
   67   12   64 1     
   68   15   65 1     
   69   20   66 1     
   70   20   67 1     
   71   23   68 1     
   72   23   69 1     
@<TRIPOS>SUBSTRUCTURE
      1 S1             1
@<TRIPOS>SET
LONE_PAIRS      STATIC     ATOMS    <user>   **** ""
10 60 61 62 63 64 65 66 67 68 69
DONOR_HYDROGENS      STATIC     ATOMS    <user>   **** ""
1 45
ATOM$BLUE        STATIC     ATOMS    COLORGROUP SYSTEM
10 60 61 62 63 64 65 66 67 68 69
ATOM$RED        STATIC     ATOMS    COLORGROUP SYSTEM
1 45
