AV-unprocessed.smi:160|AV-procd|sdf|1365|dock3
  -GOLD-   2262019 73D 1   1.00000     0.00000
 Structure written by MMmdl.
 28 29  0  0  0  0  0  0  0  0  2 V2000
  153.3188  139.4282  154.7385 N   0  5  0  0  0  0  0  0  0  0  0  0
  152.1843  138.6959  154.7781 C   0  0  0  0  0  0  0  0  0  0  0  0
  152.1076  137.4692  154.7196 O   0  0  0  0  0  0  0  0  0  0  0  0
  150.9184  139.5087  154.9104 C   0  0  0  0  0  0  0  0  0  0  0  0
  150.9656  140.8095  155.3293 N   0  0  0  0  0  0  0  0  0  0  0  0
  149.6705  141.0919  155.2891 C   0  0  0  0  0  0  0  0  0  0  0  0
  148.8988  140.0837  154.8722 N   0  0  0  0  0  0  0  0  0  0  0  0
  147.4032  140.0265  154.7446 C   0  0  2  0  0  0  0  0  0  0  0  0
  147.0622  138.7948  154.1942 O   0  0  0  0  0  0  0  0  0  0  0  0
  147.0755  138.8924  152.7762 C   0  0  1  0  0  0  0  0  0  0  0  0
  146.2109  137.7766  152.1700 C   0  0  0  0  0  0  0  0  0  0  0  0
  146.4086  137.7097  150.7737 O   0  0  0  0  0  0  0  0  0  0  0  0
  146.5177  140.3030  152.5196 C   0  0  2  0  0  0  0  0  0  0  0  0
  147.1543  140.8739  151.3941 O   0  0  0  0  0  0  0  0  0  0  0  0
  146.8518  141.0980  153.7868 C   0  0  1  0  0  0  0  0  0  0  0  0
  145.6889  141.7029  154.3164 O   0  0  0  0  0  0  0  0  0  0  0  0
  149.7060  139.0186  154.6351 N   0  0  0  0  0  0  0  0  0  0  0  0
  147.0472  140.1193  155.7715 H   0  0  0  0  0  0  0  0  0  0  0  0
  148.1037  138.8186  152.4171 H   0  0  0  0  0  0  0  0  0  0  0  0
  145.4392  140.2667  152.3552 H   0  0  0  0  0  0  0  0  0  0  0  0
  147.5878  141.8859  153.6197 H   0  0  0  0  0  0  0  0  0  0  0  0
  154.0297  139.1906  154.0363 H   0  0  0  0  0  0  0  0  0  0  0  0
  149.2745  142.0557  155.5729 H   0  0  0  0  0  0  0  0  0  0  0  0
  146.4253  136.8125  152.6322 H   0  0  0  0  0  0  0  0  0  0  0  0
  145.1551  137.9900  152.3392 H   0  0  0  0  0  0  0  0  0  0  0  0
  145.7831  138.2792  150.3533 H   0  0  0  0  0  0  0  0  0  0  0  0
  148.0718  140.6497  151.4222 H   0  0  0  0  0  0  0  0  0  0  0  0
  144.9511  141.4479  153.7836 H   0  0  0  0  0  0  0  0  0  0  0  0
  1  2  1  0  0  0  0
  1 22  1  0  0  0  0
  2  3  2  0  0  0  0
  2  4  1  0  0  0  0
  4 17  2  0  0  0  0
  4  5  1  0  0  0  0
  5  6  2  0  0  0  0
  6  7  1  0  0  0  0
  6 23  1  0  0  0  0
  7  8  1  0  0  0  0
  7 17  1  0  0  0  0
  8 18  1  0  0  0  0
  8 15  1  0  0  0  0
  8  9  1  0  0  0  0
  9 10  1  0  0  0  0
 10 19  1  0  0  0  0
 10 11  1  0  0  0  0
 10 13  1  0  0  0  0
 11 12  1  0  0  0  0
 11 24  1  0  0  0  0
 11 25  1  0  0  0  0
 12 26  1  0  0  0  0
 13 20  1  0  0  0  0
 13 14  1  0  0  0  0
 13 15  1  0  0  0  0
 14 27  1  0  0  0  0
 15 21  1  0  0  0  0
 15 16  1  0  0  0  0
 16 28  1  0  0  0  0
M  CHG  1   1  -1
M  END
> <s_m_source_file>
AV-unprocessed.smi

> <i_m_source_file_index>
160

> <i_lp_mmshare_version>
43012

> <i_f3d_flags>
0

> <s_epik_input>
W05IMl1DKD1PKWMxbltjSF1uKG4xKVtDQEBIXTJPW0NASF0oW0NIMl1bT0hdKVtDQEBIXShbT0hdKVtDQEhdMltPSF0=

> <s_epik_cmdline>
J2VwaWtfcHl0aG9uJywgJy1waCcsICc3LjAnLCAnLXRuJywgJzgnLCAnLW1hJywgJzIwMCcsICctbWV0YWxfYmluZGluZycsICctaW1hZScsICc8aW5maWxlLm1hZT4nLCAnLW9tYWUnLCAnPG91dGZpbGUubWFlPic=

> <r_lp_tautomer_probability>
1

> <r_epik_Ionization_Penalty>
6.6993

> <r_epik_Ionization_Penalty_Charging>
6.6993

> <r_epik_Ionization_Penalty_Neutral>
6.01698e-06

> <r_epik_State_Penalty>
6.69929

> <r_epik_Charging_Adjusted_Penalty>
13.3986

> <i_epik_Tot_Q>
-1

> <i_epik_Tot_abs_Q>
1

> <r_epik_Metal_State_Penalty>
2.62798

> <b_epik_Metal_Only>
1

> <s_epik_Chemistry_Notes>
This compound contains an acetal/aminal-like group ( X-CH(R)-Y where X, Y are N, S, or O) that may be acid/base labile, releasing an aldehyde.

> <s_lp_Force_Field>
OPLS_2005

> <r_lp_Energy>
36.7288

> <b_lp_Chiralities_Consistent>
1

> <s_lp_Variant>
AV-unprocessed.smi:160-23

> <Gold.Version>
5.8.1

> <Gold.Id.Protein>
6NUR|6NUR_protein|mol2

> <Gold.PLP.Fitness>
45.6063

> <Gold.PLP.PLP>
-23.8326

> <Gold.PLP.part.hbond>
-8.9227

> <Gold.PLP.part.metal>
0.0000

> <Gold.PLP.part.buried>
5.5434

> <Gold.PLP.part.nonpolar>
-21.5649

> <Gold.PLP.part.repulsive>
0.4361

> <Gold.PLP.ligand.clash>
0.0000

> <Gold.PLP.ligand.torsion>
0.2682

> <Gold.PLP.Chemscore.Hbond>
6.8000

> <Gold.PLP.Chemscore.CHOScore>
0.6250

> <Gold.PLP.Chemscore.Metal>
0.0000

> <Gold.Chemscore.Hbonds>
donor molecule, donor type, donor heavy atom, donor atom, acceptor molecule, acceptor atom, score
      L1  H    12    26       P1 10171  0.98
      L1  H    14    27       P1  7957  1.00
      L1  H    16    28       P1 10175  0.98
      P1  H  7954  7966       L1    12  1.00
      P1  H  7997  8010       L1     1  2.00
      P1  H 10752 10765       L1     3  0.82
      L1  C     6    23       P1  8028  0.60

> <Gold.PLP.Chemscore.Internal.Correction>
0.0352

> <Gold.Rescore>
     Score         DG    S(hbond)    S(metal)    S(lipo)     H(rot)  DE(clash)    DE(int)     intcor
     10.77     -13.99       4.61        0.00      29.69       4.04       2.86       0.36       ----

> <Gold.Chemscore.Fitness>
10.7686

> <Gold.Chemscore.DG>
-13.9946

> <Gold.Chemscore.ZeroCoef>
-5.4800

> <Gold.Chemscore.Hbond>
4.6061

> <Gold.Chemscore.Metal>
0.0000

> <Gold.Chemscore.Lipo>
29.6856

> <Gold.Chemscore.Internal_Hbond>
0.0000

> <Gold.Chemscore.DEClash>
2.8642

> <Gold.Chemscore.DEInternal>
0.3618

> <Gold.Chemscore.Rot>
4.0403

> <Gold.Chemscore.Internal.Correction>
   9.000000E+99

> <Gold.Chemscore.Hbonds>
donor molecule, donor type, donor heavy atom, donor atom, acceptor molecule, acceptor atom, score
      L1  H    12    26       P1 10171  0.90
      L1  H    14    27       P1  7957  0.99
      L1  H    16    28       P1 10175  0.23
      P1  H  7954  7966       L1    12  0.71
      P1  H  7997  8010       L1     1  0.25
      P1  H 10752 10765       L1     3  0.77

> <Gold.Chemscore.Hbond.Weighted>
-15.3844

> <Gold.Chemscore.Metal.Weighted>
-0.0000

> <Gold.Chemscore.Lipo.Weighted>
-3.4732

> <Gold.Chemscore.Internal_Hbond.Weighted>
0.0000

> <Gold.Chemscore.DEClash.Weighted>
2.8642

> <Gold.Chemscore.DEInternal.Weighted>
0.3618

> <Gold.Chemscore.Rot.Weighted>
10.3431

> <Gold.Chemscore.Internal.Correction.Weighted>
   9.000000E+99

> <Gold.Protein.RotatedTorsions>
[ 6907 6896 6895 6894 ] final  175.56 input  -60.11 | X-H torsion
[ 7974 7965 7964 7962 ] final   75.77 input  175.53 | X-H torsion
[ 8008 7997 7996 7995 ] final   93.55 input   59.86 | X-H torsion
[ 10167 10162 10161 10158 ] final  118.75 input  -65.29 | X-H torsion
[ 10718 10713 10712 10709 ] final   40.49 input   66.30 | X-H torsion
[ 10763 10752 10751 10750 ] final  169.74 input  -60.55 | X-H torsion
[ 11005 11000 10999 10996 ] final    9.53 input  -57.11 | X-H torsion

> <Gold.Protein.ActiveResidues>
 VAL166  LYS551  ARG553  GLY616  TRP617  ASP618  TYR619  PRO620  LYS621  CYS622 
 ASP623  PHE694  ASN695  SER759  ASP760  ASP761  ALA762  ILE779  LEU786  VAL792 
 PHE793  MET794  SER795  GLU796  ALA797  LYS798  CYS799  TRP800  GLU811  SER814 

> <Gold.Protein.RotatedAtoms>
  151.7343  133.3319  159.3348 H   0  0  0  0  0  0  0  0  0  0  0  0  # atno 6907 bound_to 6896
  150.7600  134.6336  159.6208 H   0  0  0  0  0  0  0  0  0  0  0  0  # atno 6908 bound_to 6896
  152.3572  134.6926  160.0270 H   0  0  0  0  0  0  0  0  0  0  0  0  # atno 6909 bound_to 6896
  145.7113  139.2616  143.1649 H   0  0  0  0  0  0  0  0  0  0  0  0  # atno 7974 bound_to 7965
  156.0480  140.3311  155.7318 H   0  0  0  0  0  0  0  0  0  0  0  0  # atno 8008 bound_to 7997
  155.5644  140.0622  157.2839 H   0  0  0  0  0  0  0  0  0  0  0  0  # atno 8009 bound_to 7997
  154.4422  140.1871  156.0804 H   0  0  0  0  0  0  0  0  0  0  0  0  # atno 8010 bound_to 7997
  139.6091  144.7077  151.2886 H   0  0  0  0  0  0  0  0  0  0  0  0  # atno 10167 bound_to 10162
  157.3827  130.7763  149.7206 H   0  0  0  0  0  0  0  0  0  0  0  0  # atno 10718 bound_to 10713
  154.3875  135.2754  155.2174 H   0  0  0  0  0  0  0  0  0  0  0  0  # atno 10763 bound_to 10752
  154.4255  135.5990  153.6039 H   0  0  0  0  0  0  0  0  0  0  0  0  # atno 10764 bound_to 10752
  152.9833  135.5983  154.4126 H   0  0  0  0  0  0  0  0  0  0  0  0  # atno 10765 bound_to 10752
  140.5247  134.0525  155.7855 H   0  0  0  0  0  0  0  0  0  0  0  0  # atno 11005 bound_to 11000
  146.0709  140.7869  142.9688 LP  0  0  0  0  0  0  0  0  0  0  0  0  # atno 17320 bound_to 7965
  144.6941  140.3341  143.7211 LP  0  0  0  0  0  0  0  0  0  0  0  0  # atno 17321 bound_to 7965
  140.7306  143.6875  150.7949 LP  0  0  0  0  0  0  0  0  0  0  0  0  # atno 17342 bound_to 10162
  140.0466  143.5291  152.2693 LP  0  0  0  0  0  0  0  0  0  0  0  0  # atno 17343 bound_to 10162
  155.9779  130.4057  150.3679 LP  0  0  0  0  0  0  0  0  0  0  0  0  # atno 17370 bound_to 10713
  157.1785  131.0386  151.2760 LP  0  0  0  0  0  0  0  0  0  0  0  0  # atno 17371 bound_to 10713
  141.1315  133.9294  157.2525 LP  0  0  0  0  0  0  0  0  0  0  0  0  # atno 17394 bound_to 11000
  139.9587  135.0159  156.9200 LP  0  0  0  0  0  0  0  0  0  0  0  0  # atno 17395 bound_to 11000

$$$$
