AV-unprocessed.smi:99|AV-procd|sdf|888|dock10
  -GOLD-   2262017373D 1   1.00000     0.00000
 Structure written by MMmdl.
 52 55  0  0  0  0  0  0  0  0  2 V2000
  149.3231  133.1880  158.4446 O   0  0  0  0  0  0  0  0  0  0  0  0
  148.8516  134.3267  158.4581 C   0  0  0  0  0  0  0  0  0  0  0  0
  148.6593  135.0704  157.3501 O   0  0  0  0  0  0  0  0  0  0  0  0
  148.8396  134.4952  156.0650 C   0  0  0  0  0  0  0  0  0  0  0  0
  149.6069  135.4718  155.1520 C   0  0  1  0  0  0  0  0  0  0  0  0
  150.6696  136.0388  155.9091 O   0  0  0  0  0  0  0  0  0  0  0  0
  151.8377  135.3274  155.6436 C   0  0  2  0  0  0  0  0  0  0  0  0
  153.0403  136.0832  156.1909 N   0  0  0  0  0  0  0  0  0  0  0  0
  153.9348  135.4943  157.0733 C   0  0  0  0  0  0  0  0  0  0  0  0
  154.9765  136.1779  157.5900 C   0  0  0  0  0  0  0  0  0  0  0  0
  155.1600  137.5802  157.2327 C   0  0  0  0  0  0  0  0  0  0  0  0
  156.1392  138.1835  157.6670 O   0  0  0  0  0  0  0  0  0  0  0  0
  154.2223  138.1638  156.4335 N   0  5  0  0  0  0  0  0  0  0  0  0
  153.1550  137.4791  155.9280 C   0  0  0  0  0  0  0  0  0  0  0  0
  152.2748  138.0223  155.2600 O   0  0  0  0  0  0  0  0  0  0  0  0
  151.7760  135.1364  154.1180 C   0  0  2  0  0  0  0  0  0  0  0  0
  152.1311  136.2874  153.3719 O   0  0  0  0  0  0  0  0  0  0  0  0
  150.2910  134.8639  153.9028 C   0  0  1  0  0  0  0  0  0  0  0  0
  150.0848  133.4570  153.7913 O   0  0  0  0  0  0  0  0  0  0  0  0
  148.9675  132.9514  153.2196 C   0  0  0  0  0  0  0  0  0  0  0  0
  148.0434  133.6404  152.7837 O   0  0  0  0  0  0  0  0  0  0  0  0
  148.9479  131.4605  153.2153 C   0  0  0  0  0  0  0  0  0  0  0  0
  150.0524  130.7524  153.7438 C   0  0  0  0  0  0  0  0  0  0  0  0
  150.0819  129.3448  153.7162 C   0  0  0  0  0  0  0  0  0  0  0  0
  149.0061  128.6278  153.1613 C   0  0  0  0  0  0  0  0  0  0  0  0
  147.8992  129.3203  152.6365 C   0  0  0  0  0  0  0  0  0  0  0  0
  147.8676  130.7280  152.6639 C   0  0  0  0  0  0  0  0  0  0  0  0
  148.3858  135.0090  159.6992 C   0  0  0  0  0  0  0  0  0  0  0  0
  148.1922  136.4100  159.6878 C   0  0  0  0  0  0  0  0  0  0  0  0
  147.7899  137.0877  160.8547 C   0  0  0  0  0  0  0  0  0  0  0  0
  147.5741  136.3722  162.0469 C   0  0  0  0  0  0  0  0  0  0  0  0
  147.7592  134.9776  162.0701 C   0  0  0  0  0  0  0  0  0  0  0  0
  148.1617  134.2982  160.9042 C   0  0  0  0  0  0  0  0  0  0  0  0
  149.3954  133.5631  156.1701 H   0  0  0  0  0  0  0  0  0  0  0  0
  147.8778  134.2476  155.6130 H   0  0  0  0  0  0  0  0  0  0  0  0
  148.9396  136.2814  154.8546 H   0  0  0  0  0  0  0  0  0  0  0  0
  151.8388  134.3783  156.1836 H   0  0  0  0  0  0  0  0  0  0  0  0
  153.8027  134.4713  157.3884 H   0  0  0  0  0  0  0  0  0  0  0  0
  155.6565  135.6985  158.2789 H   0  0  0  0  0  0  0  0  0  0  0  0
  152.4117  134.3031  153.8152 H   0  0  0  0  0  0  0  0  0  0  0  0
  151.8864  136.1431  152.4705 H   0  0  0  0  0  0  0  0  0  0  0  0
  149.9475  135.3844  153.0077 H   0  0  0  0  0  0  0  0  0  0  0  0
  150.8953  131.2811  154.1649 H   0  0  0  0  0  0  0  0  0  0  0  0
  150.9335  128.8154  154.1174 H   0  0  0  0  0  0  0  0  0  0  0  0
  149.0305  127.5483  153.1368 H   0  0  0  0  0  0  0  0  0  0  0  0
  147.0738  128.7713  152.2077 H   0  0  0  0  0  0  0  0  0  0  0  0
  147.0074  131.2283  152.2437 H   0  0  0  0  0  0  0  0  0  0  0  0
  148.3615  136.9816  158.7867 H   0  0  0  0  0  0  0  0  0  0  0  0
  147.6504  138.1584  160.8356 H   0  0  0  0  0  0  0  0  0  0  0  0
  147.2679  136.8924  162.9425 H   0  0  0  0  0  0  0  0  0  0  0  0
  147.5958  134.4274  162.9849 H   0  0  0  0  0  0  0  0  0  0  0  0
  148.3032  133.2288  160.9584 H   0  0  0  0  0  0  0  0  0  0  0  0
  1  2  2  0  0  0  0
  2  3  1  0  0  0  0
  2 28  1  0  0  0  0
  3  4  1  0  0  0  0
  4  5  1  0  0  0  0
  4 34  1  0  0  0  0
  4 35  1  0  0  0  0
  5 18  1  0  0  0  0
  5  6  1  0  0  0  0
  5 36  1  0  0  0  0
  6  7  1  0  0  0  0
  7  8  1  0  0  0  0
  7 16  1  0  0  0  0
  7 37  1  0  0  0  0
  8 14  1  0  0  0  0
  8  9  1  0  0  0  0
  9 10  2  0  0  0  0
  9 38  1  0  0  0  0
 10 11  1  0  0  0  0
 10 39  1  0  0  0  0
 11 12  2  0  0  0  0
 11 13  1  0  0  0  0
 13 14  1  0  0  0  0
 14 15  2  0  0  0  0
 16 17  1  0  0  0  0
 16 18  1  0  0  0  0
 16 40  1  0  0  0  0
 17 41  1  0  0  0  0
 18 19  1  0  0  0  0
 18 42  1  0  0  0  0
 19 20  1  0  0  0  0
 20 21  2  0  0  0  0
 20 22  1  0  0  0  0
 22 27  1  0  0  0  0
 22 23  2  0  0  0  0
 23 24  1  0  0  0  0
 23 43  1  0  0  0  0
 24 25  2  0  0  0  0
 24 44  1  0  0  0  0
 25 26  1  0  0  0  0
 25 45  1  0  0  0  0
 26 27  2  0  0  0  0
 26 46  1  0  0  0  0
 27 47  1  0  0  0  0
 28 33  1  0  0  0  0
 28 29  2  0  0  0  0
 29 30  1  0  0  0  0
 29 48  1  0  0  0  0
 30 31  2  0  0  0  0
 30 49  1  0  0  0  0
 31 32  1  0  0  0  0
 31 50  1  0  0  0  0
 32 33  2  0  0  0  0
 32 51  1  0  0  0  0
 33 52  1  0  0  0  0
M  CHG  1  13  -1
M  END
> <s_m_source_file>
AV-unprocessed.smi

> <i_m_source_file_index>
99

> <i_lp_mmshare_version>
43012

> <i_f3d_flags>
0

> <s_epik_input>
W2NIXTFbY0hdW2NIXVtjSF1bY0hdYzFDKD1PKU9bQ0gyXVtDQEBIXTJPW0NAQEhdKG4zW2NIXVtjSF1jKD1PKVtuSF1jMz1PKVtDQEBIXShbT0hdKVtDQEhdMk9DKD1PKWM0W2NIXVtjSF1bY0hdW2NIXVtjSF00

> <s_epik_cmdline>
J2VwaWtfcHl0aG9uJywgJy1waCcsICc3LjAnLCAnLXRuJywgJzgnLCAnLW1hJywgJzIwMCcsICctbWV0YWxfYmluZGluZycsICctaW1hZScsICc8aW5maWxlLm1hZT4nLCAnLW9tYWUnLCAnPG91dGZpbGUubWFlPic=

> <r_lp_tautomer_probability>
1

> <r_epik_Ionization_Penalty>
2.89159

> <r_epik_Ionization_Penalty_Charging>
2.1077e-08

> <r_epik_Ionization_Penalty_Neutral>
2.89159

> <r_epik_State_Penalty>
2.88671

> <r_epik_Charging_Adjusted_Penalty>
2.88671

> <i_epik_Tot_Q>
-1

> <i_epik_Tot_abs_Q>
1

> <r_epik_Metal_State_Penalty>
0.0727308

> <b_epik_Metal_Only>
1

> <s_epik_Chemistry_Notes>
This compound has an ester and may undergo hydrolysis at high or low pH. This compound contains an acetal/aminal-like group ( X-CH(R)-Y where X, Y are N, S, or O) that may be acid/base labile, releasing an aldehyde.

> <s_lp_Force_Field>
OPLS_2005

> <r_lp_Energy>
52.0393

> <b_lp_Chiralities_Consistent>
1

> <s_lp_Variant>
AV-unprocessed.smi:99-24

> <Gold.Version>
5.8.1

> <Gold.Id.Protein>
6NUR|6NUR_protein|mol2

> <Gold.PLP.Fitness>
50.6137

> <Gold.PLP.PLP>
-39.8030

> <Gold.PLP.part.hbond>
-4.8737

> <Gold.PLP.part.metal>
0.0000

> <Gold.PLP.part.buried>
1.7383

> <Gold.PLP.part.nonpolar>
-36.0729

> <Gold.PLP.part.repulsive>
0.3626

> <Gold.PLP.ligand.clash>
0.0000

> <Gold.PLP.ligand.torsion>
1.0258

> <Gold.PLP.Chemscore.Hbond>
4.1478

> <Gold.PLP.Chemscore.CHOScore>
0.0000

> <Gold.PLP.Chemscore.Metal>
0.0000

> <Gold.Chemscore.Hbonds>
donor molecule, donor type, donor heavy atom, donor atom, acceptor molecule, acceptor atom, score
      L1  H    17    41       P1  7949  0.19
      P1  H  6896  6907       L1     1  0.50
      P1  H  7997  8009       L1    12  0.59
      P1  H  7997  8010       L1    13  0.77

> <Gold.PLP.Chemscore.Internal.Correction>
0.4189

> <Gold.Rescore>
     Score         DG    S(hbond)    S(metal)    S(lipo)     H(rot)  DE(clash)    DE(int)     intcor
      9.73     -14.46       1.83        0.00      92.98       3.13       1.20       3.53       ----

> <Gold.Chemscore.Fitness>
9.7328

> <Gold.Chemscore.DG>
-14.4579

> <Gold.Chemscore.ZeroCoef>
-5.4800

> <Gold.Chemscore.Hbond>
1.8334

> <Gold.Chemscore.Metal>
0.0000

> <Gold.Chemscore.Lipo>
92.9810

> <Gold.Chemscore.Internal_Hbond>
0.0000

> <Gold.Chemscore.DEClash>
1.1952

> <Gold.Chemscore.DEInternal>
3.5300

> <Gold.Chemscore.Rot>
3.1346

> <Gold.Chemscore.Internal.Correction>
   9.000000E+99

> <Gold.Chemscore.Hbonds>
donor molecule, donor type, donor heavy atom, donor atom, acceptor molecule, acceptor atom, score
      L1  H    17    41       P1  7949  0.21
      P1  H  6896  6907       L1     1  0.02
      P1  H  7997  8009       L1    12  0.36
      P1  H  7997  8010       L1    13  0.28

> <Gold.Chemscore.Hbond.Weighted>
-6.1237

> <Gold.Chemscore.Metal.Weighted>
-0.0000

> <Gold.Chemscore.Lipo.Weighted>
-10.8788

> <Gold.Chemscore.Internal_Hbond.Weighted>
0.0000

> <Gold.Chemscore.DEClash.Weighted>
1.1952

> <Gold.Chemscore.DEInternal.Weighted>
3.5300

> <Gold.Chemscore.Rot.Weighted>
8.0246

> <Gold.Chemscore.Internal.Correction.Weighted>
   9.000000E+99

> <Gold.Protein.RotatedTorsions>
[ 6907 6896 6895 6894 ] final -119.86 input  -60.11 | X-H torsion
[ 7974 7965 7964 7962 ] final   89.94 input  175.53 | X-H torsion
[ 8008 7997 7996 7995 ] final   67.78 input   59.86 | X-H torsion
[ 10167 10162 10161 10158 ] final  -14.23 input  -65.29 | X-H torsion
[ 10718 10713 10712 10709 ] final  167.30 input   66.30 | X-H torsion
[ 10763 10752 10751 10750 ] final -100.10 input  -60.55 | X-H torsion
[ 11005 11000 10999 10996 ] final   84.20 input  -57.11 | X-H torsion

> <Gold.Protein.ActiveResidues>
 VAL166  LYS551  ARG553  GLY616  TRP617  ASP618  TYR619  PRO620  LYS621  CYS622 
 ASP623  PHE694  ASN695  SER759  ASP760  ASP761  ALA762  ILE779  LEU786  VAL792 
 PHE793  MET794  SER795  GLU796  ALA797  LYS798  CYS799  TRP800  GLU811  SER814 

> <Gold.Protein.RotatedAtoms>
  150.8342  133.8041  159.3086 H   0  0  0  0  0  0  0  0  0  0  0  0  # atno 6907 bound_to 6896
  151.5762  135.1059  160.0016 H   0  0  0  0  0  0  0  0  0  0  0  0  # atno 6908 bound_to 6896
  152.4417  133.7418  159.6701 H   0  0  0  0  0  0  0  0  0  0  0  0  # atno 6909 bound_to 6896
  145.5257  139.2281  143.2647 H   0  0  0  0  0  0  0  0  0  0  0  0  # atno 7974 bound_to 7965
  155.6982  140.3495  155.4922 H   0  0  0  0  0  0  0  0  0  0  0  0  # atno 8008 bound_to 7997
  155.9464  140.1111  157.1035 H   0  0  0  0  0  0  0  0  0  0  0  0  # atno 8009 bound_to 7997
  154.4113  140.1203  156.4981 H   0  0  0  0  0  0  0  0  0  0  0  0  # atno 8010 bound_to 7997
  140.7197  143.5344  150.9482 H   0  0  0  0  0  0  0  0  0  0  0  0  # atno 10167 bound_to 10162
  157.0534  131.0320  151.2672 H   0  0  0  0  0  0  0  0  0  0  0  0  # atno 10718 bound_to 10713
  154.7552  135.4947  153.9361 H   0  0  0  0  0  0  0  0  0  0  0  0  # atno 10763 bound_to 10752
  153.1187  135.6727  153.9380 H   0  0  0  0  0  0  0  0  0  0  0  0  # atno 10764 bound_to 10752
  153.9118  135.3098  155.3427 H   0  0  0  0  0  0  0  0  0  0  0  0  # atno 10765 bound_to 10752
  139.9007  134.8199  156.2412 H   0  0  0  0  0  0  0  0  0  0  0  0  # atno 11005 bound_to 11000
  146.2077  140.6071  142.9074 LP  0  0  0  0  0  0  0  0  0  0  0  0  # atno 17320 bound_to 7965
  144.7652  140.5514  143.6708 LP  0  0  0  0  0  0  0  0  0  0  0  0  # atno 17321 bound_to 7965
  139.9065  143.6772  152.3122 LP  0  0  0  0  0  0  0  0  0  0  0  0  # atno 17342 bound_to 10162
  139.7140  144.7615  151.1064 LP  0  0  0  0  0  0  0  0  0  0  0  0  # atno 17343 bound_to 10162
  157.5012  130.7881  149.7606 LP  0  0  0  0  0  0  0  0  0  0  0  0  # atno 17370 bound_to 10713
  156.0000  130.3885  150.2642 LP  0  0  0  0  0  0  0  0  0  0  0  0  # atno 17371 bound_to 10713
  141.0283  133.7002  156.1386 LP  0  0  0  0  0  0  0  0  0  0  0  0  # atno 17394 bound_to 11000
  140.7133  134.4438  157.5580 LP  0  0  0  0  0  0  0  0  0  0  0  0  # atno 17395 bound_to 11000

$$$$
