#       Name:                AV-unprocessed.smi:3256
#       Creating user name   scv26
#       Creation time:       Fri Mar 27 18:36:27 2020


#       File generated by GOLD software.
#

@<TRIPOS>MOLECULE
AV-unprocessed.smi:3256
    42    43     1
SMALL
NO_CHARGES


@<TRIPOS>ATOM
      1 ****        -1.0066   1.7098   0.0560 O.2            1 S1                 0.0000
      2 ****        -1.4851   0.8701  -0.7060 C.2            1 S1                 0.0000
      3 ****        -0.7550  -0.0891  -1.2926 N.am           1 S1                 0.0000
      4 ****         0.6850  -0.2567  -1.1320 C.3            1 S1                 0.0000
      5 ****         1.0323  -0.9373   0.2062 C.3            1 S1                 0.0000
      6 ****         2.4962  -1.0701   0.4109 N.4            1 S1                 1.0000
      7 ****         2.8514  -1.2581   1.8382 C.3            1 S1                 0.0000
      8 ****         4.3779  -1.3376   2.0090 C.3            1 S1                 0.0000
      9 ****         4.8925  -2.3935   1.2077 O.3            1 S1                 0.0000
     10 ****         4.6381  -2.1827  -0.1753 C.3            1 S1                 0.0000
     11 ****         3.1204  -2.1291  -0.4209 C.3            1 S1                 0.0000
     12 ****        -2.7813   0.7720  -1.0481 N.am           1 S1                 0.0000
     13 ****        -3.8752   1.5895  -0.6517 C.ar           1 S1                 0.0000
     14 ****        -3.7505   2.8778  -0.0762 C.ar           1 S1                 0.0000
     15 ****        -4.9190   3.5891   0.2582 C.ar           1 S1                 0.0000
     16 ****        -6.1680   2.9923  -0.0002 C.ar           1 S1                 0.0000
     17 ****        -6.3026   1.7713  -0.5587 N.ar           1 S1                 0.0000
     18 ****        -5.1781   1.0953  -0.8765 C.ar           1 S1                 0.0000
     19 ****        -1.2266  -0.7424  -1.9011 H              1 S1                 0.0000
     20 ****         1.0353  -0.8536  -1.9731 H              1 S1                 0.0000
     21 ****         1.1824   0.7118  -1.2093 H              1 S1                 0.0000
     22 ****         0.6210  -0.3351   1.0176 H              1 S1                 0.0000
     23 ****         0.5564  -1.9165   0.2789 H              1 S1                 0.0000
     24 ****         2.4612  -0.4296   2.4305 H              1 S1                 0.0000
     25 ****         2.3847  -2.1698   2.2149 H              1 S1                 0.0000
     26 ****         4.8509  -0.3928   1.7361 H              1 S1                 0.0000
     27 ****         4.6301  -1.5301   3.0519 H              1 S1                 0.0000
     28 ****         5.1201  -1.2630  -0.5110 H              1 S1                 0.0000
     29 ****         5.0819  -3.0000  -0.7441 H              1 S1                 0.0000
     30 ****         2.6719  -3.0949  -0.1822 H              1 S1                 0.0000
     31 ****         2.9363  -1.9436  -1.4784 H              1 S1                 0.0000
     32 ****        -3.0251  -0.0126  -1.6347 H              1 S1                 0.0000
     33 ****        -2.7936   3.3410   0.1050 H              1 S1                 0.0000
     34 ****        -4.8587   4.5730   0.6993 H              1 S1                 0.0000
     35 ****        -7.0829   3.5116   0.2438 H              1 S1                 0.0000
     36 ****        -5.3249   0.1228  -1.3236 H              1 S1                 0.0000
     37 ****         2.9079  -0.1908   0.1320 H              1 S1                 0.0000
     38 ****        -0.0285   1.6970   0.2634 LP             1 S1                 0.0000
     39 ****        -1.5960   2.4049   0.4677 LP             1 S1                 0.0000
     40 ****         4.4622  -3.2514   1.4884 LP             1 S1                 0.0000
     41 ****         5.8806  -2.4543   1.3489 LP             1 S1                 0.0000
     42 ****        -7.2064   1.3798  -0.7317 LP             1 S1                 0.0000
@<TRIPOS>BOND
    1    1    2 2     
    2    2    3 am    
    3    2   12 am    
    4    3    4 1     
    5    3   19 1     
    6    4    5 1     
    7    4   20 1     
    8    4   21 1     
    9    5    6 1     
   10    5   22 1     
   11    5   23 1     
   12    6   11 1     
   13    6    7 1     
   14    6   37 1     
   15    7    8 1     
   16    7   24 1     
   17    7   25 1     
   18    8    9 1     
   19    8   26 1     
   20    8   27 1     
   21    9   10 1     
   22   10   11 1     
   23   10   28 1     
   24   10   29 1     
   25   11   30 1     
   26   11   31 1     
   27   12   13 1     
   28   12   32 1     
   29   13   18 ar    
   30   13   14 ar    
   31   14   15 ar    
   32   14   33 1     
   33   15   16 ar    
   34   15   34 1     
   35   16   17 ar    
   36   16   35 1     
   37   17   18 ar    
   38   18   36 1     
   39    1   38 1     
   40    1   39 1     
   41    9   40 1     
   42    9   41 1     
   43   17   42 1     
@<TRIPOS>SUBSTRUCTURE
      1 S1             1
@<TRIPOS>SET
LONE_PAIRS      STATIC     ATOMS    <user>   **** ""
5 38 39 40 41 42
DONOR_HYDROGENS      STATIC     ATOMS    <user>   **** ""
3 19 37 32
ATOM$BLUE        STATIC     ATOMS    COLORGROUP SYSTEM
5 38 39 40 41 42
ATOM$RED        STATIC     ATOMS    COLORGROUP SYSTEM
3 19 37 32
