AV-unprocessed.smi:2822|AV-procd|sdf|10876|dock7
  -GOLD-   2272015313D 1   1.00000     0.00000
 Structure written by MMmdl.
 40 42  0  0  0  0  0  0  0  0  2 V2000
  146.2770  131.4441  148.8906 Cl  0  0  0  0  0  0  0  0  0  0  0  0
  145.3061  132.2595  150.0661 C   0  0  0  0  0  0  0  0  0  0  0  0
  143.9381  132.4746  149.7996 C   0  0  0  0  0  0  0  0  0  0  0  0
  143.1646  133.1100  150.7052 N   0  3  0  0  0  0  0  0  0  0  0  0
  143.6433  133.5616  151.8835 C   0  0  0  0  0  0  0  0  0  0  0  0
  145.0026  133.3761  152.2077 C   0  0  0  0  0  0  0  0  0  0  0  0
  145.8571  132.7156  151.2894 C   0  0  0  0  0  0  0  0  0  0  0  0
  147.2180  132.4991  151.5542 N   0  0  0  0  0  0  0  0  0  0  0  0
  147.9354  133.3119  152.5247 C   0  0  0  0  0  0  0  0  0  0  0  0
  148.5144  132.4540  153.6574 C   0  0  2  0  0  0  0  0  0  0  0  0
  149.7784  133.0891  154.2657 C   0  0  0  0  0  0  0  0  0  0  0  0
  150.3695  132.2425  155.2940 N   0  0  0  0  0  0  0  0  0  0  0  0
  151.5692  132.8545  155.8624 C   0  0  0  0  0  0  0  0  0  0  0  0
  152.1929  131.9975  156.9752 C   0  0  0  0  0  0  0  0  0  0  0  0
  152.5099  130.5897  156.4507 C   0  0  0  0  0  0  0  0  0  0  0  0
  151.2601  129.9724  155.8041 C   0  0  0  0  0  0  0  0  0  0  0  0
  150.6644  130.9174  154.7400 C   0  0  1  0  0  0  0  0  0  0  0  0
  149.4046  130.2956  154.1031 C   0  0  0  0  0  0  0  0  0  0  0  0
  148.8673  131.1799  153.1246 O   0  0  0  0  0  0  0  0  0  0  0  0
  143.4425  132.1586  148.8931 H   0  0  0  0  0  0  0  0  0  0  0  0
  142.9302  134.0537  152.5287 H   0  0  0  0  0  0  0  0  0  0  0  0
  145.3667  133.7416  153.1562 H   0  0  0  0  0  0  0  0  0  0  0  0
  147.7569  131.9174  150.9275 H   0  0  0  0  0  0  0  0  0  0  0  0
  148.7324  133.8674  152.0286 H   0  0  0  0  0  0  0  0  0  0  0  0
  147.2412  134.0413  152.9437 H   0  0  0  0  0  0  0  0  0  0  0  0
  147.7622  132.3277  154.4386 H   0  0  0  0  0  0  0  0  0  0  0  0
  150.5082  133.2737  153.4756 H   0  0  0  0  0  0  0  0  0  0  0  0
  149.5276  134.0615  154.6914 H   0  0  0  0  0  0  0  0  0  0  0  0
  152.3077  133.0216  155.0767 H   0  0  0  0  0  0  0  0  0  0  0  0
  151.3218  133.8367  156.2670 H   0  0  0  0  0  0  0  0  0  0  0  0
  153.0999  132.4715  157.3512 H   0  0  0  0  0  0  0  0  0  0  0  0
  151.5025  131.9311  157.8171 H   0  0  0  0  0  0  0  0  0  0  0  0
  153.3122  130.6462  155.7140 H   0  0  0  0  0  0  0  0  0  0  0  0
  152.8715  129.9552  157.2602 H   0  0  0  0  0  0  0  0  0  0  0  0
  151.5146  129.0115  155.3557 H   0  0  0  0  0  0  0  0  0  0  0  0
  150.5151  129.7683  156.5746 H   0  0  0  0  0  0  0  0  0  0  0  0
  151.4068  131.0327  153.9480 H   0  0  0  0  0  0  0  0  0  0  0  0
  149.6482  129.3479  153.6223 H   0  0  0  0  0  0  0  0  0  0  0  0
  148.6480  130.0844  154.8606 H   0  0  0  0  0  0  0  0  0  0  0  0
  142.1775  133.2542  150.4899 H   0  0  0  0  0  0  0  0  0  0  0  0
  1  2  1  0  0  0  0
  2  7  1  0  0  0  0
  2  3  2  0  0  0  0
  3  4  1  0  0  0  0
  3 20  1  0  0  0  0
  4  5  2  0  0  0  0
  4 40  1  0  0  0  0
  5  6  1  0  0  0  0
  5 21  1  0  0  0  0
  6  7  2  0  0  0  0
  6 22  1  0  0  0  0
  7  8  1  0  0  0  0
  8  9  1  0  0  0  0
  8 23  1  0  0  0  0
  9 10  1  0  0  0  0
  9 24  1  0  0  0  0
  9 25  1  0  0  0  0
 10 19  1  0  0  0  0
 10 11  1  0  0  0  0
 10 26  1  0  0  0  0
 11 12  1  0  0  0  0
 11 27  1  0  0  0  0
 11 28  1  0  0  0  0
 12 17  1  0  0  0  0
 12 13  1  0  0  0  0
 13 14  1  0  0  0  0
 13 29  1  0  0  0  0
 13 30  1  0  0  0  0
 14 15  1  0  0  0  0
 14 31  1  0  0  0  0
 14 32  1  0  0  0  0
 15 16  1  0  0  0  0
 15 33  1  0  0  0  0
 15 34  1  0  0  0  0
 16 17  1  0  0  0  0
 16 35  1  0  0  0  0
 16 36  1  0  0  0  0
 17 18  1  0  0  0  0
 17 37  1  0  0  0  0
 18 19  1  0  0  0  0
 18 38  1  0  0  0  0
 18 39  1  0  0  0  0
M  CHG  1   4   1
M  END
> <s_m_source_file>
AV-unprocessed.smi

> <i_m_source_file_index>
2822

> <i_lp_mmshare_version>
43012

> <i_f3d_flags>
0

> <s_epik_input>
Q2xjMVtjSF1uW2NIXVtjSF1jMVtOSF1bQ0gyXVtDQEhdKFtDSDJdMilPW0NIMl1bQ0BASF0oTjIzKVtDSDJdW0NIMl1bQ0gyXVtDSDJdMw==

> <s_epik_cmdline>
J2VwaWtfcHl0aG9uJywgJy1waCcsICc3LjAnLCAnLXRuJywgJzgnLCAnLW1hJywgJzIwMCcsICctbWV0YWxfYmluZGluZycsICctaW1hZScsICc8aW5maWxlLm1hZT4nLCAnLW9tYWUnLCAnPG91dGZpbGUubWFlPic=

> <r_epik_Ionization_Penalty>
1.37653

> <r_epik_Ionization_Penalty_Charging>
0.152973

> <r_epik_Ionization_Penalty_Neutral>
1.22356

> <r_epik_State_Penalty>
1.42693

> <r_epik_Charging_Adjusted_Penalty>
1.5799

> <i_epik_Tot_Q>
1

> <i_epik_Tot_abs_Q>
1

> <r_epik_Metal_State_Penalty>
4.59822

> <b_epik_Metal_Only>
0

> <s_lp_Force_Field>
OPLS_2005

> <r_lp_Energy>
43.1836

> <b_lp_Chiralities_Consistent>
1

> <s_lp_Variant>
AV-unprocessed.smi:2822-17

> <Gold.Version>
5.8.1

> <Gold.Id.Protein>
6NUR|6NUR_protein|mol2

> <Gold.PLP.Fitness>
43.8804

> <Gold.PLP.PLP>
-35.7391

> <Gold.PLP.part.hbond>
-2.0000

> <Gold.PLP.part.metal>
0.0000

> <Gold.PLP.part.buried>
-3.1297

> <Gold.PLP.part.nonpolar>
-31.4805

> <Gold.PLP.part.repulsive>
1.5776

> <Gold.PLP.ligand.clash>
0.0000

> <Gold.PLP.ligand.torsion>
0.4299

> <Gold.PLP.Chemscore.Hbond>
3.0000

> <Gold.PLP.Chemscore.CHOScore>
0.0000

> <Gold.PLP.Chemscore.Metal>
0.0000

> <Gold.Chemscore.Hbonds>
donor molecule, donor type, donor heavy atom, donor atom, acceptor molecule, acceptor atom, score
      L1  H     4    40       P1 10186  1.70
      L1  H     8    23       P1 10747  1.00

> <Gold.PLP.Chemscore.Internal.Correction>
0.0011

> <Gold.Rescore>
     Score         DG    S(hbond)    S(metal)    S(lipo)     H(rot)  DE(clash)    DE(int)     intcor
     18.90     -20.45       1.97        0.00      97.64       1.18       1.18       0.37       ----

> <Gold.Chemscore.Fitness>
18.8973

> <Gold.Chemscore.DG>
-20.4491

> <Gold.Chemscore.ZeroCoef>
-5.4800

> <Gold.Chemscore.Hbond>
1.9650

> <Gold.Chemscore.Metal>
0.0000

> <Gold.Chemscore.Lipo>
97.6367

> <Gold.Chemscore.Internal_Hbond>
0.0000

> <Gold.Chemscore.DEClash>
1.1820

> <Gold.Chemscore.DEInternal>
0.3698

> <Gold.Chemscore.Rot>
1.1788

> <Gold.Chemscore.Internal.Correction>
   9.000000E+99

> <Gold.Chemscore.Hbonds>
donor molecule, donor type, donor heavy atom, donor atom, acceptor molecule, acceptor atom, score
      L1  H     4    40       P1 10186  0.85
      L1  H     8    23       P1 10747  1.00

> <Gold.Chemscore.Hbond.Weighted>
-6.5632

> <Gold.Chemscore.Metal.Weighted>
-0.0000

> <Gold.Chemscore.Lipo.Weighted>
-11.4235

> <Gold.Chemscore.Internal_Hbond.Weighted>
0.0000

> <Gold.Chemscore.DEClash.Weighted>
1.1820

> <Gold.Chemscore.DEInternal.Weighted>
0.3698

> <Gold.Chemscore.Rot.Weighted>
3.0177

> <Gold.Chemscore.Internal.Correction.Weighted>
   9.000000E+99

> <Gold.Protein.RotatedTorsions>
[ 6907 6896 6895 6894 ] final  149.26 input  -60.11 | X-H torsion
[ 7974 7965 7964 7962 ] final -148.62 input  175.53 | X-H torsion
[ 8008 7997 7996 7995 ] final  -94.96 input   59.86 | X-H torsion
[ 10167 10162 10161 10158 ] final -105.94 input  -65.29 | X-H torsion
[ 10718 10713 10712 10709 ] final  -70.63 input   66.30 | X-H torsion
[ 10763 10752 10751 10750 ] final  -45.68 input  -60.55 | X-H torsion
[ 11005 11000 10999 10996 ] final   50.60 input  -57.11 | X-H torsion

> <Gold.Protein.ActiveResidues>
 VAL166  LYS551  ARG553  GLY616  TRP617  ASP618  TYR619  PRO620  LYS621  CYS622 
 ASP623  PHE694  ASN695  SER759  ASP760  ASP761  ALA762  ILE779  LEU786  VAL792 
 PHE793  MET794  SER795  GLU796  ALA797  LYS798  CYS799  TRP800  GLU811  SER814 

> <Gold.Protein.RotatedAtoms>
  152.1304  133.4404  159.4717 H   0  0  0  0  0  0  0  0  0  0  0  0  # atno 6907 bound_to 6896
  150.6878  134.2428  159.4488 H   0  0  0  0  0  0  0  0  0  0  0  0  # atno 6908 bound_to 6896
  152.0311  134.9767  160.0623 H   0  0  0  0  0  0  0  0  0  0  0  0  # atno 6909 bound_to 6896
  144.8018  140.5173  143.5702 H   0  0  0  0  0  0  0  0  0  0  0  0  # atno 7974 bound_to 7965
  154.7551  140.0484  157.0926 H   0  0  0  0  0  0  0  0  0  0  0  0  # atno 8008 bound_to 7997
  155.0008  140.3124  155.4849 H   0  0  0  0  0  0  0  0  0  0  0  0  # atno 8009 bound_to 7997
  156.2893  140.2202  156.5117 H   0  0  0  0  0  0  0  0  0  0  0  0  # atno 8010 bound_to 7997
  140.1931  143.3876  152.1190 H   0  0  0  0  0  0  0  0  0  0  0  0  # atno 10167 bound_to 10162
  156.0399  130.4335  150.2324 H   0  0  0  0  0  0  0  0  0  0  0  0  # atno 10718 bound_to 10713
  154.0326  135.6654  153.4782 H   0  0  0  0  0  0  0  0  0  0  0  0  # atno 10763 bound_to 10752
  153.0534  135.5070  154.7918 H   0  0  0  0  0  0  0  0  0  0  0  0  # atno 10764 bound_to 10752
  154.6869  135.3054  154.9500 H   0  0  0  0  0  0  0  0  0  0  0  0  # atno 10765 bound_to 10752
  140.1004  134.5089  155.8768 H   0  0  0  0  0  0  0  0  0  0  0  0  # atno 11005 bound_to 11000
  145.5535  139.1477  143.3381 LP  0  0  0  0  0  0  0  0  0  0  0  0  # atno 17320 bound_to 7965
  146.2301  140.5672  142.8979 LP  0  0  0  0  0  0  0  0  0  0  0  0  # atno 17321 bound_to 7965
  139.5247  144.7087  151.5273 LP  0  0  0  0  0  0  0  0  0  0  0  0  # atno 17342 bound_to 10162
  140.6442  143.8828  150.6721 LP  0  0  0  0  0  0  0  0  0  0  0  0  # atno 17343 bound_to 10162
  157.0420  131.0038  151.3280 LP  0  0  0  0  0  0  0  0  0  0  0  0  # atno 17370 bound_to 10713
  157.5202  130.7993  149.7801 LP  0  0  0  0  0  0  0  0  0  0  0  0  # atno 17371 bound_to 10713
  141.2104  133.6694  156.6506 LP  0  0  0  0  0  0  0  0  0  0  0  0  # atno 17394 bound_to 11000
  140.3228  134.7993  157.4266 LP  0  0  0  0  0  0  0  0  0  0  0  0  # atno 17395 bound_to 11000

$$$$
