AV-unprocessed.smi:1972|AV-procd|sdf|7975|dock9
  -GOLD-   2272010153D 1   1.00000     0.00000
 Structure written by MMmdl.
 44 45  0  0  0  0  0  0  0  0  1 V2000
  148.2036  132.5956  153.7293 C   0  0  0  0  0  0  0  0  0  0  0  0
  148.9401  132.3599  155.3673 S   0  0  0  0  0  0  0  0  0  0  0  0
  150.1567  133.7083  155.3467 C   0  0  0  0  0  0  0  0  0  0  0  0
  149.5101  135.0805  155.6066 C   0  0  0  0  0  0  0  0  0  0  0  0
  150.4190  136.2540  155.2274 C   0  0  0  0  0  0  0  0  0  0  0  0
  151.6208  136.2188  155.4918 O   0  0  0  0  0  0  0  0  0  0  0  0
  149.8296  137.2890  154.6115 N   0  0  0  0  0  0  0  0  0  0  0  0
  150.5204  138.4858  154.1450 C   0  0  0  0  0  0  0  0  0  0  0  0
  150.9237  139.4296  155.2670 C   0  0  0  0  0  0  0  0  0  0  0  0
  150.1834  140.5904  155.5751 C   0  0  0  0  0  0  0  0  0  0  0  0
  150.6228  141.4241  156.6211 C   0  0  0  0  0  0  0  0  0  0  0  0
  151.7959  141.0798  157.3342 C   0  0  0  0  0  0  0  0  0  0  0  0
  152.2539  141.8996  158.3888 N   0  0  0  0  0  0  0  0  0  0  0  0
  152.4710  141.2807  159.6948 C   0  0  0  0  0  0  0  0  0  0  0  0
  153.2375  142.2394  160.6201 C   0  0  0  0  0  0  0  0  0  0  0  0
  152.5442  143.4799  160.7044 O   0  0  0  0  0  0  0  0  0  0  0  0
  152.4413  144.1245  159.4378 C   0  0  2  0  0  0  0  0  0  0  0  0
  151.7677  145.4853  159.6438 C   0  0  0  0  0  0  0  0  0  0  0  0
  151.6455  143.2250  158.4721 C   0  0  0  0  0  0  0  0  0  0  0  0
  152.5126  139.9711  157.0241 N   0  0  0  0  0  0  0  0  0  0  0  0
  152.0868  139.1750  156.0209 C   0  0  0  0  0  0  0  0  0  0  0  0
  147.4279  131.8502  153.5550 H   0  0  0  0  0  0  0  0  0  0  0  0
  148.9618  132.4953  152.9527 H   0  0  0  0  0  0  0  0  0  0  0  0
  147.7548  133.5861  153.6527 H   0  0  0  0  0  0  0  0  0  0  0  0
  150.9010  133.5056  156.1171 H   0  0  0  0  0  0  0  0  0  0  0  0
  150.6869  133.7002  154.3935 H   0  0  0  0  0  0  0  0  0  0  0  0
  148.5563  135.1498  155.0814 H   0  0  0  0  0  0  0  0  0  0  0  0
  149.2820  135.1739  156.6686 H   0  0  0  0  0  0  0  0  0  0  0  0
  148.8358  137.2378  154.4396 H   0  0  0  0  0  0  0  0  0  0  0  0
  151.4078  138.1797  153.5893 H   0  0  0  0  0  0  0  0  0  0  0  0
  149.8867  139.0432  153.4529 H   0  0  0  0  0  0  0  0  0  0  0  0
  149.2945  140.8503  155.0195 H   0  0  0  0  0  0  0  0  0  0  0  0
  150.0672  142.3209  156.8509 H   0  0  0  0  0  0  0  0  0  0  0  0
  151.5075  141.0252  160.1382 H   0  0  0  0  0  0  0  0  0  0  0  0
  153.0375  140.3547  159.5867 H   0  0  0  0  0  0  0  0  0  0  0  0
  153.3209  141.8103  161.6186 H   0  0  0  0  0  0  0  0  0  0  0  0
  154.2539  142.4012  160.2573 H   0  0  0  0  0  0  0  0  0  0  0  0
  153.4440  144.2918  159.0401 H   0  0  0  0  0  0  0  0  0  0  0  0
  151.6785  146.0257  158.7010 H   0  0  0  0  0  0  0  0  0  0  0  0
  152.3453  146.1059  160.3290 H   0  0  0  0  0  0  0  0  0  0  0  0
  150.7665  145.3708  160.0607 H   0  0  0  0  0  0  0  0  0  0  0  0
  151.5978  143.7073  157.4971 H   0  0  0  0  0  0  0  0  0  0  0  0
  150.6178  143.1157  158.8213 H   0  0  0  0  0  0  0  0  0  0  0  0
  152.6950  138.3062  155.8164 H   0  0  0  0  0  0  0  0  0  0  0  0
  1  2  1  0  0  0  0
  1 22  1  0  0  0  0
  1 23  1  0  0  0  0
  1 24  1  0  0  0  0
  2  3  1  0  0  0  0
  3  4  1  0  0  0  0
  3 25  1  0  0  0  0
  3 26  1  0  0  0  0
  4  5  1  0  0  0  0
  4 27  1  0  0  0  0
  4 28  1  0  0  0  0
  5  6  2  0  0  0  0
  5  7  1  0  0  0  0
  7  8  1  0  0  0  0
  7 29  1  0  0  0  0
  8  9  1  0  0  0  0
  8 30  1  0  0  0  0
  8 31  1  0  0  0  0
  9 21  1  0  0  0  0
  9 10  2  0  0  0  0
 10 11  1  0  0  0  0
 10 32  1  0  0  0  0
 11 12  2  0  0  0  0
 11 33  1  0  0  0  0
 12 13  1  0  0  0  0
 12 20  1  0  0  0  0
 13 19  1  0  0  0  0
 13 14  1  0  0  0  0
 14 15  1  0  0  0  0
 14 34  1  0  0  0  0
 14 35  1  0  0  0  0
 15 16  1  0  0  0  0
 15 36  1  0  0  0  0
 15 37  1  0  0  0  0
 16 17  1  0  0  0  0
 17 18  1  0  0  0  0
 17 19  1  0  0  0  0
 17 38  1  0  0  0  0
 18 39  1  0  0  0  0
 18 40  1  0  0  0  0
 18 41  1  0  0  0  0
 19 42  1  0  0  0  0
 19 43  1  0  0  0  0
 20 21  2  0  0  0  0
 21 44  1  0  0  0  0
M  END
> <s_m_source_file>
AV-unprocessed.smi

> <i_m_source_file_index>
1972

> <i_lp_mmshare_version>
43012

> <i_f3d_flags>
0

> <s_epik_input>
W0NIM11TW0NIMl1bQ0gyXUMoPU8pW05IXVtDSDJdYzFbY0hdW2NIXWMobltjSF0xKU4yW0NIMl1bQ0gyXU9bQ0BASF0oW0NIM10pW0NIMl0y

> <s_epik_cmdline>
J2VwaWtfcHl0aG9uJywgJy1waCcsICc3LjAnLCAnLXRuJywgJzgnLCAnLW1hJywgJzIwMCcsICctbWV0YWxfYmluZGluZycsICctaW1hZScsICc8aW5maWxlLm1hZT4nLCAnLW9tYWUnLCAnPG91dGZpbGUubWFlPic=

> <r_lp_tautomer_probability>
1

> <r_epik_Ionization_Penalty>
0.00559088

> <r_epik_Ionization_Penalty_Charging>
0

> <r_epik_Ionization_Penalty_Neutral>
0.00559088

> <r_epik_State_Penalty>
0.00409544

> <r_epik_Charging_Adjusted_Penalty>
0.00409544

> <i_epik_Tot_Q>
0

> <i_epik_Tot_abs_Q>
0

> <r_epik_Metal_State_Penalty>
-0

> <b_epik_Metal_Only>
0

> <s_lp_Force_Field>
OPLS_2005

> <r_lp_Energy>
17.9422

> <b_lp_Chiralities_Consistent>
1

> <s_lp_Variant>
AV-unprocessed.smi:1972-2

> <Gold.Version>
5.8.1

> <Gold.Id.Protein>
6NUR|6NUR_protein|mol2

> <Gold.PLP.Fitness>
50.6829

> <Gold.PLP.PLP>
-46.2233

> <Gold.PLP.part.hbond>
-3.0000

> <Gold.PLP.part.metal>
0.0000

> <Gold.PLP.part.buried>
-4.7139

> <Gold.PLP.part.nonpolar>
-38.7232

> <Gold.PLP.part.repulsive>
0.1761

> <Gold.PLP.ligand.clash>
0.0000

> <Gold.PLP.ligand.torsion>
0.9534

> <Gold.PLP.Chemscore.Hbond>
2.0000

> <Gold.PLP.Chemscore.CHOScore>
0.0000

> <Gold.PLP.Chemscore.Metal>
0.0000

> <Gold.Chemscore.Hbonds>
donor molecule, donor type, donor heavy atom, donor atom, acceptor molecule, acceptor atom, score
      P1  H  7997  8010       L1    20  0.90
      P1  H 10752 10763       L1     6  1.00

> <Gold.PLP.Chemscore.Internal.Correction>
0.3665

> <Gold.Rescore>
     Score         DG    S(hbond)    S(metal)    S(lipo)     H(rot)  DE(clash)    DE(int)     intcor
     18.87     -19.85       1.78        0.00     110.23       1.75       0.04       0.93       ----

> <Gold.Chemscore.Fitness>
18.8742

> <Gold.Chemscore.DG>
-19.8511

> <Gold.Chemscore.ZeroCoef>
-5.4800

> <Gold.Chemscore.Hbond>
1.7798

> <Gold.Chemscore.Metal>
0.0000

> <Gold.Chemscore.Lipo>
110.2254

> <Gold.Chemscore.Internal_Hbond>
0.0000

> <Gold.Chemscore.DEClash>
0.0434

> <Gold.Chemscore.DEInternal>
0.9335

> <Gold.Chemscore.Rot>
1.7460

> <Gold.Chemscore.Internal.Correction>
   9.000000E+99

> <Gold.Chemscore.Hbonds>
donor molecule, donor type, donor heavy atom, donor atom, acceptor molecule, acceptor atom, score
      P1  H  7997  8010       L1    20  0.17
      P1  H 10752 10763       L1     6  1.00

> <Gold.Chemscore.Hbond.Weighted>
-5.9444

> <Gold.Chemscore.Metal.Weighted>
-0.0000

> <Gold.Chemscore.Lipo.Weighted>
-12.8964

> <Gold.Chemscore.Internal_Hbond.Weighted>
0.0000

> <Gold.Chemscore.DEClash.Weighted>
0.0434

> <Gold.Chemscore.DEInternal.Weighted>
0.9335

> <Gold.Chemscore.Rot.Weighted>
4.4697

> <Gold.Chemscore.Internal.Correction.Weighted>
   9.000000E+99

> <Gold.Protein.RotatedTorsions>
[ 6907 6896 6895 6894 ] final  129.73 input  -60.11 | X-H torsion
[ 7974 7965 7964 7962 ] final  161.13 input  175.53 | X-H torsion
[ 8008 7997 7996 7995 ] final   68.78 input   59.86 | X-H torsion
[ 10167 10162 10161 10158 ] final -126.54 input  -65.29 | X-H torsion
[ 10718 10713 10712 10709 ] final  -40.89 input   66.30 | X-H torsion
[ 10763 10752 10751 10750 ] final   78.35 input  -60.55 | X-H torsion
[ 11005 11000 10999 10996 ] final   88.66 input  -57.11 | X-H torsion

> <Gold.Protein.ActiveResidues>
 VAL166  LYS551  ARG553  GLY616  TRP617  ASP618  TYR619  PRO620  LYS621  CYS622 
 ASP623  PHE694  ASN695  SER759  ASP760  ASP761  ALA762  ILE779  LEU786  VAL792 
 PHE793  MET794  SER795  GLU796  ALA797  LYS798  CYS799  TRP800  GLU811  SER814 

> <Gold.Protein.RotatedAtoms>
  152.3596  133.6280  159.6004 H   0  0  0  0  0  0  0  0  0  0  0  0  # atno 6907 bound_to 6896
  150.7592  133.9445  159.3475 H   0  0  0  0  0  0  0  0  0  0  0  0  # atno 6908 bound_to 6896
  151.7285  135.0880  160.0347 H   0  0  0  0  0  0  0  0  0  0  0  0  # atno 6909 bound_to 6896
  144.7701  139.7855  143.6300 H   0  0  0  0  0  0  0  0  0  0  0  0  # atno 7974 bound_to 7965
  155.7136  140.3494  155.4985 H   0  0  0  0  0  0  0  0  0  0  0  0  # atno 8008 bound_to 7997
  155.9333  140.1088  157.1136 H   0  0  0  0  0  0  0  0  0  0  0  0  # atno 8009 bound_to 7997
  154.4089  140.1227  156.4818 H   0  0  0  0  0  0  0  0  0  0  0  0  # atno 8010 bound_to 7997
  139.9704  143.5852  152.2415 H   0  0  0  0  0  0  0  0  0  0  0  0  # atno 10167 bound_to 10162
  156.2764  130.4212  149.8383 H   0  0  0  0  0  0  0  0  0  0  0  0  # atno 10718 bound_to 10713
  153.0867  135.4880  154.8611 H   0  0  0  0  0  0  0  0  0  0  0  0  # atno 10763 bound_to 10752
  154.7219  135.3041  154.9035 H   0  0  0  0  0  0  0  0  0  0  0  0  # atno 10764 bound_to 10752
  153.9697  135.6802  153.4800 H   0  0  0  0  0  0  0  0  0  0  0  0  # atno 10765 bound_to 10752
  139.8892  134.8502  156.3031 H   0  0  0  0  0  0  0  0  0  0  0  0  # atno 11005 bound_to 11000
  146.1841  139.5048  142.9847 LP  0  0  0  0  0  0  0  0  0  0  0  0  # atno 17320 bound_to 7965
  145.6349  141.0296  143.1843 LP  0  0  0  0  0  0  0  0  0  0  0  0  # atno 17321 bound_to 7965
  139.6485  144.7659  151.2194 LP  0  0  0  0  0  0  0  0  0  0  0  0  # atno 17342 bound_to 10162
  140.7524  143.6199  150.8524 LP  0  0  0  0  0  0  0  0  0  0  0  0  # atno 17343 bound_to 10162
  156.5846  130.8480  151.3392 LP  0  0  0  0  0  0  0  0  0  0  0  0  # atno 17370 bound_to 10713
  157.7300  130.9680  150.1815 LP  0  0  0  0  0  0  0  0  0  0  0  0  # atno 17371 bound_to 10713
  140.9900  133.7214  156.0799 LP  0  0  0  0  0  0  0  0  0  0  0  0  # atno 17394 bound_to 11000
  140.7638  134.3910  157.5521 LP  0  0  0  0  0  0  0  0  0  0  0  0  # atno 17395 bound_to 11000

$$$$
