AV-unprocessed.smi:1327|AV-procd|sdf|5478|dock1
  -GOLD-   22720 5 53D 1   1.00000     0.00000
 Structure written by MMmdl.
 39 40  0  0  0  0  0  0  0  0  2 V2000
  151.1161  139.5624  154.8113 O   0  0  0  0  0  0  0  0  0  0  0  0
  152.1763  138.8028  155.4934 S   0  0  0  0  0  0  0  0  0  0  0  0
  153.2598  138.2479  154.6646 O   0  0  0  0  0  0  0  0  0  0  0  0
  152.6904  139.5274  156.8517 N   0  5  0  0  0  0  0  0  0  0  0  0
  151.8517  140.5262  157.4943 C   0  0  0  0  0  0  0  0  0  0  0  0
  152.5684  141.1522  158.7163 C   0  0  0  0  0  0  0  0  0  0  0  0
  152.0505  142.5183  159.1609 C   0  0  0  0  0  0  0  0  0  0  0  0
  152.5873  143.1622  160.2995 C   0  0  0  0  0  0  0  0  0  0  0  0
  152.0620  144.4129  160.6768 C   0  0  0  0  0  0  0  0  0  0  0  0
  151.0314  144.9786  159.9021 C   0  0  0  0  0  0  0  0  0  0  0  0
  150.5717  144.2660  158.7775 C   0  0  0  0  0  0  0  0  0  0  0  0
  151.0690  143.0681  158.4054 N   0  0  0  0  0  0  0  0  0  0  0  0
  151.3960  137.4461  156.2564 N   0  0  0  0  0  0  0  0  0  0  0  0
  149.9509  137.2622  155.9916 C   0  0  0  0  0  0  0  0  0  0  0  0
  149.2702  136.1136  156.7623 C   0  0  0  0  0  0  0  0  0  0  0  0
  148.8968  136.4765  158.2082 C   0  0  0  0  0  0  0  0  0  0  0  0
  150.0811  136.4467  159.1799 C   0  0  0  0  0  0  0  0  0  0  0  0
  151.2326  137.3762  158.7773 C   0  0  0  0  0  0  0  0  0  0  0  0
  151.9710  136.9086  157.5097 C   0  0  0  0  0  0  0  0  0  0  0  0
  151.5526  141.3202  156.8088 H   0  0  0  0  0  0  0  0  0  0  0  0
  150.9193  140.0786  157.8390 H   0  0  0  0  0  0  0  0  0  0  0  0
  152.4826  140.4702  159.5627 H   0  0  0  0  0  0  0  0  0  0  0  0
  153.6373  141.2288  158.5100 H   0  0  0  0  0  0  0  0  0  0  0  0
  153.3726  142.6990  160.8786 H   0  0  0  0  0  0  0  0  0  0  0  0
  152.4409  144.9276  161.5470 H   0  0  0  0  0  0  0  0  0  0  0  0
  150.6026  145.9343  160.1637 H   0  0  0  0  0  0  0  0  0  0  0  0
  149.7825  144.6680  158.1598 H   0  0  0  0  0  0  0  0  0  0  0  0
  149.4282  138.1989  156.1888 H   0  0  0  0  0  0  0  0  0  0  0  0
  149.8350  137.0766  154.9238 H   0  0  0  0  0  0  0  0  0  0  0  0
  148.3417  135.8820  156.2397 H   0  0  0  0  0  0  0  0  0  0  0  0
  149.8597  135.1972  156.7197 H   0  0  0  0  0  0  0  0  0  0  0  0
  148.4182  137.4563  158.2343 H   0  0  0  0  0  0  0  0  0  0  0  0
  148.1470  135.7694  158.5647 H   0  0  0  0  0  0  0  0  0  0  0  0
  149.7262  136.7322  160.1705 H   0  0  0  0  0  0  0  0  0  0  0  0
  150.4511  135.4256  159.2777 H   0  0  0  0  0  0  0  0  0  0  0  0
  150.8851  138.4045  158.6786 H   0  0  0  0  0  0  0  0  0  0  0  0
  151.9497  137.3877  159.5984 H   0  0  0  0  0  0  0  0  0  0  0  0
  152.0054  135.8204  157.4577 H   0  0  0  0  0  0  0  0  0  0  0  0
  153.0121  137.2181  157.5830 H   0  0  0  0  0  0  0  0  0  0  0  0
  1  2  2  0  0  0  0
  2  3  2  0  0  0  0
  2  4  1  0  0  0  0
  2 13  1  0  0  0  0
  4  5  1  0  0  0  0
  5  6  1  0  0  0  0
  5 20  1  0  0  0  0
  5 21  1  0  0  0  0
  6  7  1  0  0  0  0
  6 22  1  0  0  0  0
  6 23  1  0  0  0  0
  7 12  1  0  0  0  0
  7  8  2  0  0  0  0
  8  9  1  0  0  0  0
  8 24  1  0  0  0  0
  9 10  2  0  0  0  0
  9 25  1  0  0  0  0
 10 11  1  0  0  0  0
 10 26  1  0  0  0  0
 11 12  2  0  0  0  0
 11 27  1  0  0  0  0
 13 19  1  0  0  0  0
 13 14  1  0  0  0  0
 14 15  1  0  0  0  0
 14 28  1  0  0  0  0
 14 29  1  0  0  0  0
 15 16  1  0  0  0  0
 15 30  1  0  0  0  0
 15 31  1  0  0  0  0
 16 17  1  0  0  0  0
 16 32  1  0  0  0  0
 16 33  1  0  0  0  0
 17 18  1  0  0  0  0
 17 34  1  0  0  0  0
 17 35  1  0  0  0  0
 18 19  1  0  0  0  0
 18 36  1  0  0  0  0
 18 37  1  0  0  0  0
 19 38  1  0  0  0  0
 19 39  1  0  0  0  0
M  CHG  1   4  -1
M  END
> <s_m_source_file>
AV-unprocessed.smi

> <i_m_source_file_index>
1327

> <i_lp_mmshare_version>
43012

> <i_f3d_flags>
0

> <s_epik_input>
W0NIMl0xW0NIMl1bQ0gyXVtDSDJdW0NIMl1bQ0gyXU4xUyg9TykoPU8pW05IXVtDSDJdW0NIMl1jMltjSF1bY0hdW2NIXVtjSF1uMg==

> <s_epik_cmdline>
J2VwaWtfcHl0aG9uJywgJy1waCcsICc3LjAnLCAnLXRuJywgJzgnLCAnLW1hJywgJzIwMCcsICctbWV0YWxfYmluZGluZycsICctaW1hZScsICc8aW5maWxlLm1hZT4nLCAnLW9tYWUnLCAnPG91dGZpbGUubWFlPic=

> <r_lp_tautomer_probability>
1

> <r_epik_Ionization_Penalty>
3.18796

> <r_epik_Ionization_Penalty_Charging>
3.10426

> <r_epik_Ionization_Penalty_Neutral>
0.0836926

> <r_epik_State_Penalty>
3.10111

> <r_epik_Charging_Adjusted_Penalty>
6.20538

> <i_epik_Tot_Q>
-1

> <i_epik_Tot_abs_Q>
1

> <r_epik_Metal_State_Penalty>
0.463976

> <b_epik_Metal_Only>
1

> <s_lp_Force_Field>
OPLS_2005

> <r_lp_Energy>
9.11233

> <b_lp_Chiralities_Consistent>
1

> <s_lp_Variant>
AV-unprocessed.smi:1327-2

> <Gold.Version>
5.8.1

> <Gold.Id.Protein>
6NUR|6NUR_protein|mol2

> <Gold.PLP.Fitness>
46.2984

> <Gold.PLP.PLP>
-34.9118

> <Gold.PLP.part.hbond>
-3.0000

> <Gold.PLP.part.metal>
0.0000

> <Gold.PLP.part.buried>
-7.4684

> <Gold.PLP.part.nonpolar>
-25.0627

> <Gold.PLP.part.repulsive>
0.1752

> <Gold.PLP.ligand.clash>
0.0000

> <Gold.PLP.ligand.torsion>
1.7284

> <Gold.PLP.Chemscore.Hbond>
3.0000

> <Gold.PLP.Chemscore.CHOScore>
0.9125

> <Gold.PLP.Chemscore.Metal>
0.0000

> <Gold.Chemscore.Hbonds>
donor molecule, donor type, donor heavy atom, donor atom, acceptor molecule, acceptor atom, score
      P1  H  7989  7998       L1     1  1.00
      P1  H  7997  8010       L1     4  2.00
      L1  C    11    27       P1  8028  0.31
      L1  C    11    27       P1  8029  0.81

> <Gold.PLP.Chemscore.Internal.Correction>
3.1060

> <Gold.Rescore>
     Score         DG    S(hbond)    S(metal)    S(lipo)     H(rot)  DE(clash)    DE(int)     intcor
     16.75     -18.55       1.73        0.00      90.27       1.27       0.03       1.77       ----

> <Gold.Chemscore.Fitness>
16.7466

> <Gold.Chemscore.DG>
-18.5454

> <Gold.Chemscore.ZeroCoef>
-5.4800

> <Gold.Chemscore.Hbond>
1.7259

> <Gold.Chemscore.Metal>
0.0000

> <Gold.Chemscore.Lipo>
90.2726

> <Gold.Chemscore.Internal_Hbond>
0.0000

> <Gold.Chemscore.DEClash>
0.0301

> <Gold.Chemscore.DEInternal>
1.7687

> <Gold.Chemscore.Rot>
1.2738

> <Gold.Chemscore.Internal.Correction>
   9.000000E+99

> <Gold.Chemscore.Hbonds>
donor molecule, donor type, donor heavy atom, donor atom, acceptor molecule, acceptor atom, score
      P1  H  7989  7998       L1     1  0.95
      P1  H  7997  8010       L1     4  0.51

> <Gold.Chemscore.Hbond.Weighted>
-5.7646

> <Gold.Chemscore.Metal.Weighted>
-0.0000

> <Gold.Chemscore.Lipo.Weighted>
-10.5619

> <Gold.Chemscore.Internal_Hbond.Weighted>
0.0000

> <Gold.Chemscore.DEClash.Weighted>
0.0301

> <Gold.Chemscore.DEInternal.Weighted>
1.7687

> <Gold.Chemscore.Rot.Weighted>
3.2610

> <Gold.Chemscore.Internal.Correction.Weighted>
   9.000000E+99

> <Gold.Protein.RotatedTorsions>
[ 6907 6896 6895 6894 ] final -146.87 input  -60.11 | X-H torsion
[ 7974 7965 7964 7962 ] final  131.48 input  175.53 | X-H torsion
[ 8008 7997 7996 7995 ] final   65.28 input   59.86 | X-H torsion
[ 10167 10162 10161 10158 ] final  -10.29 input  -65.29 | X-H torsion
[ 10718 10713 10712 10709 ] final    7.47 input   66.30 | X-H torsion
[ 10763 10752 10751 10750 ] final  -56.54 input  -60.55 | X-H torsion
[ 11005 11000 10999 10996 ] final  -51.16 input  -57.11 | X-H torsion

> <Gold.Protein.ActiveResidues>
 VAL166  LYS551  ARG553  GLY616  TRP617  ASP618  TYR619  PRO620  LYS621  CYS622 
 ASP623  PHE694  ASN695  SER759  ASP760  ASP761  ALA762  ILE779  LEU786  VAL792 
 PHE793  MET794  SER795  GLU796  ALA797  LYS798  CYS799  TRP800  GLU811  SER814 

> <Gold.Protein.RotatedAtoms>
  151.1476  133.4929  159.2595 H   0  0  0  0  0  0  0  0  0  0  0  0  # atno 6907 bound_to 6896
  151.1588  135.0263  159.8711 H   0  0  0  0  0  0  0  0  0  0  0  0  # atno 6908 bound_to 6896
  152.5463  134.1352  159.8509 H   0  0  0  0  0  0  0  0  0  0  0  0  # atno 6909 bound_to 6896
  145.0068  139.4258  143.5264 H   0  0  0  0  0  0  0  0  0  0  0  0  # atno 7974 bound_to 7965
  155.6593  140.3497  155.4776 H   0  0  0  0  0  0  0  0  0  0  0  0  # atno 8008 bound_to 7997
  155.9782  140.1169  157.0773 H   0  0  0  0  0  0  0  0  0  0  0  0  # atno 8009 bound_to 7997
  154.4184  140.1143  156.5385 H   0  0  0  0  0  0  0  0  0  0  0  0  # atno 8010 bound_to 7997
  140.7110  143.5764  150.9038 H   0  0  0  0  0  0  0  0  0  0  0  0  # atno 10167 bound_to 10162
  156.9374  130.5848  149.5651 H   0  0  0  0  0  0  0  0  0  0  0  0  # atno 10718 bound_to 10713
  154.2082  135.6399  153.5107 H   0  0  0  0  0  0  0  0  0  0  0  0  # atno 10763 bound_to 10752
  152.9996  135.5467  154.6243 H   0  0  0  0  0  0  0  0  0  0  0  0  # atno 10764 bound_to 10752
  154.5673  135.2914  155.0835 H   0  0  0  0  0  0  0  0  0  0  0  0  # atno 10765 bound_to 10752
  141.0855  133.6643  156.3836 H   0  0  0  0  0  0  0  0  0  0  0  0  # atno 11005 bound_to 11000
  146.3462  139.9489  142.8731 LP  0  0  0  0  0  0  0  0  0  0  0  0  # atno 17320 bound_to 7965
  145.2077  140.9882  143.4119 LP  0  0  0  0  0  0  0  0  0  0  0  0  # atno 17321 bound_to 7965
  139.9490  143.6294  152.3034 LP  0  0  0  0  0  0  0  0  0  0  0  0  # atno 17342 bound_to 10162
  139.6806  144.7656  151.1616 LP  0  0  0  0  0  0  0  0  0  0  0  0  # atno 17343 bound_to 10162
  156.0420  130.5501  150.8792 LP  0  0  0  0  0  0  0  0  0  0  0  0  # atno 17370 bound_to 10713
  157.5807  131.0946  150.9275 LP  0  0  0  0  0  0  0  0  0  0  0  0  # atno 17371 bound_to 10713
  140.5371  134.6156  157.5368 LP  0  0  0  0  0  0  0  0  0  0  0  0  # atno 17394 bound_to 11000
  139.9673  134.7351  156.0112 LP  0  0  0  0  0  0  0  0  0  0  0  0  # atno 17395 bound_to 11000

$$$$
