AV-unprocessed.smi:2390|AV-procd|sdf|9476|dock10
  -GOLD-   2272013103D 1   1.00000     0.00000
 Structure written by MMmdl.
 45 46  0  0  0  0  0  0  0  0  1 V2000
  144.2302  133.0074  149.5167 C   0  0  0  0  0  0  0  0  0  0  0  0
  145.1473  132.4445  150.5818 C   0  0  0  0  0  0  0  0  0  0  0  0
  145.1264  131.0738  150.9066 C   0  0  0  0  0  0  0  0  0  0  0  0
  146.0045  130.6159  151.9051 C   0  0  0  0  0  0  0  0  0  0  0  0
  146.8615  131.5404  152.5330 C   0  0  0  0  0  0  0  0  0  0  0  0
  146.8184  132.8999  152.1496 C   0  0  0  0  0  0  0  0  0  0  0  0
  147.7220  133.7497  152.8411 N   0  0  0  0  0  0  0  0  0  0  0  0
  148.1169  133.6739  154.1242 C   0  0  0  0  0  0  0  0  0  0  0  0
  147.7644  132.8090  154.9268 O   0  0  0  0  0  0  0  0  0  0  0  0
  148.9541  134.6754  154.4315 N   0  0  0  0  0  0  0  0  0  0  0  0
  149.5402  134.9282  155.7481 C   0  0  1  0  0  0  0  0  0  0  0  0
  151.0466  134.6120  155.7140 C   0  0  0  0  0  0  0  0  0  0  0  0
  149.1873  136.3671  156.2411 C   0  0  1  0  0  0  0  0  0  0  0  0
  149.8192  136.6151  157.6352 C   0  0  0  0  0  0  0  0  0  0  0  0
  149.5274  137.4337  155.2651 N   0  0  0  0  0  0  0  0  0  0  0  0
  150.9693  137.5268  155.0080 C   0  0  0  0  0  0  0  0  0  0  0  0
  151.3286  138.6385  154.0069 C   0  0  0  0  0  0  0  0  0  0  0  0
  150.8342  139.8850  154.4762 O   0  0  0  0  0  0  0  0  0  0  0  0
  149.4262  139.8622  154.6626 C   0  0  0  0  0  0  0  0  0  0  0  0
  149.0543  138.7626  155.6717 C   0  0  0  0  0  0  0  0  0  0  0  0
  145.9673  133.3316  151.1856 N   0  0  0  0  0  0  0  0  0  0  0  0
  143.7105  132.2119  148.9819 H   0  0  0  0  0  0  0  0  0  0  0  0
  144.8005  133.5877  148.7906 H   0  0  0  0  0  0  0  0  0  0  0  0
  143.4829  133.6603  149.9682 H   0  0  0  0  0  0  0  0  0  0  0  0
  144.4569  130.3899  150.4057 H   0  0  0  0  0  0  0  0  0  0  0  0
  146.0218  129.5727  152.1847 H   0  0  0  0  0  0  0  0  0  0  0  0
  147.5435  131.2045  153.3008 H   0  0  0  0  0  0  0  0  0  0  0  0
  148.1011  134.5125  152.3000 H   0  0  0  0  0  0  0  0  0  0  0  0
  149.1832  135.3383  153.7054 H   0  0  0  0  0  0  0  0  0  0  0  0
  149.1484  134.2164  156.4731 H   0  0  0  0  0  0  0  0  0  0  0  0
  151.5278  134.8846  156.6537 H   0  0  0  0  0  0  0  0  0  0  0  0
  151.5634  135.1286  154.9056 H   0  0  0  0  0  0  0  0  0  0  0  0
  151.2102  133.5447  155.5617 H   0  0  0  0  0  0  0  0  0  0  0  0
  148.1056  136.3859  156.3829 H   0  0  0  0  0  0  0  0  0  0  0  0
  149.6007  135.8146  158.3389 H   0  0  0  0  0  0  0  0  0  0  0  0
  149.4288  137.5140  158.1097 H   0  0  0  0  0  0  0  0  0  0  0  0
  150.9033  136.7138  157.5723 H   0  0  0  0  0  0  0  0  0  0  0  0
  151.5013  137.6979  155.9450 H   0  0  0  0  0  0  0  0  0  0  0  0
  151.3479  136.5944  154.5934 H   0  0  0  0  0  0  0  0  0  0  0  0
  152.4102  138.7073  153.8900 H   0  0  0  0  0  0  0  0  0  0  0  0
  150.9135  138.4210  153.0215 H   0  0  0  0  0  0  0  0  0  0  0  0
  149.0997  140.8362  155.0269 H   0  0  0  0  0  0  0  0  0  0  0  0
  148.9264  139.6935  153.7072 H   0  0  0  0  0  0  0  0  0  0  0  0
  147.9703  138.7781  155.7598 H   0  0  0  0  0  0  0  0  0  0  0  0
  149.4582  139.0162  156.6528 H   0  0  0  0  0  0  0  0  0  0  0  0
  1  2  1  0  0  0  0
  1 22  1  0  0  0  0
  1 23  1  0  0  0  0
  1 24  1  0  0  0  0
  2 21  1  0  0  0  0
  2  3  2  0  0  0  0
  3  4  1  0  0  0  0
  3 25  1  0  0  0  0
  4  5  2  0  0  0  0
  4 26  1  0  0  0  0
  5  6  1  0  0  0  0
  5 27  1  0  0  0  0
  6  7  1  0  0  0  0
  6 21  2  0  0  0  0
  7  8  1  0  0  0  0
  7 28  1  0  0  0  0
  8  9  2  0  0  0  0
  8 10  1  0  0  0  0
 10 11  1  0  0  0  0
 10 29  1  0  0  0  0
 11 12  1  0  0  0  0
 11 13  1  0  0  0  0
 11 30  1  0  0  0  0
 12 31  1  0  0  0  0
 12 32  1  0  0  0  0
 12 33  1  0  0  0  0
 13 14  1  0  0  0  0
 13 15  1  0  0  0  0
 13 34  1  0  0  0  0
 14 35  1  0  0  0  0
 14 36  1  0  0  0  0
 14 37  1  0  0  0  0
 15 20  1  0  0  0  0
 15 16  1  0  0  0  0
 16 17  1  0  0  0  0
 16 38  1  0  0  0  0
 16 39  1  0  0  0  0
 17 18  1  0  0  0  0
 17 40  1  0  0  0  0
 17 41  1  0  0  0  0
 18 19  1  0  0  0  0
 19 20  1  0  0  0  0
 19 42  1  0  0  0  0
 19 43  1  0  0  0  0
 20 44  1  0  0  0  0
 20 45  1  0  0  0  0
M  END
> <s_m_source_file>
AV-unprocessed.smi

> <i_m_source_file_index>
2390

> <i_lp_mmshare_version>
43012

> <i_f3d_flags>
0

> <s_epik_input>
W0NIM11jMVtjSF1bY0hdW2NIXWMobjEpW05IXUMoPU8pW05IXVtDQEhdKFtDSDNdKVtDQEhdKFtDSDNdKU4yW0NIMl1bQ0gyXU9bQ0gyXVtDSDJdMg==

> <s_epik_cmdline>
J2VwaWtfcHl0aG9uJywgJy1waCcsICc3LjAnLCAnLXRuJywgJzgnLCAnLW1hJywgJzIwMCcsICctbWV0YWxfYmluZGluZycsICctaW1hZScsICc8aW5maWxlLm1hZT4nLCAnLW9tYWUnLCAnPG91dGZpbGUubWFlPic=

> <r_epik_Ionization_Penalty>
0.266074

> <r_epik_Ionization_Penalty_Charging>
0

> <r_epik_Ionization_Penalty_Neutral>
0.266074

> <r_epik_State_Penalty>
0.257924

> <r_epik_Charging_Adjusted_Penalty>
0.257924

> <i_epik_Tot_Q>
0

> <i_epik_Tot_abs_Q>
0

> <r_epik_Metal_State_Penalty>
0.257919

> <b_epik_Metal_Only>
0

> <s_lp_Force_Field>
OPLS_2005

> <r_lp_Energy>
36.7319

> <b_lp_Chiralities_Consistent>
1

> <s_lp_Variant>
AV-unprocessed.smi:2390-4

> <Gold.Version>
5.8.1

> <Gold.Id.Protein>
6NUR|6NUR_protein|mol2

> <Gold.PLP.Fitness>
38.3211

> <Gold.PLP.PLP>
-29.9527

> <Gold.PLP.part.hbond>
-3.0000

> <Gold.PLP.part.metal>
0.0000

> <Gold.PLP.part.buried>
-4.5687

> <Gold.PLP.part.nonpolar>
-21.0508

> <Gold.PLP.part.repulsive>
0.3888

> <Gold.PLP.ligand.clash>
0.0000

> <Gold.PLP.ligand.torsion>
0.3677

> <Gold.PLP.Chemscore.Hbond>
3.0000

> <Gold.PLP.Chemscore.CHOScore>
0.0000

> <Gold.PLP.Chemscore.Metal>
0.0000

> <Gold.Chemscore.Hbonds>
donor molecule, donor type, donor heavy atom, donor atom, acceptor molecule, acceptor atom, score
      L1  H     7    28       P1  7948  0.95
      L1  H    10    29       P1  7948  1.00
      P1  H  7989  7998       L1    18  0.95

> <Gold.PLP.Chemscore.Internal.Correction>
0.1038

> <Gold.Rescore>
     Score         DG    S(hbond)    S(metal)    S(lipo)     H(rot)  DE(clash)    DE(int)     intcor
     14.32     -17.87       1.90        0.00      83.16       1.44       0.71       2.84       ----

> <Gold.Chemscore.Fitness>
14.3211

> <Gold.Chemscore.DG>
-17.8718

> <Gold.Chemscore.ZeroCoef>
-5.4800

> <Gold.Chemscore.Hbond>
1.9004

> <Gold.Chemscore.Metal>
0.0000

> <Gold.Chemscore.Lipo>
83.1624

> <Gold.Chemscore.Internal_Hbond>
0.0000

> <Gold.Chemscore.DEClash>
0.7076

> <Gold.Chemscore.DEInternal>
2.8431

> <Gold.Chemscore.Rot>
1.4396

> <Gold.Chemscore.Internal.Correction>
   9.000000E+99

> <Gold.Chemscore.Hbonds>
donor molecule, donor type, donor heavy atom, donor atom, acceptor molecule, acceptor atom, score
      L1  H     7    28       P1  7948  0.21
      L1  H    10    29       P1  7948  0.41
      P1  H  7989  7998       L1    18  0.21

> <Gold.Chemscore.Hbond.Weighted>
-6.3472

> <Gold.Chemscore.Metal.Weighted>
-0.0000

> <Gold.Chemscore.Lipo.Weighted>
-9.7300

> <Gold.Chemscore.Internal_Hbond.Weighted>
0.0000

> <Gold.Chemscore.DEClash.Weighted>
0.7076

> <Gold.Chemscore.DEInternal.Weighted>
2.8431

> <Gold.Chemscore.Rot.Weighted>
3.6855

> <Gold.Chemscore.Internal.Correction.Weighted>
   9.000000E+99

> <Gold.Protein.RotatedTorsions>
[ 6907 6896 6895 6894 ] final  -80.14 input  -60.11 | X-H torsion
[ 7974 7965 7964 7962 ] final  -81.50 input  175.53 | X-H torsion
[ 8008 7997 7996 7995 ] final   41.98 input   59.86 | X-H torsion
[ 10167 10162 10161 10158 ] final  -61.41 input  -65.29 | X-H torsion
[ 10718 10713 10712 10709 ] final  -99.84 input   66.30 | X-H torsion
[ 10763 10752 10751 10750 ] final  162.59 input  -60.55 | X-H torsion
[ 11005 11000 10999 10996 ] final    0.81 input  -57.11 | X-H torsion

> <Gold.Protein.ActiveResidues>
 VAL166  LYS551  ARG553  GLY616  TRP617  ASP618  TYR619  PRO620  LYS621  CYS622 
 ASP623  PHE694  ASN695  SER759  ASP760  ASP761  ALA762  ILE779  LEU786  VAL792 
 PHE793  MET794  SER795  GLU796  ALA797  LYS798  CYS799  TRP800  GLU811  SER814 

> <Gold.Protein.RotatedAtoms>
  150.6935  134.4015  159.5120 H   0  0  0  0  0  0  0  0  0  0  0  0  # atno 6907 bound_to 6896
  152.1788  134.8769  160.0537 H   0  0  0  0  0  0  0  0  0  0  0  0  # atno 6908 bound_to 6896
  151.9767  133.3709  159.4129 H   0  0  0  0  0  0  0  0  0  0  0  0  # atno 6909 bound_to 6896
  145.5458  140.9503  143.1526 H   0  0  0  0  0  0  0  0  0  0  0  0  # atno 7974 bound_to 7965
  155.2785  140.3371  155.4260 H   0  0  0  0  0  0  0  0  0  0  0  0  # atno 8008 bound_to 7997
  156.2100  140.1766  156.7756 H   0  0  0  0  0  0  0  0  0  0  0  0  # atno 8009 bound_to 7997
  154.5673  140.0676  156.8896 H   0  0  0  0  0  0  0  0  0  0  0  0  # atno 8010 bound_to 7997
  140.6008  143.2361  151.5933 H   0  0  0  0  0  0  0  0  0  0  0  0  # atno 10167 bound_to 10162
  156.0145  130.5301  150.6729 H   0  0  0  0  0  0  0  0  0  0  0  0  # atno 10718 bound_to 10713
  154.2807  135.2763  155.2698 H   0  0  0  0  0  0  0  0  0  0  0  0  # atno 10763 bound_to 10752
  154.5221  135.5753  153.6692 H   0  0  0  0  0  0  0  0  0  0  0  0  # atno 10764 bound_to 10752
  152.9929  135.6207  154.2966 H   0  0  0  0  0  0  0  0  0  0  0  0  # atno 10765 bound_to 10752
  140.6224  133.9649  155.8231 H   0  0  0  0  0  0  0  0  0  0  0  0  # atno 11005 bound_to 11000
  144.7554  139.7088  143.7256 LP  0  0  0  0  0  0  0  0  0  0  0  0  # atno 17320 bound_to 7965
  146.1950  139.5212  142.9780 LP  0  0  0  0  0  0  0  0  0  0  0  0  # atno 17321 bound_to 7965
  139.5290  144.2974  152.1102 LP  0  0  0  0  0  0  0  0  0  0  0  0  # atno 17342 bound_to 10162
  140.2154  144.4520  150.6366 LP  0  0  0  0  0  0  0  0  0  0  0  0  # atno 17343 bound_to 10162
  157.4448  131.0865  151.0907 LP  0  0  0  0  0  0  0  0  0  0  0  0  # atno 17370 bound_to 10713
  157.1440  130.6155  149.5563 LP  0  0  0  0  0  0  0  0  0  0  0  0  # atno 17371 bound_to 10713
  141.0733  134.0172  157.3494 LP  0  0  0  0  0  0  0  0  0  0  0  0  # atno 17394 bound_to 11000
  139.9148  135.0195  156.7838 LP  0  0  0  0  0  0  0  0  0  0  0  0  # atno 17395 bound_to 11000

$$$$
