AV-unprocessed.smi:260|AV-procd|sdf|1975|dock7
  -GOLD-   2262021143D 1   1.00000     0.00000
 Structure written by MMmdl.
 53 56  0  0  0  0  0  0  0  0  1 V2000
  146.4017  144.3356  159.9060 C   0  0  0  0  0  0  0  0  0  0  0  0
  146.8359  143.6826  158.6806 N   0  0  0  0  0  0  0  0  0  0  0  0
  146.7066  142.3693  158.4320 C   0  0  0  0  0  0  0  0  0  0  0  0
  146.1933  141.6024  159.2487 O   0  0  0  0  0  0  0  0  0  0  0  0
  147.2285  141.8269  157.0721 C   0  0  1  0  0  0  0  0  0  0  0  0
  146.4101  142.3638  155.8745 C   0  0  0  0  0  0  0  0  0  0  0  0
  148.7302  142.1458  156.9172 C   0  0  0  0  0  0  0  0  0  0  0  0
  149.4581  141.0035  157.6296 C   0  0  0  0  0  0  0  0  0  0  0  0
  148.5593  139.8673  157.5257 N   0  0  0  0  0  0  0  0  0  0  0  0
  148.7889  138.6730  158.1309 C   0  0  0  0  0  0  0  0  0  0  0  0
  150.0578  138.3874  158.5257 N   0  0  0  0  0  0  0  0  0  0  0  0
  150.3400  137.2286  159.1264 C   0  0  0  0  0  0  0  0  0  0  0  0
  149.5167  136.2244  159.4280 N   0  0  0  0  0  0  0  0  0  0  0  0
  148.2389  136.5012  159.0411 C   0  0  0  0  0  0  0  0  0  0  0  0
  147.7883  137.6904  158.3972 C   0  0  0  0  0  0  0  0  0  0  0  0
  146.4181  137.6033  158.1729 N   0  0  0  0  0  0  0  0  0  0  0  0
  146.0824  136.4363  158.6482 C   0  0  0  0  0  0  0  0  0  0  0  0
  147.1188  135.6983  159.1712 N   0  0  0  0  0  0  0  0  0  0  0  0
  147.0295  134.3758  159.7661 C   0  0  0  0  0  0  0  0  0  0  0  0
  147.3605  134.3481  161.2761 C   0  0  2  0  0  0  0  0  0  0  0  0
  147.7988  133.0319  161.5465 O   0  0  0  0  0  0  0  0  0  0  0  0
  146.1722  134.6360  162.2231 C   0  0  2  0  0  0  0  0  0  0  0  0
  145.1042  133.5428  162.3196 C   0  0  0  0  0  0  0  0  0  0  0  0
  143.8450  134.2922  162.7225 C   0  0  0  0  0  0  0  0  0  0  0  0
  144.1711  135.7524  162.4079 C   0  0  0  0  0  0  0  0  0  0  0  0
  145.4001  135.7068  161.6979 O   0  0  0  0  0  0  0  0  0  0  0  0
  147.2335  140.2807  157.0764 C   0  0  0  0  0  0  0  0  0  0  0  0
  146.5927  145.4068  159.8433 H   0  0  0  0  0  0  0  0  0  0  0  0
  146.9428  143.9423  160.7674 H   0  0  0  0  0  0  0  0  0  0  0  0
  145.3332  144.1895  160.0687 H   0  0  0  0  0  0  0  0  0  0  0  0
  147.2641  144.2632  157.9742 H   0  0  0  0  0  0  0  0  0  0  0  0
  146.7596  141.9346  154.9349 H   0  0  0  0  0  0  0  0  0  0  0  0
  146.4964  143.4470  155.7792 H   0  0  0  0  0  0  0  0  0  0  0  0
  145.3522  142.1143  155.9668 H   0  0  0  0  0  0  0  0  0  0  0  0
  149.0056  142.1403  155.8617 H   0  0  0  0  0  0  0  0  0  0  0  0
  149.0112  143.1216  157.3159 H   0  0  0  0  0  0  0  0  0  0  0  0
  150.4229  140.7970  157.1658 H   0  0  0  0  0  0  0  0  0  0  0  0
  149.6227  141.2464  158.6799 H   0  0  0  0  0  0  0  0  0  0  0  0
  151.3740  137.0857  159.4039 H   0  0  0  0  0  0  0  0  0  0  0  0
  145.0639  136.0774  158.6224 H   0  0  0  0  0  0  0  0  0  0  0  0
  146.0343  133.9658  159.5885 H   0  0  0  0  0  0  0  0  0  0  0  0
  147.7265  133.7379  159.2206 H   0  0  0  0  0  0  0  0  0  0  0  0
  148.1843  135.0299  161.4904 H   0  0  0  0  0  0  0  0  0  0  0  0
  147.4008  132.4486  160.9186 H   0  0  0  0  0  0  0  0  0  0  0  0
  146.5247  134.8932  163.2242 H   0  0  0  0  0  0  0  0  0  0  0  0
  144.9495  133.0781  161.3451 H   0  0  0  0  0  0  0  0  0  0  0  0
  145.3632  132.7609  163.0330 H   0  0  0  0  0  0  0  0  0  0  0  0
  142.9816  133.9369  162.1590 H   0  0  0  0  0  0  0  0  0  0  0  0
  143.6287  134.1679  163.7843 H   0  0  0  0  0  0  0  0  0  0  0  0
  143.3947  136.2381  161.8167 H   0  0  0  0  0  0  0  0  0  0  0  0
  144.3069  136.3230  163.3278 H   0  0  0  0  0  0  0  0  0  0  0  0
  146.4457  139.8823  157.7181 H   0  0  0  0  0  0  0  0  0  0  0  0
  147.0686  139.8805  156.0756 H   0  0  0  0  0  0  0  0  0  0  0  0
  1  2  1  0  0  0  0
  1 28  1  0  0  0  0
  1 29  1  0  0  0  0
  1 30  1  0  0  0  0
  2  3  1  0  0  0  0
  2 31  1  0  0  0  0
  3  4  2  0  0  0  0
  3  5  1  0  0  0  0
  5 27  1  0  0  0  0
  5  6  1  0  0  0  0
  5  7  1  0  0  0  0
  6 32  1  0  0  0  0
  6 33  1  0  0  0  0
  6 34  1  0  0  0  0
  7  8  1  0  0  0  0
  7 35  1  0  0  0  0
  7 36  1  0  0  0  0
  8  9  1  0  0  0  0
  8 37  1  0  0  0  0
  8 38  1  0  0  0  0
  9 10  1  0  0  0  0
  9 27  1  0  0  0  0
 10 15  1  0  0  0  0
 10 11  2  0  0  0  0
 11 12  1  0  0  0  0
 12 13  2  0  0  0  0
 12 39  1  0  0  0  0
 13 14  1  0  0  0  0
 14 18  1  0  0  0  0
 14 15  2  0  0  0  0
 15 16  1  0  0  0  0
 16 17  2  0  0  0  0
 17 18  1  0  0  0  0
 17 40  1  0  0  0  0
 18 19  1  0  0  0  0
 19 20  1  0  0  0  0
 19 41  1  0  0  0  0
 19 42  1  0  0  0  0
 20 21  1  0  0  0  0
 20 22  1  0  0  0  0
 20 43  1  0  0  0  0
 21 44  1  0  0  0  0
 22 26  1  0  0  0  0
 22 23  1  0  0  0  0
 22 45  1  0  0  0  0
 23 24  1  0  0  0  0
 23 46  1  0  0  0  0
 23 47  1  0  0  0  0
 24 25  1  0  0  0  0
 24 48  1  0  0  0  0
 24 49  1  0  0  0  0
 25 26  1  0  0  0  0
 25 50  1  0  0  0  0
 25 51  1  0  0  0  0
 27 52  1  0  0  0  0
 27 53  1  0  0  0  0
M  END
> <s_m_source_file>
AV-unprocessed.smi

> <i_m_source_file_index>
260

> <i_lp_mmshare_version>
43012

> <i_f3d_flags>
0

> <s_epik_input>
W0NIM11bTkhdQyg9TylbQ0BAXTEoW0NIM10pW0NIMl1bQ0gyXU4oW0NIMl0xKWMobltjSF1uMiljKGMyMyluW2NIXW4zW0NIMl1bQ0BIXShbT0hdKVtDQEBIXTRbQ0gyXVtDSDJdW0NIMl1PNA==

> <s_epik_cmdline>
J2VwaWtfcHl0aG9uJywgJy1waCcsICc3LjAnLCAnLXRuJywgJzgnLCAnLW1hJywgJzIwMCcsICctbWV0YWxfYmluZGluZycsICctaW1hZScsICc8aW5maWxlLm1hZT4nLCAnLW9tYWUnLCAnPG91dGZpbGUubWFlPic=

> <r_lp_tautomer_probability>
1

> <r_epik_Ionization_Penalty>
0.00115068

> <r_epik_Ionization_Penalty_Charging>
0

> <r_epik_Ionization_Penalty_Neutral>
0.00115068

> <r_epik_State_Penalty>
0.000668876

> <r_epik_Charging_Adjusted_Penalty>
0.000668876

> <i_epik_Tot_Q>
0

> <i_epik_Tot_abs_Q>
0

> <r_epik_Metal_State_Penalty>
-0

> <b_epik_Metal_Only>
0

> <s_lp_Force_Field>
OPLS_2005

> <r_lp_Energy>
51.9197

> <b_lp_Chiralities_Consistent>
1

> <s_lp_Variant>
AV-unprocessed.smi:260-1

> <Gold.Version>
5.8.1

> <Gold.Id.Protein>
6NUR|6NUR_protein|mol2

> <Gold.PLP.Fitness>
37.9383

> <Gold.PLP.PLP>
-30.5731

> <Gold.PLP.part.hbond>
-3.0000

> <Gold.PLP.part.metal>
0.0000

> <Gold.PLP.part.buried>
-3.9610

> <Gold.PLP.part.nonpolar>
-23.7580

> <Gold.PLP.part.repulsive>
0.0637

> <Gold.PLP.ligand.clash>
0.0000

> <Gold.PLP.ligand.torsion>
0.7991

> <Gold.PLP.Chemscore.Hbond>
2.9120

> <Gold.PLP.Chemscore.CHOScore>
0.0000

> <Gold.PLP.Chemscore.Metal>
0.0000

> <Gold.Chemscore.Hbonds>
donor molecule, donor type, donor heavy atom, donor atom, acceptor molecule, acceptor atom, score
      L1  H     2    31       P1  8029  1.00
      P1  H  6896  6907       L1    13  0.95
      P1  H  6934  6946       L1     4  0.90

> <Gold.PLP.Chemscore.Internal.Correction>
0.2273

> <Gold.Rescore>
     Score         DG    S(hbond)    S(metal)    S(lipo)     H(rot)  DE(clash)    DE(int)     intcor
     11.34     -14.33       2.59        0.00      57.01       2.53       1.40       1.59       ----

> <Gold.Chemscore.Fitness>
11.3403

> <Gold.Chemscore.DG>
-14.3347

> <Gold.Chemscore.ZeroCoef>
-5.4800

> <Gold.Chemscore.Hbond>
2.5901

> <Gold.Chemscore.Metal>
0.0000

> <Gold.Chemscore.Lipo>
57.0099

> <Gold.Chemscore.Internal_Hbond>
0.0000

> <Gold.Chemscore.DEClash>
1.4006

> <Gold.Chemscore.DEInternal>
1.5938

> <Gold.Chemscore.Rot>
2.5259

> <Gold.Chemscore.Internal.Correction>
   9.000000E+99

> <Gold.Chemscore.Hbonds>
donor molecule, donor type, donor heavy atom, donor atom, acceptor molecule, acceptor atom, score
      L1  H     2    31       P1  8029  0.25
      P1  H  6896  6907       L1    13  0.21
      P1  H  6934  6946       L1     4  0.88

> <Gold.Chemscore.Hbond.Weighted>
-8.6508

> <Gold.Chemscore.Metal.Weighted>
-0.0000

> <Gold.Chemscore.Lipo.Weighted>
-6.6702

> <Gold.Chemscore.Internal_Hbond.Weighted>
0.0000

> <Gold.Chemscore.DEClash.Weighted>
1.4006

> <Gold.Chemscore.DEInternal.Weighted>
1.5938

> <Gold.Chemscore.Rot.Weighted>
6.4663

> <Gold.Chemscore.Internal.Correction.Weighted>
   9.000000E+99

> <Gold.Protein.RotatedTorsions>
[ 6907 6896 6895 6894 ] final  -52.55 input  -60.11 | X-H torsion
[ 7974 7965 7964 7962 ] final  -21.91 input  175.53 | X-H torsion
[ 8008 7997 7996 7995 ] final   21.58 input   59.86 | X-H torsion
[ 10167 10162 10161 10158 ] final  171.52 input  -65.29 | X-H torsion
[ 10718 10713 10712 10709 ] final  -63.16 input   66.30 | X-H torsion
[ 10763 10752 10751 10750 ] final   60.36 input  -60.55 | X-H torsion
[ 11005 11000 10999 10996 ] final -167.37 input  -57.11 | X-H torsion

> <Gold.Protein.ActiveResidues>
 VAL166  LYS551  ARG553  GLY616  TRP617  ASP618  TYR619  PRO620  LYS621  CYS622 
 ASP623  PHE694  ASN695  SER759  ASP760  ASP761  ALA762  ILE779  LEU786  VAL792 
 PHE793  MET794  SER795  GLU796  ALA797  LYS798  CYS799  TRP800  GLU811  SER814 

> <Gold.Protein.RotatedAtoms>
  150.8508  134.7832  159.7006 H   0  0  0  0  0  0  0  0  0  0  0  0  # atno 6907 bound_to 6896
  152.4573  134.5260  159.9806 H   0  0  0  0  0  0  0  0  0  0  0  0  # atno 6908 bound_to 6896
  151.5381  133.3399  159.2966 H   0  0  0  0  0  0  0  0  0  0  0  0  # atno 6909 bound_to 6896
  146.1706  140.4407  142.8534 H   0  0  0  0  0  0  0  0  0  0  0  0  # atno 7974 bound_to 7965
  154.9528  140.3068  155.5067 H   0  0  0  0  0  0  0  0  0  0  0  0  # atno 8008 bound_to 7997
  156.2985  140.2315  156.4545 H   0  0  0  0  0  0  0  0  0  0  0  0  # atno 8009 bound_to 7997
  154.8038  140.0432  157.1281 H   0  0  0  0  0  0  0  0  0  0  0  0  # atno 8010 bound_to 7997
  139.5049  144.3477  151.9955 H   0  0  0  0  0  0  0  0  0  0  0  0  # atno 10167 bound_to 10162
  156.0808  130.4217  150.1238 H   0  0  0  0  0  0  0  0  0  0  0  0  # atno 10718 bound_to 10713
  152.9919  135.5539  154.5861 H   0  0  0  0  0  0  0  0  0  0  0  0  # atno 10763 bound_to 10752
  154.5233  135.2809  155.1246 H   0  0  0  0  0  0  0  0  0  0  0  0  # atno 10764 bound_to 10752
  154.2591  135.6384  153.5320 H   0  0  0  0  0  0  0  0  0  0  0  0  # atno 10765 bound_to 10752
  140.5540  134.5400  157.5129 H   0  0  0  0  0  0  0  0  0  0  0  0  # atno 11005 bound_to 11000
  144.8157  140.6464  143.6386 LP  0  0  0  0  0  0  0  0  0  0  0  0  # atno 17320 bound_to 7965
  145.4351  139.1543  143.4001 LP  0  0  0  0  0  0  0  0  0  0  0  0  # atno 17321 bound_to 7965
  140.2914  144.3750  150.6087 LP  0  0  0  0  0  0  0  0  0  0  0  0  # atno 17342 bound_to 10162
  140.5944  143.2167  151.7193 LP  0  0  0  0  0  0  0  0  0  0  0  0  # atno 17343 bound_to 10162
  156.9270  130.9701  151.3539 LP  0  0  0  0  0  0  0  0  0  0  0  0  # atno 17370 bound_to 10713
  157.5924  130.8453  149.8679 LP  0  0  0  0  0  0  0  0  0  0  0  0  # atno 17371 bound_to 10713
  139.9441  134.7734  156.0606 LP  0  0  0  0  0  0  0  0  0  0  0  0  # atno 17394 bound_to 11000
  141.1154  133.6629  156.3082 LP  0  0  0  0  0  0  0  0  0  0  0  0  # atno 17395 bound_to 11000

$$$$
