AV-unprocessed.smi:2472|AV-procd|sdf|9741|dock5
  -GOLD-   2272013383D 1   1.00000     0.00000
 Structure written by MMmdl.
 47 49  0  0  0  0  0  0  0  0  1 V2000
  151.2971  145.1738  158.2246 C   0  0  0  0  0  0  0  0  0  0  0  0
  151.7175  143.8227  158.7756 C   0  0  0  0  0  0  0  0  0  0  0  0
  152.6311  143.7524  159.8496 C   0  0  0  0  0  0  0  0  0  0  0  0
  153.0550  142.5932  160.3941 N   0  0  0  0  0  0  0  0  0  0  0  0
  152.5796  141.4430  159.8743 C   0  0  0  0  0  0  0  0  0  0  0  0
  151.6653  141.3957  158.8042 C   0  0  0  0  0  0  0  0  0  0  0  0
  151.2079  142.6129  158.2451 C   0  0  0  0  0  0  0  0  0  0  0  0
  150.3013  142.6668  157.1500 N   0  0  0  0  0  0  0  0  0  0  0  0
  149.3547  141.7748  156.8133 C   0  0  0  0  0  0  0  0  0  0  0  0
  149.1200  140.7274  157.4160 O   0  0  0  0  0  0  0  0  0  0  0  0
  148.6559  142.1909  155.7419 N   0  0  0  0  0  0  0  0  0  0  0  0
  147.5126  141.5230  155.0918 C   0  0  0  0  0  0  0  0  0  0  0  0
  146.1367  142.0785  155.5610 C   0  0  0  0  0  0  0  0  0  0  0  0
  145.3321  141.3340  156.1229 O   0  0  0  0  0  0  0  0  0  0  0  0
  145.8576  143.3696  155.3176 N   0  0  0  0  0  0  0  0  0  0  0  0
  144.6272  144.0463  155.6961 C   0  0  0  0  0  0  0  0  0  0  0  0
  143.9817  144.8126  154.5608 C   0  0  0  0  0  0  0  0  0  0  0  0
  144.7991  145.2589  153.3718 C   0  0  0  0  0  0  0  0  0  0  0  0
  144.2699  146.2804  154.3500 C   0  0  0  0  0  0  0  0  0  0  0  0
  147.6357  141.7343  153.5633 C   0  0  0  0  0  0  0  0  0  0  0  0
  147.1485  140.4437  152.9084 C   0  0  0  0  0  0  0  0  0  0  0  0
  147.6312  139.3508  153.8527 C   0  0  0  0  0  0  0  0  0  0  0  0
  147.5964  139.9723  155.2548 C   0  0  0  0  0  0  0  0  0  0  0  0
  151.7546  145.9897  158.7853 H   0  0  0  0  0  0  0  0  0  0  0  0
  150.2147  145.2899  158.2841 H   0  0  0  0  0  0  0  0  0  0  0  0
  151.5994  145.2697  157.1814 H   0  0  0  0  0  0  0  0  0  0  0  0
  153.0370  144.6528  160.2867 H   0  0  0  0  0  0  0  0  0  0  0  0
  152.9442  140.5297  160.3210 H   0  0  0  0  0  0  0  0  0  0  0  0
  151.3439  140.4366  158.4275 H   0  0  0  0  0  0  0  0  0  0  0  0
  150.3124  143.5259  156.6203 H   0  0  0  0  0  0  0  0  0  0  0  0
  148.9328  143.0707  155.3316 H   0  0  0  0  0  0  0  0  0  0  0  0
  146.5601  143.9253  154.8519 H   0  0  0  0  0  0  0  0  0  0  0  0
  143.9207  143.3140  156.0900 H   0  0  0  0  0  0  0  0  0  0  0  0
  144.8392  144.7494  156.5030 H   0  0  0  0  0  0  0  0  0  0  0  0
  142.9690  144.4841  154.3332 H   0  0  0  0  0  0  0  0  0  0  0  0
  145.8685  145.0571  153.3860 H   0  0  0  0  0  0  0  0  0  0  0  0
  144.3285  145.2108  152.3918 H   0  0  0  0  0  0  0  0  0  0  0  0
  143.4449  146.9107  154.0244 H   0  0  0  0  0  0  0  0  0  0  0  0
  144.9876  146.7579  155.0140 H   0  0  0  0  0  0  0  0  0  0  0  0
  147.0831  142.6021  153.1991 H   0  0  0  0  0  0  0  0  0  0  0  0
  148.6789  141.8922  153.2835 H   0  0  0  0  0  0  0  0  0  0  0  0
  146.0589  140.4379  152.8594 H   0  0  0  0  0  0  0  0  0  0  0  0
  147.5277  140.3183  151.8938 H   0  0  0  0  0  0  0  0  0  0  0  0
  147.0276  138.4454  153.7827 H   0  0  0  0  0  0  0  0  0  0  0  0
  148.6576  139.0816  153.6002 H   0  0  0  0  0  0  0  0  0  0  0  0
  148.4809  139.6515  155.8059 H   0  0  0  0  0  0  0  0  0  0  0  0
  146.7462  139.5762  155.8118 H   0  0  0  0  0  0  0  0  0  0  0  0
  1  2  1  0  0  0  0
  1 24  1  0  0  0  0
  1 25  1  0  0  0  0
  1 26  1  0  0  0  0
  2  7  1  0  0  0  0
  2  3  2  0  0  0  0
  3  4  1  0  0  0  0
  3 27  1  0  0  0  0
  4  5  2  0  0  0  0
  5  6  1  0  0  0  0
  5 28  1  0  0  0  0
  6  7  2  0  0  0  0
  6 29  1  0  0  0  0
  7  8  1  0  0  0  0
  8  9  1  0  0  0  0
  8 30  1  0  0  0  0
  9 10  2  0  0  0  0
  9 11  1  0  0  0  0
 11 12  1  0  0  0  0
 11 31  1  0  0  0  0
 12 23  1  0  0  0  0
 12 13  1  0  0  0  0
 12 20  1  0  0  0  0
 13 14  2  0  0  0  0
 13 15  1  0  0  0  0
 15 16  1  0  0  0  0
 15 32  1  0  0  0  0
 16 17  1  0  0  0  0
 16 33  1  0  0  0  0
 16 34  1  0  0  0  0
 17 19  1  0  0  0  0
 17 18  1  0  0  0  0
 17 35  1  0  0  0  0
 18 19  1  0  0  0  0
 18 36  1  0  0  0  0
 18 37  1  0  0  0  0
 19 38  1  0  0  0  0
 19 39  1  0  0  0  0
 20 21  1  0  0  0  0
 20 40  1  0  0  0  0
 20 41  1  0  0  0  0
 21 22  1  0  0  0  0
 21 42  1  0  0  0  0
 21 43  1  0  0  0  0
 22 23  1  0  0  0  0
 22 44  1  0  0  0  0
 22 45  1  0  0  0  0
 23 46  1  0  0  0  0
 23 47  1  0  0  0  0
M  END
> <s_m_source_file>
AV-unprocessed.smi

> <i_m_source_file_index>
2472

> <i_lp_mmshare_version>
43012

> <i_f3d_flags>
0

> <s_epik_input>
W0NIM11jMVtjSF1uW2NIXVtjSF1jMVtOSF1DKD1PKVtOSF1DMihbQ0gyXVtDSDJdW0NIMl1bQ0gyXTIpQyg9TylbTkhdW0NIMl1bQ0hdM1tDSDJdW0NIMl0z

> <s_epik_cmdline>
J2VwaWtfcHl0aG9uJywgJy1waCcsICc3LjAnLCAnLXRuJywgJzgnLCAnLW1hJywgJzIwMCcsICctbWV0YWxfYmluZGluZycsICctaW1hZScsICc8aW5maWxlLm1hZT4nLCAnLW9tYWUnLCAnPG91dGZpbGUubWFlPic=

> <r_epik_Ionization_Penalty>
0.187836

> <r_epik_Ionization_Penalty_Charging>
0

> <r_epik_Ionization_Penalty_Neutral>
0.187836

> <r_epik_State_Penalty>
0.177409

> <r_epik_Charging_Adjusted_Penalty>
0.177409

> <i_epik_Tot_Q>
0

> <i_epik_Tot_abs_Q>
0

> <r_epik_Metal_State_Penalty>
0.134269

> <b_epik_Metal_Only>
0

> <s_lp_Force_Field>
OPLS_2005

> <r_lp_Energy>
32.7124

> <b_lp_Chiralities_Consistent>
1

> <s_lp_Variant>
AV-unprocessed.smi:2472-1

> <Gold.Version>
5.8.1

> <Gold.Id.Protein>
6NUR|6NUR_protein|mol2

> <Gold.PLP.Fitness>
43.8388

> <Gold.PLP.PLP>
-40.0526

> <Gold.PLP.part.hbond>
-2.0000

> <Gold.PLP.part.metal>
0.0000

> <Gold.PLP.part.buried>
-7.3852

> <Gold.PLP.part.nonpolar>
-31.3021

> <Gold.PLP.part.repulsive>
0.1928

> <Gold.PLP.ligand.clash>
0.0016

> <Gold.PLP.ligand.torsion>
1.2694

> <Gold.PLP.Chemscore.Hbond>
1.8960

> <Gold.PLP.Chemscore.CHOScore>
0.0000

> <Gold.PLP.Chemscore.Metal>
0.0000

> <Gold.Chemscore.Hbonds>
donor molecule, donor type, donor heavy atom, donor atom, acceptor molecule, acceptor atom, score
      L1  H     8    30       P1  8028  0.63
      L1  H    11    31       P1  8028  0.82

> <Gold.PLP.Chemscore.Internal.Correction>
0.6386

> <Gold.Rescore>
     Score         DG    S(hbond)    S(metal)    S(lipo)     H(rot)  DE(clash)    DE(int)     intcor
     17.36     -20.98       1.91        0.00     112.90       1.59       0.01       3.61       ----

> <Gold.Chemscore.Fitness>
17.3630

> <Gold.Chemscore.DG>
-20.9842

> <Gold.Chemscore.ZeroCoef>
-5.4800

> <Gold.Chemscore.Hbond>
1.9088

> <Gold.Chemscore.Metal>
0.0000

> <Gold.Chemscore.Lipo>
112.9026

> <Gold.Chemscore.Internal_Hbond>
0.0000

> <Gold.Chemscore.DEClash>
0.0133

> <Gold.Chemscore.DEInternal>
3.6079

> <Gold.Chemscore.Rot>
1.5941

> <Gold.Chemscore.Internal.Correction>
   9.000000E+99

> <Gold.Chemscore.Hbonds>
donor molecule, donor type, donor heavy atom, donor atom, acceptor molecule, acceptor atom, score
      L1  H     8    30       P1  8028  0.62
      L1  H    11    31       P1  8028  0.81

> <Gold.Chemscore.Hbond.Weighted>
-6.3755

> <Gold.Chemscore.Metal.Weighted>
-0.0000

> <Gold.Chemscore.Lipo.Weighted>
-13.2096

> <Gold.Chemscore.Internal_Hbond.Weighted>
0.0000

> <Gold.Chemscore.DEClash.Weighted>
0.0133

> <Gold.Chemscore.DEInternal.Weighted>
3.6079

> <Gold.Chemscore.Rot.Weighted>
4.0809

> <Gold.Chemscore.Internal.Correction.Weighted>
   9.000000E+99

> <Gold.Protein.RotatedTorsions>
[ 6907 6896 6895 6894 ] final -163.71 input  -60.11 | X-H torsion
[ 7974 7965 7964 7962 ] final -124.53 input  175.53 | X-H torsion
[ 8008 7997 7996 7995 ] final -172.29 input   59.86 | X-H torsion
[ 10167 10162 10161 10158 ] final  -38.81 input  -65.29 | X-H torsion
[ 10718 10713 10712 10709 ] final  -74.73 input   66.30 | X-H torsion
[ 10763 10752 10751 10750 ] final   28.01 input  -60.55 | X-H torsion
[ 11005 11000 10999 10996 ] final  151.83 input  -57.11 | X-H torsion

> <Gold.Protein.ActiveResidues>
 VAL166  LYS551  ARG553  GLY616  TRP617  ASP618  TYR619  PRO620  LYS621  CYS622 
 ASP623  PHE694  ASN695  SER759  ASP760  ASP761  ALA762  ILE779  LEU786  VAL792 
 PHE793  MET794  SER795  GLU796  ALA797  LYS798  CYS799  TRP800  GLU811  SER814 

> <Gold.Protein.RotatedAtoms>
  151.4004  133.3759  159.2731 H   0  0  0  0  0  0  0  0  0  0  0  0  # atno 6907 bound_to 6896
  150.9438  134.8846  159.7639 H   0  0  0  0  0  0  0  0  0  0  0  0  # atno 6908 bound_to 6896
  152.5083  134.3956  159.9451 H   0  0  0  0  0  0  0  0  0  0  0  0  # atno 6909 bound_to 6896
  145.0071  140.7873  143.4461 H   0  0  0  0  0  0  0  0  0  0  0  0  # atno 7974 bound_to 7965
  155.9427  140.1111  157.1042 H   0  0  0  0  0  0  0  0  0  0  0  0  # atno 8008 bound_to 7997
  154.4092  140.1216  156.5014 H   0  0  0  0  0  0  0  0  0  0  0  0  # atno 8009 bound_to 7997
  155.6941  140.3472  155.4908 H   0  0  0  0  0  0  0  0  0  0  0  0  # atno 8010 bound_to 7997
  140.7082  143.3254  151.2693 H   0  0  0  0  0  0  0  0  0  0  0  0  # atno 10167 bound_to 10162
  156.0232  130.4424  150.2936 H   0  0  0  0  0  0  0  0  0  0  0  0  # atno 10718 bound_to 10713
  153.0519  135.6523  154.0673 H   0  0  0  0  0  0  0  0  0  0  0  0  # atno 10763 bound_to 10752
  154.0359  135.2907  155.3363 H   0  0  0  0  0  0  0  0  0  0  0  0  # atno 10764 bound_to 10752
  154.6812  135.5319  153.8332 H   0  0  0  0  0  0  0  0  0  0  0  0  # atno 10765 bound_to 10752
  140.1253  134.8837  157.2129 H   0  0  0  0  0  0  0  0  0  0  0  0  # atno 11005 bound_to 11000
  145.2073  139.2222  143.5161 LP  0  0  0  0  0  0  0  0  0  0  0  0  # atno 17320 bound_to 7965
  146.3463  140.1904  142.8589 LP  0  0  0  0  0  0  0  0  0  0  0  0  # atno 17321 bound_to 7965
  139.6720  144.0003  152.2758 LP  0  0  0  0  0  0  0  0  0  0  0  0  # atno 17342 bound_to 10162
  139.9605  144.6561  150.8084 LP  0  0  0  0  0  0  0  0  0  0  0  0  # atno 17343 bound_to 10162
  157.1039  131.0203  151.3074 LP  0  0  0  0  0  0  0  0  0  0  0  0  # atno 17370 bound_to 10713
  157.4758  130.7735  149.7366 LP  0  0  0  0  0  0  0  0  0  0  0  0  # atno 17371 bound_to 10713
  140.2912  134.3238  155.7315 LP  0  0  0  0  0  0  0  0  0  0  0  0  # atno 17394 bound_to 11000
  141.2160  133.7535  156.9505 LP  0  0  0  0  0  0  0  0  0  0  0  0  # atno 17395 bound_to 11000

$$$$
