AV-unprocessed.smi:725|AV-procd|sdf|3508|dock4
  -GOLD-   22720 0503D 1   1.00000     0.00000
 Structure written by MMmdl.
 47 48  0  0  0  0  0  0  0  0  1 V2000
  144.7940  132.2203  149.8632 C   0  0  0  0  0  0  0  0  0  0  0  0
  144.1416  133.5590  150.2259 C   0  0  0  0  0  0  0  0  0  0  0  0
  144.4215  133.9710  151.6844 C   0  0  0  0  0  0  0  0  0  0  0  0
  145.8647  134.4557  151.9789 C   0  0  1  0  0  0  0  0  0  0  0  0
  146.9222  133.3706  151.6923 C   0  0  0  0  0  0  0  0  0  0  0  0
  146.1436  135.5511  151.1286 O   0  0  0  0  0  0  0  0  0  0  0  0
  145.9868  135.0054  153.4216 C   0  0  0  0  0  0  0  0  0  0  0  0
  147.2894  135.6069  153.6952 N   0  0  0  0  0  0  0  0  0  0  0  0
  147.7421  135.9732  154.9049 C   0  0  0  0  0  0  0  0  0  0  0  0
  147.1032  135.8203  155.9463 O   0  0  0  0  0  0  0  0  0  0  0  0
  149.1257  136.5686  154.9139 C   0  0  0  0  0  0  0  0  0  0  0  0
  149.2765  137.9700  154.7945 C   0  0  0  0  0  0  0  0  0  0  0  0
  150.5609  138.5386  154.8520 C   0  0  0  0  0  0  0  0  0  0  0  0
  151.6588  137.6815  155.0364 C   0  0  0  0  0  0  0  0  0  0  0  0
  151.5377  136.3444  155.1550 N   0  0  0  0  0  0  0  0  0  0  0  0
  150.3036  135.7841  155.0974 C   0  0  0  0  0  0  0  0  0  0  0  0
  150.2468  134.3785  155.1849 N   0  0  0  0  0  0  0  0  0  0  0  0
  149.5330  133.6645  154.1316 C   0  0  0  0  0  0  0  0  0  0  0  0
  149.7946  132.1540  154.2578 C   0  0  0  0  0  0  0  0  0  0  0  0
  149.4279  131.7127  155.5623 O   0  0  0  0  0  0  0  0  0  0  0  0
  150.1823  132.3636  156.5810 C   0  0  0  0  0  0  0  0  0  0  0  0
  149.9352  133.8805  156.5191 C   0  0  0  0  0  0  0  0  0  0  0  0
  144.5845  131.9544  148.8270 H   0  0  0  0  0  0  0  0  0  0  0  0
  144.4183  131.4150  150.4950 H   0  0  0  0  0  0  0  0  0  0  0  0
  145.8768  132.2645  149.9829 H   0  0  0  0  0  0  0  0  0  0  0  0
  144.5125  134.3224  149.5422 H   0  0  0  0  0  0  0  0  0  0  0  0
  143.0672  133.4848  150.0559 H   0  0  0  0  0  0  0  0  0  0  0  0
  143.7208  134.7595  151.9642 H   0  0  0  0  0  0  0  0  0  0  0  0
  144.1854  133.1231  152.3285 H   0  0  0  0  0  0  0  0  0  0  0  0
  146.7148  132.4557  152.2476 H   0  0  0  0  0  0  0  0  0  0  0  0
  147.9200  133.7079  151.9752 H   0  0  0  0  0  0  0  0  0  0  0  0
  146.9613  133.1089  150.6348 H   0  0  0  0  0  0  0  0  0  0  0  0
  147.0525  135.7885  151.2329 H   0  0  0  0  0  0  0  0  0  0  0  0
  145.1853  135.7169  153.6297 H   0  0  0  0  0  0  0  0  0  0  0  0
  145.8530  134.1938  154.1378 H   0  0  0  0  0  0  0  0  0  0  0  0
  147.8928  135.7600  152.9005 H   0  0  0  0  0  0  0  0  0  0  0  0
  148.4168  138.6132  154.6711 H   0  0  0  0  0  0  0  0  0  0  0  0
  150.6999  139.6061  154.7648 H   0  0  0  0  0  0  0  0  0  0  0  0
  152.6615  138.0794  155.0900 H   0  0  0  0  0  0  0  0  0  0  0  0
  148.4629  133.8610  154.2115 H   0  0  0  0  0  0  0  0  0  0  0  0
  149.8591  134.0209  153.1537 H   0  0  0  0  0  0  0  0  0  0  0  0
  149.2083  131.6079  153.5190 H   0  0  0  0  0  0  0  0  0  0  0  0
  150.8440  131.9239  154.0664 H   0  0  0  0  0  0  0  0  0  0  0  0
  149.8802  131.9724  157.5524 H   0  0  0  0  0  0  0  0  0  0  0  0
  151.2435  132.1390  156.4624 H   0  0  0  0  0  0  0  0  0  0  0  0
  150.5385  134.3857  157.2734 H   0  0  0  0  0  0  0  0  0  0  0  0
  148.8912  134.0996  156.7466 H   0  0  0  0  0  0  0  0  0  0  0  0
  1  2  1  0  0  0  0
  1 23  1  0  0  0  0
  1 24  1  0  0  0  0
  1 25  1  0  0  0  0
  2  3  1  0  0  0  0
  2 26  1  0  0  0  0
  2 27  1  0  0  0  0
  3  4  1  0  0  0  0
  3 28  1  0  0  0  0
  3 29  1  0  0  0  0
  4  5  1  0  0  0  0
  4  6  1  0  0  0  0
  4  7  1  0  0  0  0
  5 30  1  0  0  0  0
  5 31  1  0  0  0  0
  5 32  1  0  0  0  0
  6 33  1  0  0  0  0
  7  8  1  0  0  0  0
  7 34  1  0  0  0  0
  7 35  1  0  0  0  0
  8  9  1  0  0  0  0
  8 36  1  0  0  0  0
  9 10  2  0  0  0  0
  9 11  1  0  0  0  0
 11 16  1  0  0  0  0
 11 12  2  0  0  0  0
 12 13  1  0  0  0  0
 12 37  1  0  0  0  0
 13 14  2  0  0  0  0
 13 38  1  0  0  0  0
 14 15  1  0  0  0  0
 14 39  1  0  0  0  0
 15 16  2  0  0  0  0
 16 17  1  0  0  0  0
 17 22  1  0  0  0  0
 17 18  1  0  0  0  0
 18 19  1  0  0  0  0
 18 40  1  0  0  0  0
 18 41  1  0  0  0  0
 19 20  1  0  0  0  0
 19 42  1  0  0  0  0
 19 43  1  0  0  0  0
 20 21  1  0  0  0  0
 21 22  1  0  0  0  0
 21 44  1  0  0  0  0
 21 45  1  0  0  0  0
 22 46  1  0  0  0  0
 22 47  1  0  0  0  0
M  END
> <s_m_source_file>
AV-unprocessed.smi

> <i_m_source_file_index>
725

> <i_lp_mmshare_version>
43012

> <i_f3d_flags>
0

> <s_epik_input>
W0NIM11bQ0gyXVtDSDJdW0NAQF0oW0NIM10pKFtPSF0pW0NIMl1bTkhdQyg9TyljMVtjSF1bY0hdW2NIXW5jMU4yW0NIMl1bQ0gyXU9bQ0gyXVtDSDJdMg==

> <s_epik_cmdline>
J2VwaWtfcHl0aG9uJywgJy1waCcsICc3LjAnLCAnLXRuJywgJzgnLCAnLW1hJywgJzIwMCcsICctbWV0YWxfYmluZGluZycsICctaW1hZScsICc8aW5maWxlLm1hZT4nLCAnLW9tYWUnLCAnPG91dGZpbGUubWFlPic=

> <r_lp_tautomer_probability>
1

> <r_epik_Ionization_Penalty>
1.23446e-05

> <r_epik_Ionization_Penalty_Charging>
0

> <r_epik_Ionization_Penalty_Neutral>
1.23446e-05

> <r_epik_State_Penalty>
-0

> <r_epik_Charging_Adjusted_Penalty>
0

> <i_epik_Tot_Q>
0

> <i_epik_Tot_abs_Q>
0

> <r_epik_Metal_State_Penalty>
-0

> <b_epik_Metal_Only>
0

> <s_lp_Force_Field>
OPLS_2005

> <r_lp_Energy>
26.7516

> <b_lp_Chiralities_Consistent>
1

> <s_lp_Variant>
AV-unprocessed.smi:725-1

> <Gold.Version>
5.8.1

> <Gold.Id.Protein>
6NUR|6NUR_protein|mol2

> <Gold.PLP.Fitness>
37.3744

> <Gold.PLP.PLP>
-31.9926

> <Gold.PLP.part.hbond>
-3.0000

> <Gold.PLP.part.metal>
0.0000

> <Gold.PLP.part.buried>
-4.8666

> <Gold.PLP.part.nonpolar>
-24.8065

> <Gold.PLP.part.repulsive>
0.2229

> <Gold.PLP.ligand.clash>
0.0157

> <Gold.PLP.ligand.torsion>
2.0027

> <Gold.PLP.Chemscore.Hbond>
3.0000

> <Gold.PLP.Chemscore.CHOScore>
0.0000

> <Gold.PLP.Chemscore.Metal>
0.0000

> <Gold.Chemscore.Hbonds>
donor molecule, donor type, donor heavy atom, donor atom, acceptor molecule, acceptor atom, score
      L1  H     6    33       P1  7948  1.00
      L1  H     8    36       P1  7948  1.00
      P1  H 10752 10763       L1    15  1.00

> <Gold.PLP.Chemscore.Internal.Correction>
0.4029

> <Gold.Rescore>
     Score         DG    S(hbond)    S(metal)    S(lipo)     H(rot)  DE(clash)    DE(int)     intcor
     16.42     -18.35       2.81        0.00      77.88       2.19       0.06       1.87       ----

> <Gold.Chemscore.Fitness>
16.4191

> <Gold.Chemscore.DG>
-18.3520

> <Gold.Chemscore.ZeroCoef>
-5.4800

> <Gold.Chemscore.Hbond>
2.8068

> <Gold.Chemscore.Metal>
0.0000

> <Gold.Chemscore.Lipo>
77.8822

> <Gold.Chemscore.Internal_Hbond>
0.0000

> <Gold.Chemscore.DEClash>
0.0588

> <Gold.Chemscore.DEInternal>
1.8740

> <Gold.Chemscore.Rot>
2.1933

> <Gold.Chemscore.Internal.Correction>
   9.000000E+99

> <Gold.Chemscore.Hbonds>
donor molecule, donor type, donor heavy atom, donor atom, acceptor molecule, acceptor atom, score
      L1  H     6    33       P1  7948  0.94
      L1  H     8    36       P1  7948  0.95
      P1  H 10752 10763       L1    15  0.78

> <Gold.Chemscore.Hbond.Weighted>
-9.3746

> <Gold.Chemscore.Metal.Weighted>
-0.0000

> <Gold.Chemscore.Lipo.Weighted>
-9.1122

> <Gold.Chemscore.Internal_Hbond.Weighted>
0.0000

> <Gold.Chemscore.DEClash.Weighted>
0.0588

> <Gold.Chemscore.DEInternal.Weighted>
1.8740

> <Gold.Chemscore.Rot.Weighted>
5.6149

> <Gold.Chemscore.Internal.Correction.Weighted>
   9.000000E+99

> <Gold.Protein.RotatedTorsions>
[ 6907 6896 6895 6894 ] final  -78.98 input  -60.11 | X-H torsion
[ 7974 7965 7964 7962 ] final -131.79 input  175.53 | X-H torsion
[ 8008 7997 7996 7995 ] final   80.16 input   59.86 | X-H torsion
[ 10167 10162 10161 10158 ] final  129.74 input  -65.29 | X-H torsion
[ 10718 10713 10712 10709 ] final   81.10 input   66.30 | X-H torsion
[ 10763 10752 10751 10750 ] final   64.04 input  -60.55 | X-H torsion
[ 11005 11000 10999 10996 ] final  166.53 input  -57.11 | X-H torsion

> <Gold.Protein.ActiveResidues>
 VAL166  LYS551  ARG553  GLY616  TRP617  ASP618  TYR619  PRO620  LYS621  CYS622 
 ASP623  PHE694  ASN695  SER759  ASP760  ASP761  ALA762  ILE779  LEU786  VAL792 
 PHE793  MET794  SER795  GLU796  ALA797  LYS798  CYS799  TRP800  GLU811  SER814 

> <Gold.Protein.RotatedAtoms>
  150.6960  134.4190  159.5195 H   0  0  0  0  0  0  0  0  0  0  0  0  # atno 6907 bound_to 6896
  152.1936  134.8648  160.0524 H   0  0  0  0  0  0  0  0  0  0  0  0  # atno 6908 bound_to 6896
  151.9594  133.3655  159.4066 H   0  0  0  0  0  0  0  0  0  0  0  0  # atno 6909 bound_to 6896
  144.9346  140.7169  143.4884 H   0  0  0  0  0  0  0  0  0  0  0  0  # atno 7974 bound_to 7965
  155.8797  140.3445  155.5879 H   0  0  0  0  0  0  0  0  0  0  0  0  # atno 8008 bound_to 7997
  155.7734  140.0848  157.2115 H   0  0  0  0  0  0  0  0  0  0  0  0  # atno 8009 bound_to 7997
  154.4023  140.1514  156.2956 H   0  0  0  0  0  0  0  0  0  0  0  0  # atno 8010 bound_to 7997
  139.5463  144.6776  151.4463 H   0  0  0  0  0  0  0  0  0  0  0  0  # atno 10167 bound_to 10162
  157.6824  130.9989  150.2177 H   0  0  0  0  0  0  0  0  0  0  0  0  # atno 10718 bound_to 10713
  153.0040  135.5407  154.6447 H   0  0  0  0  0  0  0  0  0  0  0  0  # atno 10763 bound_to 10752
  154.5693  135.2840  155.0845 H   0  0  0  0  0  0  0  0  0  0  0  0  # atno 10764 bound_to 10752
  154.2016  135.6483  153.5141 H   0  0  0  0  0  0  0  0  0  0  0  0  # atno 10765 bound_to 10752
  140.2674  134.7854  157.3644 H   0  0  0  0  0  0  0  0  0  0  0  0  # atno 11005 bound_to 11000
  145.3087  139.1826  143.4650 LP  0  0  0  0  0  0  0  0  0  0  0  0  # atno 17320 bound_to 7965
  146.3261  140.3088  142.8625 LP  0  0  0  0  0  0  0  0  0  0  0  0  # atno 17321 bound_to 7965
  140.6712  143.8290  150.7001 LP  0  0  0  0  0  0  0  0  0  0  0  0  # atno 17342 bound_to 10162
  140.1714  143.4191  152.1998 LP  0  0  0  0  0  0  0  0  0  0  0  0  # atno 17343 bound_to 10162
  156.2835  130.3736  149.7912 LP  0  0  0  0  0  0  0  0  0  0  0  0  # atno 17370 bound_to 10713
  156.5593  130.8376  151.3324 LP  0  0  0  0  0  0  0  0  0  0  0  0  # atno 17371 bound_to 10713
  140.1406  134.4976  155.8034 LP  0  0  0  0  0  0  0  0  0  0  0  0  # atno 17394 bound_to 11000
  141.2182  133.6824  156.7204 LP  0  0  0  0  0  0  0  0  0  0  0  0  # atno 17395 bound_to 11000

$$$$
