AV-unprocessed.smi:759|AV-procd|sdf|3622|dock2
  -GOLD-   22720 1 13D 1   1.00000     0.00000
 Structure written by MMmdl.
 24 25  0  0  0  0  0  0  0  0  2 V2000
  152.1355  138.1335  155.2146 C   0  0  0  0  0  0  0  0  0  0  0  0
  151.6404  137.2088  154.3945 N   0  0  0  0  0  0  0  0  0  0  0  0
  150.5642  137.8366  153.8767 N   0  0  0  0  0  0  0  0  0  0  0  0
  150.4768  139.0639  154.3942 C   0  0  0  0  0  0  0  0  0  0  0  0
  149.3816  140.0152  154.0196 C   0  0  1  0  0  0  0  0  0  0  0  0
  147.9856  139.3868  154.1934 C   0  0  0  0  0  0  0  0  0  0  0  0
  146.8900  140.3942  153.8115 C   0  0  0  0  0  0  0  0  0  0  0  0
  147.0505  141.7062  154.5974 C   0  0  0  0  0  0  0  0  0  0  0  0
  148.4011  142.2746  154.3950 N   0  3  0  0  0  0  0  0  0  0  0  0
  149.4844  141.3475  154.7907 C   0  0  0  0  0  0  0  0  0  0  0  0
  151.4530  139.3169  155.2608 N   0  0  0  0  0  0  0  0  0  0  0  0
  153.0232  137.9497  155.8021 H   0  0  0  0  0  0  0  0  0  0  0  0
  149.5049  140.2438  152.9593 H   0  0  0  0  0  0  0  0  0  0  0  0
  147.8958  138.4898  153.5795 H   0  0  0  0  0  0  0  0  0  0  0  0
  147.8439  139.0715  155.2283 H   0  0  0  0  0  0  0  0  0  0  0  0
  146.9377  140.5994  152.7413 H   0  0  0  0  0  0  0  0  0  0  0  0
  145.9060  139.9637  154.0002 H   0  0  0  0  0  0  0  0  0  0  0  0
  146.3061  142.4344  154.2744 H   0  0  0  0  0  0  0  0  0  0  0  0
  146.8878  141.5344  155.6624 H   0  0  0  0  0  0  0  0  0  0  0  0
  148.5115  142.4989  153.4164 H   0  0  0  0  0  0  0  0  0  0  0  0
  149.4272  141.1751  155.8666 H   0  0  0  0  0  0  0  0  0  0  0  0
  150.4445  141.8263  154.5959 H   0  0  0  0  0  0  0  0  0  0  0  0
  148.4837  143.1242  154.9350 H   0  0  0  0  0  0  0  0  0  0  0  0
  149.9463  137.4053  153.2040 H   0  0  0  0  0  0  0  0  0  0  0  0
  1 11  1  0  0  0  0
  1 12  1  0  0  0  0
  1  2  2  0  0  0  0
  2  3  1  0  0  0  0
  3  4  1  0  0  0  0
  3 24  1  0  0  0  0
  4 11  2  0  0  0  0
  4  5  1  0  0  0  0
  5 10  1  0  0  0  0
  5  6  1  0  0  0  0
  5 13  1  0  0  0  0
  6  7  1  0  0  0  0
  6 14  1  0  0  0  0
  6 15  1  0  0  0  0
  7  8  1  0  0  0  0
  7 16  1  0  0  0  0
  7 17  1  0  0  0  0
  8  9  1  0  0  0  0
  8 18  1  0  0  0  0
  8 19  1  0  0  0  0
  9 10  1  0  0  0  0
  9 20  1  0  0  0  0
  9 23  1  0  0  0  0
 10 21  1  0  0  0  0
 10 22  1  0  0  0  0
M  CHG  1   9   1
M  END
> <s_m_source_file>
AV-unprocessed.smi

> <i_m_source_file_index>
759

> <i_lp_mmshare_version>
43012

> <i_f3d_flags>
0

> <s_epik_input>
W25IXTFbY0hdbm5jMVtDQEBIXTJbQ0gyXVtDSDJdW0NIMl1bTkhdW0NIMl0y

> <s_epik_cmdline>
J2VwaWtfcHl0aG9uJywgJy1waCcsICc3LjAnLCAnLXRuJywgJzgnLCAnLW1hJywgJzIwMCcsICctbWV0YWxfYmluZGluZycsICctaW1hZScsICc8aW5maWxlLm1hZT4nLCAnLW9tYWUnLCAnPG91dGZpbGUubWFlPic=

> <r_epik_Ionization_Penalty>
0.00885924

> <r_epik_Ionization_Penalty_Charging>
0.000426856

> <r_epik_Ionization_Penalty_Neutral>
0.00843239

> <r_epik_State_Penalty>
0.640618

> <r_epik_Charging_Adjusted_Penalty>
0.641045

> <i_epik_Tot_Q>
1

> <i_epik_Tot_abs_Q>
1

> <r_epik_Metal_State_Penalty>
0.906339

> <b_epik_Metal_Only>
0

> <s_lp_Force_Field>
OPLS_2005

> <r_lp_Energy>
13.0828

> <b_lp_Chiralities_Consistent>
1

> <s_lp_Variant>
AV-unprocessed.smi:759-4

> <Gold.Version>
5.8.1

> <Gold.Id.Protein>
6NUR|6NUR_protein|mol2

> <Gold.PLP.Fitness>
32.6925

> <Gold.PLP.PLP>
-20.7603

> <Gold.PLP.part.hbond>
-3.8876

> <Gold.PLP.part.metal>
0.0000

> <Gold.PLP.part.buried>
-2.0575

> <Gold.PLP.part.nonpolar>
-16.1202

> <Gold.PLP.part.repulsive>
1.2355

> <Gold.PLP.ligand.clash>
0.0000

> <Gold.PLP.ligand.torsion>
0.0484

> <Gold.PLP.Chemscore.Hbond>
4.0000

> <Gold.PLP.Chemscore.CHOScore>
0.0000

> <Gold.PLP.Chemscore.Metal>
0.0000

> <Gold.Chemscore.Hbonds>
donor molecule, donor type, donor heavy atom, donor atom, acceptor molecule, acceptor atom, score
      L1  H     3    24       P1  7948  1.00
      L1  H     9    23       P1  8028  2.00
      P1  H 10752 10765       L1     2  1.00

> <Gold.PLP.Chemscore.Internal.Correction>
0.0290

> <Gold.Rescore>
     Score         DG    S(hbond)    S(metal)    S(lipo)     H(rot)  DE(clash)    DE(int)     intcor
     13.49     -13.80       2.24        0.00      28.92       1.00       0.26       0.05       ----

> <Gold.Chemscore.Fitness>
13.4901

> <Gold.Chemscore.DG>
-13.7967

> <Gold.Chemscore.ZeroCoef>
-5.4800

> <Gold.Chemscore.Hbond>
2.2435

> <Gold.Chemscore.Metal>
0.0000

> <Gold.Chemscore.Lipo>
28.9178

> <Gold.Chemscore.Internal_Hbond>
0.0000

> <Gold.Chemscore.DEClash>
0.2566

> <Gold.Chemscore.DEInternal>
0.0500

> <Gold.Chemscore.Rot>
1.0000

> <Gold.Chemscore.Internal.Correction>
   9.000000E+99

> <Gold.Chemscore.Hbonds>
donor molecule, donor type, donor heavy atom, donor atom, acceptor molecule, acceptor atom, score
      L1  H     3    24       P1  7948  0.34
      L1  H     9    23       P1  8028  1.00
      P1  H 10752 10765       L1     2  0.65

> <Gold.Chemscore.Hbond.Weighted>
-7.4933

> <Gold.Chemscore.Metal.Weighted>
-0.0000

> <Gold.Chemscore.Lipo.Weighted>
-3.3834

> <Gold.Chemscore.Internal_Hbond.Weighted>
0.0000

> <Gold.Chemscore.DEClash.Weighted>
0.2566

> <Gold.Chemscore.DEInternal.Weighted>
0.0500

> <Gold.Chemscore.Rot.Weighted>
2.5600

> <Gold.Chemscore.Internal.Correction.Weighted>
   9.000000E+99

> <Gold.Protein.RotatedTorsions>
[ 6907 6896 6895 6894 ] final  106.41 input  -60.11 | X-H torsion
[ 7974 7965 7964 7962 ] final   19.38 input  175.53 | X-H torsion
[ 8008 7997 7996 7995 ] final  -80.97 input   59.86 | X-H torsion
[ 10167 10162 10161 10158 ] final -151.41 input  -65.29 | X-H torsion
[ 10718 10713 10712 10709 ] final  126.12 input   66.30 | X-H torsion
[ 10763 10752 10751 10750 ] final  162.20 input  -60.55 | X-H torsion
[ 11005 11000 10999 10996 ] final  112.94 input  -57.11 | X-H torsion

> <Gold.Protein.ActiveResidues>
 VAL166  LYS551  ARG553  GLY616  TRP617  ASP618  TYR619  PRO620  LYS621  CYS622 
 ASP623  PHE694  ASN695  SER759  ASP760  ASP761  ALA762  ILE779  LEU786  VAL792 
 PHE793  MET794  SER795  GLU796  ALA797  LYS798  CYS799  TRP800  GLU811  SER814 

> <Gold.Protein.RotatedAtoms>
  152.5195  133.9385  159.7614 H   0  0  0  0  0  0  0  0  0  0  0  0  # atno 6907 bound_to 6896
  150.9720  133.6325  159.2743 H   0  0  0  0  0  0  0  0  0  0  0  0  # atno 6908 bound_to 6896
  151.3533  135.0894  159.9463 H   0  0  0  0  0  0  0  0  0  0  0  0  # atno 6909 bound_to 6896
  146.2151  139.8321  142.8658 H   0  0  0  0  0  0  0  0  0  0  0  0  # atno 7974 bound_to 7965
  154.5936  140.0655  156.9272 H   0  0  0  0  0  0  0  0  0  0  0  0  # atno 8008 bound_to 7997
  155.2253  140.3333  155.4292 H   0  0  0  0  0  0  0  0  0  0  0  0  # atno 8009 bound_to 7997
  156.2272  140.1824  156.7317 H   0  0  0  0  0  0  0  0  0  0  0  0  # atno 8010 bound_to 7997
  139.7270  143.8867  152.2522 H   0  0  0  0  0  0  0  0  0  0  0  0  # atno 10167 bound_to 10162
  157.5446  131.1096  150.8803 H   0  0  0  0  0  0  0  0  0  0  0  0  # atno 10718 bound_to 10713
  154.2748  135.2765  155.2723 H   0  0  0  0  0  0  0  0  0  0  0  0  # atno 10763 bound_to 10752
  154.5270  135.5740  153.6731 H   0  0  0  0  0  0  0  0  0  0  0  0  # atno 10764 bound_to 10752
  152.9939  135.6218  154.2904 H   0  0  0  0  0  0  0  0  0  0  0  0  # atno 10765 bound_to 10752
  139.8940  134.9540  156.6663 H   0  0  0  0  0  0  0  0  0  0  0  0  # atno 11005 bound_to 11000
  145.2987  141.0188  143.3621 LP  0  0  0  0  0  0  0  0  0  0  0  0  # atno 17320 bound_to 7965
  144.9023  139.4634  143.6627 LP  0  0  0  0  0  0  0  0  0  0  0  0  # atno 17321 bound_to 7965
  139.8780  144.7033  150.8911 LP  0  0  0  0  0  0  0  0  0  0  0  0  # atno 17342 bound_to 10162
  140.7764  143.3684  151.1695 LP  0  0  0  0  0  0  0  0  0  0  0  0  # atno 17343 bound_to 10162
  156.9346  130.5362  149.5279 LP  0  0  0  0  0  0  0  0  0  0  0  0  # atno 17370 bound_to 10713
  156.0525  130.5592  150.9019 LP  0  0  0  0  0  0  0  0  0  0  0  0  # atno 17371 bound_to 10713
  140.7408  133.8979  155.8276 LP  0  0  0  0  0  0  0  0  0  0  0  0  # atno 17394 bound_to 11000
  141.0079  134.1060  157.4251 LP  0  0  0  0  0  0  0  0  0  0  0  0  # atno 17395 bound_to 11000

$$$$
