AV-unprocessed.smi:1246|AV-procd|sdf|5241|dock9
  -GOLD-   22720 4353D 1   1.00000     0.00000
 Structure written by MMmdl.
 35 36  0  0  0  0  0  0  0  0  1 V2000
  152.2873  139.4501  155.7429 C   0  0  0  0  0  0  0  0  0  0  0  0
  151.0800  140.3392  155.7948 C   0  0  0  0  0  0  0  0  0  0  0  0
  150.6002  141.1045  156.8974 C   0  0  0  0  0  0  0  0  0  0  0  0
  149.4864  141.7090  156.3815 C   0  0  0  0  0  0  0  0  0  0  0  0
  148.6158  142.5591  156.9879 N   0  0  0  0  0  0  0  0  0  0  0  0
  147.6758  142.2845  157.9089 C   0  0  0  0  0  0  0  0  0  0  0  0
  147.4411  141.1722  158.3819 O   0  0  0  0  0  0  0  0  0  0  0  0
  147.0109  143.3926  158.2644 N   0  0  0  0  0  0  0  0  0  0  0  0
  145.9437  143.4475  159.2567 C   0  0  0  0  0  0  0  0  0  0  0  0
  146.3556  144.2765  160.4842 C   0  0  2  0  0  0  0  0  0  0  0  0
  146.5525  145.7601  160.1869 C   0  0  0  0  0  0  0  0  0  0  0  0
  147.4258  146.1851  161.3461 C   0  0  0  0  0  0  0  0  0  0  0  0
  148.3149  144.9596  161.5563 C   0  0  0  0  0  0  0  0  0  0  0  0
  147.6238  143.8555  160.9753 O   0  0  0  0  0  0  0  0  0  0  0  0
  149.3347  141.3180  155.0699 N   0  0  0  0  0  0  0  0  0  0  0  0
  148.3103  141.6863  154.1122 C   0  0  0  0  0  0  0  0  0  0  0  0
  150.3230  140.4704  154.7112 N   0  0  0  0  0  0  0  0  0  0  0  0
  152.8051  139.4321  156.7020 H   0  0  0  0  0  0  0  0  0  0  0  0
  152.9961  139.7948  154.9897 H   0  0  0  0  0  0  0  0  0  0  0  0
  152.0100  138.4249  155.4967 H   0  0  0  0  0  0  0  0  0  0  0  0
  151.0173  141.1809  157.8901 H   0  0  0  0  0  0  0  0  0  0  0  0
  148.6943  143.5259  156.7087 H   0  0  0  0  0  0  0  0  0  0  0  0
  147.2709  144.2660  157.8304 H   0  0  0  0  0  0  0  0  0  0  0  0
  145.0609  143.8835  158.7885 H   0  0  0  0  0  0  0  0  0  0  0  0
  145.6665  142.4362  159.5589 H   0  0  0  0  0  0  0  0  0  0  0  0
  145.6229  144.1686  161.2862 H   0  0  0  0  0  0  0  0  0  0  0  0
  147.0872  145.8970  159.2458 H   0  0  0  0  0  0  0  0  0  0  0  0
  145.6139  146.3122  160.1333 H   0  0  0  0  0  0  0  0  0  0  0  0
  147.9932  147.0941  161.1453 H   0  0  0  0  0  0  0  0  0  0  0  0
  146.8099  146.3563  162.2301 H   0  0  0  0  0  0  0  0  0  0  0  0
  149.2703  145.0798  161.0445 H   0  0  0  0  0  0  0  0  0  0  0  0
  148.5170  144.7832  162.6131 H   0  0  0  0  0  0  0  0  0  0  0  0
  148.2487  142.7721  154.0398 H   0  0  0  0  0  0  0  0  0  0  0  0
  147.3472  141.2952  154.4402 H   0  0  0  0  0  0  0  0  0  0  0  0
  148.5410  141.2797  153.1267 H   0  0  0  0  0  0  0  0  0  0  0  0
  1  2  1  0  0  0  0
  1 18  1  0  0  0  0
  1 19  1  0  0  0  0
  1 20  1  0  0  0  0
  2 17  2  0  0  0  0
  2  3  1  0  0  0  0
  3  4  2  0  0  0  0
  3 21  1  0  0  0  0
  4  5  1  0  0  0  0
  4 15  1  0  0  0  0
  5  6  1  0  0  0  0
  5 22  1  0  0  0  0
  6  7  2  0  0  0  0
  6  8  1  0  0  0  0
  8  9  1  0  0  0  0
  8 23  1  0  0  0  0
  9 10  1  0  0  0  0
  9 24  1  0  0  0  0
  9 25  1  0  0  0  0
 10 14  1  0  0  0  0
 10 11  1  0  0  0  0
 10 26  1  0  0  0  0
 11 12  1  0  0  0  0
 11 27  1  0  0  0  0
 11 28  1  0  0  0  0
 12 13  1  0  0  0  0
 12 29  1  0  0  0  0
 12 30  1  0  0  0  0
 13 14  1  0  0  0  0
 13 31  1  0  0  0  0
 13 32  1  0  0  0  0
 15 16  1  0  0  0  0
 15 17  1  0  0  0  0
 16 33  1  0  0  0  0
 16 34  1  0  0  0  0
 16 35  1  0  0  0  0
M  END
> <s_m_source_file>
AV-unprocessed.smi

> <i_m_source_file_index>
1246

> <i_lp_mmshare_version>
43012

> <i_f3d_flags>
0

> <s_epik_input>
W0NIM11jMVtjSF1jKG4objEpW0NIM10pW05IXUMoPU8pW05IXVtDSDJdW0NAQEhdMltDSDJdW0NIMl1bQ0gyXU8y

> <s_epik_cmdline>
J2VwaWtfcHl0aG9uJywgJy1waCcsICc3LjAnLCAnLXRuJywgJzgnLCAnLW1hJywgJzIwMCcsICctbWV0YWxfYmluZGluZycsICctaW1hZScsICc8aW5maWxlLm1hZT4nLCAnLW9tYWUnLCAnPG91dGZpbGUubWFlPic=

> <r_lp_tautomer_probability>
1

> <r_epik_Ionization_Penalty>
9.6187e-05

> <r_epik_Ionization_Penalty_Charging>
0

> <r_epik_Ionization_Penalty_Neutral>
9.6187e-05

> <r_epik_State_Penalty>
-0

> <r_epik_Charging_Adjusted_Penalty>
0

> <i_epik_Tot_Q>
0

> <i_epik_Tot_abs_Q>
0

> <r_epik_Metal_State_Penalty>
-0

> <b_epik_Metal_Only>
0

> <s_lp_Force_Field>
OPLS_2005

> <r_lp_Energy>
17.9178

> <b_lp_Chiralities_Consistent>
1

> <s_lp_Variant>
AV-unprocessed.smi:1246-1

> <Gold.Version>
5.8.1

> <Gold.Id.Protein>
6NUR|6NUR_protein|mol2

> <Gold.PLP.Fitness>
40.5299

> <Gold.PLP.PLP>
-30.4210

> <Gold.PLP.part.hbond>
-5.0000

> <Gold.PLP.part.metal>
0.0000

> <Gold.PLP.part.buried>
2.3525

> <Gold.PLP.part.nonpolar>
-26.5666

> <Gold.PLP.part.repulsive>
0.2756

> <Gold.PLP.ligand.clash>
0.0000

> <Gold.PLP.ligand.torsion>
0.7415

> <Gold.PLP.Chemscore.Hbond>
3.8628

> <Gold.PLP.Chemscore.CHOScore>
0.0000

> <Gold.PLP.Chemscore.Metal>
0.0000

> <Gold.Chemscore.Hbonds>
donor molecule, donor type, donor heavy atom, donor atom, acceptor molecule, acceptor atom, score
      L1  H     5    22       P1  8028  1.00
      L1  H     8    23       P1  8029  0.85
      P1  H  6933  6944       L1    14  1.00
      P1  H  6934  6946       L1     7  0.02
      P1  H  7989  7998       L1    17  0.94

> <Gold.PLP.Chemscore.Internal.Correction>
0.0034

> <Gold.Rescore>
     Score         DG    S(hbond)    S(metal)    S(lipo)     H(rot)  DE(clash)    DE(int)     intcor
     15.08     -17.35       2.69        0.00      52.08       1.25       1.53       0.75       ----

> <Gold.Chemscore.Fitness>
15.0757

> <Gold.Chemscore.DG>
-17.3525

> <Gold.Chemscore.ZeroCoef>
-5.4800

> <Gold.Chemscore.Hbond>
2.6866

> <Gold.Chemscore.Metal>
0.0000

> <Gold.Chemscore.Lipo>
52.0838

> <Gold.Chemscore.Internal_Hbond>
0.0000

> <Gold.Chemscore.DEClash>
1.5266

> <Gold.Chemscore.DEInternal>
0.7502

> <Gold.Chemscore.Rot>
1.2478

> <Gold.Chemscore.Internal.Correction>
   9.000000E+99

> <Gold.Chemscore.Hbonds>
donor molecule, donor type, donor heavy atom, donor atom, acceptor molecule, acceptor atom, score
      L1  H     5    22       P1  8028  0.48
      L1  H     8    23       P1  8029  0.15
      P1  H  6933  6944       L1    14  0.60
      P1  H  6934  6946       L1     7  0.03
      P1  H  7989  7998       L1    17  0.20

> <Gold.Chemscore.Hbond.Weighted>
-8.9731

> <Gold.Chemscore.Metal.Weighted>
-0.0000

> <Gold.Chemscore.Lipo.Weighted>
-6.0938

> <Gold.Chemscore.Internal_Hbond.Weighted>
0.0000

> <Gold.Chemscore.DEClash.Weighted>
1.5266

> <Gold.Chemscore.DEInternal.Weighted>
0.7502

> <Gold.Chemscore.Rot.Weighted>
3.1944

> <Gold.Chemscore.Internal.Correction.Weighted>
   9.000000E+99

> <Gold.Protein.RotatedTorsions>
[ 6907 6896 6895 6894 ] final  104.66 input  -60.11 | X-H torsion
[ 7974 7965 7964 7962 ] final  179.51 input  175.53 | X-H torsion
[ 8008 7997 7996 7995 ] final  -13.29 input   59.86 | X-H torsion
[ 10167 10162 10161 10158 ] final -104.99 input  -65.29 | X-H torsion
[ 10718 10713 10712 10709 ] final  -98.25 input   66.30 | X-H torsion
[ 10763 10752 10751 10750 ] final -120.19 input  -60.55 | X-H torsion
[ 11005 11000 10999 10996 ] final -102.73 input  -57.11 | X-H torsion

> <Gold.Protein.ActiveResidues>
 VAL166  LYS551  ARG553  GLY616  TRP617  ASP618  TYR619  PRO620  LYS621  CYS622 
 ASP623  PHE694  ASN695  SER759  ASP760  ASP761  ALA762  ILE779  LEU786  VAL792 
 PHE793  MET794  SER795  GLU796  ALA797  LYS798  CYS799  TRP800  GLU811  SER814 

> <Gold.Protein.RotatedAtoms>
  152.5257  133.9643  159.7731 H   0  0  0  0  0  0  0  0  0  0  0  0  # atno 6907 bound_to 6896
  150.9928  133.6125  159.2713 H   0  0  0  0  0  0  0  0  0  0  0  0  # atno 6908 bound_to 6896
  151.3262  135.0837  159.9376 H   0  0  0  0  0  0  0  0  0  0  0  0  # atno 6909 bound_to 6896
  144.7145  140.0560  143.6434 H   0  0  0  0  0  0  0  0  0  0  0  0  # atno 7974 bound_to 7965
  154.5305  140.2253  155.8814 H   0  0  0  0  0  0  0  0  0  0  0  0  # atno 8008 bound_to 7997
  156.1758  140.3111  155.9020 H   0  0  0  0  0  0  0  0  0  0  0  0  # atno 8009 bound_to 7997
  155.3462  140.0453  157.3036 H   0  0  0  0  0  0  0  0  0  0  0  0  # atno 8010 bound_to 7997
  140.2034  143.3801  152.1111 H   0  0  0  0  0  0  0  0  0  0  0  0  # atno 10167 bound_to 10162
  156.0103  130.5229  150.6494 H   0  0  0  0  0  0  0  0  0  0  0  0  # atno 10718 bound_to 10713
  154.8638  135.4211  154.2420 H   0  0  0  0  0  0  0  0  0  0  0  0  # atno 10763 bound_to 10752
  153.3383  135.6992  153.6894 H   0  0  0  0  0  0  0  0  0  0  0  0  # atno 10764 bound_to 10752
  153.5883  135.3560  155.2874 H   0  0  0  0  0  0  0  0  0  0  0  0  # atno 10765 bound_to 10752
  141.1176  133.8582  157.1397 H   0  0  0  0  0  0  0  0  0  0  0  0  # atno 11005 bound_to 11000
  145.9904  139.3011  143.0988 LP  0  0  0  0  0  0  0  0  0  0  0  0  # atno 17320 bound_to 7965
  145.8909  140.9304  143.0552 LP  0  0  0  0  0  0  0  0  0  0  0  0  # atno 17321 bound_to 7965
  139.5208  144.7038  151.5415 LP  0  0  0  0  0  0  0  0  0  0  0  0  # atno 17342 bound_to 10162
  140.6375  143.8956  150.6660 LP  0  0  0  0  0  0  0  0  0  0  0  0  # atno 17343 bound_to 10162
  157.4259  131.0843  151.1086 LP  0  0  0  0  0  0  0  0  0  0  0  0  # atno 17370 bound_to 10713
  157.1674  130.6252  149.5630 LP  0  0  0  0  0  0  0  0  0  0  0  0  # atno 17371 bound_to 10713
  140.0110  134.9988  157.0394 LP  0  0  0  0  0  0  0  0  0  0  0  0  # atno 17394 bound_to 11000
  140.4600  134.1494  155.7190 LP  0  0  0  0  0  0  0  0  0  0  0  0  # atno 17395 bound_to 11000

$$$$
