AV-unprocessed.smi:753|AV-procd|sdf|3604|dock3
  -GOLD-   22720 1 03D 1   1.00000     0.00000
 Structure written by MMmdl.
 44 46  0  0  0  0  0  0  0  0  2 V2000
  151.4239  143.2918  157.5504 C   0  0  0  0  0  0  0  0  0  0  0  0
  150.9950  142.1198  156.6933 C   0  0  0  0  0  0  0  0  0  0  0  0
  151.6169  140.8553  156.7777 C   0  0  0  0  0  0  0  0  0  0  0  0
  151.1656  139.8093  155.9462 C   0  0  0  0  0  0  0  0  0  0  0  0
  150.1012  140.0474  155.0493 C   0  0  0  0  0  0  0  0  0  0  0  0
  149.5982  138.9437  154.1401 C   0  0  0  0  0  0  0  0  0  0  0  0
  148.1026  138.6584  154.3504 C   0  0  0  0  0  0  0  0  0  0  0  0
  147.6599  137.5235  153.5505 N   0  0  0  0  0  0  0  0  0  0  0  0
  146.3781  137.1633  153.3692 C   0  0  0  0  0  0  0  0  0  0  0  0
  145.4297  137.7590  153.8766 O   0  0  0  0  0  0  0  0  0  0  0  0
  146.2029  136.0914  152.5772 N   0  0  0  0  0  0  0  0  0  0  0  0
  144.9399  135.4577  152.1893 C   0  0  1  0  0  0  0  0  0  0  0  0
  144.8042  135.3773  150.6527 C   0  0  0  0  0  0  0  0  0  0  0  0
  144.6216  133.8701  150.3959 C   0  0  1  0  0  0  0  0  0  0  0  0
  145.9542  133.1384  150.6451 C   0  0  0  0  0  0  0  0  0  0  0  0
  146.0774  133.1680  152.1801 C   0  0  0  0  0  0  0  0  0  0  0  0
  144.8259  133.9671  152.6035 C   0  0  2  0  0  0  0  0  0  0  0  0
  143.7976  133.4475  151.6046 C   0  0  0  0  0  0  0  0  0  0  0  0
  149.5178  141.3318  155.0084 C   0  0  0  0  0  0  0  0  0  0  0  0
  149.9799  142.3079  155.8202 N   0  3  0  0  0  0  0  0  0  0  0  0
  152.2142  143.0036  158.2441 H   0  0  0  0  0  0  0  0  0  0  0  0
  150.5814  143.6670  158.1319 H   0  0  0  0  0  0  0  0  0  0  0  0
  151.7988  144.1020  156.9244 H   0  0  0  0  0  0  0  0  0  0  0  0
  152.4304  140.6854  157.4683 H   0  0  0  0  0  0  0  0  0  0  0  0
  151.6330  138.8366  155.9973 H   0  0  0  0  0  0  0  0  0  0  0  0
  149.7880  139.2264  153.1037 H   0  0  0  0  0  0  0  0  0  0  0  0
  150.1806  138.0395  154.3230 H   0  0  0  0  0  0  0  0  0  0  0  0
  147.9096  138.4307  155.3990 H   0  0  0  0  0  0  0  0  0  0  0  0
  147.5060  139.5398  154.1084 H   0  0  0  0  0  0  0  0  0  0  0  0
  148.3752  136.9757  153.0949 H   0  0  0  0  0  0  0  0  0  0  0  0
  147.0395  135.6623  152.2087 H   0  0  0  0  0  0  0  0  0  0  0  0
  144.0987  136.0267  152.5900 H   0  0  0  0  0  0  0  0  0  0  0  0
  143.9269  135.9336  150.3200 H   0  0  0  0  0  0  0  0  0  0  0  0
  145.6676  135.7788  150.1197 H   0  0  0  0  0  0  0  0  0  0  0  0
  144.1724  133.6434  149.4285 H   0  0  0  0  0  0  0  0  0  0  0  0
  145.9092  132.1101  150.2840 H   0  0  0  0  0  0  0  0  0  0  0  0
  146.7927  133.6306  150.1510 H   0  0  0  0  0  0  0  0  0  0  0  0
  146.0341  132.1546  152.5813 H   0  0  0  0  0  0  0  0  0  0  0  0
  147.0148  133.6089  152.5192 H   0  0  0  0  0  0  0  0  0  0  0  0
  144.5539  133.8232  153.6496 H   0  0  0  0  0  0  0  0  0  0  0  0
  142.8338  133.9558  151.6708 H   0  0  0  0  0  0  0  0  0  0  0  0
  143.6383  132.3694  151.6654 H   0  0  0  0  0  0  0  0  0  0  0  0
  148.7031  141.6072  154.3544 H   0  0  0  0  0  0  0  0  0  0  0  0
  149.5433  143.2289  155.7718 H   0  0  0  0  0  0  0  0  0  0  0  0
  1  2  1  0  0  0  0
  1 21  1  0  0  0  0
  1 22  1  0  0  0  0
  1 23  1  0  0  0  0
  2 20  1  0  0  0  0
  2  3  2  0  0  0  0
  3  4  1  0  0  0  0
  3 24  1  0  0  0  0
  4  5  2  0  0  0  0
  4 25  1  0  0  0  0
  5  6  1  0  0  0  0
  5 19  1  0  0  0  0
  6  7  1  0  0  0  0
  6 26  1  0  0  0  0
  6 27  1  0  0  0  0
  7  8  1  0  0  0  0
  7 28  1  0  0  0  0
  7 29  1  0  0  0  0
  8  9  1  0  0  0  0
  8 30  1  0  0  0  0
  9 10  2  0  0  0  0
  9 11  1  0  0  0  0
 11 12  1  0  0  0  0
 11 31  1  0  0  0  0
 12 17  1  0  0  0  0
 12 13  1  0  0  0  0
 12 32  1  0  0  0  0
 13 14  1  0  0  0  0
 13 33  1  0  0  0  0
 13 34  1  0  0  0  0
 14 18  1  0  0  0  0
 14 15  1  0  0  0  0
 14 35  1  0  0  0  0
 15 16  1  0  0  0  0
 15 36  1  0  0  0  0
 15 37  1  0  0  0  0
 16 17  1  0  0  0  0
 16 38  1  0  0  0  0
 16 39  1  0  0  0  0
 17 18  1  0  0  0  0
 17 40  1  0  0  0  0
 18 41  1  0  0  0  0
 18 42  1  0  0  0  0
 19 20  2  0  0  0  0
 19 43  1  0  0  0  0
 20 44  1  0  0  0  0
M  CHG  1  20   1
M  END
> <s_m_source_file>
AV-unprocessed.smi

> <i_m_source_file_index>
753

> <i_lp_mmshare_version>
43012

> <i_f3d_flags>
0

> <s_epik_input>
W0NIM11jMVtjSF1bY0hdYyhbY0hdbjEpW0NIMl1bQ0gyXVtOSF1DKD1PKVtOSF1bQ0BIXShbQ0gyXVtDQEBIXTIzKVtDQEBIXShbQ0gyXTMpW0NIMl1bQ0gyXTI=

> <s_epik_cmdline>
J2VwaWtfcHl0aG9uJywgJy1waCcsICc3LjAnLCAnLXRuJywgJzgnLCAnLW1hJywgJzIwMCcsICctbWV0YWxfYmluZGluZycsICctaW1hZScsICc8aW5maWxlLm1hZT4nLCAnLW9tYWUnLCAnPG91dGZpbGUubWFlPic=

> <r_epik_Ionization_Penalty>
1.41708

> <r_epik_Ionization_Penalty_Charging>
1.41702

> <r_epik_Ionization_Penalty_Neutral>
5.73163e-05

> <r_epik_State_Penalty>
1.50048

> <r_epik_Charging_Adjusted_Penalty>
2.9175

> <i_epik_Tot_Q>
1

> <i_epik_Tot_abs_Q>
1

> <r_epik_Metal_State_Penalty>
1.55295

> <b_epik_Metal_Only>
0

> <s_lp_Force_Field>
OPLS_2005

> <r_lp_Energy>
56.9964

> <b_lp_Chiralities_Consistent>
1

> <s_lp_Variant>
AV-unprocessed.smi:753-6

> <Gold.Version>
5.8.1

> <Gold.Id.Protein>
6NUR|6NUR_protein|mol2

> <Gold.PLP.Fitness>
47.8888

> <Gold.PLP.PLP>
-36.6571

> <Gold.PLP.part.hbond>
-2.8470

> <Gold.PLP.part.metal>
0.0000

> <Gold.PLP.part.buried>
-3.0437

> <Gold.PLP.part.nonpolar>
-30.8488

> <Gold.PLP.part.repulsive>
0.3336

> <Gold.PLP.ligand.clash>
0.0000

> <Gold.PLP.ligand.torsion>
0.0718

> <Gold.PLP.Chemscore.Hbond>
3.7840

> <Gold.PLP.Chemscore.CHOScore>
0.0000

> <Gold.PLP.Chemscore.Metal>
0.0000

> <Gold.Chemscore.Hbonds>
donor molecule, donor type, donor heavy atom, donor atom, acceptor molecule, acceptor atom, score
      L1  H     8    30       P1  7948  1.00
      L1  H    11    31       P1  7948  0.75
      L1  H    20    44       P1  8028  2.00

> <Gold.PLP.Chemscore.Internal.Correction>
0.0232

> <Gold.Rescore>
     Score         DG    S(hbond)    S(metal)    S(lipo)     H(rot)  DE(clash)    DE(int)     intcor
     21.76     -21.93       2.71        0.00      96.12       1.50       0.08       0.09       ----

> <Gold.Chemscore.Fitness>
21.7640

> <Gold.Chemscore.DG>
-21.9345

> <Gold.Chemscore.ZeroCoef>
-5.4800

> <Gold.Chemscore.Hbond>
2.7112

> <Gold.Chemscore.Metal>
0.0000

> <Gold.Chemscore.Lipo>
96.1183

> <Gold.Chemscore.Internal_Hbond>
0.0000

> <Gold.Chemscore.DEClash>
0.0765

> <Gold.Chemscore.DEInternal>
0.0939

> <Gold.Chemscore.Rot>
1.5027

> <Gold.Chemscore.Internal.Correction>
   9.000000E+99

> <Gold.Chemscore.Hbonds>
donor molecule, donor type, donor heavy atom, donor atom, acceptor molecule, acceptor atom, score
      L1  H     8    30       P1  7948  0.92
      L1  H    11    31       P1  7948  0.73
      L1  H    20    44       P1  8028  1.00

> <Gold.Chemscore.Hbond.Weighted>
-9.0554

> <Gold.Chemscore.Metal.Weighted>
-0.0000

> <Gold.Chemscore.Lipo.Weighted>
-11.2458

> <Gold.Chemscore.Internal_Hbond.Weighted>
0.0000

> <Gold.Chemscore.DEClash.Weighted>
0.0765

> <Gold.Chemscore.DEInternal.Weighted>
0.0939

> <Gold.Chemscore.Rot.Weighted>
3.8468

> <Gold.Chemscore.Internal.Correction.Weighted>
   9.000000E+99

> <Gold.Protein.RotatedTorsions>
[ 6907 6896 6895 6894 ] final   67.13 input  -60.11 | X-H torsion
[ 7974 7965 7964 7962 ] final  129.49 input  175.53 | X-H torsion
[ 8008 7997 7996 7995 ] final  163.82 input   59.86 | X-H torsion
[ 10167 10162 10161 10158 ] final   63.19 input  -65.29 | X-H torsion
[ 10718 10713 10712 10709 ] final    7.07 input   66.30 | X-H torsion
[ 10763 10752 10751 10750 ] final  -95.56 input  -60.55 | X-H torsion
[ 11005 11000 10999 10996 ] final   29.85 input  -57.11 | X-H torsion

> <Gold.Protein.ActiveResidues>
 VAL166  LYS551  ARG553  GLY616  TRP617  ASP618  TYR619  PRO620  LYS621  CYS622 
 ASP623  PHE694  ASN695  SER759  ASP760  ASP761  ALA762  ILE779  LEU786  VAL792 
 PHE793  MET794  SER795  GLU796  ALA797  LYS798  CYS799  TRP800  GLU811  SER814 

> <Gold.Protein.RotatedAtoms>
  152.4531  134.5351  159.9822 H   0  0  0  0  0  0  0  0  0  0  0  0  # atno 6907 bound_to 6896
  151.5419  133.3425  159.2945 H   0  0  0  0  0  0  0  0  0  0  0  0  # atno 6908 bound_to 6896
  150.8466  134.7808  159.7038 H   0  0  0  0  0  0  0  0  0  0  0  0  # atno 6909 bound_to 6896
  145.0281  139.4071  143.5163 H   0  0  0  0  0  0  0  0  0  0  0  0  # atno 7974 bound_to 7965
  156.1928  140.1713  156.8058 H   0  0  0  0  0  0  0  0  0  0  0  0  # atno 8008 bound_to 7997
  154.5492  140.0721  156.8671 H   0  0  0  0  0  0  0  0  0  0  0  0  # atno 8009 bound_to 7997
  155.3062  140.3364  155.4248 H   0  0  0  0  0  0  0  0  0  0  0  0  # atno 8010 bound_to 7997
  140.1358  144.4600  150.6839 H   0  0  0  0  0  0  0  0  0  0  0  0  # atno 10167 bound_to 10162
  156.9315  130.5828  149.5649 H   0  0  0  0  0  0  0  0  0  0  0  0  # atno 10718 bound_to 10713
  154.7160  135.5116  153.8738 H   0  0  0  0  0  0  0  0  0  0  0  0  # atno 10763 bound_to 10752
  153.0821  135.6634  154.0033 H   0  0  0  0  0  0  0  0  0  0  0  0  # atno 10764 bound_to 10752
  153.9866  135.3024  155.3395 H   0  0  0  0  0  0  0  0  0  0  0  0  # atno 10765 bound_to 10752
  140.3006  134.2761  155.7755 H   0  0  0  0  0  0  0  0  0  0  0  0  # atno 11005 bound_to 11000
  146.3495  139.9816  142.8695 LP  0  0  0  0  0  0  0  0  0  0  0  0  # atno 17320 bound_to 7965
  145.1807  140.9765  143.4268 LP  0  0  0  0  0  0  0  0  0  0  0  0  # atno 17321 bound_to 7965
  140.6790  143.2318  151.5433 LP  0  0  0  0  0  0  0  0  0  0  0  0  # atno 17342 bound_to 10162
  139.5497  144.2429  152.1507 LP  0  0  0  0  0  0  0  0  0  0  0  0  # atno 17343 bound_to 10162
  156.0445  130.5523  150.8848 LP  0  0  0  0  0  0  0  0  0  0  0  0  # atno 17370 bound_to 10713
  157.5843  131.0946  150.9221 LP  0  0  0  0  0  0  0  0  0  0  0  0  # atno 17371 bound_to 10713
  141.2129  133.7644  156.9761 LP  0  0  0  0  0  0  0  0  0  0  0  0  # atno 17394 bound_to 11000
  140.1112  134.9475  157.2068 LP  0  0  0  0  0  0  0  0  0  0  0  0  # atno 17395 bound_to 11000

$$$$
