AV-unprocessed.smi:2143|AV-procd|sdf|8725|dock2
  -GOLD-   2272011493D 1   1.00000     0.00000
 Structure written by MMmdl.
 44 45  0  0  0  0  0  0  0  0  1 V2000
  154.0120  142.0817  159.8139 C   0  0  0  0  0  0  0  0  0  0  0  0
  152.4749  142.1910  159.8861 C   0  0  1  0  0  0  0  0  0  0  0  0
  151.9952  143.6310  159.6138 C   0  0  0  0  0  0  0  0  0  0  0  0
  152.1281  144.0168  158.1325 C   0  0  0  0  0  0  0  0  0  0  0  0
  151.3829  143.0213  157.2334 C   0  0  0  0  0  0  0  0  0  0  0  0
  151.8442  141.5705  157.4732 C   0  0  2  0  0  0  0  0  0  0  0  0
  151.0378  140.6849  156.6339 N   0  0  0  0  0  0  0  0  0  0  0  0
  151.4916  139.9239  155.6257 C   0  0  0  0  0  0  0  0  0  0  0  0
  152.6796  139.8559  155.3072 O   0  0  0  0  0  0  0  0  0  0  0  0
  150.4324  139.0970  154.8842 C   0  0  0  0  0  0  0  0  0  0  0  0
  149.9745  137.9281  155.6462 N   0  0  0  0  0  0  0  0  0  0  0  0
  149.1836  138.1073  156.7664 C   0  0  0  0  0  0  0  0  0  0  0  0
  148.7365  137.0889  157.5331 C   0  0  0  0  0  0  0  0  0  0  0  0
  149.0705  135.7066  157.2116 C   0  0  0  0  0  0  0  0  0  0  0  0
  148.7024  134.7510  157.8953 O   0  0  0  0  0  0  0  0  0  0  0  0
  149.8672  135.5503  156.0518 N   0  0  0  0  0  0  0  0  0  0  0  0
  150.2686  134.2141  155.6631 C   0  0  0  0  0  0  0  0  0  0  0  0
  150.3448  136.6209  155.2631 C   0  0  0  0  0  0  0  0  0  0  0  0
  151.0654  136.4353  154.2791 O   0  0  0  0  0  0  0  0  0  0  0  0
  151.7225  141.1858  158.9724 C   0  0  1  0  0  0  0  0  0  0  0  0
  152.1191  139.7244  159.2612 C   0  0  0  0  0  0  0  0  0  0  0  0
  154.3908  142.2423  158.8050 H   0  0  0  0  0  0  0  0  0  0  0  0
  154.3602  141.1037  160.1452 H   0  0  0  0  0  0  0  0  0  0  0  0
  154.4842  142.8210  160.4615 H   0  0  0  0  0  0  0  0  0  0  0  0
  152.2022  141.9600  160.9168 H   0  0  0  0  0  0  0  0  0  0  0  0
  150.9497  143.7229  159.9115 H   0  0  0  0  0  0  0  0  0  0  0  0
  152.5473  144.3380  160.2339 H   0  0  0  0  0  0  0  0  0  0  0  0
  151.7340  145.0211  157.9756 H   0  0  0  0  0  0  0  0  0  0  0  0
  153.1799  144.0547  157.8478 H   0  0  0  0  0  0  0  0  0  0  0  0
  150.3113  143.1034  157.4225 H   0  0  0  0  0  0  0  0  0  0  0  0
  151.5319  143.2921  156.1874 H   0  0  0  0  0  0  0  0  0  0  0  0
  152.8922  141.5019  157.1781 H   0  0  0  0  0  0  0  0  0  0  0  0
  150.0469  140.6633  156.8264 H   0  0  0  0  0  0  0  0  0  0  0  0
  149.5878  139.7498  154.6601 H   0  0  0  0  0  0  0  0  0  0  0  0
  150.8243  138.7792  153.9162 H   0  0  0  0  0  0  0  0  0  0  0  0
  148.9120  139.1140  157.0499 H   0  0  0  0  0  0  0  0  0  0  0  0
  148.1264  137.3002  158.3991 H   0  0  0  0  0  0  0  0  0  0  0  0
  150.2149  134.1364  154.5758 H   0  0  0  0  0  0  0  0  0  0  0  0
  149.5923  133.4731  156.0898 H   0  0  0  0  0  0  0  0  0  0  0  0
  151.2882  134.0723  156.0244 H   0  0  0  0  0  0  0  0  0  0  0  0
  150.6662  141.2673  159.2348 H   0  0  0  0  0  0  0  0  0  0  0  0
  153.1252  139.5032  158.9045 H   0  0  0  0  0  0  0  0  0  0  0  0
  151.4395  139.0234  158.7766 H   0  0  0  0  0  0  0  0  0  0  0  0
  152.0879  139.5124  160.3301 H   0  0  0  0  0  0  0  0  0  0  0  0
  1  2  1  0  0  0  0
  1 22  1  0  0  0  0
  1 23  1  0  0  0  0
  1 24  1  0  0  0  0
  2 20  1  0  0  0  0
  2  3  1  0  0  0  0
  2 25  1  0  0  0  0
  3  4  1  0  0  0  0
  3 26  1  0  0  0  0
  3 27  1  0  0  0  0
  4  5  1  0  0  0  0
  4 28  1  0  0  0  0
  4 29  1  0  0  0  0
  5  6  1  0  0  0  0
  5 30  1  0  0  0  0
  5 31  1  0  0  0  0
  6  7  1  0  0  0  0
  6 20  1  0  0  0  0
  6 32  1  0  0  0  0
  7  8  1  0  0  0  0
  7 33  1  0  0  0  0
  8  9  2  0  0  0  0
  8 10  1  0  0  0  0
 10 11  1  0  0  0  0
 10 34  1  0  0  0  0
 10 35  1  0  0  0  0
 11 18  1  0  0  0  0
 11 12  1  0  0  0  0
 12 13  2  0  0  0  0
 12 36  1  0  0  0  0
 13 14  1  0  0  0  0
 13 37  1  0  0  0  0
 14 15  2  0  0  0  0
 14 16  1  0  0  0  0
 16 17  1  0  0  0  0
 16 18  1  0  0  0  0
 17 38  1  0  0  0  0
 17 39  1  0  0  0  0
 17 40  1  0  0  0  0
 18 19  2  0  0  0  0
 20 21  1  0  0  0  0
 20 41  1  0  0  0  0
 21 42  1  0  0  0  0
 21 43  1  0  0  0  0
 21 44  1  0  0  0  0
M  END
> <s_m_source_file>
AV-unprocessed.smi

> <i_m_source_file_index>
2143

> <i_lp_mmshare_version>
43012

> <i_f3d_flags>
0

> <s_epik_input>
W0NIM11bQ0BASF0xW0NIMl1bQ0gyXVtDSDJdW0NASF0oW0NASF0xW0NIM10pW05IXUMoPU8pW0NIMl1uMltjSF1bY0hdYyg9TyluKFtDSDNdKWMyPU8=

> <s_epik_cmdline>
J2VwaWtfcHl0aG9uJywgJy1waCcsICc3LjAnLCAnLXRuJywgJzgnLCAnLW1hJywgJzIwMCcsICctbWV0YWxfYmluZGluZycsICctaW1hZScsICc8aW5maWxlLm1hZT4nLCAnLW9tYWUnLCAnPG91dGZpbGUubWFlPic=

> <r_lp_tautomer_probability>
1

> <r_epik_Ionization_Penalty>
3.18445e-08

> <r_epik_Ionization_Penalty_Charging>
1.27977e-08

> <r_epik_Ionization_Penalty_Neutral>
1.90469e-08

> <r_epik_State_Penalty>
-0

> <r_epik_Charging_Adjusted_Penalty>
1.27977e-08

> <i_epik_Tot_Q>
0

> <i_epik_Tot_abs_Q>
0

> <r_epik_Metal_State_Penalty>
-0

> <b_epik_Metal_Only>
0

> <s_lp_Force_Field>
OPLS_2005

> <r_lp_Energy>
21.4204

> <b_lp_Chiralities_Consistent>
1

> <s_lp_Variant>
AV-unprocessed.smi:2143-4

> <Gold.Version>
5.8.1

> <Gold.Id.Protein>
6NUR|6NUR_protein|mol2

> <Gold.PLP.Fitness>
44.7334

> <Gold.PLP.PLP>
-36.3403

> <Gold.PLP.part.hbond>
-3.9047

> <Gold.PLP.part.metal>
0.0000

> <Gold.PLP.part.buried>
-5.3508

> <Gold.PLP.part.nonpolar>
-28.6634

> <Gold.PLP.part.repulsive>
1.0731

> <Gold.PLP.ligand.clash>
0.0000

> <Gold.PLP.ligand.torsion>
0.3265

> <Gold.PLP.Chemscore.Hbond>
3.0137

> <Gold.PLP.Chemscore.CHOScore>
0.0000

> <Gold.PLP.Chemscore.Metal>
0.0000

> <Gold.Chemscore.Hbonds>
donor molecule, donor type, donor heavy atom, donor atom, acceptor molecule, acceptor atom, score
      P1  H  7997  8009       L1     9  1.00
      P1  H 10752 10764       L1    19  0.93

> <Gold.PLP.Chemscore.Internal.Correction>
0.0052

> <Gold.Rescore>
     Score         DG    S(hbond)    S(metal)    S(lipo)     H(rot)  DE(clash)    DE(int)     intcor
     21.15     -21.52       2.86        0.00      88.49       1.51       0.12       0.26       ----

> <Gold.Chemscore.Fitness>
21.1453

> <Gold.Chemscore.DG>
-21.5210

> <Gold.Chemscore.ZeroCoef>
-5.4800

> <Gold.Chemscore.Hbond>
2.8625

> <Gold.Chemscore.Metal>
0.0000

> <Gold.Chemscore.Lipo>
88.4941

> <Gold.Chemscore.Internal_Hbond>
0.0000

> <Gold.Chemscore.DEClash>
0.1169

> <Gold.Chemscore.DEInternal>
0.2589

> <Gold.Chemscore.Rot>
1.5131

> <Gold.Chemscore.Internal.Correction>
   9.000000E+99

> <Gold.Chemscore.Hbonds>
donor molecule, donor type, donor heavy atom, donor atom, acceptor molecule, acceptor atom, score
      P1  H  7997  8009       L1     9  0.99
      P1  H 10752 10764       L1    19  0.86

> <Gold.Chemscore.Hbond.Weighted>
-9.5607

> <Gold.Chemscore.Metal.Weighted>
-0.0000

> <Gold.Chemscore.Lipo.Weighted>
-10.3538

> <Gold.Chemscore.Internal_Hbond.Weighted>
0.0000

> <Gold.Chemscore.DEClash.Weighted>
0.1169

> <Gold.Chemscore.DEInternal.Weighted>
0.2589

> <Gold.Chemscore.Rot.Weighted>
3.8734

> <Gold.Chemscore.Internal.Correction.Weighted>
   9.000000E+99

> <Gold.Protein.RotatedTorsions>
[ 6907 6896 6895 6894 ] final  130.01 input  -60.11 | X-H torsion
[ 7974 7965 7964 7962 ] final  -13.18 input  175.53 | X-H torsion
[ 8008 7997 7996 7995 ] final -156.56 input   59.86 | X-H torsion
[ 10167 10162 10161 10158 ] final -154.23 input  -65.29 | X-H torsion
[ 10718 10713 10712 10709 ] final -175.70 input   66.30 | X-H torsion
[ 10763 10752 10751 10750 ] final  -61.06 input  -60.55 | X-H torsion
[ 11005 11000 10999 10996 ] final -123.41 input  -57.11 | X-H torsion

> <Gold.Protein.ActiveResidues>
 VAL166  LYS551  ARG553  GLY616  TRP617  ASP618  TYR619  PRO620  LYS621  CYS622 
 ASP623  PHE694  ASN695  SER759  ASP760  ASP761  ALA762  ILE779  LEU786  VAL792 
 PHE793  MET794  SER795  GLU796  ALA797  LYS798  CYS799  TRP800  GLU811  SER814 

> <Gold.Protein.RotatedAtoms>
  152.3568  133.6246  159.5984 H   0  0  0  0  0  0  0  0  0  0  0  0  # atno 6907 bound_to 6896
  150.7574  133.9488  159.3488 H   0  0  0  0  0  0  0  0  0  0  0  0  # atno 6908 bound_to 6896
  151.7332  135.0871  160.0354 H   0  0  0  0  0  0  0  0  0  0  0  0  # atno 6909 bound_to 6896
  146.2124  140.3166  142.8387 H   0  0  0  0  0  0  0  0  0  0  0  0  # atno 7974 bound_to 7965
  155.7190  140.0787  157.2339 H   0  0  0  0  0  0  0  0  0  0  0  0  # atno 8008 bound_to 7997
  154.4048  140.1616  156.2435 H   0  0  0  0  0  0  0  0  0  0  0  0  # atno 8009 bound_to 7997
  155.9214  140.3397  155.6178 H   0  0  0  0  0  0  0  0  0  0  0  0  # atno 8010 bound_to 7997
  139.7031  143.9231  152.2437 H   0  0  0  0  0  0  0  0  0  0  0  0  # atno 10167 bound_to 10162
  156.8038  130.9561  151.3118 H   0  0  0  0  0  0  0  0  0  0  0  0  # atno 10718 bound_to 10713
  154.2787  135.6276  153.5338 H   0  0  0  0  0  0  0  0  0  0  0  0  # atno 10763 bound_to 10752
  152.9869  135.5628  154.5519 H   0  0  0  0  0  0  0  0  0  0  0  0  # atno 10764 bound_to 10752
  154.5105  135.2877  155.1322 H   0  0  0  0  0  0  0  0  0  0  0  0  # atno 10765 bound_to 10752
  140.9920  134.0525  157.3642 H   0  0  0  0  0  0  0  0  0  0  0  0  # atno 11005 bound_to 11000
  144.8950  140.7571  143.5903 LP  0  0  0  0  0  0  0  0  0  0  0  0  # atno 17320 bound_to 7965
  145.3090  139.1825  143.4649 LP  0  0  0  0  0  0  0  0  0  0  0  0  # atno 17321 bound_to 7965
  139.9079  144.6874  150.8594 LP  0  0  0  0  0  0  0  0  0  0  0  0  # atno 17342 bound_to 10162
  140.7714  143.3465  151.2100 LP  0  0  0  0  0  0  0  0  0  0  0  0  # atno 17343 bound_to 10162
  157.6540  130.8909  149.9691 LP  0  0  0  0  0  0  0  0  0  0  0  0  # atno 17370 bound_to 10713
  156.1085  130.3651  150.0090 LP  0  0  0  0  0  0  0  0  0  0  0  0  # atno 17371 bound_to 10713
  139.8997  135.0159  156.7207 LP  0  0  0  0  0  0  0  0  0  0  0  0  # atno 17394 bound_to 11000
  140.7024  133.9294  155.8033 LP  0  0  0  0  0  0  0  0  0  0  0  0  # atno 17395 bound_to 11000

$$$$
