#       Name:                AV-unprocessed.smi:1261
#       Creating user name   scv26
#       Creation time:       Fri Mar 27 04:42:53 2020


#       File generated by GOLD software.
#

@<TRIPOS>MOLECULE
AV-unprocessed.smi:1261
    57    58     1
SMALL
NO_CHARGES


@<TRIPOS>ATOM
      1 ****        -3.6142   1.3443   3.3066 C.3            1 S1                 0.0000
      2 ****        -3.1421   1.6463   1.8771 C.3            1 S1                 0.0000
      3 ****        -3.6719   3.0038   1.3857 C.3            1 S1                 0.0000
      4 ****        -3.1700   3.2984  -0.0377 C.3            1 S1                 0.0000
      5 ****        -3.6720   4.6598  -0.5394 C.3            1 S1                 0.0000
      6 ****        -1.6325   3.2094  -0.0885 C.3            1 S1                 0.0000
      7 ****        -1.1505   1.8853   0.3828 N.4            1 S1                 1.0000
      8 ****         0.3150   1.7251   0.2029 C.3            1 S1                 0.0000
      9 ****         0.7396   0.2489   0.1257 C.3            1 S1                 0.0000
     10 ****         2.2438   0.0870  -0.1478 C.3            1 S1                 0.0000
     11 ****         2.6199  -1.3185  -0.2310 N.am           1 S1                 0.0000
     12 ****         2.8374  -2.1270   0.8207 C.2            1 S1                 0.0000
     13 ****         2.7540  -1.7380   1.9853 O.2            1 S1                 0.0000
     14 ****         3.1919  -3.5997   0.5481 C.3            1 S1                 0.0000
     15 ****         3.0729  -4.0205  -0.8578 N.am           1 S1                 0.0000
     16 ****         4.2739  -4.0253  -1.5513 N.2            1 S1                 0.0000
     17 ****         4.3013  -4.3800  -2.7916 C.2            1 S1                 0.0000
     18 ****         5.5113  -4.3690  -3.4410 O.3            1 S1                 0.0000
     19 ****         3.0946  -4.7783  -3.4829 C.2            1 S1                 0.0000
     20 ****         1.9291  -4.7691  -2.7996 C.2            1 S1                 0.0000
     21 ****         1.8620  -4.3682  -1.3931 C.2            1 S1                 0.0000
     22 ****         0.8127  -4.3352  -0.7509 O.2            1 S1                 0.0000
     23 ****        -1.6055   1.6024   1.7703 C.3            1 S1                 0.0000
     24 ****         5.3271  -4.6559  -4.3221 H              1 S1                 0.0000
     25 ****        -3.2407   2.0860   4.0135 H              1 S1                 0.0000
     26 ****        -3.2663   0.3652   3.6373 H              1 S1                 0.0000
     27 ****        -4.7028   1.3442   3.3685 H              1 S1                 0.0000
     28 ****        -3.5477   0.8691   1.2272 H              1 S1                 0.0000
     29 ****        -4.7625   3.0061   1.4031 H              1 S1                 0.0000
     30 ****        -3.3485   3.7953   2.0638 H              1 S1                 0.0000
     31 ****        -3.5746   2.5346  -0.7040 H              1 S1                 0.0000
     32 ****        -3.3037   5.4741   0.0854 H              1 S1                 0.0000
     33 ****        -4.7615   4.7027  -0.5335 H              1 S1                 0.0000
     34 ****        -3.3418   4.8485  -1.5612 H              1 S1                 0.0000
     35 ****        -1.2998   3.3735  -1.1145 H              1 S1                 0.0000
     36 ****        -1.1842   3.9968   0.5201 H              1 S1                 0.0000
     37 ****         0.6168   2.2076  -0.7278 H              1 S1                 0.0000
     38 ****         0.8470   2.2417   1.0035 H              1 S1                 0.0000
     39 ****         0.4916  -0.2633   1.0548 H              1 S1                 0.0000
     40 ****         0.1741  -0.2509  -0.6620 H              1 S1                 0.0000
     41 ****         2.5044   0.5623  -1.0939 H              1 S1                 0.0000
     42 ****         2.8312   0.5873   0.6242 H              1 S1                 0.0000
     43 ****         2.7136  -1.7137  -1.1557 H              1 S1                 0.0000
     44 ****         4.2120  -3.7662   0.8988 H              1 S1                 0.0000
     45 ****         2.5656  -4.2313   1.1807 H              1 S1                 0.0000
     46 ****         3.1333  -5.0755  -4.5206 H              1 S1                 0.0000
     47 ****         1.0206  -5.0652  -3.3032 H              1 S1                 0.0000
     48 ****        -1.1578   2.3258   2.4540 H              1 S1                 0.0000
     49 ****        -1.2597   0.6186   2.0854 H              1 S1                 0.0000
     50 ****        -1.5876   1.1998  -0.2166 H              1 S1                 0.0000
     51 ****         2.5162  -0.7861   2.1787 LP             1 S1                 0.0000
     52 ****         2.9241  -2.3737   2.7383 LP             1 S1                 0.0000
     53 ****         5.1187  -3.7538  -1.0901 LP             1 S1                 0.0000
     54 ****         6.1524  -4.9946  -2.9964 LP             1 S1                 0.0000
     55 ****         5.8964  -3.4461  -3.4471 LP             1 S1                 0.0000
     56 ****         0.8211  -4.0447   0.2060 LP             1 S1                 0.0000
     57 ****        -0.0482  -4.5988  -1.1859 LP             1 S1                 0.0000
@<TRIPOS>BOND
    1    1    2 1     
    2    1   25 1     
    3    1   26 1     
    4    1   27 1     
    5    2   23 1     
    6    2    3 1     
    7    2   28 1     
    8    3    4 1     
    9    3   29 1     
   10    3   30 1     
   11    4    5 1     
   12    4    6 1     
   13    4   31 1     
   14    5   32 1     
   15    5   33 1     
   16    5   34 1     
   17    6    7 1     
   18    6   35 1     
   19    6   36 1     
   20    7    8 1     
   21    7   23 1     
   22    7   50 1     
   23    8    9 1     
   24    8   37 1     
   25    8   38 1     
   26    9   10 1     
   27    9   39 1     
   28    9   40 1     
   29   10   11 1     
   30   10   41 1     
   31   10   42 1     
   32   11   12 am    
   33   11   43 1     
   34   12   13 2     
   35   12   14 1     
   36   14   44 1     
   37   14   45 1     
   38   14   15 1     
   39   15   16 1     
   40   15   21 am    
   41   16   17 2     
   42   17   18 1     
   43   17   19 1     
   44   18   24 1     
   45   19   46 1     
   46   19   20 2     
   47   20   47 1     
   48   20   21 1     
   49   21   22 2     
   50   23   48 1     
   51   23   49 1     
   52   13   51 1     
   53   13   52 1     
   54   16   53 1     
   55   18   54 1     
   56   18   55 1     
   57   22   56 1     
   58   22   57 1     
@<TRIPOS>SUBSTRUCTURE
      1 S1             1
@<TRIPOS>SET
LONE_PAIRS      STATIC     ATOMS    <user>   **** ""
7 51 52 53 54 55 56 57
DONOR_HYDROGENS      STATIC     ATOMS    <user>   **** ""
3 50 43 24
ATOM$BLUE        STATIC     ATOMS    COLORGROUP SYSTEM
7 51 52 53 54 55 56 57
ATOM$RED        STATIC     ATOMS    COLORGROUP SYSTEM
3 50 43 24
