AV-unprocessed.smi:1302|AV-procd|sdf|5425|dock9
  -GOLD-   22720 4583D 1   1.00000     0.00000
 Structure written by MMmdl.
 43 44  0  0  0  0  0  0  0  0  1 V2000
  154.2345  140.0864  161.2390 C   0  0  0  0  0  0  0  0  0  0  0  0
  153.8972  141.4972  160.7314 C   0  0  0  0  0  0  0  0  0  0  0  0
  153.3471  142.3869  161.8538 C   0  0  0  0  0  0  0  0  0  0  0  0
  152.9238  141.4275  159.6456 N   0  0  0  0  0  0  0  0  0  0  0  0
  152.9316  140.5274  158.6480 C   0  0  0  0  0  0  0  0  0  0  0  0
  153.7954  139.6593  158.5199 O   0  0  0  0  0  0  0  0  0  0  0  0
  151.8369  140.6772  157.6316 C   0  0  0  0  0  0  0  0  0  0  0  0
  150.6770  141.4226  157.9282 C   0  0  0  0  0  0  0  0  0  0  0  0
  149.6806  141.5633  156.9433 C   0  0  0  0  0  0  0  0  0  0  0  0
  149.8694  140.9595  155.6777 C   0  0  0  0  0  0  0  0  0  0  0  0
  148.8819  141.0850  154.6764 N   0  0  0  0  0  0  0  0  0  0  0  0
  147.8535  142.0915  154.9259 C   0  0  0  0  0  0  0  0  0  0  0  0
  147.0365  142.3547  153.6467 C   0  0  2  0  0  0  0  0  0  0  0  0
  145.8670  143.3121  153.8988 C   0  0  0  0  0  0  0  0  0  0  0  0
  146.5085  141.1224  153.1644 O   0  0  0  0  0  0  0  0  0  0  0  0
  147.5296  140.1907  152.8188 C   0  0  2  0  0  0  0  0  0  0  0  0
  146.8638  138.9453  152.2246 C   0  0  0  0  0  0  0  0  0  0  0  0
  148.3568  139.8610  154.0748 C   0  0  0  0  0  0  0  0  0  0  0  0
  150.9936  140.2590  155.3882 N   0  0  0  0  0  0  0  0  0  0  0  0
  151.9457  140.1261  156.3356 C   0  0  0  0  0  0  0  0  0  0  0  0
  154.9678  140.1264  162.0447 H   0  0  0  0  0  0  0  0  0  0  0  0
  154.6547  139.4694  160.4442 H   0  0  0  0  0  0  0  0  0  0  0  0
  153.3478  139.5793  161.6213 H   0  0  0  0  0  0  0  0  0  0  0  0
  154.8133  141.9607  160.3609 H   0  0  0  0  0  0  0  0  0  0  0  0
  154.0670  142.4799  162.6676 H   0  0  0  0  0  0  0  0  0  0  0  0
  152.4255  141.9790  162.2703 H   0  0  0  0  0  0  0  0  0  0  0  0
  153.1324  143.3920  161.4888 H   0  0  0  0  0  0  0  0  0  0  0  0
  152.1869  142.1178  159.6532 H   0  0  0  0  0  0  0  0  0  0  0  0
  150.5444  141.8838  158.8964 H   0  0  0  0  0  0  0  0  0  0  0  0
  148.7966  142.1425  157.1645 H   0  0  0  0  0  0  0  0  0  0  0  0
  147.2001  141.7322  155.7222 H   0  0  0  0  0  0  0  0  0  0  0  0
  148.2847  143.0303  155.2707 H   0  0  0  0  0  0  0  0  0  0  0  0
  147.6823  142.7905  152.8822 H   0  0  0  0  0  0  0  0  0  0  0  0
  146.2214  144.2790  154.2567 H   0  0  0  0  0  0  0  0  0  0  0  0
  145.1811  142.9094  154.6446 H   0  0  0  0  0  0  0  0  0  0  0  0
  145.3001  143.4839  152.9835 H   0  0  0  0  0  0  0  0  0  0  0  0
  148.1762  140.6331  152.0589 H   0  0  0  0  0  0  0  0  0  0  0  0
  147.6079  138.2026  151.9357 H   0  0  0  0  0  0  0  0  0  0  0  0
  146.2856  139.1994  151.3360 H   0  0  0  0  0  0  0  0  0  0  0  0
  146.1863  138.4801  152.9413 H   0  0  0  0  0  0  0  0  0  0  0  0
  149.1765  139.1946  153.8028 H   0  0  0  0  0  0  0  0  0  0  0  0
  147.7389  139.3383  154.8064 H   0  0  0  0  0  0  0  0  0  0  0  0
  152.8196  139.5649  156.0383 H   0  0  0  0  0  0  0  0  0  0  0  0
  1  2  1  0  0  0  0
  1 21  1  0  0  0  0
  1 22  1  0  0  0  0
  1 23  1  0  0  0  0
  2  3  1  0  0  0  0
  2  4  1  0  0  0  0
  2 24  1  0  0  0  0
  3 25  1  0  0  0  0
  3 26  1  0  0  0  0
  3 27  1  0  0  0  0
  4  5  1  0  0  0  0
  4 28  1  0  0  0  0
  5  6  2  0  0  0  0
  5  7  1  0  0  0  0
  7 20  1  0  0  0  0
  7  8  2  0  0  0  0
  8  9  1  0  0  0  0
  8 29  1  0  0  0  0
  9 10  2  0  0  0  0
  9 30  1  0  0  0  0
 10 11  1  0  0  0  0
 10 19  1  0  0  0  0
 11 18  1  0  0  0  0
 11 12  1  0  0  0  0
 12 13  1  0  0  0  0
 12 31  1  0  0  0  0
 12 32  1  0  0  0  0
 13 14  1  0  0  0  0
 13 15  1  0  0  0  0
 13 33  1  0  0  0  0
 14 34  1  0  0  0  0
 14 35  1  0  0  0  0
 14 36  1  0  0  0  0
 15 16  1  0  0  0  0
 16 17  1  0  0  0  0
 16 18  1  0  0  0  0
 16 37  1  0  0  0  0
 17 38  1  0  0  0  0
 17 39  1  0  0  0  0
 17 40  1  0  0  0  0
 18 41  1  0  0  0  0
 18 42  1  0  0  0  0
 19 20  2  0  0  0  0
 20 43  1  0  0  0  0
M  END
> <s_m_source_file>
AV-unprocessed.smi

> <i_m_source_file_index>
1302

> <i_lp_mmshare_version>
43012

> <i_f3d_flags>
0

> <s_epik_input>
W0NIM11bQ0hdKFtDSDNdKVtOSF1DKD1PKWMxW2NIXVtjSF1jKG5bY0hdMSlOMltDSDJdW0NAQEhdKFtDSDNdKU9bQ0BASF0oW0NIM10pW0NIMl0y

> <s_epik_cmdline>
J2VwaWtfcHl0aG9uJywgJy1waCcsICc3LjAnLCAnLXRuJywgJzgnLCAnLW1hJywgJzIwMCcsICctbWV0YWxfYmluZGluZycsICctaW1hZScsICc8aW5maWxlLm1hZT4nLCAnLW9tYWUnLCAnPG91dGZpbGUubWFlPic=

> <r_lp_tautomer_probability>
1

> <r_epik_Ionization_Penalty>
2.23089e-05

> <r_epik_Ionization_Penalty_Charging>
0

> <r_epik_Ionization_Penalty_Neutral>
2.23089e-05

> <r_epik_State_Penalty>
-0

> <r_epik_Charging_Adjusted_Penalty>
0

> <i_epik_Tot_Q>
0

> <i_epik_Tot_abs_Q>
0

> <r_epik_Metal_State_Penalty>
-0

> <b_epik_Metal_Only>
0

> <s_lp_Force_Field>
OPLS_2005

> <r_lp_Energy>
16.9164

> <b_lp_Chiralities_Consistent>
1

> <s_lp_Variant>
AV-unprocessed.smi:1302-1

> <Gold.Version>
5.8.1

> <Gold.Id.Protein>
6NUR|6NUR_protein|mol2

> <Gold.PLP.Fitness>
40.7938

> <Gold.PLP.PLP>
-36.0913

> <Gold.PLP.part.hbond>
-1.9845

> <Gold.PLP.part.metal>
0.0000

> <Gold.PLP.part.buried>
0.1040

> <Gold.PLP.part.nonpolar>
-35.3775

> <Gold.PLP.part.repulsive>
2.1113

> <Gold.PLP.ligand.clash>
0.0000

> <Gold.PLP.ligand.torsion>
0.5613

> <Gold.PLP.Chemscore.Hbond>
1.8288

> <Gold.PLP.Chemscore.CHOScore>
0.0000

> <Gold.PLP.Chemscore.Metal>
0.0000

> <Gold.Chemscore.Hbonds>
donor molecule, donor type, donor heavy atom, donor atom, acceptor molecule, acceptor atom, score
      P1  H  7989  7998       L1    19  0.86
      P1  H  7997  8008       L1     6  1.00

> <Gold.PLP.Chemscore.Internal.Correction>
0.3390

> <Gold.Rescore>
     Score         DG    S(hbond)    S(metal)    S(lipo)     H(rot)  DE(clash)    DE(int)     intcor
     14.20     -18.45       1.45        0.00      94.71       1.15       2.60       1.65       ----

> <Gold.Chemscore.Fitness>
14.2034

> <Gold.Chemscore.DG>
-18.4542

> <Gold.Chemscore.ZeroCoef>
-5.4800

> <Gold.Chemscore.Hbond>
1.4487

> <Gold.Chemscore.Metal>
0.0000

> <Gold.Chemscore.Lipo>
94.7141

> <Gold.Chemscore.Internal_Hbond>
0.0000

> <Gold.Chemscore.DEClash>
2.6048

> <Gold.Chemscore.DEInternal>
1.6460

> <Gold.Chemscore.Rot>
1.1508

> <Gold.Chemscore.Internal.Correction>
   9.000000E+99

> <Gold.Chemscore.Hbonds>
donor molecule, donor type, donor heavy atom, donor atom, acceptor molecule, acceptor atom, score
      P1  H  7989  7998       L1    19  0.45
      P1  H  7997  8008       L1     6  0.49

> <Gold.Chemscore.Hbond.Weighted>
-4.8388

> <Gold.Chemscore.Metal.Weighted>
-0.0000

> <Gold.Chemscore.Lipo.Weighted>
-11.0815

> <Gold.Chemscore.Internal_Hbond.Weighted>
0.0000

> <Gold.Chemscore.DEClash.Weighted>
2.6048

> <Gold.Chemscore.DEInternal.Weighted>
1.6460

> <Gold.Chemscore.Rot.Weighted>
2.9461

> <Gold.Chemscore.Internal.Correction.Weighted>
   9.000000E+99

> <Gold.Protein.RotatedTorsions>
[ 6907 6896 6895 6894 ] final   65.66 input  -60.11 | X-H torsion
[ 7974 7965 7964 7962 ] final   69.04 input  175.53 | X-H torsion
[ 8008 7997 7996 7995 ] final  -85.23 input   59.86 | X-H torsion
[ 10167 10162 10161 10158 ] final  159.80 input  -65.29 | X-H torsion
[ 10718 10713 10712 10709 ] final -109.53 input   66.30 | X-H torsion
[ 10763 10752 10751 10750 ] final -170.91 input  -60.55 | X-H torsion
[ 11005 11000 10999 10996 ] final   99.05 input  -57.11 | X-H torsion

> <Gold.Protein.ActiveResidues>
 VAL166  LYS551  ARG553  GLY616  TRP617  ASP618  TYR619  PRO620  LYS621  CYS622 
 ASP623  PHE694  ASN695  SER759  ASP760  ASP761  ALA762  ILE779  LEU786  VAL792 
 PHE793  MET794  SER795  GLU796  ALA797  LYS798  CYS799  TRP800  GLU811  SER814 

> <Gold.Protein.RotatedAtoms>
  152.4424  134.5564  159.9881 H   0  0  0  0  0  0  0  0  0  0  0  0  # atno 6907 bound_to 6896
  151.5658  133.3391  159.2988 H   0  0  0  0  0  0  0  0  0  0  0  0  # atno 6908 bound_to 6896
  150.8333  134.7628  159.6935 H   0  0  0  0  0  0  0  0  0  0  0  0  # atno 6909 bound_to 6896
  145.7953  139.2954  143.1186 H   0  0  0  0  0  0  0  0  0  0  0  0  # atno 7974 bound_to 7965
  154.6385  140.0594  156.9817 H   0  0  0  0  0  0  0  0  0  0  0  0  # atno 8008 bound_to 7997
  155.1554  140.3278  155.4404 H   0  0  0  0  0  0  0  0  0  0  0  0  # atno 8009 bound_to 7997
  156.2519  140.1940  156.6664 H   0  0  0  0  0  0  0  0  0  0  0  0  # atno 8010 bound_to 7997
  139.4835  144.4695  151.8595 H   0  0  0  0  0  0  0  0  0  0  0  0  # atno 10167 bound_to 10162
  156.0542  130.5768  150.8112 H   0  0  0  0  0  0  0  0  0  0  0  0  # atno 10718 bound_to 10713
  154.6363  135.2893  155.0157 H   0  0  0  0  0  0  0  0  0  0  0  0  # atno 10763 bound_to 10752
  154.1299  135.6535  153.4924 H   0  0  0  0  0  0  0  0  0  0  0  0  # atno 10764 bound_to 10752
  153.0304  135.5308  154.7211 H   0  0  0  0  0  0  0  0  0  0  0  0  # atno 10765 bound_to 10752
  139.8771  134.9078  156.4548 H   0  0  0  0  0  0  0  0  0  0  0  0  # atno 11005 bound_to 11000
  145.9934  140.8583  143.0055 LP  0  0  0  0  0  0  0  0  0  0  0  0  # atno 17320 bound_to 7965
  144.6776  140.2249  143.7362 LP  0  0  0  0  0  0  0  0  0  0  0  0  # atno 17321 bound_to 7965
  140.4163  144.2303  150.5887 LP  0  0  0  0  0  0  0  0  0  0  0  0  # atno 17342 bound_to 10162
  140.4917  143.2345  151.8808 LP  0  0  0  0  0  0  0  0  0  0  0  0  # atno 17343 bound_to 10162
  157.5496  131.0943  150.9714 LP  0  0  0  0  0  0  0  0  0  0  0  0  # atno 17370 bound_to 10713
  156.9977  130.5587  149.5308 LP  0  0  0  0  0  0  0  0  0  0  0  0  # atno 17371 bound_to 10713
  140.8906  133.7851  155.9567 LP  0  0  0  0  0  0  0  0  0  0  0  0  # atno 17394 bound_to 11000
  140.8758  134.2672  157.5169 LP  0  0  0  0  0  0  0  0  0  0  0  0  # atno 17395 bound_to 11000

$$$$
