AV-unprocessed.smi:125|AV-procd|sdf|1149|dock2
  -GOLD-   2262018283D 1   1.00000     0.00000
 Structure written by MMmdl.
 59 62  0  0  0  0  0  0  0  0  1 V2000
  149.8997  142.2676  157.4910 C   0  0  0  0  0  0  0  0  0  0  0  0
  151.0947  141.6555  158.2029 C   0  0  0  0  0  0  0  0  0  0  0  0
  151.5174  142.2319  159.4189 C   0  0  0  0  0  0  0  0  0  0  0  0
  152.6186  141.7091  160.1221 C   0  0  0  0  0  0  0  0  0  0  0  0
  153.3281  140.5982  159.6101 C   0  0  0  0  0  0  0  0  0  0  0  0
  154.4372  139.9994  160.2668 N   0  0  0  0  0  0  0  0  0  0  0  0
  155.1827  138.9487  159.8781 C   0  0  0  0  0  0  0  0  0  0  0  0
  154.9633  138.2689  158.8750 O   0  0  0  0  0  0  0  0  0  0  0  0
  156.3427  138.5858  160.8177 C   0  0  0  0  0  0  0  0  0  0  0  0
  155.9824  138.6873  162.2488 N   0  0  0  0  0  0  0  0  0  0  0  0
  155.0794  137.7349  162.7836 C   0  0  0  0  0  0  0  0  0  0  0  0
  154.6076  136.8388  162.0816 O   0  0  0  0  0  0  0  0  0  0  0  0
  154.7568  137.8958  164.1967 C   0  0  0  0  0  0  0  0  0  0  0  0
  153.9249  137.0250  164.7930 F   0  0  0  0  0  0  0  0  0  0  0  0
  155.2851  138.9050  164.9186 C   0  0  0  0  0  0  0  0  0  0  0  0
  156.1494  139.8396  164.3789 N   0  0  0  0  0  0  0  0  0  0  0  0
  156.7231  140.9574  165.2213 C   0  0  2  0  0  0  0  0  0  0  0  0
  157.4775  140.3801  166.4241 C   0  0  0  0  0  0  0  0  0  0  0  0
  156.4160  140.4115  167.5022 C   0  0  0  0  0  0  0  0  0  0  0  0
  155.6510  141.6792  167.1406 C   0  0  0  0  0  0  0  0  0  0  0  0
  155.6746  141.7399  165.7167 O   0  0  0  0  0  0  0  0  0  0  0  0
  156.5259  139.7415  163.0216 C   0  0  0  0  0  0  0  0  0  0  0  0
  157.3092  140.5539  162.5255 O   0  0  0  0  0  0  0  0  0  0  0  0
  152.9000  140.0083  158.4046 C   0  0  0  0  0  0  0  0  0  0  0  0
  151.7952  140.5291  157.6980 C   0  0  0  0  0  0  0  0  0  0  0  0
  151.3416  139.7263  156.1506 S   0  0  0  0  0  0  0  0  0  0  0  0
  150.4934  140.6329  155.3610 O   0  0  0  0  0  0  0  0  0  0  0  0
  152.5642  139.1643  155.5557 O   0  0  0  0  0  0  0  0  0  0  0  0
  150.3388  138.4179  156.6807 N   0  0  0  0  0  0  0  0  0  0  0  0
  149.9925  138.2950  158.1057 C   0  0  0  0  0  0  0  0  0  0  0  0
  148.7854  137.3622  158.2999 C   0  0  0  0  0  0  0  0  0  0  0  0
  149.0066  136.1227  157.6437 O   0  0  0  0  0  0  0  0  0  0  0  0
  149.1402  136.2945  156.2408 C   0  0  0  0  0  0  0  0  0  0  0  0
  150.3750  137.1544  155.9299 C   0  0  0  0  0  0  0  0  0  0  0  0
  149.4463  143.0557  158.0928 H   0  0  0  0  0  0  0  0  0  0  0  0
  149.1271  141.5239  157.3027 H   0  0  0  0  0  0  0  0  0  0  0  0
  150.1993  142.7159  156.5451 H   0  0  0  0  0  0  0  0  0  0  0  0
  150.9925  143.0832  159.8270 H   0  0  0  0  0  0  0  0  0  0  0  0
  152.8893  142.1706  161.0589 H   0  0  0  0  0  0  0  0  0  0  0  0
  154.6717  140.3955  161.1655 H   0  0  0  0  0  0  0  0  0  0  0  0
  156.6943  137.5787  160.5858 H   0  0  0  0  0  0  0  0  0  0  0  0
  157.1914  139.2244  160.5691 H   0  0  0  0  0  0  0  0  0  0  0  0
  155.0149  138.9718  165.9620 H   0  0  0  0  0  0  0  0  0  0  0  0
  157.3437  141.5582  164.5548 H   0  0  0  0  0  0  0  0  0  0  0  0
  157.8828  139.3874  166.2252 H   0  0  0  0  0  0  0  0  0  0  0  0
  158.2976  141.0535  166.6762 H   0  0  0  0  0  0  0  0  0  0  0  0
  155.7664  139.5396  167.4195 H   0  0  0  0  0  0  0  0  0  0  0  0
  156.8296  140.4355  168.5107 H   0  0  0  0  0  0  0  0  0  0  0  0
  154.6307  141.6789  167.5242 H   0  0  0  0  0  0  0  0  0  0  0  0
  156.1632  142.5569  167.5365 H   0  0  0  0  0  0  0  0  0  0  0  0
  153.4332  139.1510  158.0212 H   0  0  0  0  0  0  0  0  0  0  0  0
  150.8591  137.9095  158.6437 H   0  0  0  0  0  0  0  0  0  0  0  0
  149.7642  139.2757  158.5222 H   0  0  0  0  0  0  0  0  0  0  0  0
  148.6248  137.1766  159.3620 H   0  0  0  0  0  0  0  0  0  0  0  0
  147.8739  137.8273  157.9210 H   0  0  0  0  0  0  0  0  0  0  0  0
  149.2407  135.3154  155.7725 H   0  0  0  0  0  0  0  0  0  0  0  0
  148.2377  136.7500  155.8299 H   0  0  0  0  0  0  0  0  0  0  0  0
  150.4258  137.3627  154.8610 H   0  0  0  0  0  0  0  0  0  0  0  0
  151.2847  136.6149  156.1954 H   0  0  0  0  0  0  0  0  0  0  0  0
  1  2  1  0  0  0  0
  1 35  1  0  0  0  0
  1 36  1  0  0  0  0
  1 37  1  0  0  0  0
  2 25  1  0  0  0  0
  2  3  2  0  0  0  0
  3  4  1  0  0  0  0
  3 38  1  0  0  0  0
  4  5  2  0  0  0  0
  4 39  1  0  0  0  0
  5  6  1  0  0  0  0
  5 24  1  0  0  0  0
  6  7  1  0  0  0  0
  6 40  1  0  0  0  0
  7  8  2  0  0  0  0
  7  9  1  0  0  0  0
  9 10  1  0  0  0  0
  9 41  1  0  0  0  0
  9 42  1  0  0  0  0
 10 22  1  0  0  0  0
 10 11  1  0  0  0  0
 11 12  2  0  0  0  0
 11 13  1  0  0  0  0
 13 14  1  0  0  0  0
 13 15  2  0  0  0  0
 15 16  1  0  0  0  0
 15 43  1  0  0  0  0
 16 17  1  0  0  0  0
 16 22  1  0  0  0  0
 17 21  1  0  0  0  0
 17 18  1  0  0  0  0
 17 44  1  0  0  0  0
 18 19  1  0  0  0  0
 18 45  1  0  0  0  0
 18 46  1  0  0  0  0
 19 20  1  0  0  0  0
 19 47  1  0  0  0  0
 19 48  1  0  0  0  0
 20 21  1  0  0  0  0
 20 49  1  0  0  0  0
 20 50  1  0  0  0  0
 22 23  2  0  0  0  0
 24 25  2  0  0  0  0
 24 51  1  0  0  0  0
 25 26  1  0  0  0  0
 26 27  2  0  0  0  0
 26 28  2  0  0  0  0
 26 29  1  0  0  0  0
 29 34  1  0  0  0  0
 29 30  1  0  0  0  0
 30 31  1  0  0  0  0
 30 52  1  0  0  0  0
 30 53  1  0  0  0  0
 31 32  1  0  0  0  0
 31 54  1  0  0  0  0
 31 55  1  0  0  0  0
 32 33  1  0  0  0  0
 33 34  1  0  0  0  0
 33 56  1  0  0  0  0
 33 57  1  0  0  0  0
 34 58  1  0  0  0  0
 34 59  1  0  0  0  0
M  END
> <s_m_source_file>
AV-unprocessed.smi

> <i_m_source_file_index>
125

> <i_lp_mmshare_version>
43012

> <i_f3d_flags>
0

> <s_epik_input>
W0NIMl0xW0NIMl1PW0NIMl1bQ0gyXU4xUyg9TykoPU8pYzJbY0hdYyhbY0hdW2NIXWMyW0NIM10pW05IXUMoPU8pW0NIMl1uM2MoPU8pYyhGKVtjSF1uKGMzPU8pW0NAQEhdNFtDSDJdW0NIMl1bQ0gyXU80

> <s_epik_cmdline>
J2VwaWtfcHl0aG9uJywgJy1waCcsICc3LjAnLCAnLXRuJywgJzgnLCAnLW1hJywgJzIwMCcsICctbWV0YWxfYmluZGluZycsICctaW1hZScsICc8aW5maWxlLm1hZT4nLCAnLW9tYWUnLCAnPG91dGZpbGUubWFlPic=

> <r_lp_tautomer_probability>
1

> <r_epik_Ionization_Penalty>
4.12263e-06

> <r_epik_Ionization_Penalty_Charging>
3.88729e-08

> <r_epik_Ionization_Penalty_Neutral>
4.08376e-06

> <r_epik_State_Penalty>
-0

> <r_epik_Charging_Adjusted_Penalty>
3.88729e-08

> <i_epik_Tot_Q>
0

> <i_epik_Tot_abs_Q>
0

> <r_epik_Metal_State_Penalty>
-0

> <b_epik_Metal_Only>
0

> <s_epik_Chemistry_Notes>
This compound contains an acetal/aminal-like group ( X-CH(R)-Y where X, Y are N, S, or O) that may be acid/base labile, releasing an aldehyde.

> <s_lp_Force_Field>
OPLS_2005

> <r_lp_Energy>
38.613

> <b_lp_Chiralities_Consistent>
1

> <s_lp_Variant>
AV-unprocessed.smi:125-1

> <Gold.Version>
5.8.1

> <Gold.Id.Protein>
6NUR|6NUR_protein|mol2

> <Gold.PLP.Fitness>
49.1010

> <Gold.PLP.PLP>
-41.9887

> <Gold.PLP.part.hbond>
-3.5065

> <Gold.PLP.part.metal>
0.0000

> <Gold.PLP.part.buried>
-5.3314

> <Gold.PLP.part.nonpolar>
-33.0369

> <Gold.PLP.part.repulsive>
0.1287

> <Gold.PLP.ligand.clash>
0.3945

> <Gold.PLP.ligand.torsion>
2.5765

> <Gold.PLP.Chemscore.Hbond>
2.8480

> <Gold.PLP.Chemscore.CHOScore>
0.0000

> <Gold.PLP.Chemscore.Metal>
0.0000

> <Gold.Chemscore.Hbonds>
donor molecule, donor type, donor heavy atom, donor atom, acceptor molecule, acceptor atom, score
      P1  H  7989  7998       L1    27  0.55
      P1  H  7997  8008       L1    28  0.59
      P1  H  7997  8010       L1     8  0.21

> <Gold.PLP.Chemscore.Internal.Correction>
4.1158

> <Gold.Rescore>
     Score         DG    S(hbond)    S(metal)    S(lipo)     H(rot)  DE(clash)    DE(int)     intcor
     10.12     -17.05       1.36        0.00      96.31       1.65       1.20       5.73       ----

> <Gold.Chemscore.Fitness>
10.1177

> <Gold.Chemscore.DG>
-17.0488

> <Gold.Chemscore.ZeroCoef>
-5.4800

> <Gold.Chemscore.Hbond>
1.3553

> <Gold.Chemscore.Metal>
0.0000

> <Gold.Chemscore.Lipo>
96.3126

> <Gold.Chemscore.Internal_Hbond>
0.0000

> <Gold.Chemscore.DEClash>
1.1984

> <Gold.Chemscore.DEInternal>
5.7327

> <Gold.Chemscore.Rot>
1.6510

> <Gold.Chemscore.Internal.Correction>
   9.000000E+99

> <Gold.Chemscore.Hbonds>
donor molecule, donor type, donor heavy atom, donor atom, acceptor molecule, acceptor atom, score
      P1  H  7989  7998       L1    27  0.21
      P1  H  7997  8008       L1    28  0.55
      P1  H  7997  8010       L1     8  0.03

> <Gold.Chemscore.Hbond.Weighted>
-4.5267

> <Gold.Chemscore.Metal.Weighted>
-0.0000

> <Gold.Chemscore.Lipo.Weighted>
-11.2686

> <Gold.Chemscore.Internal_Hbond.Weighted>
0.0000

> <Gold.Chemscore.DEClash.Weighted>
1.1984

> <Gold.Chemscore.DEInternal.Weighted>
5.7327

> <Gold.Chemscore.Rot.Weighted>
4.2265

> <Gold.Chemscore.Internal.Correction.Weighted>
   9.000000E+99

> <Gold.Protein.RotatedTorsions>
[ 6907 6896 6895 6894 ] final  101.57 input  -60.11 | X-H torsion
[ 7974 7965 7964 7962 ] final  -64.95 input  175.53 | X-H torsion
[ 8008 7997 7996 7995 ] final  -12.14 input   59.86 | X-H torsion
[ 10167 10162 10161 10158 ] final  -52.94 input  -65.29 | X-H torsion
[ 10718 10713 10712 10709 ] final  149.64 input   66.30 | X-H torsion
[ 10763 10752 10751 10750 ] final   39.79 input  -60.55 | X-H torsion
[ 11005 11000 10999 10996 ] final    1.62 input  -57.11 | X-H torsion

> <Gold.Protein.ActiveResidues>
 VAL166  LYS551  ARG553  GLY616  TRP617  ASP618  TYR619  PRO620  LYS621  CYS622 
 ASP623  PHE694  ASN695  SER759  ASP760  ASP761  ALA762  ILE779  LEU786  VAL792 
 PHE793  MET794  SER795  GLU796  ALA797  LYS798  CYS799  TRP800  GLU811  SER814 

> <Gold.Protein.RotatedAtoms>
  152.5346  134.0105  159.7936 H   0  0  0  0  0  0  0  0  0  0  0  0  # atno 6907 bound_to 6896
  151.0308  133.5784  159.2668 H   0  0  0  0  0  0  0  0  0  0  0  0  # atno 6908 bound_to 6896
  151.2789  135.0715  159.9215 H   0  0  0  0  0  0  0  0  0  0  0  0  # atno 6909 bound_to 6896
  145.7604  140.8864  143.0433 H   0  0  0  0  0  0  0  0  0  0  0  0  # atno 7974 bound_to 7965
  154.5403  140.2284  155.8652 H   0  0  0  0  0  0  0  0  0  0  0  0  # atno 8008 bound_to 7997
  156.1852  140.3090  155.9187 H   0  0  0  0  0  0  0  0  0  0  0  0  # atno 8009 bound_to 7997
  155.3271  140.0443  157.3032 H   0  0  0  0  0  0  0  0  0  0  0  0  # atno 8010 bound_to 7997
  140.6511  143.2567  151.4720 H   0  0  0  0  0  0  0  0  0  0  0  0  # atno 10167 bound_to 10162
  157.2935  131.0858  151.1444 H   0  0  0  0  0  0  0  0  0  0  0  0  # atno 10718 bound_to 10713
  152.9956  135.6210  154.2521 H   0  0  0  0  0  0  0  0  0  0  0  0  # atno 10763 bound_to 10752
  154.2259  135.2794  155.2909 H   0  0  0  0  0  0  0  0  0  0  0  0  # atno 10764 bound_to 10752
  154.5489  135.5739  153.6963 H   0  0  0  0  0  0  0  0  0  0  0  0  # atno 10765 bound_to 10752
  140.6134  133.9728  155.8188 H   0  0  0  0  0  0  0  0  0  0  0  0  # atno 11005 bound_to 11000
  144.6831  139.9714  143.7482 LP  0  0  0  0  0  0  0  0  0  0  0  0  # atno 17320 bound_to 7965
  146.0270  139.3301  143.0778 LP  0  0  0  0  0  0  0  0  0  0  0  0  # atno 17321 bound_to 7965
  139.5726  144.1892  152.1859 LP  0  0  0  0  0  0  0  0  0  0  0  0  # atno 17342 bound_to 10162
  140.1193  144.5387  150.6873 LP  0  0  0  0  0  0  0  0  0  0  0  0  # atno 17343 bound_to 10162
  157.2831  130.6759  149.6076 LP  0  0  0  0  0  0  0  0  0  0  0  0  # atno 17370 bound_to 10713
  155.9668  130.4444  150.5459 LP  0  0  0  0  0  0  0  0  0  0  0  0  # atno 17371 bound_to 10713
  141.0792  134.0087  157.3411 LP  0  0  0  0  0  0  0  0  0  0  0  0  # atno 17394 bound_to 11000
  139.9183  135.0199  156.7966 LP  0  0  0  0  0  0  0  0  0  0  0  0  # atno 17395 bound_to 11000

$$$$
