AV-unprocessed.smi:1599|AV-procd|sdf|6425|dock7
  -GOLD-   22720 7 63D 1   1.00000     0.00000
 Structure written by MMmdl.
 39 40  0  0  0  0  0  0  0  0  1 V2000
  152.0283  145.2476  158.5426 C   0  0  0  0  0  0  0  0  0  0  0  0
  152.2049  143.8037  158.0507 C   0  0  2  0  0  0  0  0  0  0  0  0
  151.0791  143.4640  157.1816 N   0  0  0  0  0  0  0  0  0  0  0  0
  150.8280  142.2559  156.6564 C   0  0  0  0  0  0  0  0  0  0  0  0
  151.5326  141.2653  156.8510 O   0  0  0  0  0  0  0  0  0  0  0  0
  149.7142  142.2739  155.9061 N   0  0  0  0  0  0  0  0  0  0  0  0
  149.1254  141.1848  155.2153 C   0  0  0  0  0  0  0  0  0  0  0  0
  149.3661  139.8162  155.5031 C   0  0  0  0  0  0  0  0  0  0  0  0
  148.6795  139.0278  154.6901 N   0  0  0  0  0  0  0  0  0  0  0  0
  147.9943  139.8704  153.8765 N   0  0  0  0  0  0  0  0  0  0  0  0
  147.1290  139.3296  152.8427 C   0  0  0  0  0  0  0  0  0  0  0  0
  146.2902  138.1615  153.3666 C   0  0  0  0  0  0  0  0  0  0  0  0
  146.5759  136.9429  152.8988 N   0  0  0  0  0  0  0  0  0  0  0  0
  145.3881  138.3574  154.1781 O   0  0  0  0  0  0  0  0  0  0  0  0
  148.2429  141.1965  154.1726 C   0  0  0  0  0  0  0  0  0  0  0  0
  152.3038  142.8070  159.2247 C   0  0  1  0  0  0  0  0  0  0  0  0
  153.7209  142.5442  159.7390 C   0  0  0  0  0  0  0  0  0  0  0  0
  153.4483  142.0566  161.1430 C   0  0  0  0  0  0  0  0  0  0  0  0
  152.2898  142.9552  161.5639 C   0  0  0  0  0  0  0  0  0  0  0  0
  151.6027  143.3018  160.3636 O   0  0  0  0  0  0  0  0  0  0  0  0
  152.8653  145.5562  159.1695 H   0  0  0  0  0  0  0  0  0  0  0  0
  151.1157  145.3596  159.1290 H   0  0  0  0  0  0  0  0  0  0  0  0
  151.9743  145.9441  157.7051 H   0  0  0  0  0  0  0  0  0  0  0  0
  153.1361  143.7627  157.4827 H   0  0  0  0  0  0  0  0  0  0  0  0
  150.4386  144.2136  156.9647 H   0  0  0  0  0  0  0  0  0  0  0  0
  149.2301  143.1563  155.8308 H   0  0  0  0  0  0  0  0  0  0  0  0
  150.0031  139.3771  156.2566 H   0  0  0  0  0  0  0  0  0  0  0  0
  146.4773  140.1202  152.4673 H   0  0  0  0  0  0  0  0  0  0  0  0
  147.7438  138.9987  152.0047 H   0  0  0  0  0  0  0  0  0  0  0  0
  146.0456  136.1430  153.2123 H   0  0  0  0  0  0  0  0  0  0  0  0
  147.3210  136.8278  152.2270 H   0  0  0  0  0  0  0  0  0  0  0  0
  147.7796  142.0020  153.6224 H   0  0  0  0  0  0  0  0  0  0  0  0
  151.8485  141.8550  158.9460 H   0  0  0  0  0  0  0  0  0  0  0  0
  154.2689  141.8212  159.1343 H   0  0  0  0  0  0  0  0  0  0  0  0
  154.2969  143.4702  159.7727 H   0  0  0  0  0  0  0  0  0  0  0  0
  153.1275  141.0143  161.1208 H   0  0  0  0  0  0  0  0  0  0  0  0
  154.3126  142.1359  161.8029 H   0  0  0  0  0  0  0  0  0  0  0  0
  151.6252  142.4665  162.2765 H   0  0  0  0  0  0  0  0  0  0  0  0
  152.6638  143.8711  162.0228 H   0  0  0  0  0  0  0  0  0  0  0  0
  1  2  1  0  0  0  0
  1 21  1  0  0  0  0
  1 22  1  0  0  0  0
  1 23  1  0  0  0  0
  2  3  1  0  0  0  0
  2 16  1  0  0  0  0
  2 24  1  0  0  0  0
  3  4  1  0  0  0  0
  3 25  1  0  0  0  0
  4  5  2  0  0  0  0
  4  6  1  0  0  0  0
  6  7  1  0  0  0  0
  6 26  1  0  0  0  0
  7 15  2  0  0  0  0
  7  8  1  0  0  0  0
  8  9  2  0  0  0  0
  8 27  1  0  0  0  0
  9 10  1  0  0  0  0
 10 11  1  0  0  0  0
 10 15  1  0  0  0  0
 11 12  1  0  0  0  0
 11 28  1  0  0  0  0
 11 29  1  0  0  0  0
 12 13  1  0  0  0  0
 12 14  2  0  0  0  0
 13 30  1  0  0  0  0
 13 31  1  0  0  0  0
 15 32  1  0  0  0  0
 16 20  1  0  0  0  0
 16 17  1  0  0  0  0
 16 33  1  0  0  0  0
 17 18  1  0  0  0  0
 17 34  1  0  0  0  0
 17 35  1  0  0  0  0
 18 19  1  0  0  0  0
 18 36  1  0  0  0  0
 18 37  1  0  0  0  0
 19 20  1  0  0  0  0
 19 38  1  0  0  0  0
 19 39  1  0  0  0  0
M  END
> <s_m_source_file>
AV-unprocessed.smi

> <i_m_source_file_index>
1599

> <i_lp_mmshare_version>
43012

> <i_f3d_flags>
0

> <s_epik_input>
TzFbQ0gyXVtDSDJdW0NIMl1bQ0BIXTFbQ0BIXShbQ0gzXSlbTkhdQyg9TylbTkhdYzJbY0hdbm4oW2NIXTIpW0NIMl1DKD1PKVtOSDJd

> <s_epik_cmdline>
J2VwaWtfcHl0aG9uJywgJy1waCcsICc3LjAnLCAnLXRuJywgJzgnLCAnLW1hJywgJzIwMCcsICctbWV0YWxfYmluZGluZycsICctaW1hZScsICc8aW5maWxlLm1hZT4nLCAnLW9tYWUnLCAnPG91dGZpbGUubWFlPic=

> <r_lp_tautomer_probability>
1

> <r_epik_Ionization_Penalty>
4.15391e-05

> <r_epik_Ionization_Penalty_Charging>
0

> <r_epik_Ionization_Penalty_Neutral>
4.15391e-05

> <r_epik_State_Penalty>
-0

> <r_epik_Charging_Adjusted_Penalty>
0

> <i_epik_Tot_Q>
0

> <i_epik_Tot_abs_Q>
0

> <r_epik_Metal_State_Penalty>
-0

> <b_epik_Metal_Only>
0

> <s_lp_Force_Field>
OPLS_2005

> <r_lp_Energy>
20.4971

> <b_lp_Chiralities_Consistent>
1

> <s_lp_Variant>
AV-unprocessed.smi:1599-3

> <Gold.Version>
5.8.1

> <Gold.Id.Protein>
6NUR|6NUR_protein|mol2

> <Gold.PLP.Fitness>
47.0029

> <Gold.PLP.PLP>
-41.0668

> <Gold.PLP.part.hbond>
-3.2113

> <Gold.PLP.part.metal>
0.0000

> <Gold.PLP.part.buried>
-3.8272

> <Gold.PLP.part.nonpolar>
-34.0912

> <Gold.PLP.part.repulsive>
0.4990

> <Gold.PLP.ligand.clash>
0.0000

> <Gold.PLP.ligand.torsion>
1.2723

> <Gold.PLP.Chemscore.Hbond>
2.8188

> <Gold.PLP.Chemscore.CHOScore>
0.0000

> <Gold.PLP.Chemscore.Metal>
0.0000

> <Gold.Chemscore.Hbonds>
donor molecule, donor type, donor heavy atom, donor atom, acceptor molecule, acceptor atom, score
      L1  H     3    25       P1  8028  0.79
      L1  H     6    26       P1  8028  1.00
      L1  H    13    31       P1  7948  0.99

> <Gold.PLP.Chemscore.Internal.Correction>
0.0243

> <Gold.Rescore>
     Score         DG    S(hbond)    S(metal)    S(lipo)     H(rot)  DE(clash)    DE(int)     intcor
     16.92     -20.61       2.95        0.00      94.90       2.28       0.12       3.56       ----

> <Gold.Chemscore.Fitness>
16.9231

> <Gold.Chemscore.DG>
-20.6083

> <Gold.Chemscore.ZeroCoef>
-5.4800

> <Gold.Chemscore.Hbond>
2.9544

> <Gold.Chemscore.Metal>
0.0000

> <Gold.Chemscore.Lipo>
94.9001

> <Gold.Chemscore.Internal_Hbond>
0.0000

> <Gold.Chemscore.DEClash>
0.1247

> <Gold.Chemscore.DEInternal>
3.5606

> <Gold.Chemscore.Rot>
2.2823

> <Gold.Chemscore.Internal.Correction>
   9.000000E+99

> <Gold.Chemscore.Hbonds>
donor molecule, donor type, donor heavy atom, donor atom, acceptor molecule, acceptor atom, score
      L1  H     3    25       P1  8028  0.72
      L1  H     6    26       P1  8028  0.99
      L1  H    13    31       P1  7948  0.94

> <Gold.Chemscore.Hbond.Weighted>
-9.8677

> <Gold.Chemscore.Metal.Weighted>
-0.0000

> <Gold.Chemscore.Lipo.Weighted>
-11.1033

> <Gold.Chemscore.Internal_Hbond.Weighted>
0.0000

> <Gold.Chemscore.DEClash.Weighted>
0.1247

> <Gold.Chemscore.DEInternal.Weighted>
3.5606

> <Gold.Chemscore.Rot.Weighted>
5.8427

> <Gold.Chemscore.Internal.Correction.Weighted>
   9.000000E+99

> <Gold.Protein.RotatedTorsions>
[ 6907 6896 6895 6894 ] final  151.34 input  -60.11 | X-H torsion
[ 7974 7965 7964 7962 ] final  133.01 input  175.53 | X-H torsion
[ 8008 7997 7996 7995 ] final  -61.46 input   59.86 | X-H torsion
[ 10167 10162 10161 10158 ] final   62.06 input  -65.29 | X-H torsion
[ 10718 10713 10712 10709 ] final  -82.37 input   66.30 | X-H torsion
[ 10763 10752 10751 10750 ] final -108.96 input  -60.55 | X-H torsion
[ 11005 11000 10999 10996 ] final   68.02 input  -57.11 | X-H torsion

> <Gold.Protein.ActiveResidues>
 VAL166  LYS551  ARG553  GLY616  TRP617  ASP618  TYR619  PRO620  LYS621  CYS622 
 ASP623  PHE694  ASN695  SER759  ASP760  ASP761  ALA762  ILE779  LEU786  VAL792 
 PHE793  MET794  SER795  GLU796  ALA797  LYS798  CYS799  TRP800  GLU811  SER814 

> <Gold.Protein.RotatedAtoms>
  152.1020  133.4255  159.4591 H   0  0  0  0  0  0  0  0  0  0  0  0  # atno 6907 bound_to 6896
  150.6864  134.2749  159.4612 H   0  0  0  0  0  0  0  0  0  0  0  0  # atno 6908 bound_to 6896
  152.0610  134.9594  160.0625 H   0  0  0  0  0  0  0  0  0  0  0  0  # atno 6909 bound_to 6896
  144.9909  139.4408  143.5340 H   0  0  0  0  0  0  0  0  0  0  0  0  # atno 7974 bound_to 7965
  154.4449  140.1017  156.6434 H   0  0  0  0  0  0  0  0  0  0  0  0  # atno 8008 bound_to 7997
  155.5477  140.3485  155.4442 H   0  0  0  0  0  0  0  0  0  0  0  0  # atno 8009 bound_to 7997
  156.0551  140.1313  156.9994 H   0  0  0  0  0  0  0  0  0  0  0  0  # atno 8010 bound_to 7997
  140.1480  144.4490  150.6775 H   0  0  0  0  0  0  0  0  0  0  0  0  # atno 10167 bound_to 10162
  156.0034  130.4632  150.4095 H   0  0  0  0  0  0  0  0  0  0  0  0  # atno 10718 bound_to 10713
  154.8166  135.4618  154.0660 H   0  0  0  0  0  0  0  0  0  0  0  0  # atno 10763 bound_to 10752
  153.2048  135.6874  153.8193 H   0  0  0  0  0  0  0  0  0  0  0  0  # atno 10764 bound_to 10752
  153.7665  135.3276  155.3322 H   0  0  0  0  0  0  0  0  0  0  0  0  # atno 10765 bound_to 10752
  139.9736  134.6859  156.0397 H   0  0  0  0  0  0  0  0  0  0  0  0  # atno 11005 bound_to 11000
  146.3431  139.9239  142.8763 LP  0  0  0  0  0  0  0  0  0  0  0  0  # atno 17320 bound_to 7965
  145.2287  140.9964  143.4003 LP  0  0  0  0  0  0  0  0  0  0  0  0  # atno 17321 bound_to 7965
  140.6720  143.2289  151.5601 LP  0  0  0  0  0  0  0  0  0  0  0  0  # atno 17342 bound_to 10162
  139.5440  144.2571  152.1406 LP  0  0  0  0  0  0  0  0  0  0  0  0  # atno 17343 bound_to 10162
  157.2158  131.0471  151.2574 LP  0  0  0  0  0  0  0  0  0  0  0  0  # atno 17370 bound_to 10713
  157.3846  130.7249  149.6654 LP  0  0  0  0  0  0  0  0  0  0  0  0  # atno 17371 bound_to 10713
  141.1415  133.6564  156.3742 LP  0  0  0  0  0  0  0  0  0  0  0  0  # atno 17394 bound_to 11000
  140.5241  134.6276  157.5328 LP  0  0  0  0  0  0  0  0  0  0  0  0  # atno 17395 bound_to 11000

$$$$
