AV-unprocessed.smi:890|AV-procd|sdf|4062|dock1
  -GOLD-   22720 1553D 1   1.00000     0.00000
 Structure written by MMmdl.
 52 55  0  0  0  0  0  0  0  0  2 V2000
  150.4090  134.2663  155.7682 O   0  0  0  0  0  0  0  0  0  0  0  0
  149.9598  134.8015  154.7550 C   0  0  0  0  0  0  0  0  0  0  0  0
  149.2186  134.1844  153.8195 N   0  0  0  0  0  0  0  0  0  0  0  0
  148.7886  132.8266  153.7968 C   0  0  0  0  0  0  0  0  0  0  0  0
  149.5319  131.7904  154.4182 C   0  0  0  0  0  0  0  0  0  0  0  0
  149.0648  130.4630  154.3618 C   0  0  0  0  0  0  0  0  0  0  0  0
  147.8675  130.1890  153.6772 C   0  0  0  0  0  0  0  0  0  0  0  0
  147.1931  131.1942  153.0812 N   0  3  0  0  0  0  0  0  0  0  0  0
  147.5933  132.4898  153.1049 C   0  0  0  0  0  0  0  0  0  0  0  0
  146.8222  133.4547  152.4235 N   0  0  0  0  0  0  0  0  0  0  0  0
  146.8313  133.3003  150.9710 C   0  0  0  0  0  0  0  0  0  0  0  0
  145.4188  133.6381  150.4876 C   0  0  0  0  0  0  0  0  0  0  0  0
  144.5509  133.3250  151.7001 C   0  0  0  0  0  0  0  0  0  0  0  0
  145.4548  133.7243  152.8645 C   0  0  0  0  0  0  0  0  0  0  0  0
  150.1385  136.0970  154.4591 N   0  0  0  0  0  0  0  0  0  0  0  0
  150.8730  137.0522  155.2839 C   0  0  0  0  0  0  0  0  0  0  0  0
  150.0181  137.4694  156.4913 C   0  0  0  0  0  0  0  0  0  0  0  0
  150.7126  138.5760  157.3050 C   0  0  0  0  0  0  0  0  0  0  0  0
  150.9717  139.7395  156.4566 N   0  0  0  0  0  0  0  0  0  0  0  0
  151.5851  140.7826  157.2624 C   0  0  0  0  0  0  0  0  0  0  0  0
  150.7885  141.3276  158.4260 C   0  0  0  0  0  0  0  0  0  0  0  0
  150.9836  142.1674  157.1866 C   0  0  0  0  0  0  0  0  0  0  0  0
  151.8912  139.3734  155.3791 C   0  0  0  0  0  0  0  0  0  0  0  0
  151.2509  138.3060  154.4748 C   0  0  0  0  0  0  0  0  0  0  0  0
  148.8383  134.7749  153.0945 H   0  0  0  0  0  0  0  0  0  0  0  0
  150.4619  131.9896  154.9285 H   0  0  0  0  0  0  0  0  0  0  0  0
  149.6211  129.6660  154.8334 H   0  0  0  0  0  0  0  0  0  0  0  0
  147.4370  129.2029  153.5804 H   0  0  0  0  0  0  0  0  0  0  0  0
  147.5725  133.9543  150.5111 H   0  0  0  0  0  0  0  0  0  0  0  0
  147.0806  132.2723  150.7022 H   0  0  0  0  0  0  0  0  0  0  0  0
  145.3516  134.7013  150.2519 H   0  0  0  0  0  0  0  0  0  0  0  0
  145.1295  133.0769  149.5984 H   0  0  0  0  0  0  0  0  0  0  0  0
  143.6012  133.8604  151.6968 H   0  0  0  0  0  0  0  0  0  0  0  0
  144.3388  132.2557  151.7409 H   0  0  0  0  0  0  0  0  0  0  0  0
  145.1689  133.2239  153.7897 H   0  0  0  0  0  0  0  0  0  0  0  0
  145.3721  134.7960  153.0482 H   0  0  0  0  0  0  0  0  0  0  0  0
  149.7333  136.4538  153.6061 H   0  0  0  0  0  0  0  0  0  0  0  0
  151.7841  136.5801  155.6566 H   0  0  0  0  0  0  0  0  0  0  0  0
  149.0433  137.8268  156.1552 H   0  0  0  0  0  0  0  0  0  0  0  0
  149.8278  136.6069  157.1310 H   0  0  0  0  0  0  0  0  0  0  0  0
  150.0737  138.8689  158.1391 H   0  0  0  0  0  0  0  0  0  0  0  0
  151.6458  138.2042  157.7314 H   0  0  0  0  0  0  0  0  0  0  0  0
  152.6632  140.7552  157.4124 H   0  0  0  0  0  0  0  0  0  0  0  0
  149.7956  140.9177  158.6024 H   0  0  0  0  0  0  0  0  0  0  0  0
  151.3386  141.6157  159.3194 H   0  0  0  0  0  0  0  0  0  0  0  0
  151.6646  143.0132  157.2536 H   0  0  0  0  0  0  0  0  0  0  0  0
  150.1211  142.3140  156.5390 H   0  0  0  0  0  0  0  0  0  0  0  0
  152.1277  140.2574  154.7856 H   0  0  0  0  0  0  0  0  0  0  0  0
  152.8313  139.0052  155.7938 H   0  0  0  0  0  0  0  0  0  0  0  0
  151.9430  138.0440  153.6739 H   0  0  0  0  0  0  0  0  0  0  0  0
  150.3646  138.7233  153.9940 H   0  0  0  0  0  0  0  0  0  0  0  0
  146.3343  130.9646  152.5806 H   0  0  0  0  0  0  0  0  0  0  0  0
  1  2  2  0  0  0  0
  2  3  1  0  0  0  0
  2 15  1  0  0  0  0
  3  4  1  0  0  0  0
  3 25  1  0  0  0  0
  4  9  1  0  0  0  0
  4  5  2  0  0  0  0
  5  6  1  0  0  0  0
  5 26  1  0  0  0  0
  6  7  2  0  0  0  0
  6 27  1  0  0  0  0
  7  8  1  0  0  0  0
  7 28  1  0  0  0  0
  8  9  2  0  0  0  0
  8 52  1  0  0  0  0
  9 10  1  0  0  0  0
 10 14  1  0  0  0  0
 10 11  1  0  0  0  0
 11 12  1  0  0  0  0
 11 29  1  0  0  0  0
 11 30  1  0  0  0  0
 12 13  1  0  0  0  0
 12 31  1  0  0  0  0
 12 32  1  0  0  0  0
 13 14  1  0  0  0  0
 13 33  1  0  0  0  0
 13 34  1  0  0  0  0
 14 35  1  0  0  0  0
 14 36  1  0  0  0  0
 15 16  1  0  0  0  0
 15 37  1  0  0  0  0
 16 24  1  0  0  0  0
 16 17  1  0  0  0  0
 16 38  1  0  0  0  0
 17 18  1  0  0  0  0
 17 39  1  0  0  0  0
 17 40  1  0  0  0  0
 18 19  1  0  0  0  0
 18 41  1  0  0  0  0
 18 42  1  0  0  0  0
 19 20  1  0  0  0  0
 19 23  1  0  0  0  0
 20 22  1  0  0  0  0
 20 21  1  0  0  0  0
 20 43  1  0  0  0  0
 21 22  1  0  0  0  0
 21 44  1  0  0  0  0
 21 45  1  0  0  0  0
 22 46  1  0  0  0  0
 22 47  1  0  0  0  0
 23 24  1  0  0  0  0
 23 48  1  0  0  0  0
 23 49  1  0  0  0  0
 24 50  1  0  0  0  0
 24 51  1  0  0  0  0
M  CHG  1   8   1
M  END
> <s_m_source_file>
AV-unprocessed.smi

> <i_m_source_file_index>
890

> <i_lp_mmshare_version>
43012

> <i_f3d_flags>
0

> <s_epik_input>
W0NIMl0xW0NIMl1bQ0hdMU4oW0NIMl1bQ0gyXTIpW0NIMl1bQ0gyXVtDSF0yW05IXUMoPU8pW05IXWMzW2NIXVtjSF1bY0hdbmMzTjRbQ0gyXVtDSDJdW0NIMl1bQ0gyXTQ=

> <s_epik_cmdline>
J2VwaWtfcHl0aG9uJywgJy1waCcsICc3LjAnLCAnLXRuJywgJzgnLCAnLW1hJywgJzIwMCcsICctbWV0YWxfYmluZGluZycsICctaW1hZScsICc8aW5maWxlLm1hZT4nLCAnLW9tYWUnLCAnPG91dGZpbGUubWFlPic=

> <r_epik_Ionization_Penalty>
2.06048

> <r_epik_Ionization_Penalty_Charging>
1.08388

> <r_epik_Ionization_Penalty_Neutral>
0.976602

> <r_epik_State_Penalty>
2.25814

> <r_epik_Charging_Adjusted_Penalty>
3.34202

> <i_epik_Tot_Q>
1

> <i_epik_Tot_abs_Q>
1

> <r_epik_Metal_State_Penalty>
2.33083

> <b_epik_Metal_Only>
0

> <s_lp_Force_Field>
OPLS_2005

> <r_lp_Energy>
56.489

> <b_lp_Chiralities_Consistent>
1

> <s_lp_Variant>
AV-unprocessed.smi:890-6

> <Gold.Version>
5.8.1

> <Gold.Id.Protein>
6NUR|6NUR_protein|mol2

> <Gold.PLP.Fitness>
44.0985

> <Gold.PLP.PLP>
-39.3958

> <Gold.PLP.part.hbond>
-2.8077

> <Gold.PLP.part.metal>
0.0000

> <Gold.PLP.part.buried>
-3.9962

> <Gold.PLP.part.nonpolar>
-31.8251

> <Gold.PLP.part.repulsive>
0.2455

> <Gold.PLP.ligand.clash>
0.0000

> <Gold.PLP.ligand.torsion>
1.1637

> <Gold.PLP.Chemscore.Hbond>
1.9000

> <Gold.PLP.Chemscore.CHOScore>
0.0000

> <Gold.PLP.Chemscore.Metal>
0.0000

> <Gold.Chemscore.Hbonds>
donor molecule, donor type, donor heavy atom, donor atom, acceptor molecule, acceptor atom, score
      L1  H     3    25       P1  7948  0.90
      L1  H    15    37       P1  7948  1.00

> <Gold.PLP.Chemscore.Internal.Correction>
1.3302

> <Gold.Rescore>
     Score         DG    S(hbond)    S(metal)    S(lipo)     H(rot)  DE(clash)    DE(int)     intcor
     14.11     -16.54       1.22        0.00      88.56       1.32       0.10       2.33       ----

> <Gold.Chemscore.Fitness>
14.1054

> <Gold.Chemscore.DG>
-16.5375

> <Gold.Chemscore.ZeroCoef>
-5.4800

> <Gold.Chemscore.Hbond>
1.2231

> <Gold.Chemscore.Metal>
0.0000

> <Gold.Chemscore.Lipo>
88.5594

> <Gold.Chemscore.Internal_Hbond>
0.0000

> <Gold.Chemscore.DEClash>
0.1023

> <Gold.Chemscore.DEInternal>
2.3299

> <Gold.Chemscore.Rot>
1.3239

> <Gold.Chemscore.Internal.Correction>
   9.000000E+99

> <Gold.Chemscore.Hbonds>
donor molecule, donor type, donor heavy atom, donor atom, acceptor molecule, acceptor atom, score
      L1  H     3    25       P1  7948  0.17
      L1  H    15    37       P1  7948  0.38

> <Gold.Chemscore.Hbond.Weighted>
-4.0852

> <Gold.Chemscore.Metal.Weighted>
-0.0000

> <Gold.Chemscore.Lipo.Weighted>
-10.3614

> <Gold.Chemscore.Internal_Hbond.Weighted>
0.0000

> <Gold.Chemscore.DEClash.Weighted>
0.1023

> <Gold.Chemscore.DEInternal.Weighted>
2.3299

> <Gold.Chemscore.Rot.Weighted>
3.3891

> <Gold.Chemscore.Internal.Correction.Weighted>
   9.000000E+99

> <Gold.Protein.RotatedTorsions>
[ 6907 6896 6895 6894 ] final  -89.74 input  -60.11 | X-H torsion
[ 7974 7965 7964 7962 ] final   76.13 input  175.53 | X-H torsion
[ 8008 7997 7996 7995 ] final  -32.85 input   59.86 | X-H torsion
[ 10167 10162 10161 10158 ] final   11.61 input  -65.29 | X-H torsion
[ 10718 10713 10712 10709 ] final  -54.14 input   66.30 | X-H torsion
[ 10763 10752 10751 10750 ] final  167.02 input  -60.55 | X-H torsion
[ 11005 11000 10999 10996 ] final   39.60 input  -57.11 | X-H torsion

> <Gold.Protein.ActiveResidues>
 VAL166  LYS551  ARG553  GLY616  TRP617  ASP618  TYR619  PRO620  LYS621  CYS622 
 ASP623  PHE694  ASN695  SER759  ASP760  ASP761  ALA762  ILE779  LEU786  VAL792 
 PHE793  MET794  SER795  GLU796  ALA797  LYS798  CYS799  TRP800  GLU811  SER814 

> <Gold.Protein.RotatedAtoms>
  150.6876  134.2540  159.4521 H   0  0  0  0  0  0  0  0  0  0  0  0  # atno 6907 bound_to 6896
  152.0475  134.9671  160.0583 H   0  0  0  0  0  0  0  0  0  0  0  0  # atno 6908 bound_to 6896
  152.1149  133.4286  159.4685 H   0  0  0  0  0  0  0  0  0  0  0  0  # atno 6909 bound_to 6896
  145.7068  139.2601  143.1673 H   0  0  0  0  0  0  0  0  0  0  0  0  # atno 7974 bound_to 7965
  154.4167  140.1726  156.1794 H   0  0  0  0  0  0  0  0  0  0  0  0  # atno 8008 bound_to 7997
  155.9695  140.3387  155.6538 H   0  0  0  0  0  0  0  0  0  0  0  0  # atno 8009 bound_to 7997
  155.6644  140.0704  157.2533 H   0  0  0  0  0  0  0  0  0  0  0  0  # atno 8010 bound_to 7997
  140.6121  143.8386  150.7077 H   0  0  0  0  0  0  0  0  0  0  0  0  # atno 10167 bound_to 10162
  156.1476  130.4152  149.9998 H   0  0  0  0  0  0  0  0  0  0  0  0  # atno 10718 bound_to 10713
  154.3477  135.2753  155.2389 H   0  0  0  0  0  0  0  0  0  0  0  0  # atno 10763 bound_to 10752
  154.4632  135.5902  153.6273 H   0  0  0  0  0  0  0  0  0  0  0  0  # atno 10764 bound_to 10752
  152.9852  135.6070  154.3684 H   0  0  0  0  0  0  0  0  0  0  0  0  # atno 10765 bound_to 10752
  140.2012  134.3868  155.8095 H   0  0  0  0  0  0  0  0  0  0  0  0  # atno 11005 bound_to 11000
  146.0748  140.7829  142.9670 LP  0  0  0  0  0  0  0  0  0  0  0  0  # atno 17320 bound_to 7965
  144.6953  140.3398  143.7201 LP  0  0  0  0  0  0  0  0  0  0  0  0  # atno 17321 bound_to 7965
  140.1957  143.4000  152.1830 LP  0  0  0  0  0  0  0  0  0  0  0  0  # atno 17342 bound_to 10162
  139.5369  144.7218  151.4863 LP  0  0  0  0  0  0  0  0  0  0  0  0  # atno 17343 bound_to 10162
  156.7865  130.9240  151.3646 LP  0  0  0  0  0  0  0  0  0  0  0  0  # atno 17370 bound_to 10713
  157.6630  130.8982  149.9870 LP  0  0  0  0  0  0  0  0  0  0  0  0  # atno 17371 bound_to 10713
  141.2227  133.7095  156.8260 LP  0  0  0  0  0  0  0  0  0  0  0  0  # atno 17394 bound_to 11000
  140.2052  134.8868  157.3214 LP  0  0  0  0  0  0  0  0  0  0  0  0  # atno 17395 bound_to 11000

$$$$
