AV-unprocessed.smi:1517|AV-procd|sdf|6122|dock4
  -GOLD-   22720 6253D 1   1.00000     0.00000
 Structure written by MMmdl.
 41 43  0  0  0  0  0  0  0  0  1 V2000
  152.7927  143.8358  159.9104 O   0  0  0  0  0  0  0  0  0  0  0  0
  152.3791  143.0989  158.7810 C   0  0  0  0  0  0  0  0  0  0  0  0
  151.1416  143.7564  158.1543 C   0  0  0  0  0  0  0  0  0  0  0  0
  150.5824  142.9612  157.0762 N   0  0  0  0  0  0  0  0  0  0  0  0
  150.8996  141.6968  156.5938 C   0  0  0  0  0  0  0  0  0  0  0  0
  151.8663  140.9336  157.1003 N   0  0  0  0  0  0  0  0  0  0  0  0
  151.7951  139.8040  156.3073 C   0  0  0  0  0  0  0  0  0  0  0  0
  152.5561  138.6134  156.3351 C   0  0  0  0  0  0  0  0  0  0  0  0
  152.2980  137.5793  155.4115 C   0  0  0  0  0  0  0  0  0  0  0  0
  151.2781  137.7200  154.4483 C   0  0  0  0  0  0  0  0  0  0  0  0
  150.5074  138.8976  154.4028 C   0  0  0  0  0  0  0  0  0  0  0  0
  150.7680  139.9268  155.3271 C   0  0  0  0  0  0  0  0  0  0  0  0
  150.2039  141.1786  155.5530 N   0  0  0  0  0  0  0  0  0  0  0  0
  149.0947  141.7675  154.8131 C   0  0  0  0  0  0  0  0  0  0  0  0
  147.7462  141.1109  155.1687 C   0  0  2  0  0  0  0  0  0  0  0  0
  147.5335  140.0350  154.2771 O   0  0  0  0  0  0  0  0  0  0  0  0
  146.5921  142.1078  155.1631 C   0  0  0  0  0  0  0  0  0  0  0  0
  146.2263  142.7713  153.9704 C   0  0  0  0  0  0  0  0  0  0  0  0
  145.1624  143.6937  153.9657 C   0  0  0  0  0  0  0  0  0  0  0  0
  144.4612  143.9662  155.1552 C   0  0  0  0  0  0  0  0  0  0  0  0
  143.4403  144.8555  155.1516 F   0  0  0  0  0  0  0  0  0  0  0  0
  144.8273  143.3186  156.3499 C   0  0  0  0  0  0  0  0  0  0  0  0
  145.8881  142.3922  156.3560 C   0  0  0  0  0  0  0  0  0  0  0  0
  146.2297  141.7825  157.5167 F   0  0  0  0  0  0  0  0  0  0  0  0
  152.1094  144.4498  160.1319 H   0  0  0  0  0  0  0  0  0  0  0  0
  153.2020  143.1130  158.0659 H   0  0  0  0  0  0  0  0  0  0  0  0
  152.2025  142.0552  159.0451 H   0  0  0  0  0  0  0  0  0  0  0  0
  150.3782  143.9628  158.9052 H   0  0  0  0  0  0  0  0  0  0  0  0
  151.4262  144.7191  157.7284 H   0  0  0  0  0  0  0  0  0  0  0  0
  149.8281  143.4199  156.5860 H   0  0  0  0  0  0  0  0  0  0  0  0
  153.3394  138.4955  157.0691 H   0  0  0  0  0  0  0  0  0  0  0  0
  152.8857  136.6736  155.4421 H   0  0  0  0  0  0  0  0  0  0  0  0
  151.0871  136.9229  153.7445 H   0  0  0  0  0  0  0  0  0  0  0  0
  149.7242  139.0081  153.6674 H   0  0  0  0  0  0  0  0  0  0  0  0
  149.0604  142.8442  154.9826 H   0  0  0  0  0  0  0  0  0  0  0  0
  149.3029  141.6363  153.7504 H   0  0  0  0  0  0  0  0  0  0  0  0
  147.8206  140.6638  156.1604 H   0  0  0  0  0  0  0  0  0  0  0  0
  146.7393  139.5890  154.5297 H   0  0  0  0  0  0  0  0  0  0  0  0
  146.7609  142.5758  153.0522 H   0  0  0  0  0  0  0  0  0  0  0  0
  144.8865  144.1951  153.0497 H   0  0  0  0  0  0  0  0  0  0  0  0
  144.2936  143.5322  157.2642 H   0  0  0  0  0  0  0  0  0  0  0  0
  1  2  1  0  0  0  0
  1 25  1  0  0  0  0
  2  3  1  0  0  0  0
  2 26  1  0  0  0  0
  2 27  1  0  0  0  0
  3  4  1  0  0  0  0
  3 28  1  0  0  0  0
  3 29  1  0  0  0  0
  4  5  1  0  0  0  0
  4 30  1  0  0  0  0
  5 13  1  0  0  0  0
  5  6  2  0  0  0  0
  6  7  1  0  0  0  0
  7 12  2  0  0  0  0
  7  8  1  0  0  0  0
  8  9  2  0  0  0  0
  8 31  1  0  0  0  0
  9 10  1  0  0  0  0
  9 32  1  0  0  0  0
 10 11  2  0  0  0  0
 10 33  1  0  0  0  0
 11 12  1  0  0  0  0
 11 34  1  0  0  0  0
 12 13  1  0  0  0  0
 13 14  1  0  0  0  0
 14 15  1  0  0  0  0
 14 35  1  0  0  0  0
 14 36  1  0  0  0  0
 15 16  1  0  0  0  0
 15 17  1  0  0  0  0
 15 37  1  0  0  0  0
 16 38  1  0  0  0  0
 17 23  1  0  0  0  0
 17 18  2  0  0  0  0
 18 19  1  0  0  0  0
 18 39  1  0  0  0  0
 19 20  2  0  0  0  0
 19 40  1  0  0  0  0
 20 21  1  0  0  0  0
 20 22  1  0  0  0  0
 22 23  2  0  0  0  0
 22 41  1  0  0  0  0
 23 24  1  0  0  0  0
M  END
> <s_m_source_file>
AV-unprocessed.smi

> <i_m_source_file_index>
1517

> <i_lp_mmshare_version>
43012

> <i_f3d_flags>
0

> <s_epik_input>
W09IXVtDSDJdW0NIMl1bTkhdYyhuMSluKGMoYzEyKVtjSF1bY0hdW2NIXVtjSF0yKVtDSDJdW0NASF0oW09IXSljM1tjSF1bY0hdYyhGKVtjSF1jM0Y=

> <s_epik_cmdline>
J2VwaWtfcHl0aG9uJywgJy1waCcsICc3LjAnLCAnLXRuJywgJzgnLCAnLW1hJywgJzIwMCcsICctbWV0YWxfYmluZGluZycsICctaW1hZScsICc8aW5maWxlLm1hZT4nLCAnLW9tYWUnLCAnPG91dGZpbGUubWFlPic=

> <r_epik_Ionization_Penalty>
1.30972

> <r_epik_Ionization_Penalty_Charging>
0

> <r_epik_Ionization_Penalty_Neutral>
1.30972

> <r_epik_State_Penalty>
1.38438

> <r_epik_Charging_Adjusted_Penalty>
1.38438

> <i_epik_Tot_Q>
0

> <i_epik_Tot_abs_Q>
0

> <r_epik_Metal_State_Penalty>
0.00551145

> <b_epik_Metal_Only>
0

> <s_lp_Force_Field>
OPLS_2005

> <r_lp_Energy>
9.55996

> <b_lp_Chiralities_Consistent>
1

> <s_lp_Variant>
AV-unprocessed.smi:1517-3

> <Gold.Version>
5.8.1

> <Gold.Id.Protein>
6NUR|6NUR_protein|mol2

> <Gold.PLP.Fitness>
48.6266

> <Gold.PLP.PLP>
-46.8468

> <Gold.PLP.part.hbond>
-1.0000

> <Gold.PLP.part.metal>
0.0000

> <Gold.PLP.part.buried>
-2.7658

> <Gold.PLP.part.nonpolar>
-43.0562

> <Gold.PLP.part.repulsive>
0.0163

> <Gold.PLP.ligand.clash>
0.0000

> <Gold.PLP.ligand.torsion>
0.6344

> <Gold.PLP.Chemscore.Hbond>
1.0000

> <Gold.PLP.Chemscore.CHOScore>
0.0000

> <Gold.PLP.Chemscore.Metal>
0.0000

> <Gold.Chemscore.Hbonds>
donor molecule, donor type, donor heavy atom, donor atom, acceptor molecule, acceptor atom, score
      L1  H     4    30       P1  8028  1.00

> <Gold.PLP.Chemscore.Internal.Correction>
0.0485

> <Gold.Rescore>
     Score         DG    S(hbond)    S(metal)    S(lipo)     H(rot)  DE(clash)    DE(int)     intcor
     10.80     -13.29       0.99        0.00     108.97       3.22       0.44       2.05       ----

> <Gold.Chemscore.Fitness>
10.7974

> <Gold.Chemscore.DG>
-13.2921

> <Gold.Chemscore.ZeroCoef>
-5.4800

> <Gold.Chemscore.Hbond>
0.9893

> <Gold.Chemscore.Metal>
0.0000

> <Gold.Chemscore.Lipo>
108.9710

> <Gold.Chemscore.Internal_Hbond>
0.0000

> <Gold.Chemscore.DEClash>
0.4398

> <Gold.Chemscore.DEInternal>
2.0550

> <Gold.Chemscore.Rot>
3.2194

> <Gold.Chemscore.Internal.Correction>
   9.000000E+99

> <Gold.Chemscore.Hbonds>
donor molecule, donor type, donor heavy atom, donor atom, acceptor molecule, acceptor atom, score
      L1  H     4    30       P1  8028  1.00

> <Gold.Chemscore.Hbond.Weighted>
-3.3041

> <Gold.Chemscore.Metal.Weighted>
-0.0000

> <Gold.Chemscore.Lipo.Weighted>
-12.7496

> <Gold.Chemscore.Internal_Hbond.Weighted>
0.0000

> <Gold.Chemscore.DEClash.Weighted>
0.4398

> <Gold.Chemscore.DEInternal.Weighted>
2.0550

> <Gold.Chemscore.Rot.Weighted>
8.2416

> <Gold.Chemscore.Internal.Correction.Weighted>
   9.000000E+99

> <Gold.Protein.RotatedTorsions>
[ 6907 6896 6895 6894 ] final -136.34 input  -60.11 | X-H torsion
[ 7974 7965 7964 7962 ] final  156.44 input  175.53 | X-H torsion
[ 8008 7997 7996 7995 ] final  159.00 input   59.86 | X-H torsion
[ 10167 10162 10161 10158 ] final   -8.63 input  -65.29 | X-H torsion
[ 10718 10713 10712 10709 ] final -171.20 input   66.30 | X-H torsion
[ 10763 10752 10751 10750 ] final  -47.87 input  -60.55 | X-H torsion
[ 11005 11000 10999 10996 ] final  -38.31 input  -57.11 | X-H torsion

> <Gold.Protein.ActiveResidues>
 VAL166  LYS551  ARG553  GLY616  TRP617  ASP618  TYR619  PRO620  LYS621  CYS622 
 ASP623  PHE694  ASN695  SER759  ASP760  ASP761  ALA762  ILE779  LEU786  VAL792 
 PHE793  MET794  SER795  GLU796  ALA797  LYS798  CYS799  TRP800  GLU811  SER814 

> <Gold.Protein.RotatedAtoms>
  151.0089  133.5984  159.2684 H   0  0  0  0  0  0  0  0  0  0  0  0  # atno 6907 bound_to 6896
  151.3143  135.0801  159.9293 H   0  0  0  0  0  0  0  0  0  0  0  0  # atno 6908 bound_to 6896
  152.5294  133.9748  159.7833 H   0  0  0  0  0  0  0  0  0  0  0  0  # atno 6909 bound_to 6896
  144.7963  139.7204  143.6200 H   0  0  0  0  0  0  0  0  0  0  0  0  # atno 7974 bound_to 7965
  156.2267  140.1843  156.7345 H   0  0  0  0  0  0  0  0  0  0  0  0  # atno 8008 bound_to 7997
  154.5953  140.0644  156.9323 H   0  0  0  0  0  0  0  0  0  0  0  0  # atno 8009 bound_to 7997
  155.2266  140.3311  155.4311 H   0  0  0  0  0  0  0  0  0  0  0  0  # atno 8010 bound_to 7997
  140.7064  143.5947  150.8858 H   0  0  0  0  0  0  0  0  0  0  0  0  # atno 10167 bound_to 10162
  156.7374  130.9329  151.3108 H   0  0  0  0  0  0  0  0  0  0  0  0  # atno 10718 bound_to 10713
  154.0685  135.6608  153.4821 H   0  0  0  0  0  0  0  0  0  0  0  0  # atno 10763 bound_to 10752
  153.0400  135.5151  154.7590 H   0  0  0  0  0  0  0  0  0  0  0  0  # atno 10764 bound_to 10752
  154.6648  135.3020  154.9786 H   0  0  0  0  0  0  0  0  0  0  0  0  # atno 10765 bound_to 10752
  141.0018  133.6951  156.2037 H   0  0  0  0  0  0  0  0  0  0  0  0  # atno 11005 bound_to 11000
  146.2232  139.5674  142.9604 LP  0  0  0  0  0  0  0  0  0  0  0  0  # atno 17320 bound_to 7965
  145.5665  141.0399  143.2197 LP  0  0  0  0  0  0  0  0  0  0  0  0  # atno 17321 bound_to 7965
  139.9672  143.6097  152.2984 LP  0  0  0  0  0  0  0  0  0  0  0  0  # atno 17342 bound_to 10162
  139.6671  144.7662  151.1853 LP  0  0  0  0  0  0  0  0  0  0  0  0  # atno 17343 bound_to 10162
  157.6833  130.9161  150.0322 LP  0  0  0  0  0  0  0  0  0  0  0  0  # atno 17370 bound_to 10713
  156.1488  130.3642  149.9470 LP  0  0  0  0  0  0  0  0  0  0  0  0  # atno 17371 bound_to 10713
  140.6877  134.4700  157.5589 LP  0  0  0  0  0  0  0  0  0  0  0  0  # atno 17394 bound_to 11000
  139.9043  134.8485  156.1770 LP  0  0  0  0  0  0  0  0  0  0  0  0  # atno 17395 bound_to 11000

$$$$
