AV-unprocessed.smi:2552|AV-procd|sdf|10016|dock2
  -GOLD-   2272014 63D 1   1.00000     0.00000
 Structure written by MMmdl.
 34 36  0  0  0  0  0  0  0  0  1 V2000
  151.5766  145.1017  159.1295 C   0  0  0  0  0  0  0  0  0  0  0  0
  152.0117  143.7085  159.1957 N   0  0  0  0  0  0  0  0  0  0  0  0
  153.0914  143.4716  160.0548 N   0  0  0  0  0  0  0  0  0  0  0  0
  153.5773  142.2802  160.2140 C   0  0  0  0  0  0  0  0  0  0  0  0
  152.9684  141.1810  159.4710 C   0  0  0  0  0  0  0  0  0  0  0  0
  153.1951  139.7806  159.3717 C   0  0  0  0  0  0  0  0  0  0  0  0
  152.3437  139.1953  158.5312 N   0  0  0  0  0  0  0  0  0  0  0  0
  151.5482  140.1903  158.0593 N   0  0  0  0  0  0  0  0  0  0  0  0
  150.4968  139.8885  157.1003 C   0  0  0  0  0  0  0  0  0  0  0  0
  150.7004  140.5992  155.7469 C   0  0  1  0  0  0  0  0  0  0  0  0
  151.8345  140.0681  155.0870 O   0  0  0  0  0  0  0  0  0  0  0  0
  149.4422  140.5213  154.8924 C   0  0  0  0  0  0  0  0  0  0  0  0
  148.7084  141.6913  154.5926 C   0  0  0  0  0  0  0  0  0  0  0  0
  147.5499  141.6213  153.7951 C   0  0  0  0  0  0  0  0  0  0  0  0
  147.1186  140.3814  153.2876 C   0  0  0  0  0  0  0  0  0  0  0  0
  147.8483  139.2127  153.5760 C   0  0  0  0  0  0  0  0  0  0  0  0
  149.0075  139.2801  154.3737 C   0  0  0  0  0  0  0  0  0  0  0  0
  149.7007  138.1456  154.6343 F   0  0  0  0  0  0  0  0  0  0  0  0
  151.9243  141.3879  158.6316 C   0  0  0  0  0  0  0  0  0  0  0  0
  151.3744  142.7524  158.4548 C   0  0  0  0  0  0  0  0  0  0  0  0
  150.4263  142.9781  157.7026 O   0  0  0  0  0  0  0  0  0  0  0  0
  150.5336  145.1934  159.4359 H   0  0  0  0  0  0  0  0  0  0  0  0
  151.6692  145.4854  158.1126 H   0  0  0  0  0  0  0  0  0  0  0  0
  152.1687  145.7464  159.7813 H   0  0  0  0  0  0  0  0  0  0  0  0
  154.4181  142.0980  160.8831 H   0  0  0  0  0  0  0  0  0  0  0  0
  153.9367  139.1765  159.8734 H   0  0  0  0  0  0  0  0  0  0  0  0
  150.4489  138.8078  156.9565 H   0  0  0  0  0  0  0  0  0  0  0  0
  149.5425  140.1800  157.5403 H   0  0  0  0  0  0  0  0  0  0  0  0
  150.9275  141.6496  155.9300 H   0  0  0  0  0  0  0  0  0  0  0  0
  152.3140  139.5323  155.7000 H   0  0  0  0  0  0  0  0  0  0  0  0
  149.0329  142.6497  154.9711 H   0  0  0  0  0  0  0  0  0  0  0  0
  146.9938  142.5198  153.5713 H   0  0  0  0  0  0  0  0  0  0  0  0
  146.2304  140.3269  152.6753 H   0  0  0  0  0  0  0  0  0  0  0  0
  147.5200  138.2618  153.1831 H   0  0  0  0  0  0  0  0  0  0  0  0
  1  2  1  0  0  0  0
  1 22  1  0  0  0  0
  1 23  1  0  0  0  0
  1 24  1  0  0  0  0
  2 20  1  0  0  0  0
  2  3  1  0  0  0  0
  3  4  2  0  0  0  0
  4  5  1  0  0  0  0
  4 25  1  0  0  0  0
  5 19  2  0  0  0  0
  5  6  1  0  0  0  0
  6  7  2  0  0  0  0
  6 26  1  0  0  0  0
  7  8  1  0  0  0  0
  8  9  1  0  0  0  0
  8 19  1  0  0  0  0
  9 10  1  0  0  0  0
  9 27  1  0  0  0  0
  9 28  1  0  0  0  0
 10 11  1  0  0  0  0
 10 12  1  0  0  0  0
 10 29  1  0  0  0  0
 11 30  1  0  0  0  0
 12 17  1  0  0  0  0
 12 13  2  0  0  0  0
 13 14  1  0  0  0  0
 13 31  1  0  0  0  0
 14 15  2  0  0  0  0
 14 32  1  0  0  0  0
 15 16  1  0  0  0  0
 15 33  1  0  0  0  0
 16 17  2  0  0  0  0
 16 34  1  0  0  0  0
 17 18  1  0  0  0  0
 19 20  1  0  0  0  0
 20 21  2  0  0  0  0
M  END
> <s_m_source_file>
AV-unprocessed.smi

> <i_m_source_file_index>
2552

> <i_lp_mmshare_version>
43012

> <i_f3d_flags>
0

> <s_epik_input>
W2NIXTFubihbQ0gzXSljKD1PKWMoYzEyKW4obltjSF0yKVtDSDJdW0NASF0oW09IXSljM1tjSF1bY0hdW2NIXVtjSF1jM0Y=

> <s_epik_cmdline>
J2VwaWtfcHl0aG9uJywgJy1waCcsICc3LjAnLCAnLXRuJywgJzgnLCAnLW1hJywgJzIwMCcsICctbWV0YWxfYmluZGluZycsICctaW1hZScsICc8aW5maWxlLm1hZT4nLCAnLW9tYWUnLCAnPG91dGZpbGUubWFlPic=

> <r_lp_tautomer_probability>
1

> <r_epik_Ionization_Penalty>
6.28011e-06

> <r_epik_Ionization_Penalty_Charging>
1.65421e-10

> <r_epik_Ionization_Penalty_Neutral>
6.27995e-06

> <r_epik_State_Penalty>
-0

> <r_epik_Charging_Adjusted_Penalty>
1.65421e-10

> <i_epik_Tot_Q>
0

> <i_epik_Tot_abs_Q>
0

> <r_epik_Metal_State_Penalty>
-0

> <b_epik_Metal_Only>
0

> <s_lp_Force_Field>
OPLS_2005

> <r_lp_Energy>
28.1215

> <b_lp_Chiralities_Consistent>
1

> <s_lp_Variant>
AV-unprocessed.smi:2552-2

> <Gold.Version>
5.8.1

> <Gold.Id.Protein>
6NUR|6NUR_protein|mol2

> <Gold.PLP.Fitness>
47.0067

> <Gold.PLP.PLP>
-44.4996

> <Gold.PLP.part.hbond>
-1.0000

> <Gold.PLP.part.metal>
0.0000

> <Gold.PLP.part.buried>
-5.7469

> <Gold.PLP.part.nonpolar>
-38.6364

> <Gold.PLP.part.repulsive>
0.4437

> <Gold.PLP.ligand.clash>
0.0000

> <Gold.PLP.ligand.torsion>
0.1290

> <Gold.PLP.Chemscore.Hbond>
0.9120

> <Gold.PLP.Chemscore.CHOScore>
0.0000

> <Gold.PLP.Chemscore.Metal>
0.0000

> <Gold.Chemscore.Hbonds>
donor molecule, donor type, donor heavy atom, donor atom, acceptor molecule, acceptor atom, score
      P1  H  7989  7998       L1    11  0.91

> <Gold.PLP.Chemscore.Internal.Correction>
0.0291

> <Gold.Rescore>
     Score         DG    S(hbond)    S(metal)    S(lipo)     H(rot)  DE(clash)    DE(int)     intcor
     12.61     -14.11       0.85        0.00      93.55       2.02       0.10       1.40       ----

> <Gold.Chemscore.Fitness>
12.6144

> <Gold.Chemscore.DG>
-14.1122

> <Gold.Chemscore.ZeroCoef>
-5.4800

> <Gold.Chemscore.Hbond>
0.8543

> <Gold.Chemscore.Metal>
0.0000

> <Gold.Chemscore.Lipo>
93.5501

> <Gold.Chemscore.Internal_Hbond>
0.0000

> <Gold.Chemscore.DEClash>
0.1026

> <Gold.Chemscore.DEInternal>
1.3952

> <Gold.Chemscore.Rot>
2.0181

> <Gold.Chemscore.Internal.Correction>
   9.000000E+99

> <Gold.Chemscore.Hbonds>
donor molecule, donor type, donor heavy atom, donor atom, acceptor molecule, acceptor atom, score
      P1  H  7989  7998       L1    11  0.23

> <Gold.Chemscore.Hbond.Weighted>
-2.8532

> <Gold.Chemscore.Metal.Weighted>
-0.0000

> <Gold.Chemscore.Lipo.Weighted>
-10.9454

> <Gold.Chemscore.Internal_Hbond.Weighted>
0.0000

> <Gold.Chemscore.DEClash.Weighted>
0.1026

> <Gold.Chemscore.DEInternal.Weighted>
1.3952

> <Gold.Chemscore.Rot.Weighted>
5.1663

> <Gold.Chemscore.Internal.Correction.Weighted>
   9.000000E+99

> <Gold.Protein.RotatedTorsions>
[ 6907 6896 6895 6894 ] final   74.54 input  -60.11 | X-H torsion
[ 7974 7965 7964 7962 ] final  -37.19 input  175.53 | X-H torsion
[ 8008 7997 7996 7995 ] final  168.01 input   59.86 | X-H torsion
[ 10167 10162 10161 10158 ] final  -50.89 input  -65.29 | X-H torsion
[ 10718 10713 10712 10709 ] final  137.72 input   66.30 | X-H torsion
[ 10763 10752 10751 10750 ] final  172.21 input  -60.55 | X-H torsion
[ 11005 11000 10999 10996 ] final   29.85 input  -57.11 | X-H torsion

> <Gold.Protein.ActiveResidues>
 VAL166  LYS551  ARG553  GLY616  TRP617  ASP618  TYR619  PRO620  LYS621  CYS622 
 ASP623  PHE694  ASN695  SER759  ASP760  ASP761  ALA762  ILE779  LEU786  VAL792 
 PHE793  MET794  SER795  GLU796  ALA797  LYS798  CYS799  TRP800  GLU811  SER814 

> <Gold.Protein.RotatedAtoms>
  152.4981  134.4255  159.9494 H   0  0  0  0  0  0  0  0  0  0  0  0  # atno 6907 bound_to 6896
  151.4230  133.3686  159.2766 H   0  0  0  0  0  0  0  0  0  0  0  0  # atno 6908 bound_to 6896
  150.9209  134.8649  159.7547 H   0  0  0  0  0  0  0  0  0  0  0  0  # atno 6909 bound_to 6896
  146.0596  140.6367  142.9003 H   0  0  0  0  0  0  0  0  0  0  0  0  # atno 7974 bound_to 7965
  156.1585  140.1602  156.8653 H   0  0  0  0  0  0  0  0  0  0  0  0  # atno 8008 bound_to 7997
  154.5137  140.0794  156.8076 H   0  0  0  0  0  0  0  0  0  0  0  0  # atno 8009 bound_to 7997
  155.3756  140.3402  155.4247 H   0  0  0  0  0  0  0  0  0  0  0  0  # atno 8010 bound_to 7997
  140.6615  143.2640  151.4425 H   0  0  0  0  0  0  0  0  0  0  0  0  # atno 10167 bound_to 10162
  157.4330  131.1050  151.0229 H   0  0  0  0  0  0  0  0  0  0  0  0  # atno 10718 bound_to 10713
  154.4228  135.2758  155.1964 H   0  0  0  0  0  0  0  0  0  0  0  0  # atno 10763 bound_to 10752
  154.3902  135.6068  153.5842 H   0  0  0  0  0  0  0  0  0  0  0  0  # atno 10764 bound_to 10752
  152.9833  135.5901  154.4527 H   0  0  0  0  0  0  0  0  0  0  0  0  # atno 10765 bound_to 10752
  140.3005  134.2762  155.7755 H   0  0  0  0  0  0  0  0  0  0  0  0  # atno 11005 bound_to 11000
  144.7167  140.4235  143.7039 LP  0  0  0  0  0  0  0  0  0  0  0  0  # atno 17320 bound_to 7965
  145.6583  139.1577  143.2823 LP  0  0  0  0  0  0  0  0  0  0  0  0  # atno 17321 bound_to 7965
  139.5850  144.1624  152.2018 LP  0  0  0  0  0  0  0  0  0  0  0  0  # atno 17342 bound_to 10162
  140.0961  144.5580  150.7021 LP  0  0  0  0  0  0  0  0  0  0  0  0  # atno 17343 bound_to 10162
  157.1119  130.6025  149.5484 LP  0  0  0  0  0  0  0  0  0  0  0  0  # atno 17370 bound_to 10713
  155.9920  130.4977  150.7322 LP  0  0  0  0  0  0  0  0  0  0  0  0  # atno 17371 bound_to 10713
  141.2129  133.7643  156.9760 LP  0  0  0  0  0  0  0  0  0  0  0  0  # atno 17394 bound_to 11000
  140.1113  134.9475  157.2070 LP  0  0  0  0  0  0  0  0  0  0  0  0  # atno 17395 bound_to 11000

$$$$
