AV-unprocessed.smi:213|AV-procd|sdf|1645|dock1
  -GOLD-   2262020 23D 1   1.00000     0.00000
 Structure written by MMmdl.
 58 61  0  0  0  0  0  0  0  0  1 V2000
  149.7486  133.9978  153.9220 C   0  0  0  0  0  0  0  0  0  0  0  0
  150.6861  134.8360  154.8085 C   0  0  2  0  0  0  0  0  0  0  0  0
  150.9930  134.1466  156.1569 C   0  0  0  0  0  0  0  0  0  0  0  0
  151.5603  132.8012  156.0619 N   0  0  0  0  0  0  0  0  0  0  0  0
  152.3155  132.4216  157.2547 C   0  0  0  0  0  0  0  0  0  0  0  0
  152.8783  130.9932  157.1476 C   0  0  0  0  0  0  0  0  0  0  0  0
  151.8184  130.0749  156.9010 O   0  0  0  0  0  0  0  0  0  0  0  0
  151.0878  130.3861  155.7192 C   0  0  0  0  0  0  0  0  0  0  0  0
  150.5155  131.8098  155.8293 C   0  0  0  0  0  0  0  0  0  0  0  0
  150.1429  136.1813  155.0210 N   0  0  0  0  0  0  0  0  0  0  0  0
  148.7502  136.3640  155.4256 C   0  0  0  0  0  0  0  0  0  0  0  0
  151.0147  137.1900  155.2807 C   0  0  0  0  0  0  0  0  0  0  0  0
  152.2020  137.2270  154.6186 N   0  0  0  0  0  0  0  0  0  0  0  0
  153.0815  138.2040  154.8593 C   0  0  0  0  0  0  0  0  0  0  0  0
  152.9833  139.2230  155.7146 N   0  0  0  0  0  0  0  0  0  0  0  0
  151.8001  139.1860  156.3911 C   0  0  0  0  0  0  0  0  0  0  0  0
  150.7675  138.2178  156.2365 C   0  0  0  0  0  0  0  0  0  0  0  0
  149.7227  138.5029  157.1095 N   0  0  0  0  0  0  0  0  0  0  0  0
  150.1112  139.5797  157.7359 C   0  0  0  0  0  0  0  0  0  0  0  0
  151.3518  140.0511  157.3724 N   0  0  0  0  0  0  0  0  0  0  0  0
  152.0397  141.2081  157.9173 C   0  0  0  0  0  0  0  0  0  0  0  0
  151.2560  142.5155  157.6852 C   0  0  2  0  0  0  0  0  0  0  0  0
  151.1919  142.7766  156.2957 O   0  0  0  0  0  0  0  0  0  0  0  0
  151.9027  143.7216  158.3911 C   0  0  1  0  0  0  0  0  0  0  0  0
  150.9966  144.9505  158.4945 C   0  0  0  0  0  0  0  0  0  0  0  0
  151.5866  145.6681  159.6858 C   0  0  0  0  0  0  0  0  0  0  0  0
  151.9412  144.5018  160.6024 C   0  0  0  0  0  0  0  0  0  0  0  0
  152.2180  143.3975  159.7444 O   0  0  0  0  0  0  0  0  0  0  0  0
  150.1972  133.0345  153.6789 H   0  0  0  0  0  0  0  0  0  0  0  0
  149.5457  134.5078  152.9799 H   0  0  0  0  0  0  0  0  0  0  0  0
  148.7938  133.7993  154.4084 H   0  0  0  0  0  0  0  0  0  0  0  0
  151.6271  134.9300  154.2725 H   0  0  0  0  0  0  0  0  0  0  0  0
  151.6658  134.7779  156.7397 H   0  0  0  0  0  0  0  0  0  0  0  0
  150.0649  134.0971  156.7280 H   0  0  0  0  0  0  0  0  0  0  0  0
  153.1461  133.1074  157.4156 H   0  0  0  0  0  0  0  0  0  0  0  0
  151.6758  132.4922  158.1360 H   0  0  0  0  0  0  0  0  0  0  0  0
  153.6172  130.9292  156.3474 H   0  0  0  0  0  0  0  0  0  0  0  0
  153.3831  130.7141  158.0726 H   0  0  0  0  0  0  0  0  0  0  0  0
  151.7371  130.2970  154.8468 H   0  0  0  0  0  0  0  0  0  0  0  0
  150.2828  129.6615  155.5955 H   0  0  0  0  0  0  0  0  0  0  0  0
  149.7860  131.8435  156.6401 H   0  0  0  0  0  0  0  0  0  0  0  0
  149.9742  132.0501  154.9135 H   0  0  0  0  0  0  0  0  0  0  0  0
  148.3860  137.3460  155.1215 H   0  0  0  0  0  0  0  0  0  0  0  0
  148.6493  136.2790  156.5081 H   0  0  0  0  0  0  0  0  0  0  0  0
  148.1030  135.6169  154.9682 H   0  0  0  0  0  0  0  0  0  0  0  0
  153.9962  138.1608  154.2866 H   0  0  0  0  0  0  0  0  0  0  0  0
  149.5057  140.0546  158.4945 H   0  0  0  0  0  0  0  0  0  0  0  0
  152.1926  141.0397  158.9839 H   0  0  0  0  0  0  0  0  0  0  0  0
  153.0308  141.2712  157.4660 H   0  0  0  0  0  0  0  0  0  0  0  0
  150.2354  142.3933  158.0503 H   0  0  0  0  0  0  0  0  0  0  0  0
  150.5930  143.4939  156.1547 H   0  0  0  0  0  0  0  0  0  0  0  0
  152.8319  144.0019  157.8918 H   0  0  0  0  0  0  0  0  0  0  0  0
  150.9965  145.5566  157.5880 H   0  0  0  0  0  0  0  0  0  0  0  0
  149.9682  144.6562  158.7093 H   0  0  0  0  0  0  0  0  0  0  0  0
  152.4895  146.2046  159.3904 H   0  0  0  0  0  0  0  0  0  0  0  0
  150.8986  146.3791  160.1441 H   0  0  0  0  0  0  0  0  0  0  0  0
  152.7891  144.7262  161.2500 H   0  0  0  0  0  0  0  0  0  0  0  0
  151.0915  144.2414  161.2348 H   0  0  0  0  0  0  0  0  0  0  0  0
  1  2  1  0  0  0  0
  1 29  1  0  0  0  0
  1 30  1  0  0  0  0
  1 31  1  0  0  0  0
  2  3  1  0  0  0  0
  2 10  1  0  0  0  0
  2 32  1  0  0  0  0
  3  4  1  0  0  0  0
  3 33  1  0  0  0  0
  3 34  1  0  0  0  0
  4  9  1  0  0  0  0
  4  5  1  0  0  0  0
  5  6  1  0  0  0  0
  5 35  1  0  0  0  0
  5 36  1  0  0  0  0
  6  7  1  0  0  0  0
  6 37  1  0  0  0  0
  6 38  1  0  0  0  0
  7  8  1  0  0  0  0
  8  9  1  0  0  0  0
  8 39  1  0  0  0  0
  8 40  1  0  0  0  0
  9 41  1  0  0  0  0
  9 42  1  0  0  0  0
 10 11  1  0  0  0  0
 10 12  1  0  0  0  0
 11 43  1  0  0  0  0
 11 44  1  0  0  0  0
 11 45  1  0  0  0  0
 12 17  1  0  0  0  0
 12 13  2  0  0  0  0
 13 14  1  0  0  0  0
 14 15  2  0  0  0  0
 14 46  1  0  0  0  0
 15 16  1  0  0  0  0
 16 20  1  0  0  0  0
 16 17  2  0  0  0  0
 17 18  1  0  0  0  0
 18 19  2  0  0  0  0
 19 20  1  0  0  0  0
 19 47  1  0  0  0  0
 20 21  1  0  0  0  0
 21 22  1  0  0  0  0
 21 48  1  0  0  0  0
 21 49  1  0  0  0  0
 22 23  1  0  0  0  0
 22 24  1  0  0  0  0
 22 50  1  0  0  0  0
 23 51  1  0  0  0  0
 24 28  1  0  0  0  0
 24 25  1  0  0  0  0
 24 52  1  0  0  0  0
 25 26  1  0  0  0  0
 25 53  1  0  0  0  0
 25 54  1  0  0  0  0
 26 27  1  0  0  0  0
 26 55  1  0  0  0  0
 26 56  1  0  0  0  0
 27 28  1  0  0  0  0
 27 57  1  0  0  0  0
 27 58  1  0  0  0  0
M  END
> <s_m_source_file>
AV-unprocessed.smi

> <i_m_source_file_index>
213

> <i_lp_mmshare_version>
43012

> <i_f3d_flags>
0

> <s_epik_input>
W0NIMl0xW0NIMl1PW0NIMl1bQ0gyXU4xW0NIMl1bQ0BASF0oW0NIM10pTihbQ0gzXSljKG5bY0hdbjIpYyhjMjMpbltjSF1uM1tDSDJdW0NASF0oW09IXSlbQ0BASF00W0NIMl1bQ0gyXVtDSDJdTzQ=

> <s_epik_cmdline>
J2VwaWtfcHl0aG9uJywgJy1waCcsICc3LjAnLCAnLXRuJywgJzgnLCAnLW1hJywgJzIwMCcsICctbWV0YWxfYmluZGluZycsICctaW1hZScsICc8aW5maWxlLm1hZT4nLCAnLW9tYWUnLCAnPG91dGZpbGUubWFlPic=

> <r_lp_tautomer_probability>
1

> <r_epik_Ionization_Penalty>
0.423322

> <r_epik_Ionization_Penalty_Charging>
0

> <r_epik_Ionization_Penalty_Neutral>
0.423322

> <r_epik_State_Penalty>
0.569486

> <r_epik_Charging_Adjusted_Penalty>
0.569486

> <i_epik_Tot_Q>
0

> <i_epik_Tot_abs_Q>
0

> <r_epik_Metal_State_Penalty>
0.568671

> <b_epik_Metal_Only>
0

> <s_lp_Force_Field>
OPLS_2005

> <r_lp_Energy>
51.3499

> <b_lp_Chiralities_Consistent>
1

> <s_lp_Variant>
AV-unprocessed.smi:213-13

> <Gold.Version>
5.8.1

> <Gold.Id.Protein>
6NUR|6NUR_protein|mol2

> <Gold.PLP.Fitness>
54.1535

> <Gold.PLP.PLP>
-46.7397

> <Gold.PLP.part.hbond>
-3.0000

> <Gold.PLP.part.metal>
0.0000

> <Gold.PLP.part.buried>
-6.1677

> <Gold.PLP.part.nonpolar>
-37.9049

> <Gold.PLP.part.repulsive>
0.1389

> <Gold.PLP.ligand.clash>
0.0000

> <Gold.PLP.ligand.torsion>
1.2981

> <Gold.PLP.Chemscore.Hbond>
2.9920

> <Gold.PLP.Chemscore.CHOScore>
0.0000

> <Gold.PLP.Chemscore.Metal>
0.0000

> <Gold.Chemscore.Hbonds>
donor molecule, donor type, donor heavy atom, donor atom, acceptor molecule, acceptor atom, score
      L1  H    23    51       P1  8028  0.70
      P1  H  7997  8008       L1    15  1.00
      P1  H 10752 10763       L1    13  0.82

> <Gold.PLP.Chemscore.Internal.Correction>
1.0339

> <Gold.Rescore>
     Score         DG    S(hbond)    S(metal)    S(lipo)     H(rot)  DE(clash)    DE(int)     intcor
     14.91     -18.35       2.51        0.00      98.26       2.74       0.09       3.36       ----

> <Gold.Chemscore.Fitness>
14.9105

> <Gold.Chemscore.DG>
-18.3548

> <Gold.Chemscore.ZeroCoef>
-5.4800

> <Gold.Chemscore.Hbond>
2.5112

> <Gold.Chemscore.Metal>
0.0000

> <Gold.Chemscore.Lipo>
98.2558

> <Gold.Chemscore.Internal_Hbond>
0.0000

> <Gold.Chemscore.DEClash>
0.0883

> <Gold.Chemscore.DEInternal>
3.3559

> <Gold.Chemscore.Rot>
2.7378

> <Gold.Chemscore.Internal.Correction>
   9.000000E+99

> <Gold.Chemscore.Hbonds>
donor molecule, donor type, donor heavy atom, donor atom, acceptor molecule, acceptor atom, score
      L1  H    23    51       P1  8028  0.71
      P1  H  7997  8008       L1    15  0.98
      P1  H 10752 10763       L1    13  0.63

> <Gold.Chemscore.Hbond.Weighted>
-8.3875

> <Gold.Chemscore.Metal.Weighted>
-0.0000

> <Gold.Chemscore.Lipo.Weighted>
-11.4959

> <Gold.Chemscore.Internal_Hbond.Weighted>
0.0000

> <Gold.Chemscore.DEClash.Weighted>
0.0883

> <Gold.Chemscore.DEInternal.Weighted>
3.3559

> <Gold.Chemscore.Rot.Weighted>
7.0087

> <Gold.Chemscore.Internal.Correction.Weighted>
   9.000000E+99

> <Gold.Protein.RotatedTorsions>
[ 6907 6896 6895 6894 ] final  168.99 input  -60.11 | X-H torsion
[ 7974 7965 7964 7962 ] final  163.88 input  175.53 | X-H torsion
[ 8008 7997 7996 7995 ] final  -40.07 input   59.86 | X-H torsion
[ 10167 10162 10161 10158 ] final  -20.81 input  -65.29 | X-H torsion
[ 10718 10713 10712 10709 ] final  111.13 input   66.30 | X-H torsion
[ 10763 10752 10751 10750 ] final   47.00 input  -60.55 | X-H torsion
[ 11005 11000 10999 10996 ] final  130.97 input  -57.11 | X-H torsion

> <Gold.Protein.ActiveResidues>
 VAL166  LYS551  ARG553  GLY616  TRP617  ASP618  TYR619  PRO620  LYS621  CYS622 
 ASP623  PHE694  ASN695  SER759  ASP760  ASP761  ALA762  ILE779  LEU786  VAL792 
 PHE793  MET794  SER795  GLU796  ALA797  LYS798  CYS799  TRP800  GLU811  SER814 

> <Gold.Protein.RotatedAtoms>
  151.8389  133.3420  159.3636 H   0  0  0  0  0  0  0  0  0  0  0  0  # atno 6907 bound_to 6896
  150.7241  134.5410  159.5756 H   0  0  0  0  0  0  0  0  0  0  0  0  # atno 6908 bound_to 6896
  152.2879  134.7755  160.0435 H   0  0  0  0  0  0  0  0  0  0  0  0  # atno 6909 bound_to 6896
  144.7569  139.8246  143.6346 H   0  0  0  0  0  0  0  0  0  0  0  0  # atno 7974 bound_to 7965
  154.4016  140.1535  156.2967 H   0  0  0  0  0  0  0  0  0  0  0  0  # atno 8008 bound_to 7997
  155.8737  140.3447  155.5817 H   0  0  0  0  0  0  0  0  0  0  0  0  # atno 8009 bound_to 7997
  155.7746  140.0835  157.2081 H   0  0  0  0  0  0  0  0  0  0  0  0  # atno 8010 bound_to 7997
  140.7278  143.4687  151.0277 H   0  0  0  0  0  0  0  0  0  0  0  0  # atno 10167 bound_to 10162
  157.6460  131.0945  150.6703 H   0  0  0  0  0  0  0  0  0  0  0  0  # atno 10718 bound_to 10713
  152.9804  135.5990  154.3691 H   0  0  0  0  0  0  0  0  0  0  0  0  # atno 10763 bound_to 10752
  154.3366  135.2768  155.2446 H   0  0  0  0  0  0  0  0  0  0  0  0  # atno 10764 bound_to 10752
  154.4546  135.5981  153.6270 H   0  0  0  0  0  0  0  0  0  0  0  0  # atno 10765 bound_to 10752
  139.9703  134.9579  156.9371 H   0  0  0  0  0  0  0  0  0  0  0  0  # atno 11005 bound_to 11000
  146.1590  139.4698  143.0000 LP  0  0  0  0  0  0  0  0  0  0  0  0  # atno 17320 bound_to 7965
  145.6747  141.0207  143.1638 LP  0  0  0  0  0  0  0  0  0  0  0  0  # atno 17321 bound_to 7965
  139.8377  143.7606  152.3180 LP  0  0  0  0  0  0  0  0  0  0  0  0  # atno 17342 bound_to 10162
  139.7743  144.7466  151.0179 LP  0  0  0  0  0  0  0  0  0  0  0  0  # atno 17343 bound_to 10162
  156.7020  130.4626  149.5570 LP  0  0  0  0  0  0  0  0  0  0  0  0  # atno 17370 bound_to 10713
  156.1788  130.6485  151.0927 LP  0  0  0  0  0  0  0  0  0  0  0  0  # atno 17371 bound_to 10713
  140.5308  134.0815  155.7315 LP  0  0  0  0  0  0  0  0  0  0  0  0  # atno 17394 bound_to 11000
  141.1382  133.9184  157.2385 LP  0  0  0  0  0  0  0  0  0  0  0  0  # atno 17395 bound_to 11000

$$$$
