#       Name:                AV-unprocessed.smi:2510
#       Creating user name   scv26
#       Creation time:       Fri Mar 27 13:52:08 2020


#       File generated by GOLD software.
#

@<TRIPOS>MOLECULE
AV-unprocessed.smi:2510
    53    54     1
SMALL
NO_CHARGES


@<TRIPOS>ATOM
      1 ****         0.4821  -2.0915   2.6486 C.3            1 S1                 0.0000
      2 ****        -0.5972  -2.2901   1.5676 C.3            1 S1                 0.0000
      3 ****        -1.4012  -1.0314   1.1320 C.3            1 S1                 0.0000
      4 ****        -1.9321  -0.3063   2.3879 C.3            1 S1                 0.0000
      5 ****        -2.9334  -1.1184   3.2253 C.3            1 S1                 0.0000
      6 ****        -0.7772  -0.1034   0.0517 C.3            1 S1                 0.0000
      7 ****         0.6788  -0.1143  -0.0248 N.am           1 S1                 0.0000
      8 ****         1.4750   0.8135   0.5270 C.2            1 S1                 0.0000
      9 ****         1.0549   1.7634   1.1875 O.2            1 S1                 0.0000
     10 ****         2.9768   0.6424   0.3016 C.3            1 S1                 0.0000
     11 ****         3.4251   1.4225  -0.8919 C.2            1 S1                 0.0000
     12 ****         3.9201   2.6915  -1.0059 C.2            1 S1                 0.0000
     13 ****         4.1538   2.8552  -2.4027 C.2            1 S1                 0.0000
     14 ****         4.6926   4.0598  -3.1167 C.3            1 S1                 0.0000
     15 ****         3.8357   1.7740  -3.0991 N.2            1 S1                 0.0000
     16 ****         3.3952   0.9073  -2.1685 N.pl3          1 S1                 0.0000
     17 ****        -1.4250  -0.9602  -1.0400 C.3            1 S1                 0.0000
     18 ****        -1.8519  -0.3117  -2.3513 C.3            1 S1                 0.0000
     19 ****        -2.4613  -1.3376   0.0345 C.3            1 S1                 0.0000
     20 ****        -3.5574  -0.4292   0.0754 O.3            1 S1                 0.0000
     21 ****        -4.7062  -0.9117  -0.6006 C.3            1 S1                 0.0000
     22 ****         3.0791  -0.0192  -2.4166 H              1 S1                 0.0000
     23 ****         1.0544  -3.0094   2.7834 H              1 S1                 0.0000
     24 ****         0.0480  -1.8472   3.6177 H              1 S1                 0.0000
     25 ****         1.1886  -1.3057   2.3904 H              1 S1                 0.0000
     26 ****        -0.1079  -2.7374   0.7027 H              1 S1                 0.0000
     27 ****        -1.2843  -3.0618   1.9152 H              1 S1                 0.0000
     28 ****        -1.1101   0.0256   3.0211 H              1 S1                 0.0000
     29 ****        -2.4252   0.6209   2.0945 H              1 S1                 0.0000
     30 ****        -3.3197  -0.5173   4.0486 H              1 S1                 0.0000
     31 ****        -2.4741  -2.0054   3.6603 H              1 S1                 0.0000
     32 ****        -3.7852  -1.4403   2.6262 H              1 S1                 0.0000
     33 ****        -1.2086   0.9009   0.0655 H              1 S1                 0.0000
     34 ****         1.1067  -0.8653  -0.5465 H              1 S1                 0.0000
     35 ****         3.5119   0.9796   1.1900 H              1 S1                 0.0000
     36 ****         3.2175  -0.4146   0.1775 H              1 S1                 0.0000
     37 ****         4.0870   3.4009  -0.2088 H              1 S1                 0.0000
     38 ****         4.8879   4.8761  -2.4211 H              1 S1                 0.0000
     39 ****         3.9856   4.4231  -3.8629 H              1 S1                 0.0000
     40 ****         5.6278   3.8279  -3.6264 H              1 S1                 0.0000
     41 ****        -0.8041  -1.8334  -1.2483 H              1 S1                 0.0000
     42 ****        -2.4704   0.5698  -2.1812 H              1 S1                 0.0000
     43 ****        -2.4234  -1.0053  -2.9679 H              1 S1                 0.0000
     44 ****        -0.9849   0.0056  -2.9307 H              1 S1                 0.0000
     45 ****        -2.7667  -2.3856   0.0164 H              1 S1                 0.0000
     46 ****        -5.4933  -0.1586  -0.5681 H              1 S1                 0.0000
     47 ****        -5.0873  -1.8154  -0.1235 H              1 S1                 0.0000
     48 ****        -4.4952  -1.1337  -1.6466 H              1 S1                 0.0000
     49 ****         0.0721   1.8733   1.3362 LP             1 S1                 0.0000
     50 ****         1.6963   2.4253   1.5755 LP             1 S1                 0.0000
     51 ****         3.9064   1.6344  -4.0867 LP             1 S1                 0.0000
     52 ****        -3.2747   0.4299  -0.3512 LP             1 S1                 0.0000
     53 ****        -3.7975  -0.2632   1.0319 LP             1 S1                 0.0000
@<TRIPOS>BOND
    1    1    2 1     
    2    1   23 1     
    3    1   24 1     
    4    1   25 1     
    5    2    3 1     
    6    2   26 1     
    7    2   27 1     
    8    3   19 1     
    9    3    4 1     
   10    3    6 1     
   11    4    5 1     
   12    4   28 1     
   13    4   29 1     
   14    5   30 1     
   15    5   31 1     
   16    5   32 1     
   17    6    7 1     
   18    6   17 1     
   19    6   33 1     
   20    7    8 am    
   21    7   34 1     
   22    8    9 2     
   23    8   10 1     
   24   10   35 1     
   25   10   36 1     
   26   10   11 1     
   27   11   16 1     
   28   11   12 2     
   29   12   13 1     
   30   12   37 1     
   31   13   14 1     
   32   13   15 2     
   33   14   38 1     
   34   14   39 1     
   35   14   40 1     
   36   15   16 1     
   37   16   22 1     
   38   17   18 1     
   39   17   19 1     
   40   17   41 1     
   41   18   42 1     
   42   18   43 1     
   43   18   44 1     
   44   19   20 1     
   45   19   45 1     
   46   20   21 1     
   47   21   46 1     
   48   21   47 1     
   49   21   48 1     
   50    9   49 1     
   51    9   50 1     
   52   15   51 1     
   53   20   52 1     
   54   20   53 1     
@<TRIPOS>SUBSTRUCTURE
      1 S1             1
@<TRIPOS>SET
LONE_PAIRS      STATIC     ATOMS    <user>   **** ""
5 49 50 51 52 53
DONOR_HYDROGENS      STATIC     ATOMS    <user>   **** ""
2 34 22
ATOM$BLUE        STATIC     ATOMS    COLORGROUP SYSTEM
5 49 50 51 52 53
ATOM$RED        STATIC     ATOMS    COLORGROUP SYSTEM
2 34 22
