#       Name:                AV-unprocessed.smi:194
#       Creating user name   scv26
#       Creation time:       Thu Mar 26 19:36:02 2020


#       File generated by GOLD software.
#

@<TRIPOS>MOLECULE
AV-unprocessed.smi:194
    60    62     1
SMALL
NO_CHARGES


@<TRIPOS>ATOM
      1 ****        -4.9054  -1.0073  -1.2770 C.3            1 S1                 0.0000
      2 ****        -3.6423  -0.8818  -2.1442 C.3            1 S1                 0.0000
      3 ****        -3.7771  -1.6782  -3.4579 C.3            1 S1                 0.0000
      4 ****        -2.3359  -1.2797  -4.5592 S.o            1 S1                 0.0000
      5 ****        -2.8445  -2.3596  -5.9772 C.3            1 S1                 0.0000
      6 ****        -2.5176   0.1687  -5.0171 O.2            1 S1                 0.0000
      7 ****        -2.4450  -1.2559  -1.3779 N.pl3          1 S1                 0.0000
      8 ****        -2.3125  -2.5898  -0.7996 C.3            1 S1                 0.0000
      9 ****        -1.6044  -0.2770  -0.9490 C.ar           1 S1                 0.0000
     10 ****        -1.2521   0.6967  -1.8289 N.ar           1 S1                 0.0000
     11 ****        -0.4189   1.6742  -1.4647 C.ar           1 S1                 0.0000
     12 ****         0.1721   1.8685  -0.2855 N.ar           1 S1                 0.0000
     13 ****        -0.1723   0.8967   0.6068 C.ar           1 S1                 0.0000
     14 ****        -1.0494  -0.2002   0.3635 C.ar           1 S1                 0.0000
     15 ****        -1.1772  -0.9591   1.5220 N.2            1 S1                 0.0000
     16 ****        -0.4190  -0.3518   2.3921 C.2            1 S1                 0.0000
     17 ****         0.2391   0.7616   1.9222 N.pl3          1 S1                 0.0000
     18 ****         1.1355   1.6228   2.6802 C.3            1 S1                 0.0000
     19 ****         2.6547   1.2899   2.5688 C.3            1 S1                 0.0000
     20 ****         2.9599  -0.1291   3.1365 C.3            1 S1                 0.0000
     21 ****         2.5493  -1.1843   2.2902 O.3            1 S1                 0.0000
     22 ****         3.1541   1.4464   1.1095 C.3            1 S1                 0.0000
     23 ****         4.6887   1.4490   1.0058 C.3            1 S1                 0.0000
     24 ****         5.2214   2.5015   1.7989 O.3            1 S1                 0.0000
     25 ****         4.9328   2.3494   3.1823 C.3            1 S1                 0.0000
     26 ****         3.4084   2.3504   3.4122 C.3            1 S1                 0.0000
     27 ****        -5.7844  -0.6462  -1.8115 H              1 S1                 0.0000
     28 ****        -4.8132  -0.4189  -0.3635 H              1 S1                 0.0000
     29 ****        -5.0962  -2.0419  -0.9901 H              1 S1                 0.0000
     30 ****        -3.5833   0.1705  -2.4228 H              1 S1                 0.0000
     31 ****        -3.8278  -2.7525  -3.2831 H              1 S1                 0.0000
     32 ****        -4.6931  -1.3944  -3.9768 H              1 S1                 0.0000
     33 ****        -2.9283  -3.3975  -5.6552 H              1 S1                 0.0000
     34 ****        -2.1048  -2.3029  -6.7756 H              1 S1                 0.0000
     35 ****        -3.8075  -2.0378  -6.3740 H              1 S1                 0.0000
     36 ****        -1.2643  -2.8400  -0.6319 H              1 S1                 0.0000
     37 ****        -2.7277  -3.3513  -1.4579 H              1 S1                 0.0000
     38 ****        -2.8399  -2.6486   0.1528 H              1 S1                 0.0000
     39 ****        -0.1924   2.4034  -2.2287 H              1 S1                 0.0000
     40 ****        -0.3090  -0.7081   3.4059 H              1 S1                 0.0000
     41 ****         0.9517   2.6482   2.3563 H              1 S1                 0.0000
     42 ****         0.8258   1.5863   3.7257 H              1 S1                 0.0000
     43 ****         4.0257  -0.2714   3.3041 H              1 S1                 0.0000
     44 ****         2.4822  -0.2577   4.1081 H              1 S1                 0.0000
     45 ****         2.7851  -2.0045   2.6961 H              1 S1                 0.0000
     46 ****         2.7448   0.6684   0.4652 H              1 S1                 0.0000
     47 ****         2.7889   2.3906   0.7039 H              1 S1                 0.0000
     48 ****         5.1118   0.4908   1.3097 H              1 S1                 0.0000
     49 ****         4.9889   1.6101  -0.0295 H              1 S1                 0.0000
     50 ****         5.4031   1.4441   3.5659 H              1 S1                 0.0000
     51 ****         5.3860   3.1808   3.7223 H              1 S1                 0.0000
     52 ****         3.0387   3.3454   3.1594 H              1 S1                 0.0000
     53 ****         3.1955   2.2131   4.4732 H              1 S1                 0.0000
     54 ****        -1.6205   0.6809  -2.7584 LP             1 S1                 0.0000
     55 ****         0.7886   2.6290  -0.0817 LP             1 S1                 0.0000
     56 ****        -1.7263  -1.7839   1.6572 LP             1 S1                 0.0000
     57 ****         3.0060  -1.1030   1.4043 LP             1 S1                 0.0000
     58 ****         1.5587  -1.1455   2.1593 LP             1 S1                 0.0000
     59 ****         4.8316   3.3671   1.4845 LP             1 S1                 0.0000
     60 ****         6.2141   2.5202   1.6798 LP             1 S1                 0.0000
@<TRIPOS>BOND
    1    1    2 1     
    2    1   27 1     
    3    1   28 1     
    4    1   29 1     
    5    2    3 1     
    6    2    7 1     
    7    2   30 1     
    8    3    4 1     
    9    3   31 1     
   10    3   32 1     
   11    4    5 1     
   12    4    6 2     
   13    5   33 1     
   14    5   34 1     
   15    5   35 1     
   16    7    8 1     
   17    7    9 1     
   18    8   36 1     
   19    8   37 1     
   20    8   38 1     
   21    9   14 ar    
   22    9   10 ar    
   23   10   11 ar    
   24   11   12 ar    
   25   11   39 1     
   26   12   13 ar    
   27   13   17 1     
   28   13   14 ar    
   29   14   15 1     
   30   15   16 2     
   31   16   17 1     
   32   16   40 1     
   33   17   18 1     
   34   18   19 1     
   35   18   41 1     
   36   18   42 1     
   37   19   26 1     
   38   19   20 1     
   39   19   22 1     
   40   20   21 1     
   41   20   43 1     
   42   20   44 1     
   43   21   45 1     
   44   22   23 1     
   45   22   46 1     
   46   22   47 1     
   47   23   24 1     
   48   23   48 1     
   49   23   49 1     
   50   24   25 1     
   51   25   26 1     
   52   25   50 1     
   53   25   51 1     
   54   26   52 1     
   55   26   53 1     
   56   10   54 1     
   57   12   55 1     
   58   15   56 1     
   59   21   57 1     
   60   21   58 1     
   61   24   59 1     
   62   24   60 1     
@<TRIPOS>SUBSTRUCTURE
      1 S1             1
@<TRIPOS>SET
LONE_PAIRS      STATIC     ATOMS    <user>   **** ""
8 6 54 55 56 57 58 59 60
DONOR_HYDROGENS      STATIC     ATOMS    <user>   **** ""
1 45
ATOM$BLUE        STATIC     ATOMS    COLORGROUP SYSTEM
8 6 54 55 56 57 58 59 60
ATOM$RED        STATIC     ATOMS    COLORGROUP SYSTEM
1 45
