#       Name:                AV-unprocessed.smi:824
#       Creating user name   scv26
#       Creation time:       Fri Mar 27 01:29:25 2020


#       File generated by GOLD software.
#

@<TRIPOS>MOLECULE
AV-unprocessed.smi:824
    59    60     1
SMALL
NO_CHARGES


@<TRIPOS>ATOM
      1 ****        -0.8384   1.2982  -2.8453 C.3            1 S1                 0.0000
      2 ****        -1.4062   1.2776  -1.4370 C.2            1 S1                 0.0000
      3 ****        -2.8032   1.3124  -1.3463 N.2            1 S1                 0.0000
      4 ****        -3.3840   1.3035  -0.1875 C.2            1 S1                 0.0000
      5 ****        -4.7626   1.3294   0.0371 N.pl3          1 S1                 0.0000
      6 ****        -5.3506   2.1093   1.1295 C.3            1 S1                 0.0000
      7 ****        -6.7388   1.5727   1.5170 C.3            1 S1                 0.0000
      8 ****        -7.5798   1.5467   0.3720 O.3            1 S1                 0.0000
      9 ****        -7.0623   0.6824  -0.6298 C.3            1 S1                 0.0000
     10 ****        -5.6849   1.1883  -1.0897 C.3            1 S1                 0.0000
     11 ****        -2.6168   1.2461   0.9812 N.am           1 S1                 0.0000
     12 ****        -1.2664   1.2039   1.0005 C.2            1 S1                 0.0000
     13 ****        -0.6598   1.1488   2.0692 O.2            1 S1                 0.0000
     14 ****        -0.6235   1.2231  -0.3234 C.2            1 S1                 0.0000
     15 ****         0.9017   1.1996  -0.3736 C.3            1 S1                 0.0000
     16 ****         1.4598  -0.2358  -0.3070 C.3            1 S1                 0.0000
     17 ****         2.9970  -0.3113  -0.3533 C.2            1 S1                 0.0000
     18 ****         3.6518   0.7329  -0.3489 O.2            1 S1                 0.0000
     19 ****         3.5855  -1.5313  -0.3947 N.am           1 S1                 0.0000
     20 ****         2.8165  -2.7796  -0.4338 C.3            1 S1                 0.0000
     21 ****         5.0486  -1.6780  -0.4522 C.3            1 S1                 0.0000
     22 ****         5.7320  -1.4851   0.9217 C.3            1 S1                 0.0000
     23 ****         7.2592  -1.5639   0.7820 C.3            1 S1                 0.0000
     24 ****         5.2343  -2.4875   1.9772 C.3            1 S1                 0.0000
     25 ****        -3.0949   1.2304   1.8701 H              1 S1                 0.0000
     26 ****        -0.1373   0.4761  -2.9904 H              1 S1                 0.0000
     27 ****        -0.3169   2.2375  -3.0308 H              1 S1                 0.0000
     28 ****        -1.6272   1.1988  -3.5922 H              1 S1                 0.0000
     29 ****        -4.7171   2.1064   2.0164 H              1 S1                 0.0000
     30 ****        -5.4329   3.1486   0.8086 H              1 S1                 0.0000
     31 ****        -6.6624   0.5748   1.9519 H              1 S1                 0.0000
     32 ****        -7.1911   2.2145   2.2733 H              1 S1                 0.0000
     33 ****        -6.9942  -0.3381  -0.2488 H              1 S1                 0.0000
     34 ****        -7.7541   0.6614  -1.4717 H              1 S1                 0.0000
     35 ****        -5.7876   2.1551  -1.5841 H              1 S1                 0.0000
     36 ****        -5.2826   0.4941  -1.8288 H              1 S1                 0.0000
     37 ****         1.2512   1.6905  -1.2819 H              1 S1                 0.0000
     38 ****         1.2983   1.8007   0.4464 H              1 S1                 0.0000
     39 ****         1.1184  -0.7116   0.6130 H              1 S1                 0.0000
     40 ****         1.0505  -0.8125  -1.1370 H              1 S1                 0.0000
     41 ****         2.2800  -2.8698  -1.3789 H              1 S1                 0.0000
     42 ****         2.0933  -2.8238   0.3811 H              1 S1                 0.0000
     43 ****         3.4500  -3.6611  -0.3319 H              1 S1                 0.0000
     44 ****         5.3193  -2.6521  -0.8617 H              1 S1                 0.0000
     45 ****         5.4524  -0.9579  -1.1665 H              1 S1                 0.0000
     46 ****         5.4961  -0.4841   1.2846 H              1 S1                 0.0000
     47 ****         7.5747  -2.5468   0.4300 H              1 S1                 0.0000
     48 ****         7.7515  -1.3785   1.7369 H              1 S1                 0.0000
     49 ****         7.6289  -0.8220   0.0735 H              1 S1                 0.0000
     50 ****         5.4116  -3.5159   1.6611 H              1 S1                 0.0000
     51 ****         4.1664  -2.3745   2.1651 H              1 S1                 0.0000
     52 ****         5.7449  -2.3402   2.9291 H              1 S1                 0.0000
     53 ****        -3.3553   1.3442  -2.1795 LP             1 S1                 0.0000
     54 ****        -7.6507   2.4718  -0.0010 LP             1 S1                 0.0000
     55 ****        -8.4875   1.2255   0.6419 LP             1 S1                 0.0000
     56 ****        -1.1661   1.1349   2.9314 LP             1 S1                 0.0000
     57 ****         0.3397   1.1178   2.0758 LP             1 S1                 0.0000
     58 ****         3.1842   1.6161  -0.3156 LP             1 S1                 0.0000
     59 ****         4.6507   0.6968  -0.3787 LP             1 S1                 0.0000
@<TRIPOS>BOND
    1    1    2 1     
    2    1   26 1     
    3    1   27 1     
    4    1   28 1     
    5    2   14 2     
    6    2    3 1     
    7    3    4 2     
    8    4    5 1     
    9    4   11 1     
   10    5   10 1     
   11    5    6 1     
   12    6    7 1     
   13    6   29 1     
   14    6   30 1     
   15    7    8 1     
   16    7   31 1     
   17    7   32 1     
   18    8    9 1     
   19    9   10 1     
   20    9   33 1     
   21    9   34 1     
   22   10   35 1     
   23   10   36 1     
   24   11   25 1     
   25   11   12 am    
   26   12   13 2     
   27   12   14 1     
   28   14   15 1     
   29   15   16 1     
   30   15   37 1     
   31   15   38 1     
   32   16   17 1     
   33   16   39 1     
   34   16   40 1     
   35   17   18 2     
   36   17   19 am    
   37   19   20 1     
   38   19   21 1     
   39   20   41 1     
   40   20   42 1     
   41   20   43 1     
   42   21   22 1     
   43   21   44 1     
   44   21   45 1     
   45   22   23 1     
   46   22   24 1     
   47   22   46 1     
   48   23   47 1     
   49   23   48 1     
   50   23   49 1     
   51   24   50 1     
   52   24   51 1     
   53   24   52 1     
   54    3   53 1     
   55    8   54 1     
   56    8   55 1     
   57   13   56 1     
   58   13   57 1     
   59   18   58 1     
   60   18   59 1     
@<TRIPOS>SUBSTRUCTURE
      1 S1             1
@<TRIPOS>SET
LONE_PAIRS      STATIC     ATOMS    <user>   **** ""
7 53 54 55 56 57 58 59
DONOR_HYDROGENS      STATIC     ATOMS    <user>   **** ""
1 25
ATOM$BLUE        STATIC     ATOMS    COLORGROUP SYSTEM
7 53 54 55 56 57 58 59
ATOM$RED        STATIC     ATOMS    COLORGROUP SYSTEM
1 25
