AV-unprocessed.smi:2649|AV-procd|sdf|10289|dock7
  -GOLD-   2272014303D 1   1.00000     0.00000
 Structure written by MMmdl.
 34 35  0  0  0  0  0  0  0  0  1 V2000
  152.0346  145.0805  158.6654 C   0  0  0  0  0  0  0  0  0  0  0  0
  151.2901  144.7437  160.2846 S   0  0  0  0  0  0  0  0  0  0  0  0
  152.3351  143.3761  160.8718 C   0  0  0  0  0  0  0  0  0  0  0  0
  152.2992  142.2064  159.9009 C   0  0  0  0  0  0  0  0  0  0  0  0
  151.3866  142.3053  158.9088 N   0  0  0  0  0  0  0  0  0  0  0  0
  151.2725  141.3067  157.9996 C   0  0  0  0  0  0  0  0  0  0  0  0
  150.3425  141.3234  156.9268 N   0  0  0  0  0  0  0  0  0  0  0  0
  150.5228  140.9074  155.6582 C   0  0  0  0  0  0  0  0  0  0  0  0
  151.5739  140.4307  155.2275 O   0  0  0  0  0  0  0  0  0  0  0  0
  149.3014  141.0377  154.7358 C   0  0  2  0  0  0  0  0  0  0  0  0
  148.0846  141.6939  155.4292 C   0  0  0  0  0  0  0  0  0  0  0  0
  146.9955  141.7447  154.5166 O   0  0  0  0  0  0  0  0  0  0  0  0
  146.6250  140.4447  154.0792 C   0  0  0  0  0  0  0  0  0  0  0  0
  147.8288  139.7907  153.3814 C   0  0  0  0  0  0  0  0  0  0  0  0
  148.9202  139.7377  154.2909 O   0  0  0  0  0  0  0  0  0  0  0  0
  152.0973  140.1624  158.0634 C   0  0  0  0  0  0  0  0  0  0  0  0
  153.0547  140.0567  159.0902 C   0  0  0  0  0  0  0  0  0  0  0  0
  153.1643  141.0962  160.0316 C   0  0  0  0  0  0  0  0  0  0  0  0
  154.3356  140.9886  161.2979 Cl  0  0  0  0  0  0  0  0  0  0  0  0
  151.5653  145.9544  158.2135 H   0  0  0  0  0  0  0  0  0  0  0  0
  151.8972  144.2345  157.9924 H   0  0  0  0  0  0  0  0  0  0  0  0
  153.1020  145.2754  158.7689 H   0  0  0  0  0  0  0  0  0  0  0  0
  153.3565  143.7370  161.0000 H   0  0  0  0  0  0  0  0  0  0  0  0
  151.9906  143.0542  161.8546 H   0  0  0  0  0  0  0  0  0  0  0  0
  149.4324  141.7031  157.1435 H   0  0  0  0  0  0  0  0  0  0  0  0
  149.6022  141.6388  153.8758 H   0  0  0  0  0  0  0  0  0  0  0  0
  147.7941  141.1435  156.3260 H   0  0  0  0  0  0  0  0  0  0  0  0
  148.3191  142.7132  155.7383 H   0  0  0  0  0  0  0  0  0  0  0  0
  146.2895  139.8427  154.9252 H   0  0  0  0  0  0  0  0  0  0  0  0
  145.7851  140.5267  153.3892 H   0  0  0  0  0  0  0  0  0  0  0  0
  147.5792  138.7779  153.0648 H   0  0  0  0  0  0  0  0  0  0  0  0
  148.1101  140.3476  152.4863 H   0  0  0  0  0  0  0  0  0  0  0  0
  152.0018  139.3708  157.3343 H   0  0  0  0  0  0  0  0  0  0  0  0
  153.6950  139.1891  159.1525 H   0  0  0  0  0  0  0  0  0  0  0  0
  1  2  1  0  0  0  0
  1 20  1  0  0  0  0
  1 21  1  0  0  0  0
  1 22  1  0  0  0  0
  2  3  1  0  0  0  0
  3  4  1  0  0  0  0
  3 23  1  0  0  0  0
  3 24  1  0  0  0  0
  4 18  1  0  0  0  0
  4  5  2  0  0  0  0
  5  6  1  0  0  0  0
  6  7  1  0  0  0  0
  6 16  2  0  0  0  0
  7  8  1  0  0  0  0
  7 25  1  0  0  0  0
  8  9  2  0  0  0  0
  8 10  1  0  0  0  0
 10 15  1  0  0  0  0
 10 11  1  0  0  0  0
 10 26  1  0  0  0  0
 11 12  1  0  0  0  0
 11 27  1  0  0  0  0
 11 28  1  0  0  0  0
 12 13  1  0  0  0  0
 13 14  1  0  0  0  0
 13 29  1  0  0  0  0
 13 30  1  0  0  0  0
 14 15  1  0  0  0  0
 14 31  1  0  0  0  0
 14 32  1  0  0  0  0
 16 17  1  0  0  0  0
 16 33  1  0  0  0  0
 17 18  2  0  0  0  0
 17 34  1  0  0  0  0
 18 19  1  0  0  0  0
M  END
> <s_m_source_file>
AV-unprocessed.smi

> <i_m_source_file_index>
2649

> <i_lp_mmshare_version>
43012

> <i_f3d_flags>
0

> <s_epik_input>
W0NIM11TW0NIMl1jMW5jKFtjSF1bY0hdYzFDbClbTkhdQyg9TylbQ0BASF0yW0NIMl1PW0NIMl1bQ0gyXU8y

> <s_epik_cmdline>
J2VwaWtfcHl0aG9uJywgJy1waCcsICc3LjAnLCAnLXRuJywgJzgnLCAnLW1hJywgJzIwMCcsICctbWV0YWxfYmluZGluZycsICctaW1hZScsICc8aW5maWxlLm1hZT4nLCAnLW9tYWUnLCAnPG91dGZpbGUubWFlPic=

> <r_lp_tautomer_probability>
1

> <r_epik_Ionization_Penalty>
9.71596e-06

> <r_epik_Ionization_Penalty_Charging>
0

> <r_epik_Ionization_Penalty_Neutral>
9.71596e-06

> <r_epik_State_Penalty>
-0

> <r_epik_Charging_Adjusted_Penalty>
0

> <i_epik_Tot_Q>
0

> <i_epik_Tot_abs_Q>
0

> <r_epik_Metal_State_Penalty>
-0

> <b_epik_Metal_Only>
0

> <s_lp_Force_Field>
OPLS_2005

> <r_lp_Energy>
11.5794

> <b_lp_Chiralities_Consistent>
1

> <s_lp_Variant>
AV-unprocessed.smi:2649-1

> <Gold.Version>
5.8.1

> <Gold.Id.Protein>
6NUR|6NUR_protein|mol2

> <Gold.PLP.Fitness>
41.2616

> <Gold.PLP.PLP>
-39.6510

> <Gold.PLP.part.hbond>
-1.0000

> <Gold.PLP.part.metal>
0.0000

> <Gold.PLP.part.buried>
-3.7288

> <Gold.PLP.part.nonpolar>
-35.5405

> <Gold.PLP.part.repulsive>
0.3330

> <Gold.PLP.ligand.clash>
0.5555

> <Gold.PLP.ligand.torsion>
0.3825

> <Gold.PLP.Chemscore.Hbond>
0.9760

> <Gold.PLP.Chemscore.CHOScore>
0.0000

> <Gold.PLP.Chemscore.Metal>
0.0000

> <Gold.Chemscore.Hbonds>
donor molecule, donor type, donor heavy atom, donor atom, acceptor molecule, acceptor atom, score
      P1  H  7989  7998       L1     9  0.86

> <Gold.PLP.Chemscore.Internal.Correction>
0.0031

> <Gold.Rescore>
     Score         DG    S(hbond)    S(metal)    S(lipo)     H(rot)  DE(clash)    DE(int)     intcor
     15.05     -16.90       0.92        0.00     100.63       1.34       0.19       1.66       ----

> <Gold.Chemscore.Fitness>
15.0547

> <Gold.Chemscore.DG>
-16.9037

> <Gold.Chemscore.ZeroCoef>
-5.4800

> <Gold.Chemscore.Hbond>
0.9230

> <Gold.Chemscore.Metal>
0.0000

> <Gold.Chemscore.Lipo>
100.6324

> <Gold.Chemscore.Internal_Hbond>
0.0000

> <Gold.Chemscore.DEClash>
0.1904

> <Gold.Chemscore.DEInternal>
1.6586

> <Gold.Chemscore.Rot>
1.3410

> <Gold.Chemscore.Internal.Correction>
   9.000000E+99

> <Gold.Chemscore.Hbonds>
donor molecule, donor type, donor heavy atom, donor atom, acceptor molecule, acceptor atom, score
      P1  H  7989  7998       L1     9  0.47

> <Gold.Chemscore.Hbond.Weighted>
-3.0828

> <Gold.Chemscore.Metal.Weighted>
-0.0000

> <Gold.Chemscore.Lipo.Weighted>
-11.7740

> <Gold.Chemscore.Internal_Hbond.Weighted>
0.0000

> <Gold.Chemscore.DEClash.Weighted>
0.1904

> <Gold.Chemscore.DEInternal.Weighted>
1.6586

> <Gold.Chemscore.Rot.Weighted>
3.4331

> <Gold.Chemscore.Internal.Correction.Weighted>
   9.000000E+99

> <Gold.Protein.RotatedTorsions>
[ 6907 6896 6895 6894 ] final  -88.13 input  -60.11 | X-H torsion
[ 7974 7965 7964 7962 ] final  -80.68 input  175.53 | X-H torsion
[ 8008 7997 7996 7995 ] final   10.57 input   59.86 | X-H torsion
[ 10167 10162 10161 10158 ] final -129.15 input  -65.29 | X-H torsion
[ 10718 10713 10712 10709 ] final -111.45 input   66.30 | X-H torsion
[ 10763 10752 10751 10750 ] final   15.07 input  -60.55 | X-H torsion
[ 11005 11000 10999 10996 ] final   27.49 input  -57.11 | X-H torsion

> <Gold.Protein.ActiveResidues>
 VAL166  LYS551  ARG553  GLY616  TRP617  ASP618  TYR619  PRO620  LYS621  CYS622 
 ASP623  PHE694  ASN695  SER759  ASP760  ASP761  ALA762  ILE779  LEU786  VAL792 
 PHE793  MET794  SER795  GLU796  ALA797  LYS798  CYS799  TRP800  GLU811  SER814 

> <Gold.Protein.RotatedAtoms>
  150.6868  134.2789  159.4618 H   0  0  0  0  0  0  0  0  0  0  0  0  # atno 6907 bound_to 6896
  152.0705  134.9534  160.0584 H   0  0  0  0  0  0  0  0  0  0  0  0  # atno 6908 bound_to 6896
  152.0925  133.4173  159.4587 H   0  0  0  0  0  0  0  0  0  0  0  0  # atno 6909 bound_to 6896
  145.5567  140.9488  143.1469 H   0  0  0  0  0  0  0  0  0  0  0  0  # atno 7974 bound_to 7965
  154.7952  140.2842  155.5962 H   0  0  0  0  0  0  0  0  0  0  0  0  # atno 8008 bound_to 7997
  156.2970  140.2597  156.2737 H   0  0  0  0  0  0  0  0  0  0  0  0  # atno 8009 bound_to 7997
  154.9623  140.0377  157.2185 H   0  0  0  0  0  0  0  0  0  0  0  0  # atno 8010 bound_to 7997
  139.9428  143.6143  152.2498 H   0  0  0  0  0  0  0  0  0  0  0  0  # atno 10167 bound_to 10162
  156.0648  130.5868  150.8375 H   0  0  0  0  0  0  0  0  0  0  0  0  # atno 10718 bound_to 10713
  153.1561  135.6787  153.8811 H   0  0  0  0  0  0  0  0  0  0  0  0  # atno 10763 bound_to 10752
  153.8222  135.3128  155.3412 H   0  0  0  0  0  0  0  0  0  0  0  0  # atno 10764 bound_to 10752
  154.7898  135.4841  154.0115 H   0  0  0  0  0  0  0  0  0  0  0  0  # atno 10765 bound_to 10752
  140.3257  134.2494  155.7710 H   0  0  0  0  0  0  0  0  0  0  0  0  # atno 11005 bound_to 11000
  144.7503  139.7212  143.7276 LP  0  0  0  0  0  0  0  0  0  0  0  0  # atno 17320 bound_to 7965
  146.1879  139.5104  142.9824 LP  0  0  0  0  0  0  0  0  0  0  0  0  # atno 17321 bound_to 7965
  139.6690  144.7661  151.1818 LP  0  0  0  0  0  0  0  0  0  0  0  0  # atno 17342 bound_to 10162
  140.7606  143.5893  150.8813 LP  0  0  0  0  0  0  0  0  0  0  0  0  # atno 17343 bound_to 10162
  157.5681  131.0946  150.9458 LP  0  0  0  0  0  0  0  0  0  0  0  0  # atno 17370 bound_to 10713
  156.9681  130.5480  149.5289 LP  0  0  0  0  0  0  0  0  0  0  0  0  # atno 17371 bound_to 10713
  141.2076  133.7802  157.0111 LP  0  0  0  0  0  0  0  0  0  0  0  0  # atno 17394 bound_to 11000
  140.0903  134.9596  157.1766 LP  0  0  0  0  0  0  0  0  0  0  0  0  # atno 17395 bound_to 11000

$$$$
