AV-unprocessed.smi:1999|AV-procd|sdf|8095|dock1
  -GOLD-   2272010313D 1   1.00000     0.00000
 Structure written by MMmdl.
 39 40  0  0  0  0  0  0  0  0  2 V2000
  152.3848  141.3477  158.6449 C   0  0  0  0  0  0  0  0  0  0  0  0
  151.9207  140.5333  157.4860 C   0  0  0  0  0  0  0  0  0  0  0  0
  152.7660  139.8757  156.6830 N   0  0  0  0  0  0  0  0  0  0  0  0
  152.1060  139.1893  155.6735 N   0  0  0  0  0  0  0  0  0  0  0  0
  150.7775  139.3490  155.7467 C   0  0  0  0  0  0  0  0  0  0  0  0
  149.8617  138.7639  154.8326 N   0  0  0  0  0  0  0  0  0  0  0  0
  148.5250  138.9010  154.7933 C   0  0  0  0  0  0  0  0  0  0  0  0
  147.8604  139.6159  155.5435 O   0  0  0  0  0  0  0  0  0  0  0  0
  147.9857  138.1437  153.8259 N   0  0  0  0  0  0  0  0  0  0  0  0
  146.5646  138.0682  153.4827 C   0  0  1  0  0  0  0  0  0  0  0  0
  146.4049  138.3013  151.9743 C   0  0  0  0  0  0  0  0  0  0  0  0
  145.9475  136.7142  153.9063 C   0  0  0  0  0  0  0  0  0  0  0  0
  146.3695  135.5825  153.0422 N   0  3  0  0  0  0  0  0  0  0  0  0
  146.7484  134.3660  153.8015 C   0  0  0  0  0  0  0  0  0  0  0  0
  147.2520  133.2774  152.8396 C   0  0  0  0  0  0  0  0  0  0  0  0
  146.2422  132.9892  151.8799 O   0  0  0  0  0  0  0  0  0  0  0  0
  145.9165  134.1267  151.0901 C   0  0  0  0  0  0  0  0  0  0  0  0
  145.3776  135.2493  151.9938 C   0  0  0  0  0  0  0  0  0  0  0  0
  150.2203  140.3667  157.0637 S   0  0  0  0  0  0  0  0  0  0  0  0
  153.0682  140.7659  159.2640 H   0  0  0  0  0  0  0  0  0  0  0  0
  151.5369  141.6553  159.2574 H   0  0  0  0  0  0  0  0  0  0  0  0
  152.9027  142.2392  158.2909 H   0  0  0  0  0  0  0  0  0  0  0  0
  150.2738  138.1615  154.1352 H   0  0  0  0  0  0  0  0  0  0  0  0
  148.6126  137.5900  153.2602 H   0  0  0  0  0  0  0  0  0  0  0  0
  146.0347  138.8795  153.9838 H   0  0  0  0  0  0  0  0  0  0  0  0
  145.3537  138.2906  151.6849 H   0  0  0  0  0  0  0  0  0  0  0  0
  146.9165  137.5319  151.3948 H   0  0  0  0  0  0  0  0  0  0  0  0
  146.8151  139.2681  151.6802 H   0  0  0  0  0  0  0  0  0  0  0  0
  146.1899  136.4871  154.9458 H   0  0  0  0  0  0  0  0  0  0  0  0
  144.8613  136.8098  153.8642 H   0  0  0  0  0  0  0  0  0  0  0  0
  147.5276  134.5959  154.5274 H   0  0  0  0  0  0  0  0  0  0  0  0
  145.8878  133.9988  154.3625 H   0  0  0  0  0  0  0  0  0  0  0  0
  148.1697  133.5921  152.3396 H   0  0  0  0  0  0  0  0  0  0  0  0
  147.4860  132.3670  153.3918 H   0  0  0  0  0  0  0  0  0  0  0  0
  146.7945  134.4619  150.5351 H   0  0  0  0  0  0  0  0  0  0  0  0
  145.1642  133.8422  150.3543 H   0  0  0  0  0  0  0  0  0  0  0  0
  144.4401  134.9412  152.4596 H   0  0  0  0  0  0  0  0  0  0  0  0
  145.1636  136.1321  151.3903 H   0  0  0  0  0  0  0  0  0  0  0  0
  147.1994  135.8918  152.5555 H   0  0  0  0  0  0  0  0  0  0  0  0
  1  2  1  0  0  0  0
  1 20  1  0  0  0  0
  1 21  1  0  0  0  0
  1 22  1  0  0  0  0
  2 19  1  0  0  0  0
  2  3  2  0  0  0  0
  3  4  1  0  0  0  0
  4  5  2  0  0  0  0
  5  6  1  0  0  0  0
  5 19  1  0  0  0  0
  6  7  1  0  0  0  0
  6 23  1  0  0  0  0
  7  8  2  0  0  0  0
  7  9  1  0  0  0  0
  9 10  1  0  0  0  0
  9 24  1  0  0  0  0
 10 11  1  0  0  0  0
 10 12  1  0  0  0  0
 10 25  1  0  0  0  0
 11 26  1  0  0  0  0
 11 27  1  0  0  0  0
 11 28  1  0  0  0  0
 12 13  1  0  0  0  0
 12 29  1  0  0  0  0
 12 30  1  0  0  0  0
 13 18  1  0  0  0  0
 13 14  1  0  0  0  0
 13 39  1  0  0  0  0
 14 15  1  0  0  0  0
 14 31  1  0  0  0  0
 14 32  1  0  0  0  0
 15 16  1  0  0  0  0
 15 33  1  0  0  0  0
 15 34  1  0  0  0  0
 16 17  1  0  0  0  0
 17 18  1  0  0  0  0
 17 35  1  0  0  0  0
 17 36  1  0  0  0  0
 18 37  1  0  0  0  0
 18 38  1  0  0  0  0
M  CHG  1  13   1
M  END
> <s_m_source_file>
AV-unprocessed.smi

> <i_m_source_file_index>
1999

> <i_lp_mmshare_version>
43012

> <i_f3d_flags>
0

> <s_epik_input>
W0NIM11jMW5uYyhzMSlbTkhdQyg9TylbTkhdW0NASF0oW0NIM10pW0NIMl1OMltDSDJdW0NIMl1PW0NIMl1bQ0gyXTI=

> <s_epik_cmdline>
J2VwaWtfcHl0aG9uJywgJy1waCcsICc3LjAnLCAnLXRuJywgJzgnLCAnLW1hJywgJzIwMCcsICctbWV0YWxfYmluZGluZycsICctaW1hZScsICc8aW5maWxlLm1hZT4nLCAnLW9tYWUnLCAnPG91dGZpbGUubWFlPic=

> <r_lp_tautomer_probability>
1

> <r_epik_Ionization_Penalty>
0.701298

> <r_epik_Ionization_Penalty_Charging>
0.695697

> <r_epik_Ionization_Penalty_Neutral>
0.00560124

> <r_epik_State_Penalty>
0.717972

> <r_epik_Charging_Adjusted_Penalty>
1.41367

> <i_epik_Tot_Q>
1

> <i_epik_Tot_abs_Q>
1

> <r_epik_Metal_State_Penalty>
1.07748

> <b_epik_Metal_Only>
0

> <s_lp_Force_Field>
OPLS_2005

> <r_lp_Energy>
20.3005

> <b_lp_Chiralities_Consistent>
1

> <s_lp_Variant>
AV-unprocessed.smi:1999-4

> <Gold.Version>
5.8.1

> <Gold.Id.Protein>
6NUR|6NUR_protein|mol2

> <Gold.PLP.Fitness>
37.4629

> <Gold.PLP.PLP>
-26.9193

> <Gold.PLP.part.hbond>
-3.8250

> <Gold.PLP.part.metal>
0.0000

> <Gold.PLP.part.buried>
-1.9186

> <Gold.PLP.part.nonpolar>
-21.5878

> <Gold.PLP.part.repulsive>
0.2838

> <Gold.PLP.ligand.clash>
0.0000

> <Gold.PLP.ligand.torsion>
0.7526

> <Gold.PLP.Chemscore.Hbond>
4.0000

> <Gold.PLP.Chemscore.CHOScore>
0.0000

> <Gold.PLP.Chemscore.Metal>
0.0000

> <Gold.Chemscore.Hbonds>
donor molecule, donor type, donor heavy atom, donor atom, acceptor molecule, acceptor atom, score
      L1  H     9    24       P1  7948  1.00
      L1  H    13    39       P1  7948  2.00
      P1  H  7997  8008       L1     3  1.00

> <Gold.PLP.Chemscore.Internal.Correction>
0.0489

> <Gold.Rescore>
     Score         DG    S(hbond)    S(metal)    S(lipo)     H(rot)  DE(clash)    DE(int)     intcor
     15.70     -17.91       2.93        0.00      58.39       1.63       0.27       1.94       ----

> <Gold.Chemscore.Fitness>
15.7002

> <Gold.Chemscore.DG>
-17.9086

> <Gold.Chemscore.ZeroCoef>
-5.4800

> <Gold.Chemscore.Hbond>
2.9265

> <Gold.Chemscore.Metal>
0.0000

> <Gold.Chemscore.Lipo>
58.3873

> <Gold.Chemscore.Internal_Hbond>
0.0000

> <Gold.Chemscore.DEClash>
0.2712

> <Gold.Chemscore.DEInternal>
1.9372

> <Gold.Chemscore.Rot>
1.6317

> <Gold.Chemscore.Internal.Correction>
   9.000000E+99

> <Gold.Chemscore.Hbonds>
donor molecule, donor type, donor heavy atom, donor atom, acceptor molecule, acceptor atom, score
      L1  H     9    24       P1  7948  0.95
      L1  H    13    39       P1  7948  1.00
      P1  H  7997  8008       L1     3  0.77

> <Gold.Chemscore.Hbond.Weighted>
-9.7745

> <Gold.Chemscore.Metal.Weighted>
-0.0000

> <Gold.Chemscore.Lipo.Weighted>
-6.8313

> <Gold.Chemscore.Internal_Hbond.Weighted>
0.0000

> <Gold.Chemscore.DEClash.Weighted>
0.2712

> <Gold.Chemscore.DEInternal.Weighted>
1.9372

> <Gold.Chemscore.Rot.Weighted>
4.1773

> <Gold.Chemscore.Internal.Correction.Weighted>
   9.000000E+99

> <Gold.Protein.RotatedTorsions>
[ 6907 6896 6895 6894 ] final  101.59 input  -60.11 | X-H torsion
[ 7974 7965 7964 7962 ] final  -12.50 input  175.53 | X-H torsion
[ 8008 7997 7996 7995 ] final  -38.37 input   59.86 | X-H torsion
[ 10167 10162 10161 10158 ] final   58.88 input  -65.29 | X-H torsion
[ 10718 10713 10712 10709 ] final -161.39 input   66.30 | X-H torsion
[ 10763 10752 10751 10750 ] final   -7.22 input  -60.55 | X-H torsion
[ 11005 11000 10999 10996 ] final   23.03 input  -57.11 | X-H torsion

> <Gold.Protein.ActiveResidues>
 VAL166  LYS551  ARG553  GLY616  TRP617  ASP618  TYR619  PRO620  LYS621  CYS622 
 ASP623  PHE694  ASN695  SER759  ASP760  ASP761  ALA762  ILE779  LEU786  VAL792 
 PHE793  MET794  SER795  GLU796  ALA797  LYS798  CYS799  TRP800  GLU811  SER814 

> <Gold.Protein.RotatedAtoms>
  152.5345  134.0103  159.7935 H   0  0  0  0  0  0  0  0  0  0  0  0  # atno 6907 bound_to 6896
  151.0307  133.5785  159.2668 H   0  0  0  0  0  0  0  0  0  0  0  0  # atno 6908 bound_to 6896
  151.2791  135.0715  159.9216 H   0  0  0  0  0  0  0  0  0  0  0  0  # atno 6909 bound_to 6896
  146.2149  140.3066  142.8379 H   0  0  0  0  0  0  0  0  0  0  0  0  # atno 7974 bound_to 7965
  154.4038  140.1579  156.2689 H   0  0  0  0  0  0  0  0  0  0  0  0  # atno 8008 bound_to 7997
  155.8971  140.3435  155.5976 H   0  0  0  0  0  0  0  0  0  0  0  0  # atno 8009 bound_to 7997
  155.7491  140.0802  157.2200 H   0  0  0  0  0  0  0  0  0  0  0  0  # atno 8010 bound_to 7997
  140.1825  144.4168  150.6609 H   0  0  0  0  0  0  0  0  0  0  0  0  # atno 10167 bound_to 10162
  156.5956  130.8789  151.2901 H   0  0  0  0  0  0  0  0  0  0  0  0  # atno 10718 bound_to 10713
  153.4233  135.7010  153.6279 H   0  0  0  0  0  0  0  0  0  0  0  0  # atno 10763 bound_to 10752
  153.4725  135.3711  155.2399 H   0  0  0  0  0  0  0  0  0  0  0  0  # atno 10764 bound_to 10752
  154.8723  135.4046  154.3605 H   0  0  0  0  0  0  0  0  0  0  0  0  # atno 10765 bound_to 10752
  140.3740  134.1991  155.7665 H   0  0  0  0  0  0  0  0  0  0  0  0  # atno 11005 bound_to 11000
  144.9018  140.7652  143.5862 LP  0  0  0  0  0  0  0  0  0  0  0  0  # atno 17320 bound_to 7965
  145.2993  139.1856  143.4698 LP  0  0  0  0  0  0  0  0  0  0  0  0  # atno 17321 bound_to 7965
  140.6510  143.2225  151.6076 LP  0  0  0  0  0  0  0  0  0  0  0  0  # atno 17342 bound_to 10162
  139.5290  144.2972  152.1103 LP  0  0  0  0  0  0  0  0  0  0  0  0  # atno 17343 bound_to 10162
  157.7292  130.9668  150.1779 LP  0  0  0  0  0  0  0  0  0  0  0  0  # atno 17370 bound_to 10713
  156.2512  130.3701  149.8230 LP  0  0  0  0  0  0  0  0  0  0  0  0  # atno 17371 bound_to 10713
  141.1945  133.8126  157.0754 LP  0  0  0  0  0  0  0  0  0  0  0  0  # atno 17394 bound_to 11000
  140.0529  134.9796  157.1169 LP  0  0  0  0  0  0  0  0  0  0  0  0  # atno 17395 bound_to 11000

$$$$
