#       Name:                AV-unprocessed.smi:3231
#       Creating user name   scv26
#       Creation time:       Fri Mar 27 18:18:34 2020


#       File generated by GOLD software.
#

@<TRIPOS>MOLECULE
AV-unprocessed.smi:3231
    47    48     1
SMALL
NO_CHARGES


@<TRIPOS>ATOM
      1 ****        -0.0769   0.6008  -1.1657 O.3            1 S1                 0.0000
      2 ****        -0.3547   0.4384   0.2117 C.3            1 S1                 0.0000
      3 ****         0.9856   0.1998   0.9292 C.3            1 S1                 0.0000
      4 ****         1.5815  -1.0919   0.5345 N.4            1 S1                 1.0000
      5 ****         2.8785  -1.3815   1.1784 C.3            1 S1                 0.0000
      6 ****         3.4589  -2.7225   0.6982 C.3            1 S1                 0.0000
      7 ****         3.7393  -2.7325  -0.7269 N.pl3          1 S1                 0.0000
      8 ****         3.1854  -3.5327  -1.7042 C.2            1 S1                 0.0000
      9 ****         3.7675  -3.1877  -2.8902 C.2            1 S1                 0.0000
     10 ****         4.6842  -2.1605  -2.5309 C.2            1 S1                 0.0000
     11 ****         4.6664  -1.8923  -1.2352 N.2            1 S1                 0.0000
     12 ****        -1.0674   1.7078   0.7264 C.3            1 S1                 0.0000
     13 ****        -2.5293   1.6519   0.7101 N.3            1 S1                 0.0000
     14 ****        -3.0789   1.6066  -0.6432 C.3            1 S1                 0.0000
     15 ****        -4.6173   1.5768  -0.6382 C.3            1 S1                 0.0000
     16 ****        -5.1151   2.7052   0.0725 O.3            1 S1                 0.0000
     17 ****        -4.6420   2.7605   1.4140 C.3            1 S1                 0.0000
     18 ****        -3.1037   2.7937   1.4156 C.3            1 S1                 0.0000
     19 ****        -0.8908   0.7637  -1.6186 H              1 S1                 0.0000
     20 ****        -0.9970  -0.4324   0.3534 H              1 S1                 0.0000
     21 ****         1.6838   1.0111   0.7166 H              1 S1                 0.0000
     22 ****         0.8304   0.1860   2.0088 H              1 S1                 0.0000
     23 ****         0.9323  -1.8309   0.7627 H              1 S1                 0.0000
     24 ****         3.5777  -0.5698   0.9728 H              1 S1                 0.0000
     25 ****         2.7382  -1.4117   2.2595 H              1 S1                 0.0000
     26 ****         4.3871  -2.9384   1.2287 H              1 S1                 0.0000
     27 ****         2.7708  -3.5374   0.9272 H              1 S1                 0.0000
     28 ****         2.4305  -4.2719  -1.4789 H              1 S1                 0.0000
     29 ****         3.5721  -3.6081  -3.8657 H              1 S1                 0.0000
     30 ****         5.3577  -1.6066  -3.1683 H              1 S1                 0.0000
     31 ****        -0.7606   1.8562   1.7625 H              1 S1                 0.0000
     32 ****        -0.7112   2.5914   0.1937 H              1 S1                 0.0000
     33 ****        -2.7363   2.4730  -1.2114 H              1 S1                 0.0000
     34 ****        -2.7167   0.7230  -1.1679 H              1 S1                 0.0000
     35 ****        -5.0011   1.5997  -1.6582 H              1 S1                 0.0000
     36 ****        -4.9840   0.6578  -0.1782 H              1 S1                 0.0000
     37 ****        -5.0415   3.6529   1.8958 H              1 S1                 0.0000
     38 ****        -5.0116   1.9001   1.9740 H              1 S1                 0.0000
     39 ****        -2.7470   2.8105   2.4461 H              1 S1                 0.0000
     40 ****        -2.7646   3.7224   0.9538 H              1 S1                 0.0000
     41 ****         1.7185  -1.0795  -0.4665 H              1 S1                 0.0000
     42 ****         0.3483  -0.2302  -1.5243 LP             1 S1                 0.0000
     43 ****         0.5425   1.3750  -1.2959 LP             1 S1                 0.0000
     44 ****         5.2166  -1.2181  -0.7424 LP             1 S1                 0.0000
     45 ****        -2.7766   0.8018   1.1751 LP             1 S1                 0.0000
     46 ****        -6.1139   2.6593   0.0870 LP             1 S1                 0.0000
     47 ****        -4.8264   3.5360  -0.4032 LP             1 S1                 0.0000
@<TRIPOS>BOND
    1    1    2 1     
    2    1   19 1     
    3    2    3 1     
    4    2   12 1     
    5    2   20 1     
    6    3    4 1     
    7    3   21 1     
    8    3   22 1     
    9    4    5 1     
   10    4   23 1     
   11    4   41 1     
   12    5    6 1     
   13    5   24 1     
   14    5   25 1     
   15    6    7 1     
   16    6   26 1     
   17    6   27 1     
   18    7   11 1     
   19    7    8 1     
   20    8    9 2     
   21    8   28 1     
   22    9   10 1     
   23    9   29 1     
   24   10   11 2     
   25   10   30 1     
   26   12   13 1     
   27   12   31 1     
   28   12   32 1     
   29   13   18 1     
   30   13   14 1     
   31   14   15 1     
   32   14   33 1     
   33   14   34 1     
   34   15   16 1     
   35   15   35 1     
   36   15   36 1     
   37   16   17 1     
   38   17   18 1     
   39   17   37 1     
   40   17   38 1     
   41   18   39 1     
   42   18   40 1     
   43    1   42 1     
   44    1   43 1     
   45   11   44 1     
   46   13   45 1     
   47   16   46 1     
   48   16   47 1     
@<TRIPOS>SUBSTRUCTURE
      1 S1             1
@<TRIPOS>SET
LONE_PAIRS      STATIC     ATOMS    <user>   **** ""
6 42 43 44 45 46 47
DONOR_HYDROGENS      STATIC     ATOMS    <user>   **** ""
3 19 23 41
ATOM$BLUE        STATIC     ATOMS    COLORGROUP SYSTEM
6 42 43 44 45 46 47
ATOM$RED        STATIC     ATOMS    COLORGROUP SYSTEM
3 19 23 41
