AV-unprocessed.smi:2808|AV-procd|sdf|10824|dock7
  -GOLD-   2272015263D 1   1.00000     0.00000
 Structure written by MMmdl.
 43 44  0  0  0  0  0  0  0  0  1 V2000
  146.7513  132.5042  162.1425 C   0  0  0  0  0  0  0  0  0  0  0  0
  147.0812  133.6249  161.1739 C   0  0  0  0  0  0  0  0  0  0  0  0
  147.0305  133.3882  159.7461 C   0  0  0  0  0  0  0  0  0  0  0  0
  147.3251  134.3895  158.9037 C   0  0  0  0  0  0  0  0  0  0  0  0
  147.6832  135.6685  159.3650 N   0  0  0  0  0  0  0  0  0  0  0  0
  147.9923  136.6881  158.3485 C   0  0  0  0  0  0  0  0  0  0  0  0
  149.4493  137.1676  158.4027 C   0  0  0  0  0  0  0  0  0  0  0  0
  150.2438  136.6688  159.2002 O   0  0  0  0  0  0  0  0  0  0  0  0
  149.7833  138.1328  157.5300 N   0  0  0  0  0  0  0  0  0  0  0  0
  151.0938  138.7722  157.3733 C   0  0  0  0  0  0  0  0  0  0  0  0
  152.0544  137.8324  156.7615 C   0  0  0  0  0  0  0  0  0  0  0  0
  152.8069  137.0953  156.2827 N   0  0  0  0  0  0  0  0  0  0  0  0
  150.9177  139.9513  156.3850 C   0  0  0  0  0  0  0  0  0  0  0  0
  150.3793  141.2628  156.9843 C   0  0  0  0  0  0  0  0  0  0  0  0
  151.5027  142.1766  157.5069 C   0  0  0  0  0  0  0  0  0  0  0  0
  152.1737  141.7023  158.8058 C   0  0  0  0  0  0  0  0  0  0  0  0
  152.7288  140.2674  158.7630 C   0  0  0  0  0  0  0  0  0  0  0  0
  151.6129  139.2094  158.7688 C   0  0  0  0  0  0  0  0  0  0  0  0
  147.7551  135.9632  160.6980 C   0  0  0  0  0  0  0  0  0  0  0  0
  148.0732  137.0859  161.0958 O   0  0  0  0  0  0  0  0  0  0  0  0
  147.4299  134.8579  161.6134 C   0  0  0  0  0  0  0  0  0  0  0  0
  147.5055  135.1661  163.0053 C   0  0  0  0  0  0  0  0  0  0  0  0
  147.5456  135.4220  164.1335 N   0  0  0  0  0  0  0  0  0  0  0  0
  146.4845  131.5898  161.6122 H   0  0  0  0  0  0  0  0  0  0  0  0
  145.9103  132.7843  162.7774 H   0  0  0  0  0  0  0  0  0  0  0  0
  147.6085  132.2872  162.7807 H   0  0  0  0  0  0  0  0  0  0  0  0
  146.7632  132.4161  159.3583 H   0  0  0  0  0  0  0  0  0  0  0  0
  147.3130  134.2730  157.8296 H   0  0  0  0  0  0  0  0  0  0  0  0
  147.8003  136.3040  157.3458 H   0  0  0  0  0  0  0  0  0  0  0  0
  147.3197  137.5409  158.4612 H   0  0  0  0  0  0  0  0  0  0  0  0
  149.0552  138.4669  156.9157 H   0  0  0  0  0  0  0  0  0  0  0  0
  151.8667  140.1599  155.8886 H   0  0  0  0  0  0  0  0  0  0  0  0
  150.2556  139.6361  155.5768 H   0  0  0  0  0  0  0  0  0  0  0  0
  149.8571  141.8037  156.1945 H   0  0  0  0  0  0  0  0  0  0  0  0
  149.6328  141.0705  157.7556 H   0  0  0  0  0  0  0  0  0  0  0  0
  152.2597  142.3055  156.7323 H   0  0  0  0  0  0  0  0  0  0  0  0
  151.0906  143.1712  157.6803 H   0  0  0  0  0  0  0  0  0  0  0  0
  152.9909  142.3863  159.0367 H   0  0  0  0  0  0  0  0  0  0  0  0
  151.4708  141.7970  159.6343 H   0  0  0  0  0  0  0  0  0  0  0  0
  153.4034  140.1271  157.9179 H   0  0  0  0  0  0  0  0  0  0  0  0
  153.3370  140.1225  159.6566 H   0  0  0  0  0  0  0  0  0  0  0  0
  150.7881  139.5636  159.3892 H   0  0  0  0  0  0  0  0  0  0  0  0
  151.9900  138.3262  159.2862 H   0  0  0  0  0  0  0  0  0  0  0  0
  1  2  1  0  0  0  0
  1 24  1  0  0  0  0
  1 25  1  0  0  0  0
  1 26  1  0  0  0  0
  2 21  2  0  0  0  0
  2  3  1  0  0  0  0
  3  4  2  0  0  0  0
  3 27  1  0  0  0  0
  4  5  1  0  0  0  0
  4 28  1  0  0  0  0
  5  6  1  0  0  0  0
  5 19  1  0  0  0  0
  6  7  1  0  0  0  0
  6 29  1  0  0  0  0
  6 30  1  0  0  0  0
  7  8  2  0  0  0  0
  7  9  1  0  0  0  0
  9 10  1  0  0  0  0
  9 31  1  0  0  0  0
 10 18  1  0  0  0  0
 10 11  1  0  0  0  0
 10 13  1  0  0  0  0
 11 12  3  0  0  0  0
 13 14  1  0  0  0  0
 13 32  1  0  0  0  0
 13 33  1  0  0  0  0
 14 15  1  0  0  0  0
 14 34  1  0  0  0  0
 14 35  1  0  0  0  0
 15 16  1  0  0  0  0
 15 36  1  0  0  0  0
 15 37  1  0  0  0  0
 16 17  1  0  0  0  0
 16 38  1  0  0  0  0
 16 39  1  0  0  0  0
 17 18  1  0  0  0  0
 17 40  1  0  0  0  0
 17 41  1  0  0  0  0
 18 42  1  0  0  0  0
 18 43  1  0  0  0  0
 19 20  2  0  0  0  0
 19 21  1  0  0  0  0
 21 22  1  0  0  0  0
 22 23  3  0  0  0  0
M  END
> <s_m_source_file>
AV-unprocessed.smi

> <i_m_source_file_index>
2808

> <i_lp_mmshare_version>
43012

> <i_f3d_flags>
0

> <s_epik_input>
W0NIM11jMVtjSF1bY0hdbihjKD1PKWMxQyNOKVtDSDJdQyg9TylbTkhdQzIoQyNOKVtDSDJdW0NIMl1bQ0gyXVtDSDJdW0NIMl1bQ0gyXTI=

> <s_epik_cmdline>
J2VwaWtfcHl0aG9uJywgJy1waCcsICc3LjAnLCAnLXRuJywgJzgnLCAnLW1hJywgJzIwMCcsICctbWV0YWxfYmluZGluZycsICctaW1hZScsICc8aW5maWxlLm1hZT4nLCAnLW9tYWUnLCAnPG91dGZpbGUubWFlPic=

> <r_lp_tautomer_probability>
1

> <r_epik_Ionization_Penalty>
4.51384e-07

> <r_epik_Ionization_Penalty_Charging>
2.41788e-10

> <r_epik_Ionization_Penalty_Neutral>
4.51142e-07

> <r_epik_State_Penalty>
-0

> <r_epik_Charging_Adjusted_Penalty>
2.41788e-10

> <i_epik_Tot_Q>
0

> <i_epik_Tot_abs_Q>
0

> <r_epik_Metal_State_Penalty>
-0

> <b_epik_Metal_Only>
0

> <s_lp_Force_Field>
OPLS_2005

> <r_lp_Energy>
25.2429

> <b_lp_Chiralities_Consistent>
1

> <s_lp_Variant>
AV-unprocessed.smi:2808-1

> <Gold.Version>
5.8.1

> <Gold.Id.Protein>
6NUR|6NUR_protein|mol2

> <Gold.PLP.Fitness>
40.9284

> <Gold.PLP.PLP>
-30.0130

> <Gold.PLP.part.hbond>
-6.0262

> <Gold.PLP.part.metal>
0.0000

> <Gold.PLP.part.buried>
-1.0207

> <Gold.PLP.part.nonpolar>
-23.7703

> <Gold.PLP.part.repulsive>
0.1013

> <Gold.PLP.ligand.clash>
0.0000

> <Gold.PLP.ligand.torsion>
0.1681

> <Gold.PLP.Chemscore.Hbond>
3.7473

> <Gold.PLP.Chemscore.CHOScore>
0.0000

> <Gold.PLP.Chemscore.Metal>
0.0000

> <Gold.Chemscore.Hbonds>
donor molecule, donor type, donor heavy atom, donor atom, acceptor molecule, acceptor atom, score
      P1  H  6888  6897       L1    23  0.39
      P1  H  6896  6908       L1     8  1.00
      P1  H  6931  6943       L1    20  1.00
      P1  H  6934  6947       L1    20  0.53
      P1  H 10752 10764       L1    12  0.78

> <Gold.PLP.Chemscore.Internal.Correction>
0.0097

> <Gold.Rescore>
     Score         DG    S(hbond)    S(metal)    S(lipo)     H(rot)  DE(clash)    DE(int)     intcor
     17.96     -21.95       3.59        0.00      71.56       1.52       2.21       1.78       ----

> <Gold.Chemscore.Fitness>
17.9583

> <Gold.Chemscore.DG>
-21.9545

> <Gold.Chemscore.ZeroCoef>
-5.4800

> <Gold.Chemscore.Hbond>
3.5934

> <Gold.Chemscore.Metal>
0.0000

> <Gold.Chemscore.Lipo>
71.5551

> <Gold.Chemscore.Internal_Hbond>
0.0000

> <Gold.Chemscore.DEClash>
2.2113

> <Gold.Chemscore.DEInternal>
1.7849

> <Gold.Chemscore.Rot>
1.5232

> <Gold.Chemscore.Internal.Correction>
   9.000000E+99

> <Gold.Chemscore.Hbonds>
donor molecule, donor type, donor heavy atom, donor atom, acceptor molecule, acceptor atom, score
      P1  H  6888  6897       L1    23  0.38
      P1  H  6896  6908       L1     8  1.00
      P1  H  6931  6943       L1    20  0.96
      P1  H  6934  6947       L1    20  0.52
      P1  H 10752 10764       L1    12  0.72

> <Gold.Chemscore.Hbond.Weighted>
-12.0021

> <Gold.Chemscore.Metal.Weighted>
-0.0000

> <Gold.Chemscore.Lipo.Weighted>
-8.3719

> <Gold.Chemscore.Internal_Hbond.Weighted>
0.0000

> <Gold.Chemscore.DEClash.Weighted>
2.2113

> <Gold.Chemscore.DEInternal.Weighted>
1.7849

> <Gold.Chemscore.Rot.Weighted>
3.8995

> <Gold.Chemscore.Internal.Correction.Weighted>
   9.000000E+99

> <Gold.Protein.RotatedTorsions>
[ 6907 6896 6895 6894 ] final -155.01 input  -60.11 | X-H torsion
[ 7974 7965 7964 7962 ] final  -64.08 input  175.53 | X-H torsion
[ 8008 7997 7996 7995 ] final  122.10 input   59.86 | X-H torsion
[ 10167 10162 10161 10158 ] final  161.05 input  -65.29 | X-H torsion
[ 10718 10713 10712 10709 ] final -133.30 input   66.30 | X-H torsion
[ 10763 10752 10751 10750 ] final  -17.88 input  -60.55 | X-H torsion
[ 11005 11000 10999 10996 ] final -169.05 input  -57.11 | X-H torsion

> <Gold.Protein.ActiveResidues>
 VAL166  LYS551  ARG553  GLY616  TRP617  ASP618  TYR619  PRO620  LYS621  CYS622 
 ASP623  PHE694  ASN695  SER759  ASP760  ASP761  ALA762  ILE779  LEU786  VAL792 
 PHE793  MET794  SER795  GLU796  ALA797  LYS798  CYS799  TRP800  GLU811  SER814 

> <Gold.Protein.RotatedAtoms>
  151.2660  133.4278  159.2618 H   0  0  0  0  0  0  0  0  0  0  0  0  # atno 6907 bound_to 6896
  151.0488  134.9658  159.8210 H   0  0  0  0  0  0  0  0  0  0  0  0  # atno 6908 bound_to 6896
  152.5379  134.2615  159.8990 H   0  0  0  0  0  0  0  0  0  0  0  0  # atno 6909 bound_to 6896
  145.7711  140.8812  143.0379 H   0  0  0  0  0  0  0  0  0  0  0  0  # atno 7974 bound_to 7965
  156.2714  140.2793  156.1414 H   0  0  0  0  0  0  0  0  0  0  0  0  # atno 8008 bound_to 7997
  155.0949  140.0389  157.2697 H   0  0  0  0  0  0  0  0  0  0  0  0  # atno 8009 bound_to 7997
  154.6860  140.2619  155.6866 H   0  0  0  0  0  0  0  0  0  0  0  0  # atno 8010 bound_to 7997
  139.4845  144.4575  151.8749 H   0  0  0  0  0  0  0  0  0  0  0  0  # atno 10167 bound_to 10162
  156.2434  130.7110  151.0980 H   0  0  0  0  0  0  0  0  0  0  0  0  # atno 10718 bound_to 10713
  153.5807  135.7005  153.5465 H   0  0  0  0  0  0  0  0  0  0  0  0  # atno 10763 bound_to 10752
  153.3264  135.4059  155.1459 H   0  0  0  0  0  0  0  0  0  0  0  0  # atno 10764 bound_to 10752
  154.8618  135.3708  154.5334 H   0  0  0  0  0  0  0  0  0  0  0  0  # atno 10765 bound_to 10752
  140.5351  134.5578  157.5085 H   0  0  0  0  0  0  0  0  0  0  0  0  # atno 11005 bound_to 11000
  144.6812  139.9857  143.7484 LP  0  0  0  0  0  0  0  0  0  0  0  0  # atno 17320 bound_to 7965
  146.0168  139.3217  143.0837 LP  0  0  0  0  0  0  0  0  0  0  0  0  # atno 17321 bound_to 7965
  140.4035  144.2462  150.5892 LP  0  0  0  0  0  0  0  0  0  0  0  0  # atno 17342 bound_to 10162
  140.5034  143.2311  151.8644 LP  0  0  0  0  0  0  0  0  0  0  0  0  # atno 17343 bound_to 10162
  157.7185  131.0696  150.6232 LP  0  0  0  0  0  0  0  0  0  0  0  0  # atno 17370 bound_to 10713
  156.6307  130.4431  149.5788 LP  0  0  0  0  0  0  0  0  0  0  0  0  # atno 17371 bound_to 10713
  139.9533  134.7578  156.0398 LP  0  0  0  0  0  0  0  0  0  0  0  0  # atno 17394 bound_to 11000
  141.1259  133.6599  156.3335 LP  0  0  0  0  0  0  0  0  0  0  0  0  # atno 17395 bound_to 11000

$$$$
