AV-unprocessed.smi:3249|AV-procd|sdf|12419|dock3
  -GOLD-   2272018303D 1   1.00000     0.00000
 Structure written by MMmdl.
 44 45  0  0  0  0  0  0  0  0  2 V2000
  147.2975  142.2265  154.2911 C   0  0  0  0  0  0  0  0  0  0  0  0
  148.5376  141.4200  154.5488 C   0  0  0  0  0  0  0  0  0  0  0  0
  148.9533  140.2233  153.8998 C   0  0  0  0  0  0  0  0  0  0  0  0
  150.1079  139.7665  154.3560 N   0  0  0  0  0  0  0  0  0  0  0  0
  150.4634  140.6406  155.3223 N   0  0  0  0  0  0  0  0  0  0  0  0
  151.7260  140.4588  156.0305 C   0  0  2  0  0  0  0  0  0  0  0  0
  152.4921  139.2643  155.4312 C   0  0  0  0  0  0  0  0  0  0  0  0
  151.4839  140.3381  157.5578 C   0  0  1  0  0  0  0  0  0  0  0  0
  150.8321  138.9985  157.9505 C   0  0  0  0  0  0  0  0  0  0  0  0
  152.7663  140.5047  158.2821 N   0  3  0  0  0  0  0  0  0  0  0  0
  152.6694  140.4950  159.7569 C   0  0  0  0  0  0  0  0  0  0  0  0
  152.7714  141.9161  160.3314 C   0  0  2  0  0  0  0  0  0  0  0  0
  152.2217  142.0183  161.7696 C   0  0  0  0  0  0  0  0  0  0  0  0
  152.2554  143.4711  162.2574 C   0  0  0  0  0  0  0  0  0  0  0  0
  151.5402  144.3729  161.2461 C   0  0  0  0  0  0  0  0  0  0  0  0
  152.1118  144.1532  159.8369 C   0  0  0  0  0  0  0  0  0  0  0  0
  152.0154  142.7766  159.4830 O   0  0  0  0  0  0  0  0  0  0  0  0
  149.5360  141.6557  155.4504 C   0  0  0  0  0  0  0  0  0  0  0  0
  146.5841  141.6859  153.6688 H   0  0  0  0  0  0  0  0  0  0  0  0
  147.5262  143.1615  153.7795 H   0  0  0  0  0  0  0  0  0  0  0  0
  146.7840  142.4836  155.2177 H   0  0  0  0  0  0  0  0  0  0  0  0
  148.4557  139.6796  153.1101 H   0  0  0  0  0  0  0  0  0  0  0  0
  152.3329  141.3489  155.8523 H   0  0  0  0  0  0  0  0  0  0  0  0
  153.5124  139.2092  155.8097 H   0  0  0  0  0  0  0  0  0  0  0  0
  152.5625  139.3515  154.3464 H   0  0  0  0  0  0  0  0  0  0  0  0
  152.0008  138.3174  155.6570 H   0  0  0  0  0  0  0  0  0  0  0  0
  150.8161  141.1485  157.8557 H   0  0  0  0  0  0  0  0  0  0  0  0
  149.8450  138.8850  157.5037 H   0  0  0  0  0  0  0  0  0  0  0  0
  150.6940  138.9183  159.0284 H   0  0  0  0  0  0  0  0  0  0  0  0
  151.4421  138.1528  157.6316 H   0  0  0  0  0  0  0  0  0  0  0  0
  153.4101  139.7877  157.9799 H   0  0  0  0  0  0  0  0  0  0  0  0
  151.7066  140.0644  160.0356 H   0  0  0  0  0  0  0  0  0  0  0  0
  153.4407  139.8571  160.1886 H   0  0  0  0  0  0  0  0  0  0  0  0
  153.8157  142.2336  160.3073 H   0  0  0  0  0  0  0  0  0  0  0  0
  151.1956  141.6492  161.7988 H   0  0  0  0  0  0  0  0  0  0  0  0
  152.7993  141.3892  162.4476 H   0  0  0  0  0  0  0  0  0  0  0  0
  151.7888  143.5547  163.2393 H   0  0  0  0  0  0  0  0  0  0  0  0
  153.2900  143.7966  162.3727 H   0  0  0  0  0  0  0  0  0  0  0  0
  150.4729  144.1483  161.2440 H   0  0  0  0  0  0  0  0  0  0  0  0
  151.6398  145.4192  161.5357 H   0  0  0  0  0  0  0  0  0  0  0  0
  151.5529  144.7430  159.1104 H   0  0  0  0  0  0  0  0  0  0  0  0
  153.1506  144.4827  159.7821 H   0  0  0  0  0  0  0  0  0  0  0  0
  149.6622  142.4569  156.1638 H   0  0  0  0  0  0  0  0  0  0  0  0
  153.1450  141.4029  158.0158 H   0  0  0  0  0  0  0  0  0  0  0  0
  1  2  1  0  0  0  0
  1 19  1  0  0  0  0
  1 20  1  0  0  0  0
  1 21  1  0  0  0  0
  2 18  2  0  0  0  0
  2  3  1  0  0  0  0
  3  4  2  0  0  0  0
  3 22  1  0  0  0  0
  4  5  1  0  0  0  0
  5  6  1  0  0  0  0
  5 18  1  0  0  0  0
  6  7  1  0  0  0  0
  6  8  1  0  0  0  0
  6 23  1  0  0  0  0
  7 24  1  0  0  0  0
  7 25  1  0  0  0  0
  7 26  1  0  0  0  0
  8  9  1  0  0  0  0
  8 10  1  0  0  0  0
  8 27  1  0  0  0  0
  9 28  1  0  0  0  0
  9 29  1  0  0  0  0
  9 30  1  0  0  0  0
 10 11  1  0  0  0  0
 10 31  1  0  0  0  0
 10 44  1  0  0  0  0
 11 12  1  0  0  0  0
 11 32  1  0  0  0  0
 11 33  1  0  0  0  0
 12 17  1  0  0  0  0
 12 13  1  0  0  0  0
 12 34  1  0  0  0  0
 13 14  1  0  0  0  0
 13 35  1  0  0  0  0
 13 36  1  0  0  0  0
 14 15  1  0  0  0  0
 14 37  1  0  0  0  0
 14 38  1  0  0  0  0
 15 16  1  0  0  0  0
 15 39  1  0  0  0  0
 15 40  1  0  0  0  0
 16 17  1  0  0  0  0
 16 41  1  0  0  0  0
 16 42  1  0  0  0  0
 18 43  1  0  0  0  0
M  CHG  1  10   1
M  END
> <s_m_source_file>
AV-unprocessed.smi

> <i_m_source_file_index>
3249

> <i_lp_mmshare_version>
43012

> <i_f3d_flags>
0

> <s_epik_input>
W0NIM11jMVtjSF1ubihbY0hdMSlbQ0BIXShbQ0gzXSlbQ0BIXShbQ0gzXSlbTkhdW0NIMl1bQ0BASF0yW0NIMl1bQ0gyXVtDSDJdW0NIMl1PMg==

> <s_epik_cmdline>
J2VwaWtfcHl0aG9uJywgJy1waCcsICc3LjAnLCAnLXRuJywgJzgnLCAnLW1hJywgJzIwMCcsICctbWV0YWxfYmluZGluZycsICctaW1hZScsICc8aW5maWxlLm1hZT4nLCAnLW9tYWUnLCAnPG91dGZpbGUubWFlPic=

> <r_lp_tautomer_probability>
1

> <r_epik_Ionization_Penalty>
0.00659207

> <r_epik_Ionization_Penalty_Charging>
0.00656881

> <r_epik_Ionization_Penalty_Neutral>
2.32662e-05

> <r_epik_State_Penalty>
0.0048654

> <r_epik_Charging_Adjusted_Penalty>
0.0114342

> <i_epik_Tot_Q>
1

> <i_epik_Tot_abs_Q>
1

> <r_epik_Metal_State_Penalty>
-0

> <b_epik_Metal_Only>
0

> <s_lp_Force_Field>
OPLS_2005

> <r_lp_Energy>
18.0919

> <b_lp_Chiralities_Consistent>
1

> <s_lp_Variant>
AV-unprocessed.smi:3249-3

> <Gold.Version>
5.8.1

> <Gold.Id.Protein>
6NUR|6NUR_protein|mol2

> <Gold.PLP.Fitness>
46.6493

> <Gold.PLP.PLP>
-43.7902

> <Gold.PLP.part.hbond>
-0.1382

> <Gold.PLP.part.metal>
0.0000

> <Gold.PLP.part.buried>
-2.4671

> <Gold.PLP.part.nonpolar>
-42.0605

> <Gold.PLP.part.repulsive>
0.8888

> <Gold.PLP.ligand.clash>
0.0000

> <Gold.PLP.ligand.torsion>
0.6428

> <Gold.PLP.Chemscore.Hbond>
0.0000

> <Gold.PLP.Chemscore.CHOScore>
1.3510

> <Gold.PLP.Chemscore.Metal>
0.0000

> <Gold.Chemscore.Hbonds>
donor molecule, donor type, donor heavy atom, donor atom, acceptor molecule, acceptor atom, score
      L1  C     3    22       P1  7957  0.57
      L1  C    18    43       P1  8028  0.82

> <Gold.PLP.Chemscore.Internal.Correction>
0.0917

> <Gold.Rescore>
     Score         DG    S(hbond)    S(metal)    S(lipo)     H(rot)  DE(clash)    DE(int)     intcor
     14.21     -14.83       0.00        0.00     113.47       1.53       0.11       0.51       ----

> <Gold.Chemscore.Fitness>
14.2129

> <Gold.Chemscore.DG>
-14.8310

> <Gold.Chemscore.ZeroCoef>
-5.4800

> <Gold.Chemscore.Hbond>
0.0000

> <Gold.Chemscore.Metal>
0.0000

> <Gold.Chemscore.Lipo>
113.4718

> <Gold.Chemscore.Internal_Hbond>
0.0000

> <Gold.Chemscore.DEClash>
0.1084

> <Gold.Chemscore.DEInternal>
0.5097

> <Gold.Chemscore.Rot>
1.5333

> <Gold.Chemscore.Internal.Correction>
   9.000000E+99

> <Gold.Chemscore.Hbond.Weighted>
-0.0000

> <Gold.Chemscore.Metal.Weighted>
-0.0000

> <Gold.Chemscore.Lipo.Weighted>
-13.2762

> <Gold.Chemscore.Internal_Hbond.Weighted>
0.0000

> <Gold.Chemscore.DEClash.Weighted>
0.1084

> <Gold.Chemscore.DEInternal.Weighted>
0.5097

> <Gold.Chemscore.Rot.Weighted>
3.9252

> <Gold.Chemscore.Internal.Correction.Weighted>
   9.000000E+99

> <Gold.Protein.RotatedTorsions>
[ 6907 6896 6895 6894 ] final  -36.51 input  -60.11 | X-H torsion
[ 7974 7965 7964 7962 ] final -153.06 input  175.53 | X-H torsion
[ 8008 7997 7996 7995 ] final  -99.09 input   59.86 | X-H torsion
[ 10167 10162 10161 10158 ] final  -16.75 input  -65.29 | X-H torsion
[ 10718 10713 10712 10709 ] final -161.73 input   66.30 | X-H torsion
[ 10763 10752 10751 10750 ] final -109.96 input  -60.55 | X-H torsion
[ 11005 11000 10999 10996 ] final -107.05 input  -57.11 | X-H torsion

> <Gold.Protein.ActiveResidues>
 VAL166  LYS551  ARG553  GLY616  TRP617  ASP618  TYR619  PRO620  LYS621  CYS622 
 ASP623  PHE694  ASN695  SER759  ASP760  ASP761  ALA762  ILE779  LEU786  VAL792 
 PHE793  MET794  SER795  GLU796  ALA797  LYS798  CYS799  TRP800  GLU811  SER814 

> <Gold.Protein.RotatedAtoms>
  151.0263  134.9506  159.8086 H   0  0  0  0  0  0  0  0  0  0  0  0  # atno 6907 bound_to 6896
  152.5336  134.2838  159.9027 H   0  0  0  0  0  0  0  0  0  0  0  0  # atno 6908 bound_to 6896
  151.2847  133.4151  159.2663 H   0  0  0  0  0  0  0  0  0  0  0  0  # atno 6909 bound_to 6896
  144.7761  140.4578  143.5872 H   0  0  0  0  0  0  0  0  0  0  0  0  # atno 7974 bound_to 7965
  154.8101  140.0450  157.1336 H   0  0  0  0  0  0  0  0  0  0  0  0  # atno 8008 bound_to 7997
  154.9379  140.3048  155.5115 H   0  0  0  0  0  0  0  0  0  0  0  0  # atno 8009 bound_to 7997
  156.2971  140.2311  156.4445 H   0  0  0  0  0  0  0  0  0  0  0  0  # atno 8010 bound_to 7997
  140.7238  143.5085  150.9780 H   0  0  0  0  0  0  0  0  0  0  0  0  # atno 10167 bound_to 10162
  156.6004  130.8808  151.2912 H   0  0  0  0  0  0  0  0  0  0  0  0  # atno 10718 bound_to 10713
  154.8222  135.4581  154.0812 H   0  0  0  0  0  0  0  0  0  0  0  0  # atno 10763 bound_to 10752
  153.2156  135.6887  153.8067 H   0  0  0  0  0  0  0  0  0  0  0  0  # atno 10764 bound_to 10752
  153.7503  135.3299  155.3296 H   0  0  0  0  0  0  0  0  0  0  0  0  # atno 10765 bound_to 10752
  141.0974  133.8947  157.1929 H   0  0  0  0  0  0  0  0  0  0  0  0  # atno 11005 bound_to 11000
  145.6183  139.1521  143.3037 LP  0  0  0  0  0  0  0  0  0  0  0  0  # atno 17320 bound_to 7965
  146.1941  140.6294  142.9132 LP  0  0  0  0  0  0  0  0  0  0  0  0  # atno 17321 bound_to 7965
  139.8797  143.7087  152.3158 LP  0  0  0  0  0  0  0  0  0  0  0  0  # atno 17342 bound_to 10162
  139.7365  144.7570  151.0719 LP  0  0  0  0  0  0  0  0  0  0  0  0  # atno 17343 bound_to 10162
  157.7281  130.9652  150.1728 LP  0  0  0  0  0  0  0  0  0  0  0  0  # atno 17370 bound_to 10713
  156.2474  130.3697  149.8269 LP  0  0  0  0  0  0  0  0  0  0  0  0  # atno 17371 bound_to 10713
  139.9814  135.0097  156.9759 LP  0  0  0  0  0  0  0  0  0  0  0  0  # atno 17394 bound_to 11000
  140.5107  134.1005  155.7270 LP  0  0  0  0  0  0  0  0  0  0  0  0  # atno 17395 bound_to 11000

$$$$
