AV-unprocessed.smi:697|AV-procd|sdf|3396|dock4
  -GOLD-   22720 0373D 1   1.00000     0.00000
 Structure written by MMmdl.
 43 44  0  0  0  0  0  0  0  0  2 V2000
  148.0837  141.9944  154.1253 C   0  0  0  0  0  0  0  0  0  0  0  0
  149.2895  141.3050  153.8214 O   0  0  0  0  0  0  0  0  0  0  0  0
  149.7734  140.4049  154.8197 C   0  0  2  0  0  0  0  0  0  0  0  0
  150.2459  141.1913  156.0524 C   0  0  0  0  0  0  0  0  0  0  0  0
  150.7240  139.3456  154.2330 C   0  0  0  0  0  0  0  0  0  0  0  0
  149.9749  138.3260  155.0877 C   0  0  2  0  0  0  0  0  0  0  0  0
  149.8206  137.0380  154.4202 N   0  0  0  0  0  0  0  0  0  0  0  0
  149.8985  135.8512  155.0365 C   0  0  0  0  0  0  0  0  0  0  0  0
  150.1391  135.7335  156.2378 O   0  0  0  0  0  0  0  0  0  0  0  0
  149.6829  134.8476  154.1667 N   0  0  0  0  0  0  0  0  0  0  0  0
  149.6272  133.4605  154.3885 C   0  0  0  0  0  0  0  0  0  0  0  0
  150.4313  132.7718  155.2456 C   0  0  0  0  0  0  0  0  0  0  0  0
  150.3123  131.3327  155.4415 C   0  0  0  0  0  0  0  0  0  0  0  0
  151.2523  130.5218  156.3160 C   0  0  0  0  0  0  0  0  0  0  0  0
  150.5814  129.8634  157.2614 F   0  0  0  0  0  0  0  0  0  0  0  0
  151.9349  129.6361  155.5903 F   0  0  0  0  0  0  0  0  0  0  0  0
  152.1259  131.3306  156.9134 F   0  0  0  0  0  0  0  0  0  0  0  0
  149.3181  130.7774  154.6597 C   0  0  0  0  0  0  0  0  0  0  0  0
  148.4649  131.3878  153.8086 N   0  5  0  0  0  0  0  0  0  0  0  0
  148.5827  132.7346  153.6358 C   0  0  0  0  0  0  0  0  0  0  0  0
  147.8401  133.3525  152.8719 O   0  0  0  0  0  0  0  0  0  0  0  0
  148.7341  139.2526  155.0106 C   0  0  0  0  0  0  0  0  0  0  0  0
  147.8644  139.3082  156.2709 C   0  0  0  0  0  0  0  0  0  0  0  0
  147.7604  139.0157  153.8381 C   0  0  0  0  0  0  0  0  0  0  0  0
  147.8823  142.7223  153.3397 H   0  0  0  0  0  0  0  0  0  0  0  0
  148.1494  142.5375  155.0682 H   0  0  0  0  0  0  0  0  0  0  0  0
  147.2295  141.3194  154.1671 H   0  0  0  0  0  0  0  0  0  0  0  0
  150.4875  140.5329  156.8864 H   0  0  0  0  0  0  0  0  0  0  0  0
  149.4799  141.8865  156.3966 H   0  0  0  0  0  0  0  0  0  0  0  0
  151.1479  141.7668  155.8459 H   0  0  0  0  0  0  0  0  0  0  0  0
  150.6020  139.1928  153.1589 H   0  0  0  0  0  0  0  0  0  0  0  0
  151.7731  139.4743  154.5007 H   0  0  0  0  0  0  0  0  0  0  0  0
  150.3943  138.2548  156.0938 H   0  0  0  0  0  0  0  0  0  0  0  0
  149.6252  137.0528  153.4300 H   0  0  0  0  0  0  0  0  0  0  0  0
  149.5511  135.1144  153.2019 H   0  0  0  0  0  0  0  0  0  0  0  0
  151.1824  133.2748  155.8309 H   0  0  0  0  0  0  0  0  0  0  0  0
  149.1906  129.6759  154.7259 H   0  0  0  0  0  0  0  0  0  0  0  0
  147.2149  138.4356  156.3490 H   0  0  0  0  0  0  0  0  0  0  0  0
  147.2285  140.1938  156.2776 H   0  0  0  0  0  0  0  0  0  0  0  0
  148.4643  139.3308  157.1802 H   0  0  0  0  0  0  0  0  0  0  0  0
  147.2032  138.0861  153.9585 H   0  0  0  0  0  0  0  0  0  0  0  0
  148.2739  138.9567  152.8785 H   0  0  0  0  0  0  0  0  0  0  0  0
  147.0288  139.8204  153.7596 H   0  0  0  0  0  0  0  0  0  0  0  0
  1  2  1  0  0  0  0
  1 25  1  0  0  0  0
  1 26  1  0  0  0  0
  1 27  1  0  0  0  0
  2  3  1  0  0  0  0
  3 22  1  0  0  0  0
  3  4  1  0  0  0  0
  3  5  1  0  0  0  0
  4 28  1  0  0  0  0
  4 29  1  0  0  0  0
  4 30  1  0  0  0  0
  5  6  1  0  0  0  0
  5 31  1  0  0  0  0
  5 32  1  0  0  0  0
  6  7  1  0  0  0  0
  6 22  1  0  0  0  0
  6 33  1  0  0  0  0
  7  8  1  0  0  0  0
  7 34  1  0  0  0  0
  8  9  2  0  0  0  0
  8 10  1  0  0  0  0
 10 11  1  0  0  0  0
 10 35  1  0  0  0  0
 11 20  1  0  0  0  0
 11 12  2  0  0  0  0
 12 13  1  0  0  0  0
 12 36  1  0  0  0  0
 13 14  1  0  0  0  0
 13 18  2  0  0  0  0
 14 15  1  0  0  0  0
 14 16  1  0  0  0  0
 14 17  1  0  0  0  0
 18 19  1  0  0  0  0
 18 37  1  0  0  0  0
 19 20  1  0  0  0  0
 20 21  2  0  0  0  0
 22 23  1  0  0  0  0
 22 24  1  0  0  0  0
 23 38  1  0  0  0  0
 23 39  1  0  0  0  0
 23 40  1  0  0  0  0
 24 41  1  0  0  0  0
 24 42  1  0  0  0  0
 24 43  1  0  0  0  0
M  CHG  1  19  -1
M  END
> <s_m_source_file>
AV-unprocessed.smi

> <i_m_source_file_index>
697

> <i_lp_mmshare_version>
43012

> <i_f3d_flags>
0

> <s_epik_input>
W0NIM11PW0NAQF0xKFtDSDNdKVtDSDJdW0NASF0oQzEoW0NIM10pW0NIM10pW05IXUMoPU8pW05IXWMyW2NIXWMoQyhGKShGKUYpW2NIXVtuSF1jMj1P

> <s_epik_cmdline>
J2VwaWtfcHl0aG9uJywgJy1waCcsICc3LjAnLCAnLXRuJywgJzgnLCAnLW1hJywgJzIwMCcsICctbWV0YWxfYmluZGluZycsICctaW1hZScsICc8aW5maWxlLm1hZT4nLCAnLW9tYWUnLCAnPG91dGZpbGUubWFlPic=

> <r_lp_tautomer_probability>
1

> <r_epik_Ionization_Penalty>
3.20094

> <r_epik_Ionization_Penalty_Charging>
0.180017

> <r_epik_Ionization_Penalty_Neutral>
3.02092

> <r_epik_State_Penalty>
3.01726

> <r_epik_Charging_Adjusted_Penalty>
3.19727

> <i_epik_Tot_Q>
-1

> <i_epik_Tot_abs_Q>
1

> <r_epik_Metal_State_Penalty>
0.455096

> <b_epik_Metal_Only>
1

> <s_lp_Force_Field>
OPLS_2005

> <r_lp_Energy>
36.1222

> <b_lp_Chiralities_Consistent>
1

> <s_lp_Variant>
AV-unprocessed.smi:697-8

> <Gold.Version>
5.8.1

> <Gold.Id.Protein>
6NUR|6NUR_protein|mol2

> <Gold.PLP.Fitness>
40.2915

> <Gold.PLP.PLP>
-34.3015

> <Gold.PLP.part.hbond>
-4.2574

> <Gold.PLP.part.metal>
0.0000

> <Gold.PLP.part.buried>
-1.5916

> <Gold.PLP.part.nonpolar>
-29.3115

> <Gold.PLP.part.repulsive>
1.7250

> <Gold.PLP.ligand.clash>
0.0000

> <Gold.PLP.ligand.torsion>
0.6104

> <Gold.PLP.Chemscore.Hbond>
2.2640

> <Gold.PLP.Chemscore.CHOScore>
0.0000

> <Gold.PLP.Chemscore.Metal>
0.0000

> <Gold.Chemscore.Hbonds>
donor molecule, donor type, donor heavy atom, donor atom, acceptor molecule, acceptor atom, score
      L1  H     7    34       P1  7948  1.00
      L1  H    10    35       P1  7948  0.35
      P1  H  8011  8017       L1     2  0.67

> <Gold.PLP.Chemscore.Internal.Correction>
0.4188

> <Gold.Rescore>
     Score         DG    S(hbond)    S(metal)    S(lipo)     H(rot)  DE(clash)    DE(int)     intcor
     11.98     -13.88       1.20        0.00      65.77       1.30       1.16       0.73       ----

> <Gold.Chemscore.Fitness>
11.9838

> <Gold.Chemscore.DG>
-13.8751

> <Gold.Chemscore.ZeroCoef>
-5.4800

> <Gold.Chemscore.Hbond>
1.2039

> <Gold.Chemscore.Metal>
0.0000

> <Gold.Chemscore.Lipo>
65.7708

> <Gold.Chemscore.Internal_Hbond>
0.0000

> <Gold.Chemscore.DEClash>
1.1608

> <Gold.Chemscore.DEInternal>
0.7304

> <Gold.Chemscore.Rot>
1.2973

> <Gold.Chemscore.Internal.Correction>
   9.000000E+99

> <Gold.Chemscore.Hbonds>
donor molecule, donor type, donor heavy atom, donor atom, acceptor molecule, acceptor atom, score
      L1  H     7    34       P1  7948  0.72
      L1  H    10    35       P1  7948  0.01
      P1  H  8011  8017       L1     2  0.10

> <Gold.Chemscore.Hbond.Weighted>
-4.0209

> <Gold.Chemscore.Metal.Weighted>
-0.0000

> <Gold.Chemscore.Lipo.Weighted>
-7.6952

> <Gold.Chemscore.Internal_Hbond.Weighted>
0.0000

> <Gold.Chemscore.DEClash.Weighted>
1.1608

> <Gold.Chemscore.DEInternal.Weighted>
0.7304

> <Gold.Chemscore.Rot.Weighted>
3.3210

> <Gold.Chemscore.Internal.Correction.Weighted>
   9.000000E+99

> <Gold.Protein.RotatedTorsions>
[ 6907 6896 6895 6894 ] final  122.08 input  -60.11 | X-H torsion
[ 7974 7965 7964 7962 ] final  -14.36 input  175.53 | X-H torsion
[ 8008 7997 7996 7995 ] final -153.53 input   59.86 | X-H torsion
[ 10167 10162 10161 10158 ] final  -80.26 input  -65.29 | X-H torsion
[ 10718 10713 10712 10709 ] final  -20.17 input   66.30 | X-H torsion
[ 10763 10752 10751 10750 ] final  119.54 input  -60.55 | X-H torsion
[ 11005 11000 10999 10996 ] final  166.37 input  -57.11 | X-H torsion

> <Gold.Protein.ActiveResidues>
 VAL166  LYS551  ARG553  GLY616  TRP617  ASP618  TYR619  PRO620  LYS621  CYS622 
 ASP623  PHE694  ASN695  SER759  ASP760  ASP761  ALA762  ILE779  LEU786  VAL792 
 PHE793  MET794  SER795  GLU796  ALA797  LYS798  CYS799  TRP800  GLU811  SER814 

> <Gold.Protein.RotatedAtoms>
  152.4271  133.7214  159.6535 H   0  0  0  0  0  0  0  0  0  0  0  0  # atno 6907 bound_to 6896
  150.8148  133.8345  159.3171 H   0  0  0  0  0  0  0  0  0  0  0  0  # atno 6908 bound_to 6896
  151.6044  135.1047  160.0119 H   0  0  0  0  0  0  0  0  0  0  0  0  # atno 6909 bound_to 6896
  146.2077  140.3338  142.8401 H   0  0  0  0  0  0  0  0  0  0  0  0  # atno 7974 bound_to 7965
  155.6722  140.0734  157.2516 H   0  0  0  0  0  0  0  0  0  0  0  0  # atno 8008 bound_to 7997
  154.4121  140.1697  156.1943 H   0  0  0  0  0  0  0  0  0  0  0  0  # atno 8009 bound_to 7997
  155.9606  140.3370  155.6491 H   0  0  0  0  0  0  0  0  0  0  0  0  # atno 8010 bound_to 7997
  140.4519  143.2480  151.8476 H   0  0  0  0  0  0  0  0  0  0  0  0  # atno 10167 bound_to 10162
  156.5355  130.4665  149.6525 H   0  0  0  0  0  0  0  0  0  0  0  0  # atno 10718 bound_to 10713
  153.5846  135.3477  155.2888 H   0  0  0  0  0  0  0  0  0  0  0  0  # atno 10763 bound_to 10752
  154.8662  135.4190  154.2582 H   0  0  0  0  0  0  0  0  0  0  0  0  # atno 10764 bound_to 10752
  153.3376  135.7048  153.6965 H   0  0  0  0  0  0  0  0  0  0  0  0  # atno 10765 bound_to 10752
  140.2658  134.7866  157.3631 H   0  0  0  0  0  0  0  0  0  0  0  0  # atno 11005 bound_to 11000
  144.8834  140.7430  143.5972 LP  0  0  0  0  0  0  0  0  0  0  0  0  # atno 17320 bound_to 7965
  145.3258  139.1774  143.4563 LP  0  0  0  0  0  0  0  0  0  0  0  0  # atno 17321 bound_to 7965
  139.4797  144.5109  151.8933 LP  0  0  0  0  0  0  0  0  0  0  0  0  # atno 17342 bound_to 10162
  140.4196  144.2260  150.5887 LP  0  0  0  0  0  0  0  0  0  0  0  0  # atno 17343 bound_to 10162
  156.3020  130.7182  151.2056 LP  0  0  0  0  0  0  0  0  0  0  0  0  # atno 17370 bound_to 10713
  157.7414  131.0504  150.5096 LP  0  0  0  0  0  0  0  0  0  0  0  0  # atno 17371 bound_to 10713
  140.1421  134.4958  155.8024 LP  0  0  0  0  0  0  0  0  0  0  0  0  # atno 17394 bound_to 11000
  141.2184  133.6829  156.7228 LP  0  0  0  0  0  0  0  0  0  0  0  0  # atno 17395 bound_to 11000

$$$$
