AV-unprocessed.smi:876|AV-procd|sdf|4021|dock3
  -GOLD-   22720 1503D 1   1.00000     0.00000
 Structure written by MMmdl.
 41 42  0  0  0  0  0  0  0  0  2 V2000
  153.4075  142.6091  162.6235 C   0  0  0  0  0  0  0  0  0  0  0  0
  153.5860  141.8634  161.3844 N   0  0  0  0  0  0  0  0  0  0  0  0
  154.5770  140.7961  161.3050 C   0  0  0  0  0  0  0  0  0  0  0  0
  152.7294  142.1078  160.2891 C   0  0  0  0  0  0  0  0  0  0  0  0
  152.0660  143.3425  160.0831 C   0  0  0  0  0  0  0  0  0  0  0  0
  151.2254  143.5131  158.9637 C   0  0  0  0  0  0  0  0  0  0  0  0
  151.0582  142.4471  158.0462 C   0  0  0  0  0  0  0  0  0  0  0  0
  150.2244  142.5058  156.8969 N   0  0  0  0  0  0  0  0  0  0  0  0
  150.0545  141.5804  155.9367 C   0  0  0  0  0  0  0  0  0  0  0  0
  150.6025  140.4787  155.9049 O   0  0  0  0  0  0  0  0  0  0  0  0
  149.1837  141.9994  155.0080 N   0  0  0  0  0  0  0  0  0  0  0  0
  148.7678  141.2237  153.8450 C   0  0  2  0  0  0  0  0  0  0  0  0
  147.5058  141.7914  153.2556 C   0  0  0  0  0  0  0  0  0  0  0  0
  146.5120  140.9068  153.2191 C   0  0  0  0  0  0  0  0  0  0  0  0
  146.8960  139.5692  153.7986 C   0  0  1  0  0  0  0  0  0  0  0  0
  146.6843  138.4088  152.8108 C   0  0  0  0  0  0  0  0  0  0  0  0
  147.4195  138.6246  151.6242 O   0  0  0  0  0  0  0  0  0  0  0  0
  148.3803  139.7642  154.2019 C   0  0  0  0  0  0  0  0  0  0  0  0
  151.7290  141.2351  158.3047 C   0  0  0  0  0  0  0  0  0  0  0  0
  152.5246  141.1152  159.3890 N   0  3  0  0  0  0  0  0  0  0  0  0
  149.5453  141.2433  153.0791 H   0  0  0  0  0  0  0  0  0  0  0  0
  146.2953  139.4037  154.6942 H   0  0  0  0  0  0  0  0  0  0  0  0
  152.4048  142.4549  163.0236 H   0  0  0  0  0  0  0  0  0  0  0  0
  153.5554  143.6761  162.4531 H   0  0  0  0  0  0  0  0  0  0  0  0
  154.1216  142.2919  163.3837 H   0  0  0  0  0  0  0  0  0  0  0  0
  155.2446  140.9528  160.4571 H   0  0  0  0  0  0  0  0  0  0  0  0
  154.0883  139.8281  161.1886 H   0  0  0  0  0  0  0  0  0  0  0  0
  155.1897  140.7558  162.2058 H   0  0  0  0  0  0  0  0  0  0  0  0
  152.1840  144.1670  160.7705 H   0  0  0  0  0  0  0  0  0  0  0  0
  150.7162  144.4564  158.8412 H   0  0  0  0  0  0  0  0  0  0  0  0
  149.6428  143.3280  156.8252 H   0  0  0  0  0  0  0  0  0  0  0  0
  148.7733  142.9158  155.1133 H   0  0  0  0  0  0  0  0  0  0  0  0
  147.4446  142.8082  152.8962 H   0  0  0  0  0  0  0  0  0  0  0  0
  145.5216  141.1030  152.8350 H   0  0  0  0  0  0  0  0  0  0  0  0
  146.9878  137.4596  153.2543 H   0  0  0  0  0  0  0  0  0  0  0  0
  145.6288  138.3216  152.5511 H   0  0  0  0  0  0  0  0  0  0  0  0
  147.9958  139.3617  151.7578 H   0  0  0  0  0  0  0  0  0  0  0  0
  149.0302  139.0680  153.6697 H   0  0  0  0  0  0  0  0  0  0  0  0
  148.5102  139.5572  155.2653 H   0  0  0  0  0  0  0  0  0  0  0  0
  151.6602  140.3593  157.6754 H   0  0  0  0  0  0  0  0  0  0  0  0
  152.9989  140.2246  159.5390 H   0  0  0  0  0  0  0  0  0  0  0  0
  1  2  1  0  0  0  0
  1 23  1  0  0  0  0
  1 24  1  0  0  0  0
  1 25  1  0  0  0  0
  2  3  1  0  0  0  0
  2  4  1  0  0  0  0
  3 26  1  0  0  0  0
  3 27  1  0  0  0  0
  3 28  1  0  0  0  0
  4 20  1  0  0  0  0
  4  5  2  0  0  0  0
  5  6  1  0  0  0  0
  5 29  1  0  0  0  0
  6  7  2  0  0  0  0
  6 30  1  0  0  0  0
  7  8  1  0  0  0  0
  7 19  1  0  0  0  0
  8  9  1  0  0  0  0
  8 31  1  0  0  0  0
  9 10  2  0  0  0  0
  9 11  1  0  0  0  0
 11 12  1  0  0  0  0
 11 32  1  0  0  0  0
 12 21  1  0  0  0  0
 12 18  1  0  0  0  0
 12 13  1  0  0  0  0
 13 14  2  0  0  0  0
 13 33  1  0  0  0  0
 14 15  1  0  0  0  0
 14 34  1  0  0  0  0
 15 22  1  0  0  0  0
 15 16  1  0  0  0  0
 15 18  1  0  0  0  0
 16 17  1  0  0  0  0
 16 35  1  0  0  0  0
 16 36  1  0  0  0  0
 17 37  1  0  0  0  0
 18 38  1  0  0  0  0
 18 39  1  0  0  0  0
 19 20  2  0  0  0  0
 19 40  1  0  0  0  0
 20 41  1  0  0  0  0
M  CHG  1  20   1
M  END
> <s_m_source_file>
AV-unprocessed.smi

> <i_m_source_file_index>
876

> <i_lp_mmshare_version>
43012

> <i_f3d_flags>
0

> <s_epik_input>
W0NIM11OKFtDSDNdKWMxW2NIXVtjSF1jKFtjSF1uMSlbTkhdQyg9TylbTkhdW0NAQEhdMltDSF09W0NIXVtDQEBIXShbQ0gyXTIpW0NIMl1bT0hd

> <s_epik_cmdline>
J2VwaWtfcHl0aG9uJywgJy1waCcsICc3LjAnLCAnLXRuJywgJzgnLCAnLW1hJywgJzIwMCcsICctbWV0YWxfYmluZGluZycsICctaW1hZScsICc8aW5maWxlLm1hZT4nLCAnLW9tYWUnLCAnPG91dGZpbGUubWFlPic=

> <r_lp_tautomer_probability>
0.999994

> <r_epik_Ionization_Penalty>
0.257994

> <r_epik_Ionization_Penalty_Charging>
0.257974

> <r_epik_Ionization_Penalty_Neutral>
1.95938e-05

> <r_epik_State_Penalty>
0.249586

> <r_epik_Charging_Adjusted_Penalty>
0.50756

> <i_epik_Tot_Q>
1

> <i_epik_Tot_abs_Q>
1

> <r_epik_Metal_State_Penalty>
0.538508

> <b_epik_Metal_Only>
0

> <s_lp_Force_Field>
OPLS_2005

> <r_lp_Energy>
26.2592

> <b_lp_Chiralities_Consistent>
1

> <s_lp_Variant>
AV-unprocessed.smi:876-3

> <Gold.Version>
5.8.1

> <Gold.Id.Protein>
6NUR|6NUR_protein|mol2

> <Gold.PLP.Fitness>
52.1109

> <Gold.PLP.PLP>
-41.7409

> <Gold.PLP.part.hbond>
-5.0000

> <Gold.PLP.part.metal>
0.0000

> <Gold.PLP.part.buried>
-1.0287

> <Gold.PLP.part.nonpolar>
-35.4342

> <Gold.PLP.part.repulsive>
0.3816

> <Gold.PLP.ligand.clash>
0.0000

> <Gold.PLP.ligand.torsion>
0.4424

> <Gold.PLP.Chemscore.Hbond>
3.7440

> <Gold.PLP.Chemscore.CHOScore>
0.0000

> <Gold.PLP.Chemscore.Metal>
0.0000

> <Gold.Chemscore.Hbonds>
donor molecule, donor type, donor heavy atom, donor atom, acceptor molecule, acceptor atom, score
      L1  H     8    31       P1  8028  0.96
      L1  H    11    32       P1  8028  1.00
      L1  H    17    37       P1  7957  0.78
      P1  H  7954  7966       L1    17  1.00

> <Gold.PLP.Chemscore.Internal.Correction>
0.0228

> <Gold.Rescore>
     Score         DG    S(hbond)    S(metal)    S(lipo)     H(rot)  DE(clash)    DE(int)     intcor
     17.68     -22.54       2.99        0.00     100.26       1.82       1.66       3.20       ----

> <Gold.Chemscore.Fitness>
17.6828

> <Gold.Chemscore.DG>
-22.5448

> <Gold.Chemscore.ZeroCoef>
-5.4800

> <Gold.Chemscore.Hbond>
2.9918

> <Gold.Chemscore.Metal>
0.0000

> <Gold.Chemscore.Lipo>
100.2620

> <Gold.Chemscore.Internal_Hbond>
0.0000

> <Gold.Chemscore.DEClash>
1.6602

> <Gold.Chemscore.DEInternal>
3.2017

> <Gold.Chemscore.Rot>
1.8197

> <Gold.Chemscore.Internal.Correction>
   9.000000E+99

> <Gold.Chemscore.Hbonds>
donor molecule, donor type, donor heavy atom, donor atom, acceptor molecule, acceptor atom, score
      L1  H     8    31       P1  8028  0.91
      L1  H    11    32       P1  8028  0.96
      L1  H    17    37       P1  7957  0.77
      P1  H  7954  7966       L1    17  0.23

> <Gold.Chemscore.Hbond.Weighted>
-9.9926

> <Gold.Chemscore.Metal.Weighted>
-0.0000

> <Gold.Chemscore.Lipo.Weighted>
-11.7307

> <Gold.Chemscore.Internal_Hbond.Weighted>
0.0000

> <Gold.Chemscore.DEClash.Weighted>
1.6602

> <Gold.Chemscore.DEInternal.Weighted>
3.2017

> <Gold.Chemscore.Rot.Weighted>
4.6585

> <Gold.Chemscore.Internal.Correction.Weighted>
   9.000000E+99

> <Gold.Protein.RotatedTorsions>
[ 6907 6896 6895 6894 ] final  -21.21 input  -60.11 | X-H torsion
[ 7974 7965 7964 7962 ] final -164.31 input  175.53 | X-H torsion
[ 8008 7997 7996 7995 ] final  -68.76 input   59.86 | X-H torsion
[ 10167 10162 10161 10158 ] final -133.15 input  -65.29 | X-H torsion
[ 10718 10713 10712 10709 ] final   86.82 input   66.30 | X-H torsion
[ 10763 10752 10751 10750 ] final   96.06 input  -60.55 | X-H torsion
[ 11005 11000 10999 10996 ] final -138.52 input  -57.11 | X-H torsion

> <Gold.Protein.ActiveResidues>
 VAL166  LYS551  ARG553  GLY616  TRP617  ASP618  TYR619  PRO620  LYS621  CYS622 
 ASP623  PHE694  ASN695  SER759  ASP760  ASP761  ALA762  ILE779  LEU786  VAL792 
 PHE793  MET794  SER795  GLU796  ALA797  LYS798  CYS799  TRP800  GLU811  SER814 

> <Gold.Protein.RotatedAtoms>
  151.2367  135.0574  159.9008 H   0  0  0  0  0  0  0  0  0  0  0  0  # atno 6907 bound_to 6896
  152.5398  134.0478  159.8107 H   0  0  0  0  0  0  0  0  0  0  0  0  # atno 6908 bound_to 6896
  151.0666  133.5451  159.2661 H   0  0  0  0  0  0  0  0  0  0  0  0  # atno 6909 bound_to 6896
  144.7300  140.2979  143.6209 H   0  0  0  0  0  0  0  0  0  0  0  0  # atno 7974 bound_to 7965
  154.4891  140.0866  156.7553 H   0  0  0  0  0  0  0  0  0  0  0  0  # atno 8008 bound_to 7997
  155.4276  140.3448  155.4259 H   0  0  0  0  0  0  0  0  0  0  0  0  # atno 8009 bound_to 7997
  156.1304  140.1499  156.9062 H   0  0  0  0  0  0  0  0  0  0  0  0  # atno 8010 bound_to 7997
  139.9013  143.6605  152.2594 H   0  0  0  0  0  0  0  0  0  0  0  0  # atno 10167 bound_to 10162
  157.6933  131.0231  150.3030 H   0  0  0  0  0  0  0  0  0  0  0  0  # atno 10718 bound_to 10713
  153.2604  135.4232  155.0888 H   0  0  0  0  0  0  0  0  0  0  0  0  # atno 10763 bound_to 10752
  154.8418  135.3447  154.6385 H   0  0  0  0  0  0  0  0  0  0  0  0  # atno 10764 bound_to 10752
  153.6806  135.7039  153.5176 H   0  0  0  0  0  0  0  0  0  0  0  0  # atno 10765 bound_to 10752
  140.8608  134.2171  157.4708 H   0  0  0  0  0  0  0  0  0  0  0  0  # atno 11005 bound_to 11000
  145.7789  139.1884  143.2169 LP  0  0  0  0  0  0  0  0  0  0  0  0  # atno 17320 bound_to 7965
  146.0850  140.7721  142.9623 LP  0  0  0  0  0  0  0  0  0  0  0  0  # atno 17321 bound_to 7965
  139.7023  144.7633  151.1252 LP  0  0  0  0  0  0  0  0  0  0  0  0  # atno 17342 bound_to 10162
  140.7706  143.5441  150.9279 LP  0  0  0  0  0  0  0  0  0  0  0  0  # atno 17343 bound_to 10162
  156.3543  130.3836  149.7303 LP  0  0  0  0  0  0  0  0  0  0  0  0  # atno 17370 bound_to 10713
  156.4770  130.8023  151.3039 LP  0  0  0  0  0  0  0  0  0  0  0  0  # atno 17371 bound_to 10713
  139.8707  134.9728  156.4788 LP  0  0  0  0  0  0  0  0  0  0  0  0  # atno 17394 bound_to 11000
  140.8685  133.8006  155.9339 LP  0  0  0  0  0  0  0  0  0  0  0  0  # atno 17395 bound_to 11000

$$$$
