AV-unprocessed.smi:2928|AV-procd|sdf|11232|dock3
  -GOLD-   2272016123D 1   1.00000     0.00000
 Structure written by MMmdl.
 55 58  0  0  0  0  0  0  0  0  2 V2000
  147.4038  141.8953  153.9280 C   0  0  0  0  0  0  0  0  0  0  0  0
  148.3230  141.8385  155.0898 N   0  3  2  0  0  0  0  0  0  0  0  0
  149.6934  141.3640  154.7785 C   0  0  1  0  0  0  0  0  0  0  0  0
  150.6360  141.7637  155.9375 C   0  0  0  0  0  0  0  0  0  0  0  0
  150.1492  141.2965  157.3243 C   0  0  0  0  0  0  0  0  0  0  0  0
  148.6316  141.4982  157.5132 C   0  0  0  0  0  0  0  0  0  0  0  0
  147.7899  141.1187  156.2720 C   0  0  2  0  0  0  0  0  0  0  0  0
  147.6817  139.5978  156.0012 C   0  0  0  0  0  0  0  0  0  0  0  0
  148.9690  138.9483  155.4438 C   0  0  1  0  0  0  0  0  0  0  0  0
  148.6214  137.6827  154.8008 N   0  0  0  0  0  0  0  0  0  0  0  0
  149.2021  136.4958  155.0283 C   0  0  0  0  0  0  0  0  0  0  0  0
  150.1271  136.3266  155.8224 O   0  0  0  0  0  0  0  0  0  0  0  0
  148.6532  135.5392  154.2620 N   0  0  0  0  0  0  0  0  0  0  0  0
  148.9680  134.1518  154.2168 C   0  0  0  0  0  0  0  0  0  0  0  0
  149.8496  133.5345  155.1371 C   0  0  0  0  0  0  0  0  0  0  0  0
  150.0846  132.1509  155.0382 C   0  0  0  0  0  0  0  0  0  0  0  0
  149.4222  131.4308  154.0280 C   0  0  0  0  0  0  0  0  0  0  0  0
  148.5681  132.0007  153.1536 N   0  0  0  0  0  0  0  0  0  0  0  0
  148.3385  133.3336  153.2440 C   0  0  0  0  0  0  0  0  0  0  0  0
  147.4456  133.9070  152.3209 N   0  0  0  0  0  0  0  0  0  0  0  0
  147.0374  133.0422  151.2265 C   0  0  0  0  0  0  0  0  0  0  0  0
  145.8209  133.7276  150.5991 C   0  0  0  0  0  0  0  0  0  0  0  0
  145.2776  134.6500  151.6976 C   0  0  0  0  0  0  0  0  0  0  0  0
  146.2200  134.4453  152.8868 C   0  0  0  0  0  0  0  0  0  0  0  0
  149.7010  139.8551  154.4262 C   0  0  0  0  0  0  0  0  0  0  0  0
  147.2072  140.9100  153.5061 H   0  0  0  0  0  0  0  0  0  0  0  0
  147.8254  142.5208  153.1408 H   0  0  0  0  0  0  0  0  0  0  0  0
  146.4492  142.3333  154.2203 H   0  0  0  0  0  0  0  0  0  0  0  0
  150.0409  141.9053  153.8973 H   0  0  0  0  0  0  0  0  0  0  0  0
  151.6462  141.3967  155.7521 H   0  0  0  0  0  0  0  0  0  0  0  0
  150.7137  142.8517  155.9532 H   0  0  0  0  0  0  0  0  0  0  0  0
  150.4181  140.2567  157.4894 H   0  0  0  0  0  0  0  0  0  0  0  0
  150.6869  141.8427  158.1002 H   0  0  0  0  0  0  0  0  0  0  0  0
  148.2878  140.9486  158.3902 H   0  0  0  0  0  0  0  0  0  0  0  0
  148.4541  142.5514  157.7348 H   0  0  0  0  0  0  0  0  0  0  0  0
  146.7802  141.4871  156.4592 H   0  0  0  0  0  0  0  0  0  0  0  0
  147.3712  139.0781  156.9086 H   0  0  0  0  0  0  0  0  0  0  0  0
  146.8695  139.4401  155.2904 H   0  0  0  0  0  0  0  0  0  0  0  0
  149.6360  138.7459  156.2781 H   0  0  0  0  0  0  0  0  0  0  0  0
  147.8735  137.7121  154.1233 H   0  0  0  0  0  0  0  0  0  0  0  0
  147.9771  135.8474  153.5785 H   0  0  0  0  0  0  0  0  0  0  0  0
  150.3354  134.0914  155.9234 H   0  0  0  0  0  0  0  0  0  0  0  0
  150.7529  131.6530  155.7248 H   0  0  0  0  0  0  0  0  0  0  0  0
  149.5772  130.3673  153.9226 H   0  0  0  0  0  0  0  0  0  0  0  0
  147.8445  132.9145  150.5046 H   0  0  0  0  0  0  0  0  0  0  0  0
  146.7594  132.0552  151.5994 H   0  0  0  0  0  0  0  0  0  0  0  0
  146.1231  134.3189  149.7338 H   0  0  0  0  0  0  0  0  0  0  0  0
  145.0807  133.0010  150.2629 H   0  0  0  0  0  0  0  0  0  0  0  0
  145.3100  135.6869  151.3610 H   0  0  0  0  0  0  0  0  0  0  0  0
  144.2453  134.4177  151.9608 H   0  0  0  0  0  0  0  0  0  0  0  0
  145.7826  133.7407  153.5953 H   0  0  0  0  0  0  0  0  0  0  0  0
  146.4095  135.3803  153.4148 H   0  0  0  0  0  0  0  0  0  0  0  0
  149.2327  139.7376  153.4479 H   0  0  0  0  0  0  0  0  0  0  0  0
  150.7265  139.5077  154.2944 H   0  0  0  0  0  0  0  0  0  0  0  0
  148.4274  142.7998  155.3816 H   0  0  0  0  0  0  0  0  0  0  0  0
  1  2  1  0  0  0  0
  1 26  1  0  0  0  0
  1 27  1  0  0  0  0
  1 28  1  0  0  0  0
  2  7  1  0  0  0  0
  2  3  1  0  0  0  0
  2 55  1  0  0  0  0
  3 25  1  0  0  0  0
  3  4  1  0  0  0  0
  3 29  1  0  0  0  0
  4  5  1  0  0  0  0
  4 30  1  0  0  0  0
  4 31  1  0  0  0  0
  5  6  1  0  0  0  0
  5 32  1  0  0  0  0
  5 33  1  0  0  0  0
  6  7  1  0  0  0  0
  6 34  1  0  0  0  0
  6 35  1  0  0  0  0
  7  8  1  0  0  0  0
  7 36  1  0  0  0  0
  8  9  1  0  0  0  0
  8 37  1  0  0  0  0
  8 38  1  0  0  0  0
  9 10  1  0  0  0  0
  9 25  1  0  0  0  0
  9 39  1  0  0  0  0
 10 11  1  0  0  0  0
 10 40  1  0  0  0  0
 11 12  2  0  0  0  0
 11 13  1  0  0  0  0
 13 14  1  0  0  0  0
 13 41  1  0  0  0  0
 14 19  1  0  0  0  0
 14 15  2  0  0  0  0
 15 16  1  0  0  0  0
 15 42  1  0  0  0  0
 16 17  2  0  0  0  0
 16 43  1  0  0  0  0
 17 18  1  0  0  0  0
 17 44  1  0  0  0  0
 18 19  2  0  0  0  0
 19 20  1  0  0  0  0
 20 24  1  0  0  0  0
 20 21  1  0  0  0  0
 21 22  1  0  0  0  0
 21 45  1  0  0  0  0
 21 46  1  0  0  0  0
 22 23  1  0  0  0  0
 22 47  1  0  0  0  0
 22 48  1  0  0  0  0
 23 24  1  0  0  0  0
 23 49  1  0  0  0  0
 23 50  1  0  0  0  0
 24 51  1  0  0  0  0
 24 52  1  0  0  0  0
 25 53  1  0  0  0  0
 25 54  1  0  0  0  0
M  CHG  1   2   1
M  END
> <s_m_source_file>
AV-unprocessed.smi

> <i_m_source_file_index>
2928

> <i_lp_mmshare_version>
43012

> <i_f3d_flags>
0

> <s_epik_input>
W0NIMl0xW0NIMl1bQ0gyXVtDQEhdKE4oW0NIM10pW0NIXTEyKVtDSDJdW0NASF0oW0NIMl0yKVtOSF1DKD1PKVtOSF1jM1tjSF1bY0hdW2NIXW5jM040W0NIMl1bQ0gyXVtDSDJdW0NIMl00

> <s_epik_cmdline>
J2VwaWtfcHl0aG9uJywgJy1waCcsICc3LjAnLCAnLXRuJywgJzgnLCAnLW1hJywgJzIwMCcsICctbWV0YWxfYmluZGluZycsICctaW1hZScsICc8aW5maWxlLm1hZT4nLCAnLW9tYWUnLCAnPG91dGZpbGUubWFlPic=

> <r_lp_tautomer_probability>
1

> <r_epik_Ionization_Penalty>
0.07954

> <r_epik_Ionization_Penalty_Charging>
0.00089841

> <r_epik_Ionization_Penalty_Neutral>
0.0786416

> <r_epik_State_Penalty>
0.0689917

> <r_epik_Charging_Adjusted_Penalty>
0.0698901

> <i_epik_Tot_Q>
1

> <i_epik_Tot_abs_Q>
1

> <r_epik_Metal_State_Penalty>
0.0608947

> <b_epik_Metal_Only>
0

> <s_lp_Force_Field>
OPLS_2005

> <r_lp_Energy>
65.7965

> <b_lp_Chiralities_Consistent>
1

> <s_lp_Variant>
AV-unprocessed.smi:2928-2

> <Gold.Version>
5.8.1

> <Gold.Id.Protein>
6NUR|6NUR_protein|mol2

> <Gold.PLP.Fitness>
42.4879

> <Gold.PLP.PLP>
-36.8613

> <Gold.PLP.part.hbond>
-2.0000

> <Gold.PLP.part.metal>
0.0000

> <Gold.PLP.part.buried>
-4.6307

> <Gold.PLP.part.nonpolar>
-30.9963

> <Gold.PLP.part.repulsive>
1.6883

> <Gold.PLP.ligand.clash>
0.0000

> <Gold.PLP.ligand.torsion>
0.2439

> <Gold.PLP.Chemscore.Hbond>
2.0281

> <Gold.PLP.Chemscore.CHOScore>
0.0000

> <Gold.PLP.Chemscore.Metal>
0.0000

> <Gold.Chemscore.Hbonds>
donor molecule, donor type, donor heavy atom, donor atom, acceptor molecule, acceptor atom, score
      L1  H     2    55       P1  8028  2.00
      L1  H    13    41       P1  7948  0.16

> <Gold.PLP.Chemscore.Internal.Correction>
0.0301

> <Gold.Rescore>
     Score         DG    S(hbond)    S(metal)    S(lipo)     H(rot)  DE(clash)    DE(int)     intcor
     12.67     -15.49       1.00        0.00      82.81       1.18       0.29       2.52       ----

> <Gold.Chemscore.Fitness>
12.6734

> <Gold.Chemscore.DG>
-15.4903

> <Gold.Chemscore.ZeroCoef>
-5.4800

> <Gold.Chemscore.Hbond>
0.9989

> <Gold.Chemscore.Metal>
0.0000

> <Gold.Chemscore.Lipo>
82.8089

> <Gold.Chemscore.Internal_Hbond>
0.0000

> <Gold.Chemscore.DEClash>
0.2945

> <Gold.Chemscore.DEInternal>
2.5224

> <Gold.Chemscore.Rot>
1.1776

> <Gold.Chemscore.Internal.Correction>
   9.000000E+99

> <Gold.Chemscore.Hbonds>
donor molecule, donor type, donor heavy atom, donor atom, acceptor molecule, acceptor atom, score
      L1  H     2    55       P1  8028  0.98
      L1  H    13    41       P1  7948  0.16

> <Gold.Chemscore.Hbond.Weighted>
-3.3364

> <Gold.Chemscore.Metal.Weighted>
-0.0000

> <Gold.Chemscore.Lipo.Weighted>
-9.6886

> <Gold.Chemscore.Internal_Hbond.Weighted>
0.0000

> <Gold.Chemscore.DEClash.Weighted>
0.2945

> <Gold.Chemscore.DEInternal.Weighted>
2.5224

> <Gold.Chemscore.Rot.Weighted>
3.0147

> <Gold.Chemscore.Internal.Correction.Weighted>
   9.000000E+99

> <Gold.Protein.RotatedTorsions>
[ 6907 6896 6895 6894 ] final -167.00 input  -60.11 | X-H torsion
[ 7974 7965 7964 7962 ] final    8.58 input  175.53 | X-H torsion
[ 8008 7997 7996 7995 ] final -113.11 input   59.86 | X-H torsion
[ 10167 10162 10161 10158 ] final   58.59 input  -65.29 | X-H torsion
[ 10718 10713 10712 10709 ] final  121.02 input   66.30 | X-H torsion
[ 10763 10752 10751 10750 ] final  -14.03 input  -60.55 | X-H torsion
[ 11005 11000 10999 10996 ] final   -4.06 input  -57.11 | X-H torsion

> <Gold.Protein.ActiveResidues>
 VAL166  LYS551  ARG553  GLY616  TRP617  ASP618  TYR619  PRO620  LYS621  CYS622 
 ASP623  PHE694  ASN695  SER759  ASP760  ASP761  ALA762  ILE779  LEU786  VAL792 
 PHE793  MET794  SER795  GLU796  ALA797  LYS798  CYS799  TRP800  GLU811  SER814 

> <Gold.Protein.RotatedAtoms>
  151.4525  133.3614  159.2797 H   0  0  0  0  0  0  0  0  0  0  0  0  # atno 6907 bound_to 6896
  150.9081  134.8499  159.7417 H   0  0  0  0  0  0  0  0  0  0  0  0  # atno 6908 bound_to 6896
  152.4917  134.4452  159.9608 H   0  0  0  0  0  0  0  0  0  0  0  0  # atno 6909 bound_to 6896
  146.2414  139.9912  142.8425 H   0  0  0  0  0  0  0  0  0  0  0  0  # atno 7974 bound_to 7965
  155.0156  140.0393  157.2417 H   0  0  0  0  0  0  0  0  0  0  0  0  # atno 8008 bound_to 7997
  154.7422  140.2751  155.6340 H   0  0  0  0  0  0  0  0  0  0  0  0  # atno 8009 bound_to 7997
  156.2867  140.2663  156.2153 H   0  0  0  0  0  0  0  0  0  0  0  0  # atno 8010 bound_to 7997
  140.1856  144.4138  150.6595 H   0  0  0  0  0  0  0  0  0  0  0  0  # atno 10167 bound_to 10162
  157.5848  131.1071  150.8116 H   0  0  0  0  0  0  0  0  0  0  0  0  # atno 10718 bound_to 10713
  153.5222  135.7015  153.5726 H   0  0  0  0  0  0  0  0  0  0  0  0  # atno 10763 bound_to 10752
  153.3770  135.3930  155.1829 H   0  0  0  0  0  0  0  0  0  0  0  0  # atno 10764 bound_to 10752
  154.8693  135.3826  154.4711 H   0  0  0  0  0  0  0  0  0  0  0  0  # atno 10765 bound_to 10752
  140.6761  133.9194  155.8525 H   0  0  0  0  0  0  0  0  0  0  0  0  # atno 11005 bound_to 11000
  145.1502  140.9619  143.4437 LP  0  0  0  0  0  0  0  0  0  0  0  0  # atno 17320 bound_to 7965
  145.0213  139.3422  143.6071 LP  0  0  0  0  0  0  0  0  0  0  0  0  # atno 17321 bound_to 7965
  140.6490  143.2220  151.6120 LP  0  0  0  0  0  0  0  0  0  0  0  0  # atno 17342 bound_to 10162
  139.5277  144.3008  152.1075 LP  0  0  0  0  0  0  0  0  0  0  0  0  # atno 17343 bound_to 10162
  156.8552  130.5094  149.5308 LP  0  0  0  0  0  0  0  0  0  0  0  0  # atno 17370 bound_to 10713
  156.0897  130.5886  150.9710 LP  0  0  0  0  0  0  0  0  0  0  0  0  # atno 17371 bound_to 10713
  141.0354  134.0697  157.3965 LP  0  0  0  0  0  0  0  0  0  0  0  0  # atno 17394 bound_to 11000
  139.8966  135.0146  156.7060 LP  0  0  0  0  0  0  0  0  0  0  0  0  # atno 17395 bound_to 11000

$$$$
