AV-unprocessed.smi:1702|AV-procd|sdf|6849|dock1
  -GOLD-   22720 8 23D 1   1.00000     0.00000
 Structure written by MMmdl.
 45 47  0  0  0  0  0  0  0  0  3 V2000
  145.7339  133.1223  153.0947 C   0  0  0  0  0  0  0  0  0  0  0  0
  146.7561  133.7832  154.0301 C   0  0  2  0  0  0  0  0  0  0  0  0
  146.4549  135.2768  154.2376 C   0  0  0  0  0  0  0  0  0  0  0  0
  147.5008  135.9358  155.1524 C   0  0  0  0  0  0  0  0  0  0  0  0
  148.8744  135.7588  154.6103 N   0  3  1  0  0  0  0  0  0  0  0  0
  149.9138  136.4805  155.3892 C   0  0  0  0  0  0  0  0  0  0  0  0
  149.8398  138.0157  155.2255 C   0  0  2  0  0  0  0  0  0  0  0  0
  150.1055  138.3509  153.8785 O   0  0  0  0  0  0  0  0  0  0  0  0
  150.8628  138.7777  156.0917 C   0  0  0  0  0  0  0  0  0  0  0  0
  150.5510  140.2077  156.2319 N   0  0  0  0  0  0  0  0  0  0  0  0
  149.6561  140.9686  155.5439 C   0  0  0  0  0  0  0  0  0  0  0  0
  149.7412  142.2401  156.0237 N   0  3  0  0  0  0  0  0  0  0  0  0
  150.7083  142.2960  157.0294 C   0  0  0  0  0  0  0  0  0  0  0  0
  151.1516  143.3606  157.8076 C   0  0  0  0  0  0  0  0  0  0  0  0
  152.1613  143.0806  158.7516 C   0  0  0  0  0  0  0  0  0  0  0  0
  152.6295  144.0809  159.5350 F   0  0  0  0  0  0  0  0  0  0  0  0
  152.6904  141.7808  158.8952 C   0  0  0  0  0  0  0  0  0  0  0  0
  153.6569  141.5536  159.8159 F   0  0  0  0  0  0  0  0  0  0  0  0
  152.2328  140.7091  158.1004 C   0  0  0  0  0  0  0  0  0  0  0  0
  151.2354  140.9942  157.1680 C   0  0  0  0  0  0  0  0  0  0  0  0
  149.2060  134.3212  154.4325 C   0  0  0  0  0  0  0  0  0  0  0  0
  148.1937  133.6256  153.5069 C   0  0  0  0  0  0  0  0  0  0  0  0
  145.7514  133.5746  152.1026 H   0  0  0  0  0  0  0  0  0  0  0  0
  144.7216  133.2210  153.4874 H   0  0  0  0  0  0  0  0  0  0  0  0
  145.9390  132.0576  152.9783 H   0  0  0  0  0  0  0  0  0  0  0  0
  146.6893  133.2848  154.9986 H   0  0  0  0  0  0  0  0  0  0  0  0
  146.4385  135.7895  153.2747 H   0  0  0  0  0  0  0  0  0  0  0  0
  145.4608  135.4005  154.6693 H   0  0  0  0  0  0  0  0  0  0  0  0
  147.2613  136.9936  155.2507 H   0  0  0  0  0  0  0  0  0  0  0  0
  147.4448  135.5062  156.1538 H   0  0  0  0  0  0  0  0  0  0  0  0
  149.8209  136.1944  156.4374 H   0  0  0  0  0  0  0  0  0  0  0  0
  150.9047  136.1517  155.0718 H   0  0  0  0  0  0  0  0  0  0  0  0
  148.8447  138.3830  155.4744 H   0  0  0  0  0  0  0  0  0  0  0  0
  149.4962  137.8939  153.3191 H   0  0  0  0  0  0  0  0  0  0  0  0
  150.9581  138.3268  157.0795 H   0  0  0  0  0  0  0  0  0  0  0  0
  151.8521  138.7148  155.6362 H   0  0  0  0  0  0  0  0  0  0  0  0
  148.9997  140.6271  154.7561 H   0  0  0  0  0  0  0  0  0  0  0  0
  150.7494  144.3576  157.7010 H   0  0  0  0  0  0  0  0  0  0  0  0
  152.6491  139.7205  158.2230 H   0  0  0  0  0  0  0  0  0  0  0  0
  150.2039  134.2233  154.0031 H   0  0  0  0  0  0  0  0  0  0  0  0
  149.2295  133.8274  155.4053 H   0  0  0  0  0  0  0  0  0  0  0  0
  148.4450  132.5679  153.4188 H   0  0  0  0  0  0  0  0  0  0  0  0
  148.2712  134.0453  152.5028 H   0  0  0  0  0  0  0  0  0  0  0  0
  148.8815  136.1609  153.6839 H   0  0  0  0  0  0  0  0  0  0  0  0
  149.1836  143.0131  155.6824 H   0  0  0  0  0  0  0  0  0  0  0  0
  1  2  1  0  0  0  0
  1 23  1  0  0  0  0
  1 24  1  0  0  0  0
  1 25  1  0  0  0  0
  2 22  1  0  0  0  0
  2  3  1  0  0  0  0
  2 26  1  0  0  0  0
  3  4  1  0  0  0  0
  3 27  1  0  0  0  0
  3 28  1  0  0  0  0
  4  5  1  0  0  0  0
  4 29  1  0  0  0  0
  4 30  1  0  0  0  0
  5  6  1  0  0  0  0
  5 21  1  0  0  0  0
  5 44  1  0  0  0  0
  6  7  1  0  0  0  0
  6 31  1  0  0  0  0
  6 32  1  0  0  0  0
  7  8  1  0  0  0  0
  7  9  1  0  0  0  0
  7 33  1  0  0  0  0
  8 34  1  0  0  0  0
  9 10  1  0  0  0  0
  9 35  1  0  0  0  0
  9 36  1  0  0  0  0
 10 20  1  0  0  0  0
 10 11  1  0  0  0  0
 11 12  2  0  0  0  0
 11 37  1  0  0  0  0
 12 13  1  0  0  0  0
 12 45  1  0  0  0  0
 13 20  2  0  0  0  0
 13 14  1  0  0  0  0
 14 15  2  0  0  0  0
 14 38  1  0  0  0  0
 15 16  1  0  0  0  0
 15 17  1  0  0  0  0
 17 18  1  0  0  0  0
 17 19  2  0  0  0  0
 19 20  1  0  0  0  0
 19 39  1  0  0  0  0
 21 22  1  0  0  0  0
 21 40  1  0  0  0  0
 21 41  1  0  0  0  0
 22 42  1  0  0  0  0
 22 43  1  0  0  0  0
M  CHG  1   5   1
M  CHG  1  12   1
M  END
> <s_m_source_file>
AV-unprocessed.smi

> <i_m_source_file_index>
1702

> <i_lp_mmshare_version>
43012

> <i_f3d_flags>
0

> <s_epik_input>
W0NIM11bQ0hdMVtDSDJdW0NIMl1OKFtDSDJdW0NIMl0xKVtDSDJdW0NASF0oW09IXSlbQ0gyXW4oW2NIXW4yKWMoYzIzKVtjSF1jKEYpYyhGKVtjSF0z

> <s_epik_cmdline>
J2VwaWtfcHl0aG9uJywgJy1waCcsICc3LjAnLCAnLXRuJywgJzgnLCAnLW1hJywgJzIwMCcsICctbWV0YWxfYmluZGluZycsICctaW1hZScsICc8aW5maWxlLm1hZT4nLCAnLW9tYWUnLCAnPG91dGZpbGUubWFlPic=

> <r_epik_Ionization_Penalty>
2.33291

> <r_epik_Ionization_Penalty_Charging>
2.33291

> <r_epik_Ionization_Penalty_Neutral>
6.90208e-07

> <r_epik_State_Penalty>
2.4838

> <r_epik_Charging_Adjusted_Penalty>
4.81672

> <i_epik_Tot_Q>
2

> <i_epik_Tot_abs_Q>
2

> <r_epik_Metal_State_Penalty>
6.56754

> <b_epik_Metal_Only>
0

> <s_lp_Force_Field>
OPLS_2005

> <r_lp_Energy>
33.9441

> <b_lp_Chiralities_Consistent>
1

> <s_lp_Variant>
AV-unprocessed.smi:1702-5

> <Gold.Version>
5.8.1

> <Gold.Id.Protein>
6NUR|6NUR_protein|mol2

> <Gold.PLP.Fitness>
55.1950

> <Gold.PLP.PLP>
-42.1787

> <Gold.PLP.part.hbond>
-3.5875

> <Gold.PLP.part.metal>
0.0000

> <Gold.PLP.part.buried>
-4.3754

> <Gold.PLP.part.nonpolar>
-35.5100

> <Gold.PLP.part.repulsive>
0.1638

> <Gold.PLP.ligand.clash>
0.0000

> <Gold.PLP.ligand.torsion>
0.3624

> <Gold.PLP.Chemscore.Hbond>
4.5579

> <Gold.PLP.Chemscore.CHOScore>
0.0000

> <Gold.PLP.Chemscore.Metal>
0.0000

> <Gold.Chemscore.Hbonds>
donor molecule, donor type, donor heavy atom, donor atom, acceptor molecule, acceptor atom, score
      L1  H     5    44       P1  7948  2.00
      L1  H     8    34       P1  7948  0.47
      L1  H    12    45       P1  8028  1.95

> <Gold.PLP.Chemscore.Internal.Correction>
0.0675

> <Gold.Rescore>
     Score         DG    S(hbond)    S(metal)    S(lipo)     H(rot)  DE(clash)    DE(int)     intcor
     17.78     -18.30       2.71        0.00      82.98       2.32       0.15       0.37       ----

> <Gold.Chemscore.Fitness>
17.7809

> <Gold.Chemscore.DG>
-18.2955

> <Gold.Chemscore.ZeroCoef>
-5.4800

> <Gold.Chemscore.Hbond>
2.7092

> <Gold.Chemscore.Metal>
0.0000

> <Gold.Chemscore.Lipo>
82.9785

> <Gold.Chemscore.Internal_Hbond>
0.0000

> <Gold.Chemscore.DEClash>
0.1482

> <Gold.Chemscore.DEInternal>
0.3664

> <Gold.Chemscore.Rot>
2.3210

> <Gold.Chemscore.Internal.Correction>
   9.000000E+99

> <Gold.Chemscore.Hbonds>
donor molecule, donor type, donor heavy atom, donor atom, acceptor molecule, acceptor atom, score
      L1  H     5    44       P1  7948  0.99
      L1  H     8    34       P1  7948  0.42
      L1  H    12    45       P1  8028  0.93

> <Gold.Chemscore.Hbond.Weighted>
-9.0487

> <Gold.Chemscore.Metal.Weighted>
-0.0000

> <Gold.Chemscore.Lipo.Weighted>
-9.7085

> <Gold.Chemscore.Internal_Hbond.Weighted>
0.0000

> <Gold.Chemscore.DEClash.Weighted>
0.1482

> <Gold.Chemscore.DEInternal.Weighted>
0.3664

> <Gold.Chemscore.Rot.Weighted>
5.9416

> <Gold.Chemscore.Internal.Correction.Weighted>
   9.000000E+99

> <Gold.Protein.RotatedTorsions>
[ 6907 6896 6895 6894 ] final  105.82 input  -60.11 | X-H torsion
[ 7974 7965 7964 7962 ] final   14.47 input  175.53 | X-H torsion
[ 8008 7997 7996 7995 ] final  115.38 input   59.86 | X-H torsion
[ 10167 10162 10161 10158 ] final   59.17 input  -65.29 | X-H torsion
[ 10718 10713 10712 10709 ] final  103.87 input   66.30 | X-H torsion
[ 10763 10752 10751 10750 ] final -101.97 input  -60.55 | X-H torsion
[ 11005 11000 10999 10996 ] final   19.32 input  -57.11 | X-H torsion

> <Gold.Protein.ActiveResidues>
 VAL166  LYS551  ARG553  GLY616  TRP617  ASP618  TYR619  PRO620  LYS621  CYS622 
 ASP623  PHE694  ASN695  SER759  ASP760  ASP761  ALA762  ILE779  LEU786  VAL792 
 PHE793  MET794  SER795  GLU796  ALA797  LYS798  CYS799  TRP800  GLU811  SER814 

> <Gold.Protein.RotatedAtoms>
  152.5217  133.9472  159.7654 H   0  0  0  0  0  0  0  0  0  0  0  0  # atno 6907 bound_to 6896
  150.9790  133.6257  159.2732 H   0  0  0  0  0  0  0  0  0  0  0  0  # atno 6908 bound_to 6896
  151.3441  135.0876  159.9434 H   0  0  0  0  0  0  0  0  0  0  0  0  # atno 6909 bound_to 6896
  146.2304  139.9036  142.8535 H   0  0  0  0  0  0  0  0  0  0  0  0  # atno 7974 bound_to 7965
  156.2378  140.2940  156.0360 H   0  0  0  0  0  0  0  0  0  0  0  0  # atno 8008 bound_to 7997
  155.2041  140.0410  157.2939 H   0  0  0  0  0  0  0  0  0  0  0  0  # atno 8009 bound_to 7997
  154.6111  140.2452  155.7675 H   0  0  0  0  0  0  0  0  0  0  0  0  # atno 8010 bound_to 7997
  140.1793  144.4198  150.6623 H   0  0  0  0  0  0  0  0  0  0  0  0  # atno 10167 bound_to 10162
  157.6758  131.0790  150.5621 H   0  0  0  0  0  0  0  0  0  0  0  0  # atno 10718 bound_to 10713
  154.7698  135.4878  153.9627 H   0  0  0  0  0  0  0  0  0  0  0  0  # atno 10763 bound_to 10752
  153.1354  135.6761  153.9119 H   0  0  0  0  0  0  0  0  0  0  0  0  # atno 10764 bound_to 10752
  153.8810  135.3132  155.3424 H   0  0  0  0  0  0  0  0  0  0  0  0  # atno 10765 bound_to 10752
  140.4150  134.1578  155.7669 H   0  0  0  0  0  0  0  0  0  0  0  0  # atno 11005 bound_to 11000
  145.2299  140.9969  143.3997 LP  0  0  0  0  0  0  0  0  0  0  0  0  # atno 17320 bound_to 7965
  144.9539  139.4052  143.6389 LP  0  0  0  0  0  0  0  0  0  0  0  0  # atno 17321 bound_to 7965
  140.6530  143.2230  151.6033 LP  0  0  0  0  0  0  0  0  0  0  0  0  # atno 17342 bound_to 10162
  139.5303  144.2936  152.1132 LP  0  0  0  0  0  0  0  0  0  0  0  0  # atno 17343 bound_to 10162
  156.5923  130.4332  149.5931 LP  0  0  0  0  0  0  0  0  0  0  0  0  # atno 17370 bound_to 10713
  156.2573  130.6942  151.1699 LP  0  0  0  0  0  0  0  0  0  0  0  0  # atno 17371 bound_to 10713
  141.1806  133.8421  157.1270 LP  0  0  0  0  0  0  0  0  0  0  0  0  # atno 17394 bound_to 11000
  140.0240  134.9932  157.0649 LP  0  0  0  0  0  0  0  0  0  0  0  0  # atno 17395 bound_to 11000

$$$$
