AV-unprocessed.smi:2022|AV-procd|sdf|8188|dock2
  -GOLD-   2272010443D 1   1.00000     0.00000
 Structure written by MMmdl.
 34 35  0  0  0  0  0  0  0  0  1 V2000
  147.1037  142.4646  154.1812 C   0  0  0  0  0  0  0  0  0  0  0  0
  146.8265  141.0068  154.0440 C   0  0  0  0  0  0  0  0  0  0  0  0
  147.1437  140.0860  153.0855 C   0  0  0  0  0  0  0  0  0  0  0  0
  146.5734  138.8877  153.5917 C   0  0  0  0  0  0  0  0  0  0  0  0
  146.6866  137.6691  152.8756 N   0  0  0  0  0  0  0  0  0  0  0  0
  145.7070  136.7962  152.5851 C   0  0  0  0  0  0  0  0  0  0  0  0
  144.5242  136.9248  152.9028 O   0  0  0  0  0  0  0  0  0  0  0  0
  146.1791  135.7475  151.8951 N   0  0  0  0  0  0  0  0  0  0  0  0
  145.3948  134.5946  151.4492 C   0  0  1  0  0  0  0  0  0  0  0  0
  146.3231  133.5226  150.8349 C   0  0  0  0  0  0  0  0  0  0  0  0
  145.6123  132.5572  149.8722 C   0  0  0  0  0  0  0  0  0  0  0  0
  144.5113  131.6977  150.5116 C   0  0  0  0  0  0  0  0  0  0  0  0
  143.3108  132.5116  151.0240 C   0  0  0  0  0  0  0  0  0  0  0  0
  143.5717  133.1406  152.3128 N   0  0  0  0  0  0  0  0  0  0  0  0
  144.4951  134.0747  152.5862 C   0  0  0  0  0  0  0  0  0  0  0  0
  144.6277  134.5047  153.7319 O   0  0  0  0  0  0  0  0  0  0  0  0
  145.9602  139.0622  154.7526 N   0  0  0  0  0  0  0  0  0  0  0  0
  146.1201  140.4211  155.0486 O   0  0  0  0  0  0  0  0  0  0  0  0
  147.5475  142.8641  153.2691 H   0  0  0  0  0  0  0  0  0  0  0  0
  147.7960  142.6492  155.0028 H   0  0  0  0  0  0  0  0  0  0  0  0
  146.1850  143.0168  154.3800 H   0  0  0  0  0  0  0  0  0  0  0  0
  147.6968  140.2463  152.1720 H   0  0  0  0  0  0  0  0  0  0  0  0
  147.6142  137.4340  152.5548 H   0  0  0  0  0  0  0  0  0  0  0  0
  147.1660  135.7237  151.6833 H   0  0  0  0  0  0  0  0  0  0  0  0
  144.7211  134.9551  150.6694 H   0  0  0  0  0  0  0  0  0  0  0  0
  147.1199  134.0096  150.2716 H   0  0  0  0  0  0  0  0  0  0  0  0
  146.8238  132.9624  151.6261 H   0  0  0  0  0  0  0  0  0  0  0  0
  145.1946  133.1205  149.0370 H   0  0  0  0  0  0  0  0  0  0  0  0
  146.3596  131.8933  149.4368 H   0  0  0  0  0  0  0  0  0  0  0  0
  144.1520  130.9975  149.7567 H   0  0  0  0  0  0  0  0  0  0  0  0
  144.9246  131.0844  151.3135 H   0  0  0  0  0  0  0  0  0  0  0  0
  142.9967  133.2568  150.2918 H   0  0  0  0  0  0  0  0  0  0  0  0
  142.4607  131.8433  151.1633 H   0  0  0  0  0  0  0  0  0  0  0  0
  143.0008  132.8248  153.0835 H   0  0  0  0  0  0  0  0  0  0  0  0
  1  2  1  0  0  0  0
  1 19  1  0  0  0  0
  1 20  1  0  0  0  0
  1 21  1  0  0  0  0
  2 18  1  0  0  0  0
  2  3  2  0  0  0  0
  3  4  1  0  0  0  0
  3 22  1  0  0  0  0
  4  5  1  0  0  0  0
  4 17  2  0  0  0  0
  5  6  1  0  0  0  0
  5 23  1  0  0  0  0
  6  7  2  0  0  0  0
  6  8  1  0  0  0  0
  8  9  1  0  0  0  0
  8 24  1  0  0  0  0
  9 15  1  0  0  0  0
  9 10  1  0  0  0  0
  9 25  1  0  0  0  0
 10 11  1  0  0  0  0
 10 26  1  0  0  0  0
 10 27  1  0  0  0  0
 11 12  1  0  0  0  0
 11 28  1  0  0  0  0
 11 29  1  0  0  0  0
 12 13  1  0  0  0  0
 12 30  1  0  0  0  0
 12 31  1  0  0  0  0
 13 14  1  0  0  0  0
 13 32  1  0  0  0  0
 13 33  1  0  0  0  0
 14 15  1  0  0  0  0
 14 34  1  0  0  0  0
 15 16  2  0  0  0  0
 17 18  1  0  0  0  0
M  END
> <s_m_source_file>
AV-unprocessed.smi

> <i_m_source_file_index>
2022

> <i_lp_mmshare_version>
43012

> <i_f3d_flags>
0

> <s_epik_input>
W0NIM11jMVtjSF1jKG5vMSlbTkhdQyg9TylbTkhdW0NAQEhdMltDSDJdW0NIMl1bQ0gyXVtDSDJdW05IXUMyPU8=

> <s_epik_cmdline>
J2VwaWtfcHl0aG9uJywgJy1waCcsICc3LjAnLCAnLXRuJywgJzgnLCAnLW1hJywgJzIwMCcsICctbWV0YWxfYmluZGluZycsICctaW1hZScsICc8aW5maWxlLm1hZT4nLCAnLW9tYWUnLCAnPG91dGZpbGUubWFlPic=

> <r_lp_tautomer_probability>
1

> <r_epik_Ionization_Penalty>
2.27343e-05

> <r_epik_Ionization_Penalty_Charging>
0

> <r_epik_Ionization_Penalty_Neutral>
2.27343e-05

> <r_epik_State_Penalty>
-0

> <r_epik_Charging_Adjusted_Penalty>
0

> <i_epik_Tot_Q>
0

> <i_epik_Tot_abs_Q>
0

> <r_epik_Metal_State_Penalty>
-0

> <b_epik_Metal_Only>
0

> <s_lp_Force_Field>
OPLS_2005

> <r_lp_Energy>
7.86792

> <b_lp_Chiralities_Consistent>
1

> <s_lp_Variant>
AV-unprocessed.smi:2022-2

> <Gold.Version>
5.8.1

> <Gold.Id.Protein>
6NUR|6NUR_protein|mol2

> <Gold.PLP.Fitness>
36.0923

> <Gold.PLP.PLP>
-28.1934

> <Gold.PLP.part.hbond>
-3.0000

> <Gold.PLP.part.metal>
0.0000

> <Gold.PLP.part.buried>
-4.4091

> <Gold.PLP.part.nonpolar>
-22.9830

> <Gold.PLP.part.repulsive>
0.4983

> <Gold.PLP.ligand.clash>
0.0000

> <Gold.PLP.ligand.torsion>
0.5268

> <Gold.PLP.Chemscore.Hbond>
2.9750

> <Gold.PLP.Chemscore.CHOScore>
0.0000

> <Gold.PLP.Chemscore.Metal>
0.0000

> <Gold.Chemscore.Hbonds>
donor molecule, donor type, donor heavy atom, donor atom, acceptor molecule, acceptor atom, score
      L1  H     5    23       P1  7948  1.00
      L1  H     8    24       P1  7948  1.00
      L1  H    14    34       P1 10957  1.00

> <Gold.PLP.Chemscore.Internal.Correction>
0.0275

> <Gold.Rescore>
     Score         DG    S(hbond)    S(metal)    S(lipo)     H(rot)  DE(clash)    DE(int)     intcor
     13.80     -18.45       2.50        0.00      61.27       1.00       0.03       4.62       ----

> <Gold.Chemscore.Fitness>
13.7965

> <Gold.Chemscore.DG>
-18.4482

> <Gold.Chemscore.ZeroCoef>
-5.4800

> <Gold.Chemscore.Hbond>
2.5031

> <Gold.Chemscore.Metal>
0.0000

> <Gold.Chemscore.Lipo>
61.2652

> <Gold.Chemscore.Internal_Hbond>
0.0000

> <Gold.Chemscore.DEClash>
0.0279

> <Gold.Chemscore.DEInternal>
4.6238

> <Gold.Chemscore.Rot>
1.0000

> <Gold.Chemscore.Internal.Correction>
   9.000000E+99

> <Gold.Chemscore.Hbonds>
donor molecule, donor type, donor heavy atom, donor atom, acceptor molecule, acceptor atom, score
      L1  H     5    23       P1  7948  0.97
      L1  H     8    24       P1  7948  0.99
      L1  H    14    34       P1 10957  0.37

> <Gold.Chemscore.Hbond.Weighted>
-8.3602

> <Gold.Chemscore.Metal.Weighted>
-0.0000

> <Gold.Chemscore.Lipo.Weighted>
-7.1680

> <Gold.Chemscore.Internal_Hbond.Weighted>
0.0000

> <Gold.Chemscore.DEClash.Weighted>
0.0279

> <Gold.Chemscore.DEInternal.Weighted>
4.6238

> <Gold.Chemscore.Rot.Weighted>
2.5600

> <Gold.Chemscore.Internal.Correction.Weighted>
   9.000000E+99

> <Gold.Protein.RotatedTorsions>
[ 6907 6896 6895 6894 ] final   27.30 input  -60.11 | X-H torsion
[ 7974 7965 7964 7962 ] final -106.42 input  175.53 | X-H torsion
[ 8008 7997 7996 7995 ] final  174.57 input   59.86 | X-H torsion
[ 10167 10162 10161 10158 ] final  151.68 input  -65.29 | X-H torsion
[ 10718 10713 10712 10709 ] final   63.90 input   66.30 | X-H torsion
[ 10763 10752 10751 10750 ] final -155.81 input  -60.55 | X-H torsion
[ 11005 11000 10999 10996 ] final -122.34 input  -57.11 | X-H torsion

> <Gold.Protein.ActiveResidues>
 VAL166  LYS551  ARG553  GLY616  TRP617  ASP618  TYR619  PRO620  LYS621  CYS622 
 ASP623  PHE694  ASN695  SER759  ASP760  ASP761  ALA762  ILE779  LEU786  VAL792 
 PHE793  MET794  SER795  GLU796  ALA797  LYS798  CYS799  TRP800  GLU811  SER814 

> <Gold.Protein.RotatedAtoms>
  152.0003  134.9932  160.0564 H   0  0  0  0  0  0  0  0  0  0  0  0  # atno 6907 bound_to 6896
  152.1526  133.4526  159.4829 H   0  0  0  0  0  0  0  0  0  0  0  0  # atno 6908 bound_to 6896
  150.6877  134.2089  159.4394 H   0  0  0  0  0  0  0  0  0  0  0  0  # atno 6909 bound_to 6896
  145.2181  140.9123  143.3275 H   0  0  0  0  0  0  0  0  0  0  0  0  # atno 7974 bound_to 7965
  156.0961  140.1431  156.9529 H   0  0  0  0  0  0  0  0  0  0  0  0  # atno 8008 bound_to 7997
  154.4672  140.0922  156.7097 H   0  0  0  0  0  0  0  0  0  0  0  0  # atno 8009 bound_to 7997
  155.4839  140.3446  155.4346 H   0  0  0  0  0  0  0  0  0  0  0  0  # atno 8010 bound_to 7997
  139.4838  144.5420  151.7547 H   0  0  0  0  0  0  0  0  0  0  0  0  # atno 10167 bound_to 10162
  157.6003  130.9130  149.9775 H   0  0  0  0  0  0  0  0  0  0  0  0  # atno 10718 bound_to 10713
  154.7759  135.3159  154.8092 H   0  0  0  0  0  0  0  0  0  0  0  0  # atno 10763 bound_to 10752
  153.8816  135.6834  153.4771 H   0  0  0  0  0  0  0  0  0  0  0  0  # atno 10764 bound_to 10752
  153.1383  135.4750  154.9392 H   0  0  0  0  0  0  0  0  0  0  0  0  # atno 10765 bound_to 10752
  141.0002  134.0413  157.3547 H   0  0  0  0  0  0  0  0  0  0  0  0  # atno 11005 bound_to 11000
  144.9792  139.3801  143.6270 LP  0  0  0  0  0  0  0  0  0  0  0  0  # atno 17320 bound_to 7965
  146.3382  139.8924  142.8807 LP  0  0  0  0  0  0  0  0  0  0  0  0  # atno 17321 bound_to 7965
  140.4961  144.1238  150.5960 LP  0  0  0  0  0  0  0  0  0  0  0  0  # atno 17342 bound_to 10162
  140.4115  143.2654  151.9827 LP  0  0  0  0  0  0  0  0  0  0  0  0  # atno 17343 bound_to 10162
  156.1074  130.3652  150.0109 LP  0  0  0  0  0  0  0  0  0  0  0  0  # atno 17370 bound_to 10713
  156.8213  130.9360  151.3641 LP  0  0  0  0  0  0  0  0  0  0  0  0  # atno 17371 bound_to 10713
  139.9035  135.0172  156.7379 LP  0  0  0  0  0  0  0  0  0  0  0  0  # atno 17394 bound_to 11000
  140.6901  133.9398  155.7961 LP  0  0  0  0  0  0  0  0  0  0  0  0  # atno 17395 bound_to 11000

$$$$
