#       Name:                AV-unprocessed.smi:215
#       Creating user name   scv26
#       Creation time:       Thu Mar 26 20:03:29 2020


#       File generated by GOLD software.
#

@<TRIPOS>MOLECULE
AV-unprocessed.smi:215
    68    71     1
SMALL
NO_CHARGES


@<TRIPOS>ATOM
      1 ****        -1.9197   0.5937   2.2474 C.3            1 S1                 0.0000
      2 ****        -2.4637   0.8491   0.8241 C.3            1 S1                 0.0000
      3 ****        -3.9540   1.2858   0.8236 C.3            1 S1                 0.0000
      4 ****        -4.9485   0.1930   0.5784 N.4            1 S1                 1.0000
      5 ****        -6.3446   0.6982   0.6562 C.3            1 S1                 0.0000
      6 ****        -4.7450  -1.0298   1.4087 C.3            1 S1                 0.0000
      7 ****        -5.6013  -2.2339   0.9723 C.3            1 S1                 0.0000
      8 ****        -5.2694  -2.6206  -0.3451 O.3            1 S1                 0.0000
      9 ****        -4.0005   2.3685  -0.2683 C.3            1 S1                 0.0000
     10 ****        -2.6262   3.0212  -0.2093 C.3            1 S1                 0.0000
     11 ****        -1.7363   1.9491   0.1984 N.pl3          1 S1                 0.0000
     12 ****        -0.4407   1.9000  -0.2116 C.ar           1 S1                 0.0000
     13 ****         0.1666   3.0765  -0.5181 N.ar           1 S1                 0.0000
     14 ****         1.4402   3.1016  -0.9194 C.ar           1 S1                 0.0000
     15 ****         2.2823   2.0810  -1.0810 N.ar           1 S1                 0.0000
     16 ****         1.6836   0.8937  -0.7803 C.ar           1 S1                 0.0000
     17 ****         0.3371   0.7104  -0.3488 C.ar           1 S1                 0.0000
     18 ****         0.0907  -0.6478  -0.1731 N.2            1 S1                 0.0000
     19 ****         1.2196  -1.2273  -0.4752 C.2            1 S1                 0.0000
     20 ****         2.2394  -0.3729  -0.8239 N.pl3          1 S1                 0.0000
     21 ****         3.5636  -0.7352  -1.2372 C.3            1 S1                 0.0000
     22 ****         4.2251  -2.0312  -0.7554 C.3            1 S1                 0.0000
     23 ****         5.6003  -1.3247  -0.7858 C.3            1 S1                 0.0000
     24 ****         6.5730  -1.6583   0.3629 C.3            1 S1                 0.0000
     25 ****         5.9626  -1.5716   1.6350 O.3            1 S1                 0.0000
     26 ****         6.3740  -1.5096  -2.1053 C.3            1 S1                 0.0000
     27 ****         7.3976  -0.5453  -2.2474 O.3            1 S1                 0.0000
     28 ****         4.7895  -0.0130  -0.6709 C.3            1 S1                 0.0000
     29 ****        -2.3495  -0.0320   0.1940 H              1 S1                 0.0000
     30 ****        -4.1808   1.7585   1.7812 H              1 S1                 0.0000
     31 ****        -2.4667  -0.1879   2.7710 H              1 S1                 0.0000
     32 ****        -1.9853   1.4954   2.8574 H              1 S1                 0.0000
     33 ****        -0.8725   0.2937   2.2316 H              1 S1                 0.0000
     34 ****        -6.6051   0.9655   1.6811 H              1 S1                 0.0000
     35 ****        -7.0631  -0.0385   0.3011 H              1 S1                 0.0000
     36 ****        -6.4956   1.5776   0.0321 H              1 S1                 0.0000
     37 ****        -3.7105  -1.3615   1.3515 H              1 S1                 0.0000
     38 ****        -4.9417  -0.7907   2.4547 H              1 S1                 0.0000
     39 ****        -5.4030  -3.0795   1.6314 H              1 S1                 0.0000
     40 ****        -6.6701  -2.0387   1.0469 H              1 S1                 0.0000
     41 ****        -4.3758  -2.9296  -0.3555 H              1 S1                 0.0000
     42 ****        -4.1368   1.9074  -1.2480 H              1 S1                 0.0000
     43 ****        -4.7994   3.0962  -0.1242 H              1 S1                 0.0000
     44 ****        -2.3543   3.4519  -1.1740 H              1 S1                 0.0000
     45 ****        -2.5996   3.8111   0.5422 H              1 S1                 0.0000
     46 ****         1.8424   4.0792  -1.1407 H              1 S1                 0.0000
     47 ****         1.3389  -2.3006  -0.4469 H              1 S1                 0.0000
     48 ****         3.5600  -0.6868  -2.3274 H              1 S1                 0.0000
     49 ****         3.8990  -2.3152   0.2463 H              1 S1                 0.0000
     50 ****         4.1255  -2.8695  -1.4456 H              1 S1                 0.0000
     51 ****         6.9721  -2.6670   0.2523 H              1 S1                 0.0000
     52 ****         7.4270  -0.9805   0.3633 H              1 S1                 0.0000
     53 ****         6.6089  -1.7777   2.2928 H              1 S1                 0.0000
     54 ****         6.8189  -2.5037  -2.1630 H              1 S1                 0.0000
     55 ****         5.7135  -1.4222  -2.9682 H              1 S1                 0.0000
     56 ****         7.8269  -0.6824  -3.0780 H              1 S1                 0.0000
     57 ****         5.1495   0.8096  -1.2896 H              1 S1                 0.0000
     58 ****         4.6346   0.3172   0.3575 H              1 S1                 0.0000
     59 ****        -4.8029  -0.1014  -0.3771 H              1 S1                 0.0000
     60 ****        -5.3612  -1.8364  -0.9589 LP             1 S1                 0.0000
     61 ****        -5.8816  -3.3521  -0.6451 LP             1 S1                 0.0000
     62 ****        -0.3454   3.9322  -0.4424 LP             1 S1                 0.0000
     63 ****         3.2308   2.1743  -1.3838 LP             1 S1                 0.0000
     64 ****        -0.7612  -1.0823   0.1193 LP             1 S1                 0.0000
     65 ****         5.2053  -2.2223   1.6907 LP             1 S1                 0.0000
     66 ****         5.6169  -0.6446   1.7807 LP             1 S1                 0.0000
     67 ****         8.0601  -0.6451  -1.5050 LP             1 S1                 0.0000
     68 ****         7.0020   0.3727  -2.2199 LP             1 S1                 0.0000
@<TRIPOS>BOND
    1    1    2 1     
    2    1   31 1     
    3    1   32 1     
    4    1   33 1     
    5    2   29 1     
    6    2   11 1     
    7    2    3 1     
    8    3   30 1     
    9    3    4 1     
   10    3    9 1     
   11    4    5 1     
   12    4    6 1     
   13    4   59 1     
   14    5   34 1     
   15    5   35 1     
   16    5   36 1     
   17    6    7 1     
   18    6   37 1     
   19    6   38 1     
   20    7    8 1     
   21    7   39 1     
   22    7   40 1     
   23    8   41 1     
   24    9   10 1     
   25    9   42 1     
   26    9   43 1     
   27   10   11 1     
   28   10   44 1     
   29   10   45 1     
   30   11   12 1     
   31   12   17 ar    
   32   12   13 ar    
   33   13   14 ar    
   34   14   15 ar    
   35   14   46 1     
   36   15   16 ar    
   37   16   20 1     
   38   16   17 ar    
   39   17   18 1     
   40   18   19 2     
   41   19   20 1     
   42   19   47 1     
   43   20   21 1     
   44   21   28 1     
   45   21   22 1     
   46   21   48 1     
   47   22   23 1     
   48   22   49 1     
   49   22   50 1     
   50   23   24 1     
   51   23   26 1     
   52   23   28 1     
   53   24   25 1     
   54   24   51 1     
   55   24   52 1     
   56   25   53 1     
   57   26   27 1     
   58   26   54 1     
   59   26   55 1     
   60   27   56 1     
   61   28   57 1     
   62   28   58 1     
   63    8   60 1     
   64    8   61 1     
   65   13   62 1     
   66   15   63 1     
   67   18   64 1     
   68   25   65 1     
   69   25   66 1     
   70   27   67 1     
   71   27   68 1     
@<TRIPOS>SUBSTRUCTURE
      1 S1             1
@<TRIPOS>SET
LONE_PAIRS      STATIC     ATOMS    <user>   **** ""
9 60 61 62 63 64 65 66 67 68
DONOR_HYDROGENS      STATIC     ATOMS    <user>   **** ""
4 59 41 53 56
ATOM$BLUE        STATIC     ATOMS    COLORGROUP SYSTEM
9 60 61 62 63 64 65 66 67 68
ATOM$RED        STATIC     ATOMS    COLORGROUP SYSTEM
4 59 41 53 56
