AV-unprocessed.smi:3342|AV-procd|sdf|12889|dock6
  -GOLD-   2272019293D 1   1.00000     0.00000
 Structure written by MMmdl.
 41 42  0  0  0  0  0  0  0  0  1 V2000
  147.7099  135.5466  155.8826 C   0  0  0  0  0  0  0  0  0  0  0  0
  148.1103  136.5142  154.7567 C   0  0  2  0  0  0  0  0  0  0  0  0
  148.1940  137.9849  155.2203 C   0  0  0  0  0  0  0  0  0  0  0  0
  149.5507  138.4983  155.2183 N   0  0  0  0  0  0  0  0  0  0  0  0
  150.6134  138.0558  155.9946 C   0  0  0  0  0  0  0  0  0  0  0  0
  151.6986  138.8314  155.6543 C   0  0  0  0  0  0  0  0  0  0  0  0
  151.3301  139.7486  154.6727 N   0  0  0  0  0  0  0  0  0  0  0  0
  150.0459  139.4888  154.4634 C   0  0  0  0  0  0  0  0  0  0  0  0
  147.1562  136.3880  153.6592 N   0  0  0  0  0  0  0  0  0  0  0  0
  145.8237  136.5374  153.7561 C   0  0  0  0  0  0  0  0  0  0  0  0
  145.2727  136.8225  154.8205 O   0  0  0  0  0  0  0  0  0  0  0  0
  145.1485  136.3698  152.5907 N   0  0  0  0  0  0  0  0  0  0  0  0
  145.7416  136.0815  151.2738 C   0  0  0  0  0  0  0  0  0  0  0  0
  145.5071  134.5966  150.9425 C   0  0  0  0  0  0  0  0  0  0  0  0
  143.9997  134.2488  150.9751 C   0  0  0  0  0  0  0  0  0  0  0  0
  143.7786  132.7423  150.7853 C   0  0  0  0  0  0  0  0  0  0  0  0
  142.5208  132.3291  150.6109 N   0  0  0  0  0  0  0  0  0  0  0  0
  144.7277  131.9606  150.7948 O   0  0  0  0  0  0  0  0  0  0  0  0
  143.3459  134.7456  152.2867 C   0  0  0  0  0  0  0  0  0  0  0  0
  143.6884  136.2227  152.5541 C   0  0  0  0  0  0  0  0  0  0  0  0
  148.4473  135.5398  156.6854 H   0  0  0  0  0  0  0  0  0  0  0  0
  147.6296  134.5247  155.5110 H   0  0  0  0  0  0  0  0  0  0  0  0
  146.7473  135.8203  156.3162 H   0  0  0  0  0  0  0  0  0  0  0  0
  149.0939  136.2053  154.3980 H   0  0  0  0  0  0  0  0  0  0  0  0
  147.5922  138.6251  154.5738 H   0  0  0  0  0  0  0  0  0  0  0  0
  147.7859  138.0879  156.2271 H   0  0  0  0  0  0  0  0  0  0  0  0
  150.5110  137.2501  156.7067 H   0  0  0  0  0  0  0  0  0  0  0  0
  152.7083  138.7996  156.0363 H   0  0  0  0  0  0  0  0  0  0  0  0
  149.4501  140.0359  153.7474 H   0  0  0  0  0  0  0  0  0  0  0  0
  147.5366  136.1639  152.7515 H   0  0  0  0  0  0  0  0  0  0  0  0
  145.2637  136.7096  150.5205 H   0  0  0  0  0  0  0  0  0  0  0  0
  146.8045  136.3125  151.2051 H   0  0  0  0  0  0  0  0  0  0  0  0
  145.9205  134.3706  149.9587 H   0  0  0  0  0  0  0  0  0  0  0  0
  146.0565  133.9809  151.6570 H   0  0  0  0  0  0  0  0  0  0  0  0
  143.5213  134.7757  150.1474 H   0  0  0  0  0  0  0  0  0  0  0  0
  142.3252  131.3470  150.4818 H   0  0  0  0  0  0  0  0  0  0  0  0
  141.7684  133.0026  150.6089 H   0  0  0  0  0  0  0  0  0  0  0  0
  142.2633  134.6243  152.2346 H   0  0  0  0  0  0  0  0  0  0  0  0
  143.6829  134.1433  153.1321 H   0  0  0  0  0  0  0  0  0  0  0  0
  143.2080  136.5568  153.4749 H   0  0  0  0  0  0  0  0  0  0  0  0
  143.2785  136.8534  151.7639 H   0  0  0  0  0  0  0  0  0  0  0  0
  1  2  1  0  0  0  0
  1 21  1  0  0  0  0
  1 22  1  0  0  0  0
  1 23  1  0  0  0  0
  2  3  1  0  0  0  0
  2  9  1  0  0  0  0
  2 24  1  0  0  0  0
  3  4  1  0  0  0  0
  3 25  1  0  0  0  0
  3 26  1  0  0  0  0
  4  8  1  0  0  0  0
  4  5  1  0  0  0  0
  5  6  2  0  0  0  0
  5 27  1  0  0  0  0
  6  7  1  0  0  0  0
  6 28  1  0  0  0  0
  7  8  2  0  0  0  0
  8 29  1  0  0  0  0
  9 10  1  0  0  0  0
  9 30  1  0  0  0  0
 10 11  2  0  0  0  0
 10 12  1  0  0  0  0
 12 20  1  0  0  0  0
 12 13  1  0  0  0  0
 13 14  1  0  0  0  0
 13 31  1  0  0  0  0
 13 32  1  0  0  0  0
 14 15  1  0  0  0  0
 14 33  1  0  0  0  0
 14 34  1  0  0  0  0
 15 16  1  0  0  0  0
 15 19  1  0  0  0  0
 15 35  1  0  0  0  0
 16 17  1  0  0  0  0
 16 18  2  0  0  0  0
 17 36  1  0  0  0  0
 17 37  1  0  0  0  0
 19 20  1  0  0  0  0
 19 38  1  0  0  0  0
 19 39  1  0  0  0  0
 20 40  1  0  0  0  0
 20 41  1  0  0  0  0
M  END
> <s_m_source_file>
AV-unprocessed.smi

> <i_m_source_file_index>
3342

> <i_lp_mmshare_version>
43012

> <i_f3d_flags>
0

> <s_epik_input>
W2NIXTFuW2NIXVtjSF1uMVtDSDJdW0NAQEhdKFtDSDNdKVtOSF1DKD1PKU4yW0NIMl1bQ0gyXVtDSF0oQyg9TylbTkgyXSlbQ0gyXVtDSDJdMg==

> <s_epik_cmdline>
J2VwaWtfcHl0aG9uJywgJy1waCcsICc3LjAnLCAnLXRuJywgJzgnLCAnLW1hJywgJzIwMCcsICctbWV0YWxfYmluZGluZycsICctaW1hZScsICc8aW5maWxlLm1hZT4nLCAnLW9tYWUnLCAnPG91dGZpbGUubWFlPic=

> <r_lp_tautomer_probability>
1

> <r_epik_Ionization_Penalty>
0.624431

> <r_epik_Ionization_Penalty_Charging>
0.624374

> <r_epik_Ionization_Penalty_Neutral>
5.67186e-05

> <r_epik_State_Penalty>
0.640677

> <r_epik_Charging_Adjusted_Penalty>
1.26505

> <i_epik_Tot_Q>
0

> <i_epik_Tot_abs_Q>
0

> <r_epik_Metal_State_Penalty>
0.307574

> <b_epik_Metal_Only>
0

> <s_lp_Force_Field>
OPLS_2005

> <r_lp_Energy>
29.2273

> <b_lp_Chiralities_Consistent>
1

> <s_lp_Variant>
AV-unprocessed.smi:3342-3

> <Gold.Version>
5.8.1

> <Gold.Id.Protein>
6NUR|6NUR_protein|mol2

> <Gold.PLP.Fitness>
39.7990

> <Gold.PLP.PLP>
-27.8729

> <Gold.PLP.part.hbond>
-3.9821

> <Gold.PLP.part.metal>
0.0000

> <Gold.PLP.part.buried>
-2.6816

> <Gold.PLP.part.nonpolar>
-21.1163

> <Gold.PLP.part.repulsive>
0.3529

> <Gold.PLP.ligand.clash>
0.0000

> <Gold.PLP.ligand.torsion>
0.9243

> <Gold.PLP.Chemscore.Hbond>
3.5621

> <Gold.PLP.Chemscore.CHOScore>
1.0000

> <Gold.PLP.Chemscore.Metal>
0.0000

> <Gold.Chemscore.Hbonds>
donor molecule, donor type, donor heavy atom, donor atom, acceptor molecule, acceptor atom, score
      L1  H     9    30       P1  7948  0.86
      L1  H    17    36       P1 10952  0.66
      L1  H    17    37       P1 10186  0.86
      P1  H  7989  7998       L1     7  1.00
      L1  C     8    29       P1  7957  0.83

> <Gold.PLP.Chemscore.Internal.Correction>
0.0883

> <Gold.Rescore>
     Score         DG    S(hbond)    S(metal)    S(lipo)     H(rot)  DE(clash)    DE(int)     intcor
     14.20     -16.66       3.65        0.00      41.09       2.28       0.53       1.94       ----

> <Gold.Chemscore.Fitness>
14.1962

> <Gold.Chemscore.DG>
-16.6583

> <Gold.Chemscore.ZeroCoef>
-5.4800

> <Gold.Chemscore.Hbond>
3.6515

> <Gold.Chemscore.Metal>
0.0000

> <Gold.Chemscore.Lipo>
41.0941

> <Gold.Chemscore.Internal_Hbond>
0.0000

> <Gold.Chemscore.DEClash>
0.5269

> <Gold.Chemscore.DEInternal>
1.9352

> <Gold.Chemscore.Rot>
2.2757

> <Gold.Chemscore.Internal.Correction>
   9.000000E+99

> <Gold.Chemscore.Hbonds>
donor molecule, donor type, donor heavy atom, donor atom, acceptor molecule, acceptor atom, score
      L1  H     9    30       P1  7948  0.85
      L1  H    17    36       P1 10952  0.22
      L1  H    17    37       P1 10186  0.83
      P1  H  7989  7998       L1     7  0.35

> <Gold.Chemscore.Hbond.Weighted>
-12.1961

> <Gold.Chemscore.Metal.Weighted>
-0.0000

> <Gold.Chemscore.Lipo.Weighted>
-4.8080

> <Gold.Chemscore.Internal_Hbond.Weighted>
0.0000

> <Gold.Chemscore.DEClash.Weighted>
0.5269

> <Gold.Chemscore.DEInternal.Weighted>
1.9352

> <Gold.Chemscore.Rot.Weighted>
5.8259

> <Gold.Chemscore.Internal.Correction.Weighted>
   9.000000E+99

> <Gold.Protein.RotatedTorsions>
[ 6907 6896 6895 6894 ] final -110.43 input  -60.11 | X-H torsion
[ 7974 7965 7964 7962 ] final    5.58 input  175.53 | X-H torsion
[ 8008 7997 7996 7995 ] final -107.37 input   59.86 | X-H torsion
[ 10167 10162 10161 10158 ] final  136.26 input  -65.29 | X-H torsion
[ 10718 10713 10712 10709 ] final  -16.54 input   66.30 | X-H torsion
[ 10763 10752 10751 10750 ] final   22.80 input  -60.55 | X-H torsion
[ 11005 11000 10999 10996 ] final  164.15 input  -57.11 | X-H torsion

> <Gold.Protein.ActiveResidues>
 VAL166  LYS551  ARG553  GLY616  TRP617  ASP618  TYR619  PRO620  LYS621  CYS622 
 ASP623  PHE694  ASN695  SER759  ASP760  ASP761  ALA762  ILE779  LEU786  VAL792 
 PHE793  MET794  SER795  GLU796  ALA797  LYS798  CYS799  TRP800  GLU811  SER814 

> <Gold.Protein.RotatedAtoms>
  150.7624  133.9383  159.3447 H   0  0  0  0  0  0  0  0  0  0  0  0  # atno 6907 bound_to 6896
  151.7288  135.0877  160.0306 H   0  0  0  0  0  0  0  0  0  0  0  0  # atno 6908 bound_to 6896
  152.3603  133.6251  159.6046 H   0  0  0  0  0  0  0  0  0  0  0  0  # atno 6909 bound_to 6896
  146.2440  140.0362  142.8385 H   0  0  0  0  0  0  0  0  0  0  0  0  # atno 7974 bound_to 7965
  154.9283  140.0405  157.2035 H   0  0  0  0  0  0  0  0  0  0  0  0  # atno 8008 bound_to 7997
  154.8185  140.2880  155.5781 H   0  0  0  0  0  0  0  0  0  0  0  0  # atno 8009 bound_to 7997
  156.2978  140.2523  156.3088 H   0  0  0  0  0  0  0  0  0  0  0  0  # atno 8010 bound_to 7997
  139.5186  144.6474  151.5402 H   0  0  0  0  0  0  0  0  0  0  0  0  # atno 10167 bound_to 10162
  156.5861  130.4787  149.6299 H   0  0  0  0  0  0  0  0  0  0  0  0  # atno 10718 bound_to 10713
  153.0887  135.6640  153.9897 H   0  0  0  0  0  0  0  0  0  0  0  0  # atno 10763 bound_to 10752
  153.9500  135.2985  155.3440 H   0  0  0  0  0  0  0  0  0  0  0  0  # atno 10764 bound_to 10752
  154.7299  135.5127  153.9019 H   0  0  0  0  0  0  0  0  0  0  0  0  # atno 10765 bound_to 10752
  140.2430  134.8036  157.3429 H   0  0  0  0  0  0  0  0  0  0  0  0  # atno 11005 bound_to 11000
  145.1110  140.9405  143.4656 LP  0  0  0  0  0  0  0  0  0  0  0  0  # atno 17320 bound_to 7965
  145.0576  139.3131  143.5897 LP  0  0  0  0  0  0  0  0  0  0  0  0  # atno 17321 bound_to 7965
  140.6264  143.9160  150.6568 LP  0  0  0  0  0  0  0  0  0  0  0  0  # atno 17342 bound_to 10162
  140.2450  143.3635  152.1454 LP  0  0  0  0  0  0  0  0  0  0  0  0  # atno 17343 bound_to 10162
  156.2589  130.6951  151.1713 LP  0  0  0  0  0  0  0  0  0  0  0  0  # atno 17370 bound_to 10713
  157.7315  131.0608  150.5676 LP  0  0  0  0  0  0  0  0  0  0  0  0  # atno 17371 bound_to 10713
  140.1634  134.4700  155.7879 LP  0  0  0  0  0  0  0  0  0  0  0  0  # atno 17394 bound_to 11000
  141.2209  133.6911  156.7583 LP  0  0  0  0  0  0  0  0  0  0  0  0  # atno 17395 bound_to 11000

$$$$
