AV-unprocessed.smi:154|AV-procd|sdf|1266|dock3
  -GOLD-   2262018523D 1   1.00000     0.00000
 Structure written by MMmdl.
 53 57  0  0  0  0  0  0  0  0  1 V2000
  145.4839  135.2953  150.2109 O   0  0  0  0  0  0  0  0  0  0  0  0
  144.9183  134.7171  151.3751 C   0  0  0  0  0  0  0  0  0  0  0  0
  144.3336  135.8659  152.2342 C   0  0  0  0  0  0  0  0  0  0  0  0
  145.3365  136.7892  152.7439 N   0  0  0  0  0  0  0  0  0  0  0  0
  146.0987  137.6646  152.0091 C   0  0  0  0  0  0  0  0  0  0  0  0
  146.9353  138.3839  152.7032 N   0  0  0  0  0  0  0  0  0  0  0  0
  146.7402  137.9871  154.0234 C   0  0  0  0  0  0  0  0  0  0  0  0
  147.3141  138.3427  155.2864 C   0  0  0  0  0  0  0  0  0  0  0  0
  148.2890  139.2763  155.5004 N   0  0  0  0  0  0  0  0  0  0  0  0
  148.8799  139.4181  156.8346 C   0  0  2  0  0  0  0  0  0  0  0  0
  149.1394  140.9125  157.1357 C   0  0  0  0  0  0  0  0  0  0  0  0
  149.8850  141.6756  156.0231 C   0  0  0  0  0  0  0  0  0  0  0  0
  149.4588  141.2417  154.6072 C   0  0  0  0  0  0  0  0  0  0  0  0
  149.1978  139.7261  154.4475 C   0  0  1  0  0  0  0  0  0  0  0  0
  150.4630  138.8289  154.4240 C   0  0  0  0  0  0  0  0  0  0  0  0
  151.1274  138.6146  155.8035 C   0  0  0  0  0  0  0  0  0  0  0  0
  151.8501  137.4955  155.7518 F   0  0  0  0  0  0  0  0  0  0  0  0
  151.9822  139.5985  156.0641 F   0  0  0  0  0  0  0  0  0  0  0  0
  150.1033  138.4786  156.9525 C   0  0  0  0  0  0  0  0  0  0  0  0
  146.8218  137.6989  156.3787 N   0  0  0  0  0  0  0  0  0  0  0  0
  145.8629  136.7779  156.2659 C   0  0  0  0  0  0  0  0  0  0  0  0
  145.2509  136.3463  155.1649 N   0  0  0  0  0  0  0  0  0  0  0  0
  145.7258  136.9832  154.0579 C   0  0  0  0  0  0  0  0  0  0  0  0
  143.8021  133.7450  150.9422 C   0  0  0  0  0  0  0  0  0  0  0  0
  144.3598  132.5008  150.2284 C   0  0  0  0  0  0  0  0  0  0  0  0
  145.3154  131.8515  151.0582 O   0  0  0  0  0  0  0  0  0  0  0  0
  146.4483  132.6671  151.3316 C   0  0  0  0  0  0  0  0  0  0  0  0
  146.0215  133.9242  152.1102 C   0  0  0  0  0  0  0  0  0  0  0  0
  145.7821  134.6001  149.6445 H   0  0  0  0  0  0  0  0  0  0  0  0
  143.6033  136.4374  151.6595 H   0  0  0  0  0  0  0  0  0  0  0  0
  143.7904  135.4545  153.0858 H   0  0  0  0  0  0  0  0  0  0  0  0
  146.0198  137.7484  150.9351 H   0  0  0  0  0  0  0  0  0  0  0  0
  148.1819  139.0938  157.6054 H   0  0  0  0  0  0  0  0  0  0  0  0
  148.1696  141.3924  157.2736 H   0  0  0  0  0  0  0  0  0  0  0  0
  149.6628  141.0258  158.0854 H   0  0  0  0  0  0  0  0  0  0  0  0
  149.7019  142.7441  156.1394 H   0  0  0  0  0  0  0  0  0  0  0  0
  150.9587  141.5830  156.1445 H   0  0  0  0  0  0  0  0  0  0  0  0
  148.5318  141.7634  154.3655 H   0  0  0  0  0  0  0  0  0  0  0  0
  150.1895  141.5833  153.8735 H   0  0  0  0  0  0  0  0  0  0  0  0
  148.7074  139.6385  153.4804 H   0  0  0  0  0  0  0  0  0  0  0  0
  150.1701  137.8485  154.0501 H   0  0  0  0  0  0  0  0  0  0  0  0
  151.1900  139.2068  153.7045 H   0  0  0  0  0  0  0  0  0  0  0  0
  150.5944  138.6023  157.9182 H   0  0  0  0  0  0  0  0  0  0  0  0
  149.7243  137.4553  156.9451 H   0  0  0  0  0  0  0  0  0  0  0  0
  145.5404  136.3225  157.1905 H   0  0  0  0  0  0  0  0  0  0  0  0
  143.2496  133.4152  151.8230 H   0  0  0  0  0  0  0  0  0  0  0  0
  143.0787  134.2512  150.3016 H   0  0  0  0  0  0  0  0  0  0  0  0
  143.5511  131.8021  150.0144 H   0  0  0  0  0  0  0  0  0  0  0  0
  144.8100  132.7638  149.2700 H   0  0  0  0  0  0  0  0  0  0  0  0
  147.1608  132.0897  151.9208 H   0  0  0  0  0  0  0  0  0  0  0  0
  146.9521  132.9335  150.4013 H   0  0  0  0  0  0  0  0  0  0  0  0
  146.8943  134.5511  152.2970 H   0  0  0  0  0  0  0  0  0  0  0  0
  145.6504  133.6159  153.0884 H   0  0  0  0  0  0  0  0  0  0  0  0
  1  2  1  0  0  0  0
  1 29  1  0  0  0  0
  2 28  1  0  0  0  0
  2  3  1  0  0  0  0
  2 24  1  0  0  0  0
  3  4  1  0  0  0  0
  3 30  1  0  0  0  0
  3 31  1  0  0  0  0
  4 23  1  0  0  0  0
  4  5  1  0  0  0  0
  5  6  2  0  0  0  0
  5 32  1  0  0  0  0
  6  7  1  0  0  0  0
  7 23  2  0  0  0  0
  7  8  1  0  0  0  0
  8  9  1  0  0  0  0
  8 20  2  0  0  0  0
  9 14  1  0  0  0  0
  9 10  1  0  0  0  0
 10 19  1  0  0  0  0
 10 11  1  0  0  0  0
 10 33  1  0  0  0  0
 11 12  1  0  0  0  0
 11 34  1  0  0  0  0
 11 35  1  0  0  0  0
 12 13  1  0  0  0  0
 12 36  1  0  0  0  0
 12 37  1  0  0  0  0
 13 14  1  0  0  0  0
 13 38  1  0  0  0  0
 13 39  1  0  0  0  0
 14 15  1  0  0  0  0
 14 40  1  0  0  0  0
 15 16  1  0  0  0  0
 15 41  1  0  0  0  0
 15 42  1  0  0  0  0
 16 17  1  0  0  0  0
 16 18  1  0  0  0  0
 16 19  1  0  0  0  0
 19 43  1  0  0  0  0
 19 44  1  0  0  0  0
 20 21  1  0  0  0  0
 21 22  2  0  0  0  0
 21 45  1  0  0  0  0
 22 23  1  0  0  0  0
 24 25  1  0  0  0  0
 24 46  1  0  0  0  0
 24 47  1  0  0  0  0
 25 26  1  0  0  0  0
 25 48  1  0  0  0  0
 25 49  1  0  0  0  0
 26 27  1  0  0  0  0
 27 28  1  0  0  0  0
 27 50  1  0  0  0  0
 27 51  1  0  0  0  0
 28 52  1  0  0  0  0
 28 53  1  0  0  0  0
M  END
> <s_m_source_file>
AV-unprocessed.smi

> <i_m_source_file_index>
154

> <i_lp_mmshare_version>
43012

> <i_f3d_flags>
0

> <s_epik_input>
W0NIMl0xW0NIMl1PW0NIMl1bQ0gyXUMxKFtPSF0pW0NIMl1uKFtjSF1uMiljKGMyMyluW2NIXW5jM04oW0NAQEhdNDUpW0NIXShbQ0gyXVtDSDJdW0NIMl00KVtDSDJdQyhGKShGKVtDSDJdNQ==

> <s_epik_cmdline>
J2VwaWtfcHl0aG9uJywgJy1waCcsICc3LjAnLCAnLXRuJywgJzgnLCAnLW1hJywgJzIwMCcsICctbWV0YWxfYmluZGluZycsICctaW1hZScsICc8aW5maWxlLm1hZT4nLCAnLW9tYWUnLCAnPG91dGZpbGUubWFlPic=

> <r_lp_tautomer_probability>
1

> <r_epik_Ionization_Penalty>
0.00333769

> <r_epik_Ionization_Penalty_Charging>
0

> <r_epik_Ionization_Penalty_Neutral>
0.00333769

> <r_epik_State_Penalty>
0.0022021

> <r_epik_Charging_Adjusted_Penalty>
0.0022021

> <i_epik_Tot_Q>
0

> <i_epik_Tot_abs_Q>
0

> <r_epik_Metal_State_Penalty>
-0

> <b_epik_Metal_Only>
0

> <s_lp_Force_Field>
OPLS_2005

> <r_lp_Energy>
50.9218

> <b_lp_Chiralities_Consistent>
1

> <s_lp_Variant>
AV-unprocessed.smi:154-1

> <Gold.Version>
5.8.1

> <Gold.Id.Protein>
6NUR|6NUR_protein|mol2

> <Gold.PLP.Fitness>
43.8038

> <Gold.PLP.PLP>
-37.9839

> <Gold.PLP.part.hbond>
-1.5780

> <Gold.PLP.part.metal>
0.0000

> <Gold.PLP.part.buried>
-1.5135

> <Gold.PLP.part.nonpolar>
-35.8395

> <Gold.PLP.part.repulsive>
0.4483

> <Gold.PLP.ligand.clash>
0.0000

> <Gold.PLP.ligand.torsion>
0.1818

> <Gold.PLP.Chemscore.Hbond>
1.0000

> <Gold.PLP.Chemscore.CHOScore>
1.0000

> <Gold.PLP.Chemscore.Metal>
0.0000

> <Gold.Chemscore.Hbonds>
donor molecule, donor type, donor heavy atom, donor atom, acceptor molecule, acceptor atom, score
      L1  H     1    29       P1  7921  0.48
      L1  C     5    32       P1 10171  0.78

> <Gold.PLP.Chemscore.Internal.Correction>
0.1835

> <Gold.Rescore>
     Score         DG    S(hbond)    S(metal)    S(lipo)     H(rot)  DE(clash)    DE(int)     intcor
     13.01     -13.63       0.95        0.00      81.68       1.78       0.17       0.45       ----

> <Gold.Chemscore.Fitness>
13.0078

> <Gold.Chemscore.DG>
-13.6306

> <Gold.Chemscore.ZeroCoef>
-5.4800

> <Gold.Chemscore.Hbond>
0.9468

> <Gold.Chemscore.Metal>
0.0000

> <Gold.Chemscore.Lipo>
81.6797

> <Gold.Chemscore.Internal_Hbond>
0.0000

> <Gold.Chemscore.DEClash>
0.1682

> <Gold.Chemscore.DEInternal>
0.4546

> <Gold.Chemscore.Rot>
1.7845

> <Gold.Chemscore.Internal.Correction>
   9.000000E+99

> <Gold.Chemscore.Hbonds>
donor molecule, donor type, donor heavy atom, donor atom, acceptor molecule, acceptor atom, score
      L1  H     1    29       P1  7921  0.36

> <Gold.Chemscore.Hbond.Weighted>
-3.1625

> <Gold.Chemscore.Metal.Weighted>
-0.0000

> <Gold.Chemscore.Lipo.Weighted>
-9.5565

> <Gold.Chemscore.Internal_Hbond.Weighted>
0.0000

> <Gold.Chemscore.DEClash.Weighted>
0.1682

> <Gold.Chemscore.DEInternal.Weighted>
0.4546

> <Gold.Chemscore.Rot.Weighted>
4.5684

> <Gold.Chemscore.Internal.Correction.Weighted>
   9.000000E+99

> <Gold.Protein.RotatedTorsions>
[ 6907 6896 6895 6894 ] final    4.10 input  -60.11 | X-H torsion
[ 7974 7965 7964 7962 ] final   42.43 input  175.53 | X-H torsion
[ 8008 7997 7996 7995 ] final   93.63 input   59.86 | X-H torsion
[ 10167 10162 10161 10158 ] final  -43.38 input  -65.29 | X-H torsion
[ 10718 10713 10712 10709 ] final   81.19 input   66.30 | X-H torsion
[ 10763 10752 10751 10750 ] final -164.96 input  -60.55 | X-H torsion
[ 11005 11000 10999 10996 ] final   68.87 input  -57.11 | X-H torsion

> <Gold.Protein.ActiveResidues>
 VAL166  LYS551  ARG553  GLY616  TRP617  ASP618  TYR619  PRO620  LYS621  CYS622 
 ASP623  PHE694  ASN695  SER759  ASP760  ASP761  ALA762  ILE779  LEU786  VAL792 
 PHE793  MET794  SER795  GLU796  ALA797  LYS798  CYS799  TRP800  GLU811  SER814 

> <Gold.Protein.RotatedAtoms>
  151.6359  135.1018  160.0131 H   0  0  0  0  0  0  0  0  0  0  0  0  # atno 6907 bound_to 6896
  152.4081  133.6916  159.6382 H   0  0  0  0  0  0  0  0  0  0  0  0  # atno 6908 bound_to 6896
  150.7974  133.8590  159.3267 H   0  0  0  0  0  0  0  0  0  0  0  0  # atno 6909 bound_to 6896
  146.0741  139.5301  142.9579 H   0  0  0  0  0  0  0  0  0  0  0  0  # atno 7974 bound_to 7965
  156.0489  140.3310  155.7328 H   0  0  0  0  0  0  0  0  0  0  0  0  # atno 8008 bound_to 7997
  155.5632  140.0621  157.2841 H   0  0  0  0  0  0  0  0  0  0  0  0  # atno 8009 bound_to 7997
  154.4426  140.1874  156.0792 H   0  0  0  0  0  0  0  0  0  0  0  0  # atno 8010 bound_to 7997
  140.6936  143.2986  151.3344 H   0  0  0  0  0  0  0  0  0  0  0  0  # atno 10167 bound_to 10162
  157.6826  130.9993  150.2190 H   0  0  0  0  0  0  0  0  0  0  0  0  # atno 10718 bound_to 10713
  154.6978  135.2982  154.9386 H   0  0  0  0  0  0  0  0  0  0  0  0  # atno 10763 bound_to 10752
  154.0328  135.6668  153.4786 H   0  0  0  0  0  0  0  0  0  0  0  0  # atno 10764 bound_to 10752
  153.0659  135.5089  154.8105 H   0  0  0  0  0  0  0  0  0  0  0  0  # atno 10765 bound_to 10752
  139.9686  134.6938  156.0493 H   0  0  0  0  0  0  0  0  0  0  0  0  # atno 11005 bound_to 11000
  145.6338  141.0298  143.1848 LP  0  0  0  0  0  0  0  0  0  0  0  0  # atno 17320 bound_to 7965
  144.7250  139.7905  143.7368 LP  0  0  0  0  0  0  0  0  0  0  0  0  # atno 17321 bound_to 7965
  139.6365  144.0621  152.2520 LP  0  0  0  0  0  0  0  0  0  0  0  0  # atno 17342 bound_to 10162
  140.0112  144.6222  150.7645 LP  0  0  0  0  0  0  0  0  0  0  0  0  # atno 17343 bound_to 10162
  156.2845  130.3737  149.7902 LP  0  0  0  0  0  0  0  0  0  0  0  0  # atno 17370 bound_to 10713
  156.5580  130.8371  151.3320 LP  0  0  0  0  0  0  0  0  0  0  0  0  # atno 17371 bound_to 10713
  141.1366  133.6574  156.3611 LP  0  0  0  0  0  0  0  0  0  0  0  0  # atno 17394 bound_to 11000
  140.5342  134.6183  157.5359 LP  0  0  0  0  0  0  0  0  0  0  0  0  # atno 17395 bound_to 11000

$$$$
