AV-unprocessed.smi:13|AV-procd|sdf|76|dock7
  -GOLD-   2262015203D 1   1.00000     0.00000
 Structure written by MMmdl.
 54 58  0  0  0  0  0  0  0  0  1 V2000
  148.0547  141.8616  154.0757 C   0  0  0  0  0  0  0  0  0  0  0  0
  148.5182  140.7765  155.0477 C   0  0  0  0  0  0  0  0  0  0  0  0
  149.3921  141.4751  156.0983 C   0  0  0  0  0  0  0  0  0  0  0  0
  147.4179  139.8618  155.6069 C   0  0  0  0  0  0  0  0  0  0  0  0
  148.3404  138.7566  155.4188 N   0  0  0  0  0  0  0  0  0  0  0  0
  147.6905  137.5465  155.0475 C   0  0  0  0  0  0  0  0  0  0  0  0
  147.9921  136.3610  155.6437 N   0  0  0  0  0  0  0  0  0  0  0  0
  147.3708  135.2339  155.2846 C   0  0  0  0  0  0  0  0  0  0  0  0
  146.4251  135.0622  154.3605 N   0  0  0  0  0  0  0  0  0  0  0  0
  146.1128  136.2426  153.7549 C   0  0  0  0  0  0  0  0  0  0  0  0
  146.6956  137.5113  154.0332 C   0  0  0  0  0  0  0  0  0  0  0  0
  146.1342  138.4808  153.2121 N   0  0  0  0  0  0  0  0  0  0  0  0
  145.2679  137.8236  152.4906 C   0  0  0  0  0  0  0  0  0  0  0  0
  145.1802  136.4756  152.7588 N   0  0  0  0  0  0  0  0  0  0  0  0
  144.3024  135.5111  152.1129 C   0  0  0  0  0  0  0  0  0  0  0  0
  144.9321  134.8272  150.8758 C   0  0  2  0  0  0  0  0  0  0  0  0
  145.0701  135.7798  149.8359 O   0  0  0  0  0  0  0  0  0  0  0  0
  144.0928  133.6683  150.3515 C   0  0  0  0  0  0  0  0  0  0  0  0
  145.1364  132.7480  149.7333 C   0  0  0  0  0  0  0  0  0  0  0  0
  146.2136  132.8337  150.6502 O   0  0  0  0  0  0  0  0  0  0  0  0
  146.3074  134.1734  151.1257 C   0  0  0  0  0  0  0  0  0  0  0  0
  149.0762  139.4923  154.3934 C   0  0  2  0  0  0  0  0  0  0  0  0
  150.5779  139.1778  154.4133 C   0  0  1  0  0  0  0  0  0  0  0  0
  151.1795  139.0807  155.8199 C   0  0  0  0  0  0  0  0  0  0  0  0
  150.9325  137.6366  156.1891 C   0  0  0  0  0  0  0  0  0  0  0  0
  151.1707  136.9455  154.8529 C   0  0  0  0  0  0  0  0  0  0  0  0
  150.7378  137.8708  153.8601 O   0  0  0  0  0  0  0  0  0  0  0  0
  147.4853  142.6402  154.5842 H   0  0  0  0  0  0  0  0  0  0  0  0
  147.4131  141.4515  153.2951 H   0  0  0  0  0  0  0  0  0  0  0  0
  148.9002  142.3393  153.5794 H   0  0  0  0  0  0  0  0  0  0  0  0
  149.7387  140.7797  156.8631 H   0  0  0  0  0  0  0  0  0  0  0  0
  148.8434  142.2647  156.6128 H   0  0  0  0  0  0  0  0  0  0  0  0
  150.2758  141.9287  155.6483 H   0  0  0  0  0  0  0  0  0  0  0  0
  147.1591  140.0447  156.6501 H   0  0  0  0  0  0  0  0  0  0  0  0
  146.5354  139.7985  154.9668 H   0  0  0  0  0  0  0  0  0  0  0  0
  147.6744  134.3432  155.8143 H   0  0  0  0  0  0  0  0  0  0  0  0
  144.6633  138.3100  151.7392 H   0  0  0  0  0  0  0  0  0  0  0  0
  144.0220  134.7612  152.8533 H   0  0  0  0  0  0  0  0  0  0  0  0
  143.3798  136.0210  151.8318 H   0  0  0  0  0  0  0  0  0  0  0  0
  145.2030  135.3188  149.0218 H   0  0  0  0  0  0  0  0  0  0  0  0
  143.6064  133.1482  151.1782 H   0  0  0  0  0  0  0  0  0  0  0  0
  143.3162  133.9710  149.6479 H   0  0  0  0  0  0  0  0  0  0  0  0
  144.7837  131.7227  149.6208 H   0  0  0  0  0  0  0  0  0  0  0  0
  145.4549  133.1152  148.7564 H   0  0  0  0  0  0  0  0  0  0  0  0
  147.1146  134.6982  150.6118 H   0  0  0  0  0  0  0  0  0  0  0  0
  146.5644  134.1365  152.1837 H   0  0  0  0  0  0  0  0  0  0  0  0
  148.6358  139.3790  153.4016 H   0  0  0  0  0  0  0  0  0  0  0  0
  151.1362  139.8970  153.8130 H   0  0  0  0  0  0  0  0  0  0  0  0
  152.2534  139.2658  155.7736 H   0  0  0  0  0  0  0  0  0  0  0  0
  150.7566  139.7860  156.5343 H   0  0  0  0  0  0  0  0  0  0  0  0
  151.5900  137.2760  156.9805 H   0  0  0  0  0  0  0  0  0  0  0  0
  149.8994  137.4997  156.5112 H   0  0  0  0  0  0  0  0  0  0  0  0
  152.2344  136.7532  154.7083 H   0  0  0  0  0  0  0  0  0  0  0  0
  150.6398  135.9967  154.7721 H   0  0  0  0  0  0  0  0  0  0  0  0
  1  2  1  0  0  0  0
  1 28  1  0  0  0  0
  1 29  1  0  0  0  0
  1 30  1  0  0  0  0
  2 22  1  0  0  0  0
  2  3  1  0  0  0  0
  2  4  1  0  0  0  0
  3 31  1  0  0  0  0
  3 32  1  0  0  0  0
  3 33  1  0  0  0  0
  4  5  1  0  0  0  0
  4 34  1  0  0  0  0
  4 35  1  0  0  0  0
  5  6  1  0  0  0  0
  5 22  1  0  0  0  0
  6 11  1  0  0  0  0
  6  7  2  0  0  0  0
  7  8  1  0  0  0  0
  8  9  2  0  0  0  0
  8 36  1  0  0  0  0
  9 10  1  0  0  0  0
 10 14  1  0  0  0  0
 10 11  2  0  0  0  0
 11 12  1  0  0  0  0
 12 13  2  0  0  0  0
 13 14  1  0  0  0  0
 13 37  1  0  0  0  0
 14 15  1  0  0  0  0
 15 16  1  0  0  0  0
 15 38  1  0  0  0  0
 15 39  1  0  0  0  0
 16 21  1  0  0  0  0
 16 17  1  0  0  0  0
 16 18  1  0  0  0  0
 17 40  1  0  0  0  0
 18 19  1  0  0  0  0
 18 41  1  0  0  0  0
 18 42  1  0  0  0  0
 19 20  1  0  0  0  0
 19 43  1  0  0  0  0
 19 44  1  0  0  0  0
 20 21  1  0  0  0  0
 21 45  1  0  0  0  0
 21 46  1  0  0  0  0
 22 23  1  0  0  0  0
 22 47  1  0  0  0  0
 23 27  1  0  0  0  0
 23 24  1  0  0  0  0
 23 48  1  0  0  0  0
 24 25  1  0  0  0  0
 24 49  1  0  0  0  0
 24 50  1  0  0  0  0
 25 26  1  0  0  0  0
 25 51  1  0  0  0  0
 25 52  1  0  0  0  0
 26 27  1  0  0  0  0
 26 53  1  0  0  0  0
 26 54  1  0  0  0  0
M  END
> <s_m_source_file>
AV-unprocessed.smi

> <i_m_source_file_index>
13

> <i_lp_mmshare_version>
43012

> <i_f3d_flags>
0

> <s_epik_input>
TzFbQ0gyXVtDSDJdW0NIMl1bQ0BIXTFbQ0BASF0yTihbQ0gyXUMyKFtDSDNdKVtDSDNdKWMobltjSF1uMyljKGMzNCluW2NIXW40W0NIMl1bQ0BAXTUoW09IXSlbQ0gyXVtDSDJdT1tDSDJdNQ==

> <s_epik_cmdline>
J2VwaWtfcHl0aG9uJywgJy1waCcsICc3LjAnLCAnLXRuJywgJzgnLCAnLW1hJywgJzIwMCcsICctbWV0YWxfYmluZGluZycsICctaW1hZScsICc8aW5maWxlLm1hZT4nLCAnLW9tYWUnLCAnPG91dGZpbGUubWFlPic=

> <r_lp_tautomer_probability>
1

> <r_epik_Ionization_Penalty>
0.00202764

> <r_epik_Ionization_Penalty_Charging>
0

> <r_epik_Ionization_Penalty_Neutral>
0.00202764

> <r_epik_State_Penalty>
0.00134017

> <r_epik_Charging_Adjusted_Penalty>
0.00134017

> <i_epik_Tot_Q>
0

> <i_epik_Tot_abs_Q>
0

> <r_epik_Metal_State_Penalty>
-0

> <b_epik_Metal_Only>
0

> <s_lp_Force_Field>
OPLS_2005

> <r_lp_Energy>
64.8662

> <b_lp_Chiralities_Consistent>
1

> <s_lp_Variant>
AV-unprocessed.smi:13-8

> <Gold.Version>
5.8.1

> <Gold.Id.Protein>
6NUR|6NUR_protein|mol2

> <Gold.PLP.Fitness>
39.2194

> <Gold.PLP.PLP>
-31.9620

> <Gold.PLP.part.hbond>
-1.6084

> <Gold.PLP.part.metal>
0.0000

> <Gold.PLP.part.buried>
-3.3446

> <Gold.PLP.part.nonpolar>
-28.1624

> <Gold.PLP.part.repulsive>
1.1277

> <Gold.PLP.ligand.clash>
0.0000

> <Gold.PLP.ligand.torsion>
0.7302

> <Gold.PLP.Chemscore.Hbond>
1.0000

> <Gold.PLP.Chemscore.CHOScore>
1.7607

> <Gold.PLP.Chemscore.Metal>
0.0000

> <Gold.Chemscore.Hbonds>
donor molecule, donor type, donor heavy atom, donor atom, acceptor molecule, acceptor atom, score
      L1  H    17    40       P1  7921  1.00
      L1  C    13    37       P1 10171  1.00
      L1  C    13    37       P1 10175  0.71

> <Gold.PLP.Chemscore.Internal.Correction>
0.4356

> <Gold.Rescore>
     Score         DG    S(hbond)    S(metal)    S(lipo)     H(rot)  DE(clash)    DE(int)     intcor
      8.91     -12.92       0.99        0.00      85.52       2.30       0.14       3.87       ----

> <Gold.Chemscore.Fitness>
8.9086

> <Gold.Chemscore.DG>
-12.9182

> <Gold.Chemscore.ZeroCoef>
-5.4800

> <Gold.Chemscore.Hbond>
0.9937

> <Gold.Chemscore.Metal>
0.0000

> <Gold.Chemscore.Lipo>
85.5239

> <Gold.Chemscore.Internal_Hbond>
0.0000

> <Gold.Chemscore.DEClash>
0.1428

> <Gold.Chemscore.DEInternal>
3.8668

> <Gold.Chemscore.Rot>
2.2996

> <Gold.Chemscore.Internal.Correction>
   9.000000E+99

> <Gold.Chemscore.Hbonds>
donor molecule, donor type, donor heavy atom, donor atom, acceptor molecule, acceptor atom, score
      L1  H    17    40       P1  7921  0.98

> <Gold.Chemscore.Hbond.Weighted>
-3.3189

> <Gold.Chemscore.Metal.Weighted>
-0.0000

> <Gold.Chemscore.Lipo.Weighted>
-10.0063

> <Gold.Chemscore.Internal_Hbond.Weighted>
0.0000

> <Gold.Chemscore.DEClash.Weighted>
0.1428

> <Gold.Chemscore.DEInternal.Weighted>
3.8668

> <Gold.Chemscore.Rot.Weighted>
5.8869

> <Gold.Chemscore.Internal.Correction.Weighted>
   9.000000E+99

> <Gold.Protein.RotatedTorsions>
[ 6907 6896 6895 6894 ] final   74.81 input  -60.11 | X-H torsion
[ 7974 7965 7964 7962 ] final  -27.53 input  175.53 | X-H torsion
[ 8008 7997 7996 7995 ] final  172.26 input   59.86 | X-H torsion
[ 10167 10162 10161 10158 ] final   42.77 input  -65.29 | X-H torsion
[ 10718 10713 10712 10709 ] final -143.61 input   66.30 | X-H torsion
[ 10763 10752 10751 10750 ] final   17.51 input  -60.55 | X-H torsion
[ 11005 11000 10999 10996 ] final   40.07 input  -57.11 | X-H torsion

> <Gold.Protein.ActiveResidues>
 VAL166  LYS551  ARG553  GLY616  TRP617  ASP618  TYR619  PRO620  LYS621  CYS622 
 ASP623  PHE694  ASN695  SER759  ASP760  ASP761  ALA762  ILE779  LEU786  VAL792 
 PHE793  MET794  SER795  GLU796  ALA797  LYS798  CYS799  TRP800  GLU811  SER814 

> <Gold.Protein.RotatedAtoms>
  152.4994  134.4216  159.9482 H   0  0  0  0  0  0  0  0  0  0  0  0  # atno 6907 bound_to 6896
  151.4189  133.3698  159.2761 H   0  0  0  0  0  0  0  0  0  0  0  0  # atno 6908 bound_to 6896
  150.9237  134.8676  159.7565 H   0  0  0  0  0  0  0  0  0  0  0  0  # atno 6909 bound_to 6896
  146.1351  140.5164  142.8676 H   0  0  0  0  0  0  0  0  0  0  0  0  # atno 7974 bound_to 7965
  156.1192  140.1490  156.9229 H   0  0  0  0  0  0  0  0  0  0  0  0  # atno 8008 bound_to 7997
  154.4823  140.0875  156.7448 H   0  0  0  0  0  0  0  0  0  0  0  0  # atno 8009 bound_to 7997
  155.4459  140.3433  155.4297 H   0  0  0  0  0  0  0  0  0  0  0  0  # atno 8010 bound_to 7997
  140.3510  144.2350  150.6146 H   0  0  0  0  0  0  0  0  0  0  0  0  # atno 10167 bound_to 10162
  156.3601  130.7733  151.1900 H   0  0  0  0  0  0  0  0  0  0  0  0  # atno 10718 bound_to 10713
  153.1332  135.6744  153.9144 H   0  0  0  0  0  0  0  0  0  0  0  0  # atno 10763 bound_to 10752
  153.8624  135.3080  155.3439 H   0  0  0  0  0  0  0  0  0  0  0  0  # atno 10764 bound_to 10752
  154.7726  135.4931  153.9761 H   0  0  0  0  0  0  0  0  0  0  0  0  # atno 10765 bound_to 10752
  140.1967  134.3921  155.8118 H   0  0  0  0  0  0  0  0  0  0  0  0  # atno 11005 bound_to 11000
  144.7731  140.5681  143.6656 LP  0  0  0  0  0  0  0  0  0  0  0  0  # atno 17320 bound_to 7965
  145.5174  139.1477  143.3571 LP  0  0  0  0  0  0  0  0  0  0  0  0  # atno 17321 bound_to 7965
  140.5218  143.2264  151.8376 LP  0  0  0  0  0  0  0  0  0  0  0  0  # atno 17342 bound_to 10162
  139.4826  144.4827  151.9286 LP  0  0  0  0  0  0  0  0  0  0  0  0  # atno 17343 bound_to 10162
  157.7472  131.0402  150.4589 LP  0  0  0  0  0  0  0  0  0  0  0  0  # atno 17370 bound_to 10713
  156.4799  130.4071  149.6468 LP  0  0  0  0  0  0  0  0  0  0  0  0  # atno 17371 bound_to 10713
  141.2227  133.7073  156.8187 LP  0  0  0  0  0  0  0  0  0  0  0  0  # atno 17394 bound_to 11000
  140.2100  134.8835  157.3263 LP  0  0  0  0  0  0  0  0  0  0  0  0  # atno 17395 bound_to 11000

$$$$
