AV-unprocessed.smi:268|AV-procd|sdf|2041|dock10
  -GOLD-   2262021263D 1   1.00000     0.00000
 Structure written by MMmdl.
 50 53  0  0  0  0  0  0  0  0  1 V2000
  153.6030  140.8957  160.8110 C   0  0  0  0  0  0  0  0  0  0  0  0
  153.2058  142.2939  160.3194 C   0  0  0  0  0  0  0  0  0  0  0  0
  152.8305  142.3031  158.9484 O   0  0  0  0  0  0  0  0  0  0  0  0
  151.5160  141.8305  158.6907 C   0  0  2  0  0  0  0  0  0  0  0  0
  151.4507  140.5021  157.9228 C   0  0  0  0  0  0  0  0  0  0  0  0
  150.3153  141.1207  157.0887 C   0  0  2  0  0  0  0  0  0  0  0  0
  150.3786  140.8056  155.6594 N   0  0  0  0  0  0  0  0  0  0  0  0
  149.3170  141.3359  154.8098 C   0  0  0  0  0  0  0  0  0  0  0  0
  150.7858  139.5624  155.2908 C   0  0  0  0  0  0  0  0  0  0  0  0
  152.0692  139.3562  154.8893 N   0  0  0  0  0  0  0  0  0  0  0  0
  152.4799  138.1350  154.5363 C   0  0  0  0  0  0  0  0  0  0  0  0
  151.7852  136.9962  154.5115 N   0  0  0  0  0  0  0  0  0  0  0  0
  150.4976  137.1944  154.9142 C   0  0  0  0  0  0  0  0  0  0  0  0
  149.9215  138.4312  155.3200 C   0  0  0  0  0  0  0  0  0  0  0  0
  148.5861  138.2412  155.6557 N   0  0  0  0  0  0  0  0  0  0  0  0
  148.3855  136.9663  155.4615 C   0  0  0  0  0  0  0  0  0  0  0  0
  149.4778  136.2628  155.0064 N   0  0  0  0  0  0  0  0  0  0  0  0
  149.5373  134.8412  154.7024 C   0  0  0  0  0  0  0  0  0  0  0  0
  148.2712  134.0640  155.1089 C   0  0  0  0  0  0  0  0  0  0  0  0
  148.0767  134.1977  156.6333 C   0  0  0  0  0  0  0  0  0  0  0  0
  149.1582  133.6584  157.3668 O   0  0  0  0  0  0  0  0  0  0  0  0
  147.0371  134.3430  154.2389 C   0  0  0  0  0  0  0  0  0  0  0  0
  146.8418  132.9393  153.9589 O   0  0  0  0  0  0  0  0  0  0  0  0
  148.1343  132.6467  154.5341 C   0  0  0  0  0  0  0  0  0  0  0  0
  150.9176  142.4892  157.4406 C   0  0  0  0  0  0  0  0  0  0  0  0
  153.9966  140.9431  161.8264 H   0  0  0  0  0  0  0  0  0  0  0  0
  154.3745  140.4615  160.1749 H   0  0  0  0  0  0  0  0  0  0  0  0
  152.7525  140.2154  160.8252 H   0  0  0  0  0  0  0  0  0  0  0  0
  152.4152  142.7172  160.9408 H   0  0  0  0  0  0  0  0  0  0  0  0
  154.0650  142.9568  160.4232 H   0  0  0  0  0  0  0  0  0  0  0  0
  150.8333  141.8805  159.5417 H   0  0  0  0  0  0  0  0  0  0  0  0
  152.3563  140.2996  157.3471 H   0  0  0  0  0  0  0  0  0  0  0  0
  151.1529  139.6425  158.5233 H   0  0  0  0  0  0  0  0  0  0  0  0
  149.3341  140.9731  157.5437 H   0  0  0  0  0  0  0  0  0  0  0  0
  149.7451  141.9357  154.0063 H   0  0  0  0  0  0  0  0  0  0  0  0
  148.6388  141.9740  155.3768 H   0  0  0  0  0  0  0  0  0  0  0  0
  148.7194  140.5395  154.3629 H   0  0  0  0  0  0  0  0  0  0  0  0
  153.5129  138.0598  154.2300 H   0  0  0  0  0  0  0  0  0  0  0  0
  147.4268  136.5037  155.6439 H   0  0  0  0  0  0  0  0  0  0  0  0
  149.7303  134.7236  153.6354 H   0  0  0  0  0  0  0  0  0  0  0  0
  150.4149  134.4334  155.2055 H   0  0  0  0  0  0  0  0  0  0  0  0
  147.9804  135.2427  156.9284 H   0  0  0  0  0  0  0  0  0  0  0  0
  147.1652  133.6924  156.9539 H   0  0  0  0  0  0  0  0  0  0  0  0
  149.9573  133.8244  156.8903 H   0  0  0  0  0  0  0  0  0  0  0  0
  146.1968  134.7857  154.7747 H   0  0  0  0  0  0  0  0  0  0  0  0
  147.2534  134.9082  153.3310 H   0  0  0  0  0  0  0  0  0  0  0  0
  148.8676  132.4045  153.7642 H   0  0  0  0  0  0  0  0  0  0  0  0
  148.0901  131.8601  155.2879 H   0  0  0  0  0  0  0  0  0  0  0  0
  150.1849  143.2701  157.6452 H   0  0  0  0  0  0  0  0  0  0  0  0
  151.6778  142.8254  156.7326 H   0  0  0  0  0  0  0  0  0  0  0  0
  1  2  1  0  0  0  0
  1 26  1  0  0  0  0
  1 27  1  0  0  0  0
  1 28  1  0  0  0  0
  2  3  1  0  0  0  0
  2 29  1  0  0  0  0
  2 30  1  0  0  0  0
  3  4  1  0  0  0  0
  4 25  1  0  0  0  0
  4  5  1  0  0  0  0
  4 31  1  0  0  0  0
  5  6  1  0  0  0  0
  5 32  1  0  0  0  0
  5 33  1  0  0  0  0
  6  7  1  0  0  0  0
  6 25  1  0  0  0  0
  6 34  1  0  0  0  0
  7  8  1  0  0  0  0
  7  9  1  0  0  0  0
  8 35  1  0  0  0  0
  8 36  1  0  0  0  0
  8 37  1  0  0  0  0
  9 14  1  0  0  0  0
  9 10  2  0  0  0  0
 10 11  1  0  0  0  0
 11 12  2  0  0  0  0
 11 38  1  0  0  0  0
 12 13  1  0  0  0  0
 13 17  1  0  0  0  0
 13 14  2  0  0  0  0
 14 15  1  0  0  0  0
 15 16  2  0  0  0  0
 16 17  1  0  0  0  0
 16 39  1  0  0  0  0
 17 18  1  0  0  0  0
 18 19  1  0  0  0  0
 18 40  1  0  0  0  0
 18 41  1  0  0  0  0
 19 24  1  0  0  0  0
 19 20  1  0  0  0  0
 19 22  1  0  0  0  0
 20 21  1  0  0  0  0
 20 42  1  0  0  0  0
 20 43  1  0  0  0  0
 21 44  1  0  0  0  0
 22 23  1  0  0  0  0
 22 45  1  0  0  0  0
 22 46  1  0  0  0  0
 23 24  1  0  0  0  0
 24 47  1  0  0  0  0
 24 48  1  0  0  0  0
 25 49  1  0  0  0  0
 25 50  1  0  0  0  0
M  END
> <s_m_source_file>
AV-unprocessed.smi

> <i_m_source_file_index>
268

> <i_lp_mmshare_version>
43012

> <i_f3d_flags>
0

> <s_epik_input>
W0NIM11bQ0gyXU9bQ0BASF0xW0NIMl1bQ0BIXShbQ0gyXTEpTihbQ0gzXSljKG5bY0hdbjIpYyhjMjMpbltjSF1uM1tDSDJdQzQoW0NIMl1bT0hdKVtDSDJdT1tDSDJdNA==

> <s_epik_cmdline>
J2VwaWtfcHl0aG9uJywgJy1waCcsICc3LjAnLCAnLXRuJywgJzgnLCAnLW1hJywgJzIwMCcsICctbWV0YWxfYmluZGluZycsICctaW1hZScsICc8aW5maWxlLm1hZT4nLCAnLW9tYWUnLCAnPG91dGZpbGUubWFlPic=

> <r_lp_tautomer_probability>
1

> <r_epik_Ionization_Penalty>
0.00205824

> <r_epik_Ionization_Penalty_Charging>
0

> <r_epik_Ionization_Penalty_Neutral>
0.00205824

> <r_epik_State_Penalty>
0.00125218

> <r_epik_Charging_Adjusted_Penalty>
0.00125218

> <i_epik_Tot_Q>
0

> <i_epik_Tot_abs_Q>
0

> <r_epik_Metal_State_Penalty>
-0

> <b_epik_Metal_Only>
0

> <s_lp_Force_Field>
OPLS_2005

> <r_lp_Energy>
41.5967

> <b_lp_Chiralities_Consistent>
1

> <s_lp_Variant>
AV-unprocessed.smi:268-2

> <Gold.Version>
5.8.1

> <Gold.Id.Protein>
6NUR|6NUR_protein|mol2

> <Gold.PLP.Fitness>
47.5549

> <Gold.PLP.PLP>
-43.7302

> <Gold.PLP.part.hbond>
-3.1170

> <Gold.PLP.part.metal>
0.0000

> <Gold.PLP.part.buried>
-8.0708

> <Gold.PLP.part.nonpolar>
-34.9307

> <Gold.PLP.part.repulsive>
0.3333

> <Gold.PLP.ligand.clash>
0.0000

> <Gold.PLP.ligand.torsion>
1.6906

> <Gold.PLP.Chemscore.Hbond>
1.9400

> <Gold.PLP.Chemscore.CHOScore>
0.0000

> <Gold.PLP.Chemscore.Metal>
0.0000

> <Gold.Chemscore.Hbonds>
donor molecule, donor type, donor heavy atom, donor atom, acceptor molecule, acceptor atom, score
      P1  H  7989  7998       L1    10  0.19
      P1  H 10752 10764       L1    12  1.00

> <Gold.PLP.Chemscore.Internal.Correction>
1.3860

> <Gold.Rescore>
     Score         DG    S(hbond)    S(metal)    S(lipo)     H(rot)  DE(clash)    DE(int)     intcor
     10.48     -12.58       1.62        0.00      83.47       3.15       0.02       2.08       ----

> <Gold.Chemscore.Fitness>
10.4771

> <Gold.Chemscore.DG>
-12.5783

> <Gold.Chemscore.ZeroCoef>
-5.4800

> <Gold.Chemscore.Hbond>
1.6188

> <Gold.Chemscore.Metal>
0.0000

> <Gold.Chemscore.Lipo>
83.4712

> <Gold.Chemscore.Internal_Hbond>
0.0000

> <Gold.Chemscore.DEClash>
0.0240

> <Gold.Chemscore.DEInternal>
2.0771

> <Gold.Chemscore.Rot>
3.1542

> <Gold.Chemscore.Internal.Correction>
   9.000000E+99

> <Gold.Chemscore.Hbonds>
donor molecule, donor type, donor heavy atom, donor atom, acceptor molecule, acceptor atom, score
      P1  H 10752 10764       L1    12  0.59

> <Gold.Chemscore.Hbond.Weighted>
-5.4069

> <Gold.Chemscore.Metal.Weighted>
-0.0000

> <Gold.Chemscore.Lipo.Weighted>
-9.7661

> <Gold.Chemscore.Internal_Hbond.Weighted>
0.0000

> <Gold.Chemscore.DEClash.Weighted>
0.0240

> <Gold.Chemscore.DEInternal.Weighted>
2.0771

> <Gold.Chemscore.Rot.Weighted>
8.0748

> <Gold.Chemscore.Internal.Correction.Weighted>
   9.000000E+99

> <Gold.Protein.RotatedTorsions>
[ 6907 6896 6895 6894 ] final -120.62 input  -60.11 | X-H torsion
[ 7974 7965 7964 7962 ] final    5.67 input  175.53 | X-H torsion
[ 8008 7997 7996 7995 ] final -119.58 input   59.86 | X-H torsion
[ 10167 10162 10161 10158 ] final -131.39 input  -65.29 | X-H torsion
[ 10718 10713 10712 10709 ] final   14.60 input   66.30 | X-H torsion
[ 10763 10752 10751 10750 ] final  -79.04 input  -60.55 | X-H torsion
[ 11005 11000 10999 10996 ] final  -66.88 input  -57.11 | X-H torsion

> <Gold.Protein.ActiveResidues>
 VAL166  LYS551  ARG553  GLY616  TRP617  ASP618  TYR619  PRO620  LYS621  CYS622 
 ASP623  PHE694  ASN695  SER759  ASP760  ASP761  ALA762  ILE779  LEU786  VAL792 
 PHE793  MET794  SER795  GLU796  ALA797  LYS798  CYS799  TRP800  GLU811  SER814 

> <Gold.Protein.RotatedAtoms>
  150.8409  133.7937  159.3060 H   0  0  0  0  0  0  0  0  0  0  0  0  # atno 6907 bound_to 6896
  151.5638  135.1063  159.9988 H   0  0  0  0  0  0  0  0  0  0  0  0  # atno 6908 bound_to 6896
  152.4473  133.7519  159.6755 H   0  0  0  0  0  0  0  0  0  0  0  0  # atno 6909 bound_to 6896
  146.2439  140.0349  142.8387 H   0  0  0  0  0  0  0  0  0  0  0  0  # atno 7974 bound_to 7965
  155.1180  140.0398  157.2742 H   0  0  0  0  0  0  0  0  0  0  0  0  # atno 8008 bound_to 7997
  154.6635  140.2596  155.7058 H   0  0  0  0  0  0  0  0  0  0  0  0  # atno 8009 bound_to 7997
  156.2629  140.2812  156.1116 H   0  0  0  0  0  0  0  0  0  0  0  0  # atno 8010 bound_to 7997
  139.9194  143.6400  152.2557 H   0  0  0  0  0  0  0  0  0  0  0  0  # atno 10167 bound_to 10162
  157.0414  130.6233  149.5752 H   0  0  0  0  0  0  0  0  0  0  0  0  # atno 10718 bound_to 10713
  154.5336  135.5709  153.6779 H   0  0  0  0  0  0  0  0  0  0  0  0  # atno 10763 bound_to 10752
  152.9945  135.6210  154.2596 H   0  0  0  0  0  0  0  0  0  0  0  0  # atno 10764 bound_to 10752
  154.2523  135.2858  155.2791 H   0  0  0  0  0  0  0  0  0  0  0  0  # atno 10765 bound_to 10752
  141.1494  133.6708  156.6207 H   0  0  0  0  0  0  0  0  0  0  0  0  # atno 11005 bound_to 11000
  145.1122  140.9412  143.4650 LP  0  0  0  0  0  0  0  0  0  0  0  0  # atno 17320 bound_to 7965
  145.0565  139.3139  143.5902 LP  0  0  0  0  0  0  0  0  0  0  0  0  # atno 17321 bound_to 7965
  139.6874  144.7650  151.1498 LP  0  0  0  0  0  0  0  0  0  0  0  0  # atno 17342 bound_to 10162
  140.7666  143.5637  150.9071 LP  0  0  0  0  0  0  0  0  0  0  0  0  # atno 17343 bound_to 10162
  156.0037  130.5120  150.7753 LP  0  0  0  0  0  0  0  0  0  0  0  0  # atno 17370 bound_to 10713
  157.5101  131.0925  151.0209 LP  0  0  0  0  0  0  0  0  0  0  0  0  # atno 17371 bound_to 10713
  140.3543  134.7742  157.4489 LP  0  0  0  0  0  0  0  0  0  0  0  0  # atno 17394 bound_to 11000
  140.0836  134.5697  155.8515 LP  0  0  0  0  0  0  0  0  0  0  0  0  # atno 17395 bound_to 11000

$$$$
