AV-unprocessed.smi:2027|AV-procd|sdf|8217|dock10
  -GOLD-   2272010483D 1   1.00000     0.00000
 Structure written by MMmdl.
 51 53  0  0  0  0  0  0  0  0  3 V2000
  152.1049  144.2524  160.4590 C   0  0  0  0  0  0  0  0  0  0  0  0
  151.9198  143.1657  159.4137 C   0  0  0  0  0  0  0  0  0  0  0  0
  151.0206  143.4004  158.3489 C   0  0  0  0  0  0  0  0  0  0  0  0
  150.8746  142.3885  157.4075 C   0  0  0  0  0  0  0  0  0  0  0  0
  150.0858  142.3143  156.2573 N   0  3  0  0  0  0  0  0  0  0  0  0
  150.2837  141.1131  155.6466 C   0  0  0  0  0  0  0  0  0  0  0  0
  151.1791  140.4145  156.3971 N   0  0  0  0  0  0  0  0  0  0  0  0
  151.7475  139.0767  156.1903 C   0  0  0  0  0  0  0  0  0  0  0  0
  151.0116  138.2602  155.1081 C   0  0  2  0  0  0  0  0  0  0  0  0
  151.2425  138.8928  153.8659 O   0  0  0  0  0  0  0  0  0  0  0  0
  149.4895  138.1551  155.3361 C   0  0  0  0  0  0  0  0  0  0  0  0
  148.9635  136.8270  154.9215 N   0  3  1  0  0  0  0  0  0  0  0  0
  149.8374  135.7099  155.3494 C   0  0  0  0  0  0  0  0  0  0  0  0
  147.5463  136.6011  155.3003 C   0  0  0  0  0  0  0  0  0  0  0  0
  147.1533  135.1605  155.1071 C   0  0  0  0  0  0  0  0  0  0  0  0
  146.7216  134.2299  156.0953 C   0  0  0  0  0  0  0  0  0  0  0  0
  146.4302  133.0428  155.5913 N   0  0  0  0  0  0  0  0  0  0  0  0
  146.6761  133.1679  154.2715 N   0  0  0  0  0  0  0  0  0  0  0  0
  146.4592  132.0368  153.3954 C   0  0  0  0  0  0  0  0  0  0  0  0
  147.1183  134.4329  153.9508 C   0  0  0  0  0  0  0  0  0  0  0  0
  151.5837  141.1752  157.4992 C   0  0  0  0  0  0  0  0  0  0  0  0
  152.4764  140.9290  158.5393 C   0  0  0  0  0  0  0  0  0  0  0  0
  152.6390  141.9460  159.5068 C   0  0  0  0  0  0  0  0  0  0  0  0
  153.6070  141.7068  160.6532 C   0  0  0  0  0  0  0  0  0  0  0  0
  151.4670  145.1134  160.2573 H   0  0  0  0  0  0  0  0  0  0  0  0
  153.1384  144.5990  160.4707 H   0  0  0  0  0  0  0  0  0  0  0  0
  151.8532  143.8777  161.4512 H   0  0  0  0  0  0  0  0  0  0  0  0
  150.4735  144.3286  158.2694 H   0  0  0  0  0  0  0  0  0  0  0  0
  149.8145  140.7769  154.7330 H   0  0  0  0  0  0  0  0  0  0  0  0
  152.7954  139.2088  155.9169 H   0  0  0  0  0  0  0  0  0  0  0  0
  151.7405  138.5534  157.1478 H   0  0  0  0  0  0  0  0  0  0  0  0
  151.4485  137.2637  155.0568 H   0  0  0  0  0  0  0  0  0  0  0  0
  151.3355  138.2297  153.1983 H   0  0  0  0  0  0  0  0  0  0  0  0
  149.2351  138.3230  156.3832 H   0  0  0  0  0  0  0  0  0  0  0  0
  149.0046  138.9605  154.7846 H   0  0  0  0  0  0  0  0  0  0  0  0
  149.8449  135.6143  156.4358 H   0  0  0  0  0  0  0  0  0  0  0  0
  150.8636  135.8581  155.0137 H   0  0  0  0  0  0  0  0  0  0  0  0
  149.4906  134.7660  154.9274 H   0  0  0  0  0  0  0  0  0  0  0  0
  147.4070  136.8782  156.3461 H   0  0  0  0  0  0  0  0  0  0  0  0
  146.9082  137.2729  154.7243 H   0  0  0  0  0  0  0  0  0  0  0  0
  146.6028  134.3850  157.1576 H   0  0  0  0  0  0  0  0  0  0  0  0
  146.7775  132.2814  152.3816 H   0  0  0  0  0  0  0  0  0  0  0  0
  145.3997  131.7792  153.3819 H   0  0  0  0  0  0  0  0  0  0  0  0
  147.0323  131.1789  153.7487 H   0  0  0  0  0  0  0  0  0  0  0  0
  147.3607  134.7105  152.9355 H   0  0  0  0  0  0  0  0  0  0  0  0
  153.0278  140.0026  158.6077 H   0  0  0  0  0  0  0  0  0  0  0  0
  154.0705  140.7222  160.5859 H   0  0  0  0  0  0  0  0  0  0  0  0
  153.0905  141.7655  161.6116 H   0  0  0  0  0  0  0  0  0  0  0  0
  154.4035  142.4509  160.6427 H   0  0  0  0  0  0  0  0  0  0  0  0
  148.9752  136.8258  153.9109 H   0  0  0  0  0  0  0  0  0  0  0  0
  149.4638  143.0326  155.9082 H   0  0  0  0  0  0  0  0  0  0  0  0
  1  2  1  0  0  0  0
  1 25  1  0  0  0  0
  1 26  1  0  0  0  0
  1 27  1  0  0  0  0
  2 23  1  0  0  0  0
  2  3  2  0  0  0  0
  3  4  1  0  0  0  0
  3 28  1  0  0  0  0
  4 21  2  0  0  0  0
  4  5  1  0  0  0  0
  5  6  2  0  0  0  0
  5 51  1  0  0  0  0
  6  7  1  0  0  0  0
  6 29  1  0  0  0  0
  7  8  1  0  0  0  0
  7 21  1  0  0  0  0
  8  9  1  0  0  0  0
  8 30  1  0  0  0  0
  8 31  1  0  0  0  0
  9 10  1  0  0  0  0
  9 11  1  0  0  0  0
  9 32  1  0  0  0  0
 10 33  1  0  0  0  0
 11 12  1  0  0  0  0
 11 34  1  0  0  0  0
 11 35  1  0  0  0  0
 12 13  1  0  0  0  0
 12 14  1  0  0  0  0
 12 50  1  0  0  0  0
 13 36  1  0  0  0  0
 13 37  1  0  0  0  0
 13 38  1  0  0  0  0
 14 15  1  0  0  0  0
 14 39  1  0  0  0  0
 14 40  1  0  0  0  0
 15 20  2  0  0  0  0
 15 16  1  0  0  0  0
 16 17  2  0  0  0  0
 16 41  1  0  0  0  0
 17 18  1  0  0  0  0
 18 19  1  0  0  0  0
 18 20  1  0  0  0  0
 19 42  1  0  0  0  0
 19 43  1  0  0  0  0
 19 44  1  0  0  0  0
 20 45  1  0  0  0  0
 21 22  1  0  0  0  0
 22 23  2  0  0  0  0
 22 46  1  0  0  0  0
 23 24  1  0  0  0  0
 24 47  1  0  0  0  0
 24 48  1  0  0  0  0
 24 49  1  0  0  0  0
M  CHG  1   5   1
M  CHG  1  12   1
M  END
> <s_m_source_file>
AV-unprocessed.smi

> <i_m_source_file_index>
2027

> <i_lp_mmshare_version>
43012

> <i_f3d_flags>
0

> <s_epik_input>
W0NIM11jKFtjSF0xKWMoW0NIM10pW2NIXWMoYzEyKW4oW2NIXW4yKVtDSDJdW0NASF0oW09IXSlbQ0gyXU4oW0NIM10pW0NIMl1jM1tjSF1ubihbQ0gzXSlbY0hdMw==

> <s_epik_cmdline>
J2VwaWtfcHl0aG9uJywgJy1waCcsICc3LjAnLCAnLXRuJywgJzgnLCAnLW1hJywgJzIwMCcsICctbWV0YWxfYmluZGluZycsICctaW1hZScsICc8aW5maWxlLm1hZT4nLCAnLW9tYWUnLCAnPG91dGZpbGUubWFlPic=

> <r_lp_tautomer_probability>
1

> <r_epik_Ionization_Penalty>
1.77469

> <r_epik_Ionization_Penalty_Charging>
1.77463

> <r_epik_Ionization_Penalty_Neutral>
6.41153e-05

> <r_epik_State_Penalty>
1.85225

> <r_epik_Charging_Adjusted_Penalty>
3.62688

> <i_epik_Tot_Q>
2

> <i_epik_Tot_abs_Q>
2

> <r_epik_Metal_State_Penalty>
1.92669

> <b_epik_Metal_Only>
0

> <s_lp_Force_Field>
OPLS_2005

> <r_lp_Energy>
21.1473

> <b_lp_Chiralities_Consistent>
1

> <s_lp_Variant>
AV-unprocessed.smi:2027-9

> <Gold.Version>
5.8.1

> <Gold.Id.Protein>
6NUR|6NUR_protein|mol2

> <Gold.PLP.Fitness>
53.5763

> <Gold.PLP.PLP>
-37.4780

> <Gold.PLP.part.hbond>
-3.3094

> <Gold.PLP.part.metal>
0.0000

> <Gold.PLP.part.buried>
0.3495

> <Gold.PLP.part.nonpolar>
-33.8588

> <Gold.PLP.part.repulsive>
0.1633

> <Gold.PLP.ligand.clash>
0.0000

> <Gold.PLP.ligand.torsion>
0.8691

> <Gold.PLP.Chemscore.Hbond>
4.8960

> <Gold.PLP.Chemscore.CHOScore>
1.0000

> <Gold.PLP.Chemscore.Metal>
0.0000

> <Gold.Chemscore.Hbonds>
donor molecule, donor type, donor heavy atom, donor atom, acceptor molecule, acceptor atom, score
      L1  H     5    51       P1  8028  2.00
      L1  H    12    50       P1  7948  1.56
      P1  H  7989  7998       L1    10  0.94
      L1  C    20    45       P1  7948  1.00

> <Gold.PLP.Chemscore.Internal.Correction>
0.1485

> <Gold.Rescore>
     Score         DG    S(hbond)    S(metal)    S(lipo)     H(rot)  DE(clash)    DE(int)     intcor
     16.75     -20.45       2.81        0.00     104.17       2.58       1.67       2.03       ----

> <Gold.Chemscore.Fitness>
16.7502

> <Gold.Chemscore.DG>
-20.4521

> <Gold.Chemscore.ZeroCoef>
-5.4800

> <Gold.Chemscore.Hbond>
2.8138

> <Gold.Chemscore.Metal>
0.0000

> <Gold.Chemscore.Lipo>
104.1694

> <Gold.Chemscore.Internal_Hbond>
0.0000

> <Gold.Chemscore.DEClash>
1.6691

> <Gold.Chemscore.DEInternal>
2.0329

> <Gold.Chemscore.Rot>
2.5836

> <Gold.Chemscore.Internal.Correction>
   9.000000E+99

> <Gold.Chemscore.Hbonds>
donor molecule, donor type, donor heavy atom, donor atom, acceptor molecule, acceptor atom, score
      L1  H     5    51       P1  8028  0.99
      L1  H    12    50       P1  7948  0.77
      P1  H  7989  7998       L1    10  0.84

> <Gold.Chemscore.Hbond.Weighted>
-9.3982

> <Gold.Chemscore.Metal.Weighted>
-0.0000

> <Gold.Chemscore.Lipo.Weighted>
-12.1878

> <Gold.Chemscore.Internal_Hbond.Weighted>
0.0000

> <Gold.Chemscore.DEClash.Weighted>
1.6691

> <Gold.Chemscore.DEInternal.Weighted>
2.0329

> <Gold.Chemscore.Rot.Weighted>
6.6139

> <Gold.Chemscore.Internal.Correction.Weighted>
   9.000000E+99

> <Gold.Protein.RotatedTorsions>
[ 6907 6896 6895 6894 ] final -147.04 input  -60.11 | X-H torsion
[ 7974 7965 7964 7962 ] final -175.96 input  175.53 | X-H torsion
[ 8008 7997 7996 7995 ] final -152.13 input   59.86 | X-H torsion
[ 10167 10162 10161 10158 ] final -151.70 input  -65.29 | X-H torsion
[ 10718 10713 10712 10709 ] final  -60.30 input   66.30 | X-H torsion
[ 10763 10752 10751 10750 ] final -156.84 input  -60.55 | X-H torsion
[ 11005 11000 10999 10996 ] final   80.74 input  -57.11 | X-H torsion

> <Gold.Protein.ActiveResidues>
 VAL166  LYS551  ARG553  GLY616  TRP617  ASP618  TYR619  PRO620  LYS621  CYS622 
 ASP623  PHE694  ASN695  SER759  ASP760  ASP761  ALA762  ILE779  LEU786  VAL792 
 PHE793  MET794  SER795  GLU796  ALA797  LYS798  CYS799  TRP800  GLU811  SER814 

> <Gold.Protein.RotatedAtoms>
  151.1501  133.4913  159.2595 H   0  0  0  0  0  0  0  0  0  0  0  0  # atno 6907 bound_to 6896
  151.1563  135.0251  159.8700 H   0  0  0  0  0  0  0  0  0  0  0  0  # atno 6908 bound_to 6896
  152.5463  134.1379  159.8520 H   0  0  0  0  0  0  0  0  0  0  0  0  # atno 6909 bound_to 6896
  144.7127  140.1242  143.6403 H   0  0  0  0  0  0  0  0  0  0  0  0  # atno 7974 bound_to 7965
  155.6502  140.0711  157.2589 H   0  0  0  0  0  0  0  0  0  0  0  0  # atno 8008 bound_to 7997
  154.4164  140.1734  156.1717 H   0  0  0  0  0  0  0  0  0  0  0  0  # atno 8009 bound_to 7997
  155.9783  140.3356  155.6642 H   0  0  0  0  0  0  0  0  0  0  0  0  # atno 8010 bound_to 7997
  139.7245  143.8905  152.2514 H   0  0  0  0  0  0  0  0  0  0  0  0  # atno 10167 bound_to 10162
  156.1001  130.4187  150.0834 H   0  0  0  0  0  0  0  0  0  0  0  0  # atno 10718 bound_to 10713
  154.7682  135.3137  154.8243 H   0  0  0  0  0  0  0  0  0  0  0  0  # atno 10763 bound_to 10752
  153.8986  135.6818  153.4761 H   0  0  0  0  0  0  0  0  0  0  0  0  # atno 10764 bound_to 10752
  153.1291  135.4788  154.9254 H   0  0  0  0  0  0  0  0  0  0  0  0  # atno 10765 bound_to 10752
  139.9123  134.7943  156.1949 H   0  0  0  0  0  0  0  0  0  0  0  0  # atno 11005 bound_to 11000
  145.9344  139.2627  143.1306 LP  0  0  0  0  0  0  0  0  0  0  0  0  # atno 17320 bound_to 7965
  145.9489  140.8923  143.0269 LP  0  0  0  0  0  0  0  0  0  0  0  0  # atno 17321 bound_to 7965
  139.8810  144.7017  150.8878 LP  0  0  0  0  0  0  0  0  0  0  0  0  # atno 17342 bound_to 10162
  140.7760  143.3661  151.1736 LP  0  0  0  0  0  0  0  0  0  0  0  0  # atno 17343 bound_to 10162
  156.8824  130.9561  151.3598 LP  0  0  0  0  0  0  0  0  0  0  0  0  # atno 17370 bound_to 10713
  157.6169  130.8625  149.9043 LP  0  0  0  0  0  0  0  0  0  0  0  0  # atno 17371 bound_to 10713
  141.0561  133.6864  156.1863 LP  0  0  0  0  0  0  0  0  0  0  0  0  # atno 17394 bound_to 11000
  140.6735  134.4843  157.5588 LP  0  0  0  0  0  0  0  0  0  0  0  0  # atno 17395 bound_to 11000

$$$$
