AV-unprocessed.smi:1686|AV-procd|sdf|6764|dock4
  -GOLD-   22720 7523D 1   1.00000     0.00000
 Structure written by MMmdl.
 41 43  0  0  0  0  0  0  0  0  1 V2000
  145.2649  143.2765  156.1897 C   0  0  0  0  0  0  0  0  0  0  0  0
  145.5221  141.8852  155.6865 C   0  0  0  0  0  0  0  0  0  0  0  0
  144.7233  140.8970  156.0687 N   0  0  0  0  0  0  0  0  0  0  0  0
  145.2058  139.7381  155.4497 O   0  0  0  0  0  0  0  0  0  0  0  0
  146.2830  140.1002  154.7162 C   0  0  0  0  0  0  0  0  0  0  0  0
  147.1849  138.9692  153.7884 Cl  0  0  0  0  0  0  0  0  0  0  0  0
  146.5506  141.4358  154.8072 C   0  0  0  0  0  0  0  0  0  0  0  0
  147.6472  142.2411  154.1585 C   0  0  0  0  0  0  0  0  0  0  0  0
  149.0018  141.7769  154.6924 C   0  0  0  0  0  0  0  0  0  0  0  0
  149.7519  141.1158  153.9744 O   0  0  0  0  0  0  0  0  0  0  0  0
  149.3080  142.1421  155.9468 N   0  0  0  0  0  0  0  0  0  0  0  0
  150.5731  141.8658  156.6231 C   0  0  2  0  0  0  0  0  0  0  0  0
  150.8735  140.3573  156.5728 C   0  0  0  0  0  0  0  0  0  0  0  0
  150.5208  142.3936  158.0766 C   0  0  1  0  0  0  0  0  0  0  0  0
  151.6400  141.8562  158.9968 C   0  0  0  0  0  0  0  0  0  0  0  0
  152.2070  143.1366  159.6383 C   0  0  1  0  0  0  0  0  0  0  0  0
  153.0356  143.9027  158.5902 C   0  0  0  0  0  0  0  0  0  0  0  0
  151.9541  144.4719  157.6541 C   0  0  0  0  0  0  0  0  0  0  0  0
  150.6495  143.9258  158.2698 C   0  0  2  0  0  0  0  0  0  0  0  0
  150.9657  144.0122  159.7594 C   0  0  0  0  0  0  0  0  0  0  0  0
  146.1940  143.8377  156.2903 H   0  0  0  0  0  0  0  0  0  0  0  0
  144.7820  143.2661  157.1675 H   0  0  0  0  0  0  0  0  0  0  0  0
  144.6183  143.8248  155.5047 H   0  0  0  0  0  0  0  0  0  0  0  0
  147.6224  142.1452  153.0720 H   0  0  0  0  0  0  0  0  0  0  0  0
  147.5368  143.3054  154.3685 H   0  0  0  0  0  0  0  0  0  0  0  0
  148.6286  142.6851  156.4597 H   0  0  0  0  0  0  0  0  0  0  0  0
  151.3739  142.3851  156.0942 H   0  0  0  0  0  0  0  0  0  0  0  0
  151.8173  140.1242  157.0658 H   0  0  0  0  0  0  0  0  0  0  0  0
  150.9499  140.0030  155.5443 H   0  0  0  0  0  0  0  0  0  0  0  0
  150.0909  139.7794  157.0653 H   0  0  0  0  0  0  0  0  0  0  0  0
  149.5602  142.0976  158.5024 H   0  0  0  0  0  0  0  0  0  0  0  0
  151.2247  141.1892  159.7533 H   0  0  0  0  0  0  0  0  0  0  0  0
  152.4096  141.3031  158.4569 H   0  0  0  0  0  0  0  0  0  0  0  0
  152.7407  142.9585  160.5722 H   0  0  0  0  0  0  0  0  0  0  0  0
  153.6024  144.7099  159.0556 H   0  0  0  0  0  0  0  0  0  0  0  0
  153.7415  143.2567  158.0670 H   0  0  0  0  0  0  0  0  0  0  0  0
  151.9612  145.5621  157.6875 H   0  0  0  0  0  0  0  0  0  0  0  0
  152.0977  144.1811  156.6139 H   0  0  0  0  0  0  0  0  0  0  0  0
  149.7599  144.4790  157.9698 H   0  0  0  0  0  0  0  0  0  0  0  0
  150.1911  143.5802  160.3955 H   0  0  0  0  0  0  0  0  0  0  0  0
  151.1829  145.0266  160.0993 H   0  0  0  0  0  0  0  0  0  0  0  0
  1  2  1  0  0  0  0
  1 21  1  0  0  0  0
  1 22  1  0  0  0  0
  1 23  1  0  0  0  0
  2  7  1  0  0  0  0
  2  3  2  0  0  0  0
  3  4  1  0  0  0  0
  4  5  1  0  0  0  0
  5  6  1  0  0  0  0
  5  7  2  0  0  0  0
  7  8  1  0  0  0  0
  8  9  1  0  0  0  0
  8 24  1  0  0  0  0
  8 25  1  0  0  0  0
  9 10  2  0  0  0  0
  9 11  1  0  0  0  0
 11 12  1  0  0  0  0
 11 26  1  0  0  0  0
 12 13  1  0  0  0  0
 12 14  1  0  0  0  0
 12 27  1  0  0  0  0
 13 28  1  0  0  0  0
 13 29  1  0  0  0  0
 13 30  1  0  0  0  0
 14 19  1  0  0  0  0
 14 15  1  0  0  0  0
 14 31  1  0  0  0  0
 15 16  1  0  0  0  0
 15 32  1  0  0  0  0
 15 33  1  0  0  0  0
 16 20  1  0  0  0  0
 16 17  1  0  0  0  0
 16 34  1  0  0  0  0
 17 18  1  0  0  0  0
 17 35  1  0  0  0  0
 17 36  1  0  0  0  0
 18 19  1  0  0  0  0
 18 37  1  0  0  0  0
 18 38  1  0  0  0  0
 19 20  1  0  0  0  0
 19 39  1  0  0  0  0
 20 40  1  0  0  0  0
 20 41  1  0  0  0  0
M  END
> <s_m_source_file>
AV-unprocessed.smi

> <i_m_source_file_index>
1686

> <i_lp_mmshare_version>
43012

> <i_f3d_flags>
0

> <s_epik_input>
W0NIM11jMW5vYyhDbCljMVtDSDJdQyg9TylbTkhdW0NASF0oW0NIM10pW0NASF0oW0NIMl1bQ0BIXTIzKVtDQEhdKFtDSDJdMylbQ0gyXVtDSDJdMg==

> <s_epik_cmdline>
J2VwaWtfcHl0aG9uJywgJy1waCcsICc3LjAnLCAnLXRuJywgJzgnLCAnLW1hJywgJzIwMCcsICctbWV0YWxfYmluZGluZycsICctaW1hZScsICc8aW5maWxlLm1hZT4nLCAnLW9tYWUnLCAnPG91dGZpbGUubWFlPic=

> <r_lp_tautomer_probability>
1

> <r_epik_Ionization_Penalty>
2.01576e-08

> <r_epik_Ionization_Penalty_Charging>
0

> <r_epik_Ionization_Penalty_Neutral>
2.01576e-08

> <r_epik_State_Penalty>
-0

> <r_epik_Charging_Adjusted_Penalty>
0

> <i_epik_Tot_Q>
0

> <i_epik_Tot_abs_Q>
0

> <r_epik_Metal_State_Penalty>
-0

> <b_epik_Metal_Only>
0

> <s_lp_Force_Field>
OPLS_2005

> <r_lp_Energy>
45.5839

> <b_lp_Chiralities_Consistent>
1

> <s_lp_Variant>
AV-unprocessed.smi:1686-7

> <Gold.Version>
5.8.1

> <Gold.Id.Protein>
6NUR|6NUR_protein|mol2

> <Gold.PLP.Fitness>
39.8928

> <Gold.PLP.PLP>
-37.6120

> <Gold.PLP.part.hbond>
-3.0000

> <Gold.PLP.part.metal>
0.0000

> <Gold.PLP.part.buried>
-1.0848

> <Gold.PLP.part.nonpolar>
-33.2575

> <Gold.PLP.part.repulsive>
1.1808

> <Gold.PLP.ligand.clash>
0.0000

> <Gold.PLP.ligand.torsion>
0.4503

> <Gold.PLP.Chemscore.Hbond>
1.0546

> <Gold.PLP.Chemscore.CHOScore>
0.0000

> <Gold.PLP.Chemscore.Metal>
0.0000

> <Gold.Chemscore.Hbonds>
donor molecule, donor type, donor heavy atom, donor atom, acceptor molecule, acceptor atom, score
      L1  H    11    26       P1  8028  0.05
      P1  H  7989  7998       L1    10  0.38
      P1  H  8011  8017       L1    10  0.62

> <Gold.PLP.Chemscore.Internal.Correction>
0.0174

> <Gold.Rescore>
     Score         DG    S(hbond)    S(metal)    S(lipo)     H(rot)  DE(clash)    DE(int)     intcor
     17.04     -19.53       1.42        0.00     111.75       1.46       0.56       1.93       ----

> <Gold.Chemscore.Fitness>
17.0423

> <Gold.Chemscore.DG>
-19.5334

> <Gold.Chemscore.ZeroCoef>
-5.4800

> <Gold.Chemscore.Hbond>
1.4159

> <Gold.Chemscore.Metal>
0.0000

> <Gold.Chemscore.Lipo>
111.7460

> <Gold.Chemscore.Internal_Hbond>
0.0000

> <Gold.Chemscore.DEClash>
0.5577

> <Gold.Chemscore.DEInternal>
1.9334

> <Gold.Chemscore.Rot>
1.4648

> <Gold.Chemscore.Internal.Correction>
   9.000000E+99

> <Gold.Chemscore.Hbonds>
donor molecule, donor type, donor heavy atom, donor atom, acceptor molecule, acceptor atom, score
      L1  H    11    26       P1  8028  0.06
      P1  H  7989  7998       L1    10  0.38
      P1  H  8011  8017       L1    10  0.12

> <Gold.Chemscore.Hbond.Weighted>
-4.7291

> <Gold.Chemscore.Metal.Weighted>
-0.0000

> <Gold.Chemscore.Lipo.Weighted>
-13.0743

> <Gold.Chemscore.Internal_Hbond.Weighted>
0.0000

> <Gold.Chemscore.DEClash.Weighted>
0.5577

> <Gold.Chemscore.DEInternal.Weighted>
1.9334

> <Gold.Chemscore.Rot.Weighted>
3.7500

> <Gold.Chemscore.Internal.Correction.Weighted>
   9.000000E+99

> <Gold.Protein.RotatedTorsions>
[ 6907 6896 6895 6894 ] final -141.00 input  -60.11 | X-H torsion
[ 7974 7965 7964 7962 ] final  123.64 input  175.53 | X-H torsion
[ 8008 7997 7996 7995 ] final -124.89 input   59.86 | X-H torsion
[ 10167 10162 10161 10158 ] final  167.30 input  -65.29 | X-H torsion
[ 10718 10713 10712 10709 ] final  110.55 input   66.30 | X-H torsion
[ 10763 10752 10751 10750 ] final -162.86 input  -60.55 | X-H torsion
[ 11005 11000 10999 10996 ] final -143.73 input  -57.11 | X-H torsion

> <Gold.Protein.ActiveResidues>
 VAL166  LYS551  ARG553  GLY616  TRP617  ASP618  TYR619  PRO620  LYS621  CYS622 
 ASP623  PHE694  ASN695  SER759  ASP760  ASP761  ALA762  ILE779  LEU786  VAL792 
 PHE793  MET794  SER795  GLU796  ALA797  LYS798  CYS799  TRP800  GLU811  SER814 

> <Gold.Protein.RotatedAtoms>
  151.0680  133.5489  159.2628 H   0  0  0  0  0  0  0  0  0  0  0  0  # atno 6907 bound_to 6896
  151.2439  135.0598  159.9045 H   0  0  0  0  0  0  0  0  0  0  0  0  # atno 6908 bound_to 6896
  152.5407  134.0451  159.8138 H   0  0  0  0  0  0  0  0  0  0  0  0  # atno 6909 bound_to 6896
  145.0936  139.3569  143.4848 H   0  0  0  0  0  0  0  0  0  0  0  0  # atno 7974 bound_to 7965
  155.2043  140.0417  157.2923 H   0  0  0  0  0  0  0  0  0  0  0  0  # atno 8008 bound_to 7997
  154.6053  140.2463  155.7710 H   0  0  0  0  0  0  0  0  0  0  0  0  # atno 8009 bound_to 7997
  156.2346  140.2926  156.0289 H   0  0  0  0  0  0  0  0  0  0  0  0  # atno 8010 bound_to 7997
  139.4942  144.3937  151.9489 H   0  0  0  0  0  0  0  0  0  0  0  0  # atno 10167 bound_to 10162
  157.6489  131.0935  150.6618 H   0  0  0  0  0  0  0  0  0  0  0  0  # atno 10718 bound_to 10713
  154.7175  135.3019  154.9099 H   0  0  0  0  0  0  0  0  0  0  0  0  # atno 10763 bound_to 10752
  153.9982  135.6710  153.4762 H   0  0  0  0  0  0  0  0  0  0  0  0  # atno 10764 bound_to 10752
  153.0806  135.5011  154.8411 H   0  0  0  0  0  0  0  0  0  0  0  0  # atno 10765 bound_to 10752
  140.8095  134.2761  157.4946 H   0  0  0  0  0  0  0  0  0  0  0  0  # atno 11005 bound_to 11000
  146.3531  140.0782  142.8619 LP  0  0  0  0  0  0  0  0  0  0  0  0  # atno 17320 bound_to 7965
  145.1037  140.9362  143.4697 LP  0  0  0  0  0  0  0  0  0  0  0  0  # atno 17321 bound_to 7965
  140.3374  144.3244  150.5974 LP  0  0  0  0  0  0  0  0  0  0  0  0  # atno 17342 bound_to 10162
  140.5594  143.2194  151.7791 LP  0  0  0  0  0  0  0  0  0  0  0  0  # atno 17343 bound_to 10162
  156.6932  130.4601  149.5594 LP  0  0  0  0  0  0  0  0  0  0  0  0  # atno 17370 bound_to 10713
  156.1847  130.6521  151.0993 LP  0  0  0  0  0  0  0  0  0  0  0  0  # atno 17371 bound_to 10713
  139.8715  134.9475  156.3970 LP  0  0  0  0  0  0  0  0  0  0  0  0  # atno 17394 bound_to 11000
  140.9212  133.7644  155.9909 LP  0  0  0  0  0  0  0  0  0  0  0  0  # atno 17395 bound_to 11000

$$$$
