AV-unprocessed.smi:1534|AV-procd|sdf|6169|dock4
  -GOLD-   22720 6313D 1   1.00000     0.00000
 Structure written by MMmdl.
 37 38  0  0  0  0  0  0  0  0  2 V2000
  146.5866  137.0569  153.0539 O   0  0  0  0  0  0  0  0  0  0  0  0
  145.7761  137.9463  152.8044 C   0  0  0  0  0  0  0  0  0  0  0  0
  144.5095  137.7070  152.4267 N   0  0  0  0  0  0  0  0  0  0  0  0
  143.9460  136.3872  152.1627 C   0  0  0  0  0  0  0  0  0  0  0  0
  144.3859  135.8131  150.8004 C   0  0  0  0  0  0  0  0  0  0  0  0
  144.5243  134.2994  150.7923 C   0  0  0  0  0  0  0  0  0  0  0  0
  145.7244  133.6548  151.1628 C   0  0  0  0  0  0  0  0  0  0  0  0
  145.7797  132.2452  151.1575 C   0  0  0  0  0  0  0  0  0  0  0  0
  144.6349  131.5104  150.7852 C   0  0  0  0  0  0  0  0  0  0  0  0
  143.4624  132.2046  150.4236 C   0  0  0  0  0  0  0  0  0  0  0  0
  143.4502  133.5553  150.4389 N   0  3  0  0  0  0  0  0  0  0  0  0
  146.0998  139.2488  152.8871 N   0  0  0  0  0  0  0  0  0  0  0  0
  147.3877  139.8313  153.2674 C   0  0  1  0  0  0  0  0  0  0  0  0
  147.2441  141.2677  153.8110 C   0  0  0  0  0  0  0  0  0  0  0  0
  148.5394  141.6594  154.5370 C   0  0  0  0  0  0  0  0  0  0  0  0
  149.3043  140.0957  155.1165 S   0  0  0  0  0  0  0  0  0  0  0  0
  150.5913  139.9173  154.4271 O   0  0  0  0  0  0  0  0  0  0  0  0
  149.2081  140.0030  156.5810 O   0  0  0  0  0  0  0  0  0  0  0  0
  148.0612  138.9892  154.3562 C   0  0  0  0  0  0  0  0  0  0  0  0
  143.9046  138.4994  152.2674 H   0  0  0  0  0  0  0  0  0  0  0  0
  144.2006  135.6962  152.9679 H   0  0  0  0  0  0  0  0  0  0  0  0
  142.8606  136.4894  152.1777 H   0  0  0  0  0  0  0  0  0  0  0  0
  143.6679  136.1025  150.0314 H   0  0  0  0  0  0  0  0  0  0  0  0
  145.3363  136.2591  150.5051 H   0  0  0  0  0  0  0  0  0  0  0  0
  146.5915  134.2313  151.4515 H   0  0  0  0  0  0  0  0  0  0  0  0
  146.6888  131.7338  151.4385 H   0  0  0  0  0  0  0  0  0  0  0  0
  144.6563  130.4303  150.7772 H   0  0  0  0  0  0  0  0  0  0  0  0
  142.5415  131.7246  150.1262 H   0  0  0  0  0  0  0  0  0  0  0  0
  145.3488  139.9072  152.7356 H   0  0  0  0  0  0  0  0  0  0  0  0
  148.0625  139.8474  152.4091 H   0  0  0  0  0  0  0  0  0  0  0  0
  147.0005  141.9809  153.0230 H   0  0  0  0  0  0  0  0  0  0  0  0
  146.4220  141.2970  154.5278 H   0  0  0  0  0  0  0  0  0  0  0  0
  149.2392  142.1431  153.8552 H   0  0  0  0  0  0  0  0  0  0  0  0
  148.3621  142.3254  155.3817 H   0  0  0  0  0  0  0  0  0  0  0  0
  147.3506  138.7045  155.1332 H   0  0  0  0  0  0  0  0  0  0  0  0
  148.5417  138.0888  153.9734 H   0  0  0  0  0  0  0  0  0  0  0  0
  142.5906  134.0381  150.1754 H   0  0  0  0  0  0  0  0  0  0  0  0
  1  2  2  0  0  0  0
  2  3  1  0  0  0  0
  2 12  1  0  0  0  0
  3  4  1  0  0  0  0
  3 20  1  0  0  0  0
  4  5  1  0  0  0  0
  4 21  1  0  0  0  0
  4 22  1  0  0  0  0
  5  6  1  0  0  0  0
  5 23  1  0  0  0  0
  5 24  1  0  0  0  0
  6 11  1  0  0  0  0
  6  7  2  0  0  0  0
  7  8  1  0  0  0  0
  7 25  1  0  0  0  0
  8  9  2  0  0  0  0
  8 26  1  0  0  0  0
  9 10  1  0  0  0  0
  9 27  1  0  0  0  0
 10 11  2  0  0  0  0
 10 28  1  0  0  0  0
 11 37  1  0  0  0  0
 12 13  1  0  0  0  0
 12 29  1  0  0  0  0
 13 19  1  0  0  0  0
 13 14  1  0  0  0  0
 13 30  1  0  0  0  0
 14 15  1  0  0  0  0
 14 31  1  0  0  0  0
 14 32  1  0  0  0  0
 15 16  1  0  0  0  0
 15 33  1  0  0  0  0
 15 34  1  0  0  0  0
 16 17  2  0  0  0  0
 16 18  2  0  0  0  0
 16 19  1  0  0  0  0
 19 35  1  0  0  0  0
 19 36  1  0  0  0  0
M  CHG  1  11   1
M  END
> <s_m_source_file>
AV-unprocessed.smi

> <i_m_source_file_index>
1534

> <i_lp_mmshare_version>
43012

> <i_f3d_flags>
0

> <s_epik_input>
Tz1TMSg9TylbQ0gyXVtDSDJdW0NASF0oW0NIMl0xKVtOSF1DKD1PKVtOSF1bQ0gyXVtDSDJdYzJbY0hdW2NIXVtjSF1bY0hdbjI=

> <s_epik_cmdline>
J2VwaWtfcHl0aG9uJywgJy1waCcsICc3LjAnLCAnLXRuJywgJzgnLCAnLW1hJywgJzIwMCcsICctbWV0YWxfYmluZGluZycsICctaW1hZScsICc8aW5maWxlLm1hZT4nLCAnLW9tYWUnLCAnPG91dGZpbGUubWFlPic=

> <r_epik_Ionization_Penalty>
1.58466

> <r_epik_Ionization_Penalty_Charging>
1.58462

> <r_epik_Ionization_Penalty_Neutral>
3.4911e-05

> <r_epik_State_Penalty>
1.6815

> <r_epik_Charging_Adjusted_Penalty>
3.26612

> <i_epik_Tot_Q>
1

> <i_epik_Tot_abs_Q>
1

> <r_epik_Metal_State_Penalty>
1.72144

> <b_epik_Metal_Only>
0

> <s_lp_Force_Field>
OPLS_2005

> <r_lp_Energy>
19.4727

> <b_lp_Chiralities_Consistent>
1

> <s_lp_Variant>
AV-unprocessed.smi:1534-4

> <Gold.Version>
5.8.1

> <Gold.Id.Protein>
6NUR|6NUR_protein|mol2

> <Gold.PLP.Fitness>
46.8929

> <Gold.PLP.PLP>
-34.0131

> <Gold.PLP.part.hbond>
-5.0000

> <Gold.PLP.part.metal>
0.0000

> <Gold.PLP.part.buried>
-4.4060

> <Gold.PLP.part.nonpolar>
-26.8956

> <Gold.PLP.part.repulsive>
2.6715

> <Gold.PLP.ligand.clash>
0.0000

> <Gold.PLP.ligand.torsion>
1.0318

> <Gold.PLP.Chemscore.Hbond>
4.9760

> <Gold.PLP.Chemscore.CHOScore>
0.0000

> <Gold.PLP.Chemscore.Metal>
0.0000

> <Gold.Chemscore.Hbonds>
donor molecule, donor type, donor heavy atom, donor atom, acceptor molecule, acceptor atom, score
      L1  H     3    20       P1 10175  0.94
      L1  H    11    37       P1 10186  2.00
      L1  H    12    29       P1 10175  1.00
      P1  H  7989  7998       L1    17  1.00

> <Gold.PLP.Chemscore.Internal.Correction>
0.0154

> <Gold.Rescore>
     Score         DG    S(hbond)    S(metal)    S(lipo)     H(rot)  DE(clash)    DE(int)     intcor
     18.49     -22.37       3.81        0.00      75.45       1.82       1.66       2.22       ----

> <Gold.Chemscore.Fitness>
18.4878

> <Gold.Chemscore.DG>
-22.3690

> <Gold.Chemscore.ZeroCoef>
-5.4800

> <Gold.Chemscore.Hbond>
3.8101

> <Gold.Chemscore.Metal>
0.0000

> <Gold.Chemscore.Lipo>
75.4489

> <Gold.Chemscore.Internal_Hbond>
0.0000

> <Gold.Chemscore.DEClash>
1.6596

> <Gold.Chemscore.DEInternal>
2.2215

> <Gold.Chemscore.Rot>
1.8220

> <Gold.Chemscore.Internal.Correction>
   9.000000E+99

> <Gold.Chemscore.Hbonds>
donor molecule, donor type, donor heavy atom, donor atom, acceptor molecule, acceptor atom, score
      L1  H     3    20       P1 10175  0.91
      L1  H    11    37       P1 10186  0.98
      L1  H    12    29       P1 10175  0.99
      P1  H  7989  7998       L1    17  1.00

> <Gold.Chemscore.Hbond.Weighted>
-12.7257

> <Gold.Chemscore.Metal.Weighted>
-0.0000

> <Gold.Chemscore.Lipo.Weighted>
-8.8275

> <Gold.Chemscore.Internal_Hbond.Weighted>
0.0000

> <Gold.Chemscore.DEClash.Weighted>
1.6596

> <Gold.Chemscore.DEInternal.Weighted>
2.2215

> <Gold.Chemscore.Rot.Weighted>
4.6642

> <Gold.Chemscore.Internal.Correction.Weighted>
   9.000000E+99

> <Gold.Protein.RotatedTorsions>
[ 6907 6896 6895 6894 ] final  -55.11 input  -60.11 | X-H torsion
[ 7974 7965 7964 7962 ] final  101.02 input  175.53 | X-H torsion
[ 8008 7997 7996 7995 ] final -158.52 input   59.86 | X-H torsion
[ 10167 10162 10161 10158 ] final  155.84 input  -65.29 | X-H torsion
[ 10718 10713 10712 10709 ] final   60.06 input   66.30 | X-H torsion
[ 10763 10752 10751 10750 ] final  -52.54 input  -60.55 | X-H torsion
[ 11005 11000 10999 10996 ] final -128.69 input  -57.11 | X-H torsion

> <Gold.Protein.ActiveResidues>
 VAL166  LYS551  ARG553  GLY616  TRP617  ASP618  TYR619  PRO620  LYS621  CYS622 
 ASP623  PHE694  ASN695  SER759  ASP760  ASP761  ALA762  ILE779  LEU786  VAL792 
 PHE793  MET794  SER795  GLU796  ALA797  LYS798  CYS799  TRP800  GLU811  SER814 

> <Gold.Protein.RotatedAtoms>
  150.8279  134.7519  159.6828 H   0  0  0  0  0  0  0  0  0  0  0  0  # atno 6907 bound_to 6896
  152.4388  134.5630  159.9909 H   0  0  0  0  0  0  0  0  0  0  0  0  # atno 6908 bound_to 6896
  151.5798  133.3341  159.3042 H   0  0  0  0  0  0  0  0  0  0  0  0  # atno 6909 bound_to 6896
  145.3778  139.2385  143.3420 H   0  0  0  0  0  0  0  0  0  0  0  0  # atno 7974 bound_to 7965
  155.7488  140.0824  157.2211 H   0  0  0  0  0  0  0  0  0  0  0  0  # atno 8008 bound_to 7997
  154.4014  140.1564  156.2756 H   0  0  0  0  0  0  0  0  0  0  0  0  # atno 8009 bound_to 7997
  155.8950  140.3413  155.5987 H   0  0  0  0  0  0  0  0  0  0  0  0  # atno 8010 bound_to 7997
  139.4821  144.5062  151.8093 H   0  0  0  0  0  0  0  0  0  0  0  0  # atno 10167 bound_to 10162
  157.5724  130.8917  149.9289 H   0  0  0  0  0  0  0  0  0  0  0  0  # atno 10718 bound_to 10713
  154.1443  135.6500  153.4949 H   0  0  0  0  0  0  0  0  0  0  0  0  # atno 10763 bound_to 10752
  153.0156  135.5323  154.6873 H   0  0  0  0  0  0  0  0  0  0  0  0  # atno 10764 bound_to 10752
  154.6143  135.2957  155.0368 H   0  0  0  0  0  0  0  0  0  0  0  0  # atno 10765 bound_to 10752
  140.9495  134.1085  157.4076 H   0  0  0  0  0  0  0  0  0  0  0  0  # atno 11005 bound_to 11000
  146.2856  140.4440  142.8759 LP  0  0  0  0  0  0  0  0  0  0  0  0  # atno 17320 bound_to 7965
  144.8529  140.7028  143.6156 LP  0  0  0  0  0  0  0  0  0  0  0  0  # atno 17321 bound_to 7965
  140.4561  144.1788  150.5901 LP  0  0  0  0  0  0  0  0  0  0  0  0  # atno 17342 bound_to 10162
  140.4534  143.2477  151.9317 LP  0  0  0  0  0  0  0  0  0  0  0  0  # atno 17343 bound_to 10162
  156.0769  130.3678  150.0660 LP  0  0  0  0  0  0  0  0  0  0  0  0  # atno 17370 bound_to 10713
  156.8811  130.9557  151.3599 LP  0  0  0  0  0  0  0  0  0  0  0  0  # atno 17371 bound_to 10713
  139.8843  135.0061  156.6360 LP  0  0  0  0  0  0  0  0  0  0  0  0  # atno 17394 bound_to 11000
  140.7623  133.8807  155.8427 LP  0  0  0  0  0  0  0  0  0  0  0  0  # atno 17395 bound_to 11000

$$$$
