AV-unprocessed.smi:527|AV-procd|sdf|2828|dock1
  -GOLD-   2262023313D 1   1.00000     0.00000
 Structure written by MMmdl.
 43 44  0  0  0  0  0  0  0  0  2 V2000
  143.4753  132.4343  150.0594 C   0  0  0  0  0  0  0  0  0  0  0  0
  144.4313  132.4255  151.2668 C   0  0  1  0  0  0  0  0  0  0  0  0
  145.4969  131.3287  151.0694 C   0  0  0  0  0  0  0  0  0  0  0  0
  146.4622  131.2496  152.2569 C   0  0  0  0  0  0  0  0  0  0  0  0
  147.1424  132.6018  152.4889 C   0  0  0  0  0  0  0  0  0  0  0  0
  146.1052  133.7200  152.7095 C   0  0  1  0  0  0  0  0  0  0  0  0
  146.7999  134.9948  152.8883 N   0  0  0  0  0  0  0  0  0  0  0  0
  146.5718  135.8729  153.8763 C   0  0  0  0  0  0  0  0  0  0  0  0
  145.6801  135.7321  154.7159 O   0  0  0  0  0  0  0  0  0  0  0  0
  147.4370  136.9039  153.8157 N   0  0  0  0  0  0  0  0  0  0  0  0
  147.5386  137.9424  154.6702 C   0  0  0  0  0  0  0  0  0  0  0  0
  146.8323  138.1079  155.6682 O   0  0  0  0  0  0  0  0  0  0  0  0
  148.6290  138.9625  154.3171 C   0  0  0  0  0  0  0  0  0  0  0  0
  148.1476  140.3501  154.3372 N   0  0  0  0  0  0  0  0  0  0  0  0
  146.9212  140.8110  153.9307 C   0  0  0  0  0  0  0  0  0  0  0  0
  146.9297  142.1682  154.1255 C   0  0  0  0  0  0  0  0  0  0  0  0
  148.1593  142.4788  154.6415 N   0  3  0  0  0  0  0  0  0  0  0  0
  148.8986  141.3721  154.7698 C   0  0  0  0  0  0  0  0  0  0  0  0
  145.0918  133.8082  151.5357 C   0  0  2  0  0  0  0  0  0  0  0  0
  144.0401  134.9100  151.7934 C   0  0  0  0  0  0  0  0  0  0  0  0
  143.9789  132.7805  149.1563 H   0  0  0  0  0  0  0  0  0  0  0  0
  142.6091  133.0732  150.2287 H   0  0  0  0  0  0  0  0  0  0  0  0
  143.0903  131.4340  149.8593 H   0  0  0  0  0  0  0  0  0  0  0  0
  143.8434  132.1568  152.1460 H   0  0  0  0  0  0  0  0  0  0  0  0
  145.0148  130.3596  150.9348 H   0  0  0  0  0  0  0  0  0  0  0  0
  146.0603  131.5212  150.1553 H   0  0  0  0  0  0  0  0  0  0  0  0
  145.9208  130.9486  153.1547 H   0  0  0  0  0  0  0  0  0  0  0  0
  147.2146  130.4816  152.0754 H   0  0  0  0  0  0  0  0  0  0  0  0
  147.8076  132.5281  153.3501 H   0  0  0  0  0  0  0  0  0  0  0  0
  147.7725  132.8433  151.6315 H   0  0  0  0  0  0  0  0  0  0  0  0
  145.5422  133.4929  153.6174 H   0  0  0  0  0  0  0  0  0  0  0  0
  147.4985  135.2264  152.1974 H   0  0  0  0  0  0  0  0  0  0  0  0
  148.0825  136.8988  153.0398 H   0  0  0  0  0  0  0  0  0  0  0  0
  149.4543  138.8829  155.0262 H   0  0  0  0  0  0  0  0  0  0  0  0
  149.0280  138.7498  153.3242 H   0  0  0  0  0  0  0  0  0  0  0  0
  146.1547  140.1572  153.5403 H   0  0  0  0  0  0  0  0  0  0  0  0
  146.1734  142.9167  153.9390 H   0  0  0  0  0  0  0  0  0  0  0  0
  149.9057  141.3165  155.1431 H   0  0  0  0  0  0  0  0  0  0  0  0
  145.6465  134.0893  150.6388 H   0  0  0  0  0  0  0  0  0  0  0  0
  143.4146  134.6648  152.6523 H   0  0  0  0  0  0  0  0  0  0  0  0
  143.3862  135.0561  150.9348 H   0  0  0  0  0  0  0  0  0  0  0  0
  144.5024  135.8774  151.9890 H   0  0  0  0  0  0  0  0  0  0  0  0
  148.4686  143.4108  154.8877 H   0  0  0  0  0  0  0  0  0  0  0  0
  1  2  1  0  0  0  0
  1 21  1  0  0  0  0
  1 22  1  0  0  0  0
  1 23  1  0  0  0  0
  2 19  1  0  0  0  0
  2  3  1  0  0  0  0
  2 24  1  0  0  0  0
  3  4  1  0  0  0  0
  3 25  1  0  0  0  0
  3 26  1  0  0  0  0
  4  5  1  0  0  0  0
  4 27  1  0  0  0  0
  4 28  1  0  0  0  0
  5  6  1  0  0  0  0
  5 29  1  0  0  0  0
  5 30  1  0  0  0  0
  6  7  1  0  0  0  0
  6 19  1  0  0  0  0
  6 31  1  0  0  0  0
  7  8  1  0  0  0  0
  7 32  1  0  0  0  0
  8  9  2  0  0  0  0
  8 10  1  0  0  0  0
 10 11  1  0  0  0  0
 10 33  1  0  0  0  0
 11 12  2  0  0  0  0
 11 13  1  0  0  0  0
 13 14  1  0  0  0  0
 13 34  1  0  0  0  0
 13 35  1  0  0  0  0
 14 18  1  0  0  0  0
 14 15  1  0  0  0  0
 15 16  2  0  0  0  0
 15 36  1  0  0  0  0
 16 17  1  0  0  0  0
 16 37  1  0  0  0  0
 17 18  2  0  0  0  0
 17 43  1  0  0  0  0
 18 38  1  0  0  0  0
 19 20  1  0  0  0  0
 19 39  1  0  0  0  0
 20 40  1  0  0  0  0
 20 41  1  0  0  0  0
 20 42  1  0  0  0  0
M  CHG  1  17   1
M  END
> <s_m_source_file>
AV-unprocessed.smi

> <i_m_source_file_index>
527

> <i_lp_mmshare_version>
43012

> <i_f3d_flags>
0

> <s_epik_input>
W0NIM11bQ0BASF0xW0NIMl1bQ0gyXVtDSDJdW0NASF0oW0NASF0xW0NIM10pW05IXUMoPU8pW05IXUMoPU8pW0NIMl1uMltjSF1bY0hdbltjSF0y

> <s_epik_cmdline>
J2VwaWtfcHl0aG9uJywgJy1waCcsICc3LjAnLCAnLXRuJywgJzgnLCAnLW1hJywgJzIwMCcsICctbWV0YWxfYmluZGluZycsICctaW1hZScsICc8aW5maWxlLm1hZT4nLCAnLW9tYWUnLCAnPG91dGZpbGUubWFlPic=

> <r_lp_tautomer_probability>
1

> <r_epik_Ionization_Penalty>
0.816441

> <r_epik_Ionization_Penalty_Charging>
0

> <r_epik_Ionization_Penalty_Neutral>
0.816441

> <r_epik_State_Penalty>
0.849034

> <r_epik_Charging_Adjusted_Penalty>
0.849034

> <i_epik_Tot_Q>
1

> <i_epik_Tot_abs_Q>
1

> <r_epik_Metal_State_Penalty>
0.984327

> <b_epik_Metal_Only>
0

> <s_lp_Force_Field>
OPLS_2005

> <r_lp_Energy>
16.7467

> <b_lp_Chiralities_Consistent>
1

> <s_lp_Variant>
AV-unprocessed.smi:527-14

> <Gold.Version>
5.8.1

> <Gold.Id.Protein>
6NUR|6NUR_protein|mol2

> <Gold.PLP.Fitness>
47.9929

> <Gold.PLP.PLP>
-34.3042

> <Gold.PLP.part.hbond>
-3.0000

> <Gold.PLP.part.metal>
0.0000

> <Gold.PLP.part.buried>
-5.3261

> <Gold.PLP.part.nonpolar>
-27.1777

> <Gold.PLP.part.repulsive>
0.2648

> <Gold.PLP.ligand.clash>
0.0000

> <Gold.PLP.ligand.torsion>
0.5823

> <Gold.PLP.Chemscore.Hbond>
3.9440

> <Gold.PLP.Chemscore.CHOScore>
1.0000

> <Gold.PLP.Chemscore.Metal>
0.0000

> <Gold.Chemscore.Hbonds>
donor molecule, donor type, donor heavy atom, donor atom, acceptor molecule, acceptor atom, score
      L1  H     7    32       P1  7948  0.93
      L1  H    10    33       P1  7948  1.00
      L1  H    17    43       P1  8028  2.00
      L1  C    15    36       P1 10175  0.55

> <Gold.PLP.Chemscore.Internal.Correction>
0.0213

> <Gold.Rescore>
     Score         DG    S(hbond)    S(metal)    S(lipo)     H(rot)  DE(clash)    DE(int)     intcor
     17.40     -19.41       2.87        0.00      74.39       1.71       0.02       1.98       ----

> <Gold.Chemscore.Fitness>
17.4021

> <Gold.Chemscore.DG>
-19.4092

> <Gold.Chemscore.ZeroCoef>
-5.4800

> <Gold.Chemscore.Hbond>
2.8716

> <Gold.Chemscore.Metal>
0.0000

> <Gold.Chemscore.Lipo>
74.3877

> <Gold.Chemscore.Internal_Hbond>
0.0000

> <Gold.Chemscore.DEClash>
0.0239

> <Gold.Chemscore.DEInternal>
1.9832

> <Gold.Chemscore.Rot>
1.7052

> <Gold.Chemscore.Internal.Correction>
   9.000000E+99

> <Gold.Chemscore.Hbonds>
donor molecule, donor type, donor heavy atom, donor atom, acceptor molecule, acceptor atom, score
      L1  H     7    32       P1  7948  0.89
      L1  H    10    33       P1  7948  0.97
      L1  H    17    43       P1  8028  0.94

> <Gold.Chemscore.Hbond.Weighted>
-9.5911

> <Gold.Chemscore.Metal.Weighted>
-0.0000

> <Gold.Chemscore.Lipo.Weighted>
-8.7034

> <Gold.Chemscore.Internal_Hbond.Weighted>
0.0000

> <Gold.Chemscore.DEClash.Weighted>
0.0239

> <Gold.Chemscore.DEInternal.Weighted>
1.9832

> <Gold.Chemscore.Rot.Weighted>
4.3653

> <Gold.Chemscore.Internal.Correction.Weighted>
   9.000000E+99

> <Gold.Protein.RotatedTorsions>
[ 6907 6896 6895 6894 ] final  -58.65 input  -60.11 | X-H torsion
[ 7974 7965 7964 7962 ] final -171.59 input  175.53 | X-H torsion
[ 8008 7997 7996 7995 ] final  -17.83 input   59.86 | X-H torsion
[ 10167 10162 10161 10158 ] final  -26.09 input  -65.29 | X-H torsion
[ 10718 10713 10712 10709 ] final -136.56 input   66.30 | X-H torsion
[ 10763 10752 10751 10750 ] final  137.77 input  -60.55 | X-H torsion
[ 11005 11000 10999 10996 ] final   20.90 input  -57.11 | X-H torsion

> <Gold.Protein.ActiveResidues>
 VAL166  LYS551  ARG553  GLY616  TRP617  ASP618  TYR619  PRO620  LYS621  CYS622 
 ASP623  PHE694  ASN695  SER759  ASP760  ASP761  ALA762  ILE779  LEU786  VAL792 
 PHE793  MET794  SER795  GLU796  ALA797  LYS798  CYS799  TRP800  GLU811  SER814 

> <Gold.Protein.RotatedAtoms>
  150.7990  134.7071  159.6582 H   0  0  0  0  0  0  0  0  0  0  0  0  # atno 6907 bound_to 6896
  152.4105  134.6129  160.0040 H   0  0  0  0  0  0  0  0  0  0  0  0  # atno 6908 bound_to 6896
  151.6373  133.3291  159.3158 H   0  0  0  0  0  0  0  0  0  0  0  0  # atno 6909 bound_to 6896
  144.7155  140.1899  143.6349 H   0  0  0  0  0  0  0  0  0  0  0  0  # atno 7974 bound_to 7965
  154.4950  140.2132  155.9467 H   0  0  0  0  0  0  0  0  0  0  0  0  # atno 8008 bound_to 7997
  156.1357  140.3189  155.8385 H   0  0  0  0  0  0  0  0  0  0  0  0  # atno 8009 bound_to 7997
  155.4214  140.0497  157.3016 H   0  0  0  0  0  0  0  0  0  0  0  0  # atno 8010 bound_to 7997
  140.7284  143.4208  151.0955 H   0  0  0  0  0  0  0  0  0  0  0  0  # atno 10167 bound_to 10162
  156.2784  130.7306  151.1296 H   0  0  0  0  0  0  0  0  0  0  0  0  # atno 10718 bound_to 10713
  153.8785  135.3047  155.3444 H   0  0  0  0  0  0  0  0  0  0  0  0  # atno 10763 bound_to 10752
  154.7773  135.4854  153.9773 H   0  0  0  0  0  0  0  0  0  0  0  0  # atno 10764 bound_to 10752
  153.1365  135.6815  153.9191 H   0  0  0  0  0  0  0  0  0  0  0  0  # atno 10765 bound_to 10752
  140.3975  134.1754  155.7663 H   0  0  0  0  0  0  0  0  0  0  0  0  # atno 11005 bound_to 11000
  145.8778  139.2306  143.1623 LP  0  0  0  0  0  0  0  0  0  0  0  0  # atno 17320 bound_to 7965
  146.0024  140.8509  143.0012 LP  0  0  0  0  0  0  0  0  0  0  0  0  # atno 17321 bound_to 7965
  139.7853  143.8296  152.3144 LP  0  0  0  0  0  0  0  0  0  0  0  0  # atno 17342 bound_to 10162
  139.8261  144.7274  150.9510 LP  0  0  0  0  0  0  0  0  0  0  0  0  # atno 17343 bound_to 10162
  157.7307  131.0614  150.5715 LP  0  0  0  0  0  0  0  0  0  0  0  0  # atno 17370 bound_to 10713
  156.5819  130.4306  149.5974 LP  0  0  0  0  0  0  0  0  0  0  0  0  # atno 17371 bound_to 10713
  141.1869  133.8293  157.1052 LP  0  0  0  0  0  0  0  0  0  0  0  0  # atno 17394 bound_to 11000
  140.0361  134.9877  157.0873 LP  0  0  0  0  0  0  0  0  0  0  0  0  # atno 17395 bound_to 11000

$$$$
