AV-unprocessed.smi:1797|AV-procd|sdf|7257|dock2
  -GOLD-   22720 8513D 1   1.00000     0.00000
 Structure written by MMmdl.
 29 30  0  0  0  0  0  0  0  0  2 V2000
  146.3669  142.3313  154.0696 C   0  0  0  0  0  0  0  0  0  0  0  0
  146.4629  140.8546  154.2458 C   0  0  0  0  0  0  0  0  0  0  0  0
  146.0759  140.2333  155.3625 N   0  0  0  0  0  0  0  0  0  0  0  0
  146.2622  138.8605  155.2884 N   0  0  0  0  0  0  0  0  0  0  0  0
  146.7993  138.4650  154.1252 C   0  0  0  0  0  0  0  0  0  0  0  0
  147.0668  137.1746  153.8518 N   0  5  0  0  0  0  0  0  0  0  0  0
  146.1024  136.2854  153.4964 C   0  0  0  0  0  0  0  0  0  0  0  0
  145.0286  136.1837  154.0884 O   0  0  0  0  0  0  0  0  0  0  0  0
  146.3458  135.4800  152.4440 N   0  0  0  0  0  0  0  0  0  0  0  0
  145.4426  134.4723  151.8967 C   0  0  2  0  0  0  0  0  0  0  0  0
  146.2282  133.2950  151.2992 C   0  0  0  0  0  0  0  0  0  0  0  0
  145.2780  132.2325  150.7240 C   0  0  0  0  0  0  0  0  0  0  0  0
  144.1420  132.8209  149.8735 C   0  0  0  0  0  0  0  0  0  0  0  0
  143.5155  132.0875  149.1118 O   0  0  0  0  0  0  0  0  0  0  0  0
  143.8324  134.1225  150.0079 N   0  0  0  0  0  0  0  0  0  0  0  0
  144.5574  135.1078  150.8097 C   0  0  0  0  0  0  0  0  0  0  0  0
  147.1000  139.7911  153.0029 S   0  0  0  0  0  0  0  0  0  0  0  0
  147.2042  142.8206  154.5671 H   0  0  0  0  0  0  0  0  0  0  0  0
  145.4361  142.7039  154.4980 H   0  0  0  0  0  0  0  0  0  0  0  0
  146.3895  142.5880  153.0104 H   0  0  0  0  0  0  0  0  0  0  0  0
  147.2393  135.5805  151.9852 H   0  0  0  0  0  0  0  0  0  0  0  0
  144.7947  134.1000  152.6930 H   0  0  0  0  0  0  0  0  0  0  0  0
  146.8963  133.6540  150.5148 H   0  0  0  0  0  0  0  0  0  0  0  0
  146.8637  132.8379  152.0586 H   0  0  0  0  0  0  0  0  0  0  0  0
  145.8405  131.5102  150.1317 H   0  0  0  0  0  0  0  0  0  0  0  0
  144.8205  131.6754  151.5423 H   0  0  0  0  0  0  0  0  0  0  0  0
  143.0591  134.4725  149.4611 H   0  0  0  0  0  0  0  0  0  0  0  0
  143.8426  135.7975  151.2597 H   0  0  0  0  0  0  0  0  0  0  0  0
  145.1702  135.6957  150.1247 H   0  0  0  0  0  0  0  0  0  0  0  0
  1  2  1  0  0  0  0
  1 18  1  0  0  0  0
  1 19  1  0  0  0  0
  1 20  1  0  0  0  0
  2 17  1  0  0  0  0
  2  3  2  0  0  0  0
  3  4  1  0  0  0  0
  4  5  2  0  0  0  0
  5  6  1  0  0  0  0
  5 17  1  0  0  0  0
  6  7  1  0  0  0  0
  7  8  2  0  0  0  0
  7  9  1  0  0  0  0
  9 10  1  0  0  0  0
  9 21  1  0  0  0  0
 10 16  1  0  0  0  0
 10 11  1  0  0  0  0
 10 22  1  0  0  0  0
 11 12  1  0  0  0  0
 11 23  1  0  0  0  0
 11 24  1  0  0  0  0
 12 13  1  0  0  0  0
 12 25  1  0  0  0  0
 12 26  1  0  0  0  0
 13 14  2  0  0  0  0
 13 15  1  0  0  0  0
 15 16  1  0  0  0  0
 15 27  1  0  0  0  0
 16 28  1  0  0  0  0
 16 29  1  0  0  0  0
M  CHG  1   6  -1
M  END
> <s_m_source_file>
AV-unprocessed.smi

> <i_m_source_file_index>
1797

> <i_lp_mmshare_version>
43012

> <i_f3d_flags>
0

> <s_epik_input>
W0NIM11jMW5uYyhzMSlbTkhdQyg9TylbTkhdW0NAQEhdMltDSDJdW0NIMl1DKD1PKVtOSF1bQ0gyXTI=

> <s_epik_cmdline>
J2VwaWtfcHl0aG9uJywgJy1waCcsICc3LjAnLCAnLXRuJywgJzgnLCAnLW1hJywgJzIwMCcsICctbWV0YWxfYmluZGluZycsICctaW1hZScsICc8aW5maWxlLm1hZT4nLCAnLW9tYWUnLCAnPG91dGZpbGUubWFlPic=

> <r_lp_tautomer_probability>
1

> <r_epik_Ionization_Penalty>
3.31792

> <r_epik_Ionization_Penalty_Charging>
3.17379

> <r_epik_Ionization_Penalty_Neutral>
0.144127

> <r_epik_State_Penalty>
3.17099

> <r_epik_Charging_Adjusted_Penalty>
6.34478

> <i_epik_Tot_Q>
-1

> <i_epik_Tot_abs_Q>
1

> <r_epik_Metal_State_Penalty>
0.468583

> <b_epik_Metal_Only>
1

> <s_lp_Force_Field>
OPLS_2005

> <r_lp_Energy>
8.3623

> <b_lp_Chiralities_Consistent>
1

> <s_lp_Variant>
AV-unprocessed.smi:1797-3

> <Gold.Version>
5.8.1

> <Gold.Id.Protein>
6NUR|6NUR_protein|mol2

> <Gold.PLP.Fitness>
29.4584

> <Gold.PLP.PLP>
-24.2622

> <Gold.PLP.part.hbond>
-3.0000

> <Gold.PLP.part.metal>
0.0000

> <Gold.PLP.part.buried>
-5.2931

> <Gold.PLP.part.nonpolar>
-18.3751

> <Gold.PLP.part.repulsive>
1.9978

> <Gold.PLP.ligand.clash>
0.0000

> <Gold.PLP.ligand.torsion>
1.4802

> <Gold.PLP.Chemscore.Hbond>
2.7120

> <Gold.PLP.Chemscore.CHOScore>
0.0000

> <Gold.PLP.Chemscore.Metal>
0.0000

> <Gold.Chemscore.Hbonds>
donor molecule, donor type, donor heavy atom, donor atom, acceptor molecule, acceptor atom, score
      L1  H     9    21       P1  7948  1.00
      L1  H    15    27       P1 10186  0.72
      P1  H 10785 10796       L1    14  0.93

> <Gold.PLP.Chemscore.Internal.Correction>
0.0207

> <Gold.Rescore>
     Score         DG    S(hbond)    S(metal)    S(lipo)     H(rot)  DE(clash)    DE(int)     intcor
     15.82     -17.67       2.90        0.00      43.16       1.00       0.37       1.48       ----

> <Gold.Chemscore.Fitness>
15.8165

> <Gold.Chemscore.DG>
-17.6668

> <Gold.Chemscore.ZeroCoef>
-5.4800

> <Gold.Chemscore.Hbond>
2.9032

> <Gold.Chemscore.Metal>
0.0000

> <Gold.Chemscore.Lipo>
43.1648

> <Gold.Chemscore.Internal_Hbond>
0.0000

> <Gold.Chemscore.DEClash>
0.3685

> <Gold.Chemscore.DEInternal>
1.4817

> <Gold.Chemscore.Rot>
1.0000

> <Gold.Chemscore.Internal.Correction>
   9.000000E+99

> <Gold.Chemscore.Hbonds>
donor molecule, donor type, donor heavy atom, donor atom, acceptor molecule, acceptor atom, score
      L1  H     9    21       P1  7948  0.98
      L1  H    15    27       P1 10186  0.68
      P1  H 10785 10796       L1    14  0.86

> <Gold.Chemscore.Hbond.Weighted>
-9.6965

> <Gold.Chemscore.Metal.Weighted>
-0.0000

> <Gold.Chemscore.Lipo.Weighted>
-5.0503

> <Gold.Chemscore.Internal_Hbond.Weighted>
0.0000

> <Gold.Chemscore.DEClash.Weighted>
0.3685

> <Gold.Chemscore.DEInternal.Weighted>
1.4817

> <Gold.Chemscore.Rot.Weighted>
2.5600

> <Gold.Chemscore.Internal.Correction.Weighted>
   9.000000E+99

> <Gold.Protein.RotatedTorsions>
[ 6907 6896 6895 6894 ] final  -43.32 input  -60.11 | X-H torsion
[ 7974 7965 7964 7962 ] final   54.80 input  175.53 | X-H torsion
[ 8008 7997 7996 7995 ] final  -78.63 input   59.86 | X-H torsion
[ 10167 10162 10161 10158 ] final   10.90 input  -65.29 | X-H torsion
[ 10718 10713 10712 10709 ] final   16.10 input   66.30 | X-H torsion
[ 10763 10752 10751 10750 ] final   97.18 input  -60.55 | X-H torsion
[ 11005 11000 10999 10996 ] final   -7.67 input  -57.11 | X-H torsion

> <Gold.Protein.ActiveResidues>
 VAL166  LYS551  ARG553  GLY616  TRP617  ASP618  TYR619  PRO620  LYS621  CYS622 
 ASP623  PHE694  ASN695  SER759  ASP760  ASP761  ALA762  ILE779  LEU786  VAL792 
 PHE793  MET794  SER795  GLU796  ALA797  LYS798  CYS799  TRP800  GLU811  SER814 

> <Gold.Protein.RotatedAtoms>
  150.9452  134.8858  159.7637 H   0  0  0  0  0  0  0  0  0  0  0  0  # atno 6907 bound_to 6896
  152.5097  134.3884  159.9385 H   0  0  0  0  0  0  0  0  0  0  0  0  # atno 6908 bound_to 6896
  151.3903  133.3751  159.2755 H   0  0  0  0  0  0  0  0  0  0  0  0  # atno 6909 bound_to 6896
  145.9571  139.4025  143.0271 H   0  0  0  0  0  0  0  0  0  0  0  0  # atno 7974 bound_to 7965
  154.5707  140.0691  156.8960 H   0  0  0  0  0  0  0  0  0  0  0  0  # atno 8008 bound_to 7997
  155.2639  140.3360  155.4252 H   0  0  0  0  0  0  0  0  0  0  0  0  # atno 8009 bound_to 7997
  156.2116  140.1761  156.7667 H   0  0  0  0  0  0  0  0  0  0  0  0  # atno 8010 bound_to 7997
  140.6165  143.8296  150.7125 H   0  0  0  0  0  0  0  0  0  0  0  0  # atno 10167 bound_to 10162
  157.0630  130.6316  149.5790 H   0  0  0  0  0  0  0  0  0  0  0  0  # atno 10718 bound_to 10713
  153.2739  135.4192  155.1014 H   0  0  0  0  0  0  0  0  0  0  0  0  # atno 10763 bound_to 10752
  154.8465  135.3479  154.6206 H   0  0  0  0  0  0  0  0  0  0  0  0  # atno 10764 bound_to 10752
  153.6626  135.7047  153.5230 H   0  0  0  0  0  0  0  0  0  0  0  0  # atno 10765 bound_to 10752
  140.7152  133.8875  155.8780 H   0  0  0  0  0  0  0  0  0  0  0  0  # atno 11005 bound_to 11000
  145.8091  140.9734  143.0958 LP  0  0  0  0  0  0  0  0  0  0  0  0  # atno 17320 bound_to 7965
  144.6807  139.9898  143.7484 LP  0  0  0  0  0  0  0  0  0  0  0  0  # atno 17321 bound_to 7965
  140.1876  143.4063  152.1887 LP  0  0  0  0  0  0  0  0  0  0  0  0  # atno 17342 bound_to 10162
  139.5403  144.7250  151.4755 LP  0  0  0  0  0  0  0  0  0  0  0  0  # atno 17343 bound_to 10162
  155.9973  130.5044  150.7528 LP  0  0  0  0  0  0  0  0  0  0  0  0  # atno 17370 bound_to 10713
  157.4939  131.0913  151.0394 LP  0  0  0  0  0  0  0  0  0  0  0  0  # atno 17371 bound_to 10713
  141.0050  134.1098  157.4279 LP  0  0  0  0  0  0  0  0  0  0  0  0  # atno 17394 bound_to 11000
  139.8861  135.0079  156.6480 LP  0  0  0  0  0  0  0  0  0  0  0  0  # atno 17395 bound_to 11000

$$$$
