AV-unprocessed.smi:1708|AV-procd|sdf|6890|dock1
  -GOLD-   22720 8 93D 1   1.00000     0.00000
 Structure written by MMmdl.
 36 38  0  0  0  0  0  0  0  0  1 V2000
  153.9650  140.9982  160.9396 C   0  0  0  0  0  0  0  0  0  0  0  0
  153.0108  141.1923  159.8547 N   0  0  0  0  0  0  0  0  0  0  0  0
  152.4094  140.2292  159.1180 C   0  0  0  0  0  0  0  0  0  0  0  0
  152.5664  139.0154  159.2482 O   0  0  0  0  0  0  0  0  0  0  0  0
  151.5921  140.8348  158.2225 N   0  0  0  0  0  0  0  0  0  0  0  0
  150.7038  140.1795  157.2608 C   0  0  0  0  0  0  0  0  0  0  0  0
  150.7230  140.8640  155.8764 C   0  0  1  0  0  0  0  0  0  0  0  0
  151.4983  140.0737  154.9995 O   0  0  0  0  0  0  0  0  0  0  0  0
  149.3288  141.1366  155.3277 C   0  0  0  0  0  0  0  0  0  0  0  0
  149.0088  140.8157  153.9903 C   0  0  0  0  0  0  0  0  0  0  0  0
  147.7093  141.0430  153.4976 C   0  0  0  0  0  0  0  0  0  0  0  0
  146.7224  141.5912  154.3391 C   0  0  0  0  0  0  0  0  0  0  0  0
  147.0354  141.9116  155.6740 C   0  0  0  0  0  0  0  0  0  0  0  0
  146.0859  142.4345  156.4852 F   0  0  0  0  0  0  0  0  0  0  0  0
  148.3350  141.6857  156.1667 C   0  0  0  0  0  0  0  0  0  0  0  0
  151.6763  142.2241  158.3929 C   0  0  0  0  0  0  0  0  0  0  0  0
  151.0327  143.2791  157.7233 C   0  0  0  0  0  0  0  0  0  0  0  0
  151.3373  144.5943  158.1460 C   0  0  0  0  0  0  0  0  0  0  0  0
  152.2569  144.8239  159.2026 C   0  0  0  0  0  0  0  0  0  0  0  0
  152.8909  143.7430  159.8594 C   0  0  0  0  0  0  0  0  0  0  0  0
  152.5688  142.4477  159.4197 C   0  0  0  0  0  0  0  0  0  0  0  0
  154.0200  139.9550  161.2534 H   0  0  0  0  0  0  0  0  0  0  0  0
  153.6789  141.5916  161.8081 H   0  0  0  0  0  0  0  0  0  0  0  0
  154.9603  141.3110  160.6234 H   0  0  0  0  0  0  0  0  0  0  0  0
  150.9926  139.1320  157.1667 H   0  0  0  0  0  0  0  0  0  0  0  0
  149.6862  140.1738  157.6553 H   0  0  0  0  0  0  0  0  0  0  0  0
  151.2422  141.8187  155.9677 H   0  0  0  0  0  0  0  0  0  0  0  0
  151.0620  139.2440  154.8793 H   0  0  0  0  0  0  0  0  0  0  0  0
  149.7571  140.3844  153.3414 H   0  0  0  0  0  0  0  0  0  0  0  0
  147.4687  140.7930  152.4749 H   0  0  0  0  0  0  0  0  0  0  0  0
  145.7255  141.7632  153.9614 H   0  0  0  0  0  0  0  0  0  0  0  0
  148.5631  141.9260  157.1948 H   0  0  0  0  0  0  0  0  0  0  0  0
  150.3343  143.0978  156.9200 H   0  0  0  0  0  0  0  0  0  0  0  0
  150.8643  145.4341  157.6585 H   0  0  0  0  0  0  0  0  0  0  0  0
  152.4751  145.8359  159.5096 H   0  0  0  0  0  0  0  0  0  0  0  0
  153.5912  143.9095  160.6647 H   0  0  0  0  0  0  0  0  0  0  0  0
  1  2  1  0  0  0  0
  1 22  1  0  0  0  0
  1 23  1  0  0  0  0
  1 24  1  0  0  0  0
  2 21  1  0  0  0  0
  2  3  1  0  0  0  0
  3  4  2  0  0  0  0
  3  5  1  0  0  0  0
  5  6  1  0  0  0  0
  5 16  1  0  0  0  0
  6  7  1  0  0  0  0
  6 25  1  0  0  0  0
  6 26  1  0  0  0  0
  7  8  1  0  0  0  0
  7  9  1  0  0  0  0
  7 27  1  0  0  0  0
  8 28  1  0  0  0  0
  9 15  1  0  0  0  0
  9 10  2  0  0  0  0
 10 11  1  0  0  0  0
 10 29  1  0  0  0  0
 11 12  2  0  0  0  0
 11 30  1  0  0  0  0
 12 13  1  0  0  0  0
 12 31  1  0  0  0  0
 13 14  1  0  0  0  0
 13 15  2  0  0  0  0
 15 32  1  0  0  0  0
 16 21  2  0  0  0  0
 16 17  1  0  0  0  0
 17 18  2  0  0  0  0
 17 33  1  0  0  0  0
 18 19  1  0  0  0  0
 18 34  1  0  0  0  0
 19 20  2  0  0  0  0
 19 35  1  0  0  0  0
 20 21  1  0  0  0  0
 20 36  1  0  0  0  0
M  END
> <s_m_source_file>
AV-unprocessed.smi

> <i_m_source_file_index>
1708

> <i_lp_mmshare_version>
43012

> <i_f3d_flags>
0

> <s_epik_input>
W2NIXTFbY0hdW2NIXVtjSF1jKGMxMiluKFtDSDNdKWMoPU8pbjJbQ0gyXVtDQEhdKFtPSF0pYzNbY0hdW2NIXVtjSF1jKEYpW2NIXTM=

> <s_epik_cmdline>
J2VwaWtfcHl0aG9uJywgJy1waCcsICc3LjAnLCAnLXRuJywgJzgnLCAnLW1hJywgJzIwMCcsICctbWV0YWxfYmluZGluZycsICctaW1hZScsICc8aW5maWxlLm1hZT4nLCAnLW9tYWUnLCAnPG91dGZpbGUubWFlPic=

> <r_lp_tautomer_probability>
1

> <r_epik_Ionization_Penalty>
3.53466e-06

> <r_epik_Ionization_Penalty_Charging>
2.57375e-09

> <r_epik_Ionization_Penalty_Neutral>
3.53208e-06

> <r_epik_State_Penalty>
-0

> <r_epik_Charging_Adjusted_Penalty>
2.57375e-09

> <i_epik_Tot_Q>
0

> <i_epik_Tot_abs_Q>
0

> <r_epik_Metal_State_Penalty>
-0

> <b_epik_Metal_Only>
0

> <s_lp_Force_Field>
OPLS_2005

> <r_lp_Energy>
40.1168

> <b_lp_Chiralities_Consistent>
1

> <s_lp_Variant>
AV-unprocessed.smi:1708-2

> <Gold.Version>
5.8.1

> <Gold.Id.Protein>
6NUR|6NUR_protein|mol2

> <Gold.PLP.Fitness>
49.1932

> <Gold.PLP.PLP>
-48.4916

> <Gold.PLP.part.hbond>
-1.0000

> <Gold.PLP.part.metal>
0.0000

> <Gold.PLP.part.buried>
-4.8998

> <Gold.PLP.part.nonpolar>
-43.4498

> <Gold.PLP.part.repulsive>
0.0000

> <Gold.PLP.ligand.clash>
0.0000

> <Gold.PLP.ligand.torsion>
1.1716

> <Gold.PLP.Chemscore.Hbond>
1.0000

> <Gold.PLP.Chemscore.CHOScore>
0.0000

> <Gold.PLP.Chemscore.Metal>
0.0000

> <Gold.Chemscore.Hbonds>
donor molecule, donor type, donor heavy atom, donor atom, acceptor molecule, acceptor atom, score
      P1  H  7989  7998       L1     8  1.00

> <Gold.PLP.Chemscore.Internal.Correction>
0.0448

> <Gold.Rescore>
     Score         DG    S(hbond)    S(metal)    S(lipo)     H(rot)  DE(clash)    DE(int)     intcor
     17.11     -18.13       0.91        0.00     122.53       1.85       0.01       1.00       ----

> <Gold.Chemscore.Fitness>
17.1142

> <Gold.Chemscore.DG>
-18.1264

> <Gold.Chemscore.ZeroCoef>
-5.4800

> <Gold.Chemscore.Hbond>
0.9094

> <Gold.Chemscore.Metal>
0.0000

> <Gold.Chemscore.Lipo>
122.5314

> <Gold.Chemscore.Internal_Hbond>
0.0000

> <Gold.Chemscore.DEClash>
0.0147

> <Gold.Chemscore.DEInternal>
0.9976

> <Gold.Chemscore.Rot>
1.8465

> <Gold.Chemscore.Internal.Correction>
   9.000000E+99

> <Gold.Chemscore.Hbonds>
donor molecule, donor type, donor heavy atom, donor atom, acceptor molecule, acceptor atom, score
      P1  H  7989  7998       L1     8  0.51

> <Gold.Chemscore.Hbond.Weighted>
-3.0373

> <Gold.Chemscore.Metal.Weighted>
-0.0000

> <Gold.Chemscore.Lipo.Weighted>
-14.3362

> <Gold.Chemscore.Internal_Hbond.Weighted>
0.0000

> <Gold.Chemscore.DEClash.Weighted>
0.0147

> <Gold.Chemscore.DEInternal.Weighted>
0.9976

> <Gold.Chemscore.Rot.Weighted>
4.7270

> <Gold.Chemscore.Internal.Correction.Weighted>
   9.000000E+99

> <Gold.Protein.RotatedTorsions>
[ 6907 6896 6895 6894 ] final -129.80 input  -60.11 | X-H torsion
[ 7974 7965 7964 7962 ] final  -24.49 input  175.53 | X-H torsion
[ 8008 7997 7996 7995 ] final  141.61 input   59.86 | X-H torsion
[ 10167 10162 10161 10158 ] final -104.25 input  -65.29 | X-H torsion
[ 10718 10713 10712 10709 ] final  100.42 input   66.30 | X-H torsion
[ 10763 10752 10751 10750 ] final  174.03 input  -60.55 | X-H torsion
[ 11005 11000 10999 10996 ] final -112.43 input  -57.11 | X-H torsion

> <Gold.Protein.ActiveResidues>
 VAL166  LYS551  ARG553  GLY616  TRP617  ASP618  TYR619  PRO620  LYS621  CYS622 
 ASP623  PHE694  ASN695  SER759  ASP760  ASP761  ALA762  ILE779  LEU786  VAL792 
 PHE793  MET794  SER795  GLU796  ALA797  LYS798  CYS799  TRP800  GLU811  SER814 

> <Gold.Protein.RotatedAtoms>
  150.9327  133.6748  159.2807 H   0  0  0  0  0  0  0  0  0  0  0  0  # atno 6907 bound_to 6896
  151.4164  135.0991  159.9610 H   0  0  0  0  0  0  0  0  0  0  0  0  # atno 6908 bound_to 6896
  152.5033  133.8789  159.7391 H   0  0  0  0  0  0  0  0  0  0  0  0  # atno 6909 bound_to 6896
  146.1551  140.4759  142.8595 H   0  0  0  0  0  0  0  0  0  0  0  0  # atno 7974 bound_to 7965
  156.2963  140.2310  156.4593 H   0  0  0  0  0  0  0  0  0  0  0  0  # atno 8008 bound_to 7997
  154.8033  140.0447  157.1309 H   0  0  0  0  0  0  0  0  0  0  0  0  # atno 8009 bound_to 7997
  154.9508  140.3042  155.5079 H   0  0  0  0  0  0  0  0  0  0  0  0  # atno 8010 bound_to 7997
  140.2112  143.3745  152.1048 H   0  0  0  0  0  0  0  0  0  0  0  0  # atno 10167 bound_to 10162
  157.6854  131.0698  150.5098 H   0  0  0  0  0  0  0  0  0  0  0  0  # atno 10718 bound_to 10713
  154.4483  135.2764  155.1799 H   0  0  0  0  0  0  0  0  0  0  0  0  # atno 10763 bound_to 10752
  154.3637  135.6124  153.5707 H   0  0  0  0  0  0  0  0  0  0  0  0  # atno 10764 bound_to 10752
  152.9845  135.5840  154.4822 H   0  0  0  0  0  0  0  0  0  0  0  0  # atno 10765 bound_to 10752
  141.0675  133.9434  157.2549 H   0  0  0  0  0  0  0  0  0  0  0  0  # atno 11005 bound_to 11000
  144.7953  140.6111  143.6514 LP  0  0  0  0  0  0  0  0  0  0  0  0  # atno 17320 bound_to 7965
  145.4728  139.1502  143.3805 LP  0  0  0  0  0  0  0  0  0  0  0  0  # atno 17321 bound_to 7965
  139.5179  144.6998  151.5526 LP  0  0  0  0  0  0  0  0  0  0  0  0  # atno 17342 bound_to 10162
  140.6322  143.9054  150.6615 LP  0  0  0  0  0  0  0  0  0  0  0  0  # atno 17343 bound_to 10162
  156.5416  130.4209  149.6151 LP  0  0  0  0  0  0  0  0  0  0  0  0  # atno 17370 bound_to 10713
  156.2980  130.7161  151.2026 LP  0  0  0  0  0  0  0  0  0  0  0  0  # atno 17371 bound_to 10713
  139.9491  135.0179  156.8941 LP  0  0  0  0  0  0  0  0  0  0  0  0  # atno 17394 bound_to 11000
  140.5742  134.0414  155.7441 LP  0  0  0  0  0  0  0  0  0  0  0  0  # atno 17395 bound_to 11000

$$$$
