AV-unprocessed.smi:2490|AV-procd|sdf|9808|dock6
  -GOLD-   2272013443D 1   1.00000     0.00000
 Structure written by MMmdl.
 33 34  0  0  0  0  0  0  0  0  1 V2000
  146.6837  138.7368  152.3824 C   0  0  0  0  0  0  0  0  0  0  0  0
  148.0111  139.0535  152.8861 N   0  0  0  0  0  0  0  0  0  0  0  0
  148.4499  138.7412  154.1145 C   0  0  0  0  0  0  0  0  0  0  0  0
  147.7537  138.1530  154.9433 O   0  0  0  0  0  0  0  0  0  0  0  0
  149.8808  139.1780  154.4587 C   0  0  1  0  0  0  0  0  0  0  0  0
  149.9428  140.0876  155.7067 C   0  0  0  0  0  0  0  0  0  0  0  0
  151.3261  140.3967  156.0448 N   0  0  0  0  0  0  0  0  0  0  0  0
  151.5309  141.4125  156.9592 C   0  0  0  0  0  0  0  0  0  0  0  0
  152.2363  141.1222  158.0591 N   0  0  0  0  0  0  0  0  0  0  0  0
  152.4287  142.1244  158.9436 C   0  0  0  0  0  0  0  0  0  0  0  0
  151.9120  143.4175  158.7211 C   0  0  0  0  0  0  0  0  0  0  0  0
  152.1282  144.5396  159.7135 C   0  0  0  0  0  0  0  0  0  0  0  0
  151.1850  143.6039  157.5266 C   0  0  0  0  0  0  0  0  0  0  0  0
  150.9975  142.5968  156.6467 N   0  0  0  0  0  0  0  0  0  0  0  0
  152.1431  139.2016  156.2009 C   0  0  0  0  0  0  0  0  0  0  0  0
  152.0372  138.3213  154.9453 C   0  0  0  0  0  0  0  0  0  0  0  0
  150.6703  138.0111  154.6945 O   0  0  0  0  0  0  0  0  0  0  0  0
  146.5741  139.1108  151.3645 H   0  0  0  0  0  0  0  0  0  0  0  0
  145.9125  139.1987  153.0003 H   0  0  0  0  0  0  0  0  0  0  0  0
  146.5212  137.6583  152.3689 H   0  0  0  0  0  0  0  0  0  0  0  0
  148.6413  139.5373  152.2625 H   0  0  0  0  0  0  0  0  0  0  0  0
  150.2789  139.7117  153.5937 H   0  0  0  0  0  0  0  0  0  0  0  0
  149.4014  141.0170  155.5234 H   0  0  0  0  0  0  0  0  0  0  0  0
  149.4657  139.5993  156.5580 H   0  0  0  0  0  0  0  0  0  0  0  0
  152.9977  141.8921  159.8317 H   0  0  0  0  0  0  0  0  0  0  0  0
  151.6893  145.4715  159.3558 H   0  0  0  0  0  0  0  0  0  0  0  0
  153.1942  144.7028  159.8733 H   0  0  0  0  0  0  0  0  0  0  0  0
  151.6698  144.2904  160.6708 H   0  0  0  0  0  0  0  0  0  0  0  0
  150.7523  144.5608  157.2738 H   0  0  0  0  0  0  0  0  0  0  0  0
  153.1824  139.4840  156.3739 H   0  0  0  0  0  0  0  0  0  0  0  0
  151.8093  138.6468  157.0789 H   0  0  0  0  0  0  0  0  0  0  0  0
  152.4723  138.8235  154.0798 H   0  0  0  0  0  0  0  0  0  0  0  0
  152.5912  137.3937  155.0883 H   0  0  0  0  0  0  0  0  0  0  0  0
  1  2  1  0  0  0  0
  1 18  1  0  0  0  0
  1 19  1  0  0  0  0
  1 20  1  0  0  0  0
  2  3  1  0  0  0  0
  2 21  1  0  0  0  0
  3  4  2  0  0  0  0
  3  5  1  0  0  0  0
  5 17  1  0  0  0  0
  5  6  1  0  0  0  0
  5 22  1  0  0  0  0
  6  7  1  0  0  0  0
  6 23  1  0  0  0  0
  6 24  1  0  0  0  0
  7  8  1  0  0  0  0
  7 15  1  0  0  0  0
  8 14  1  0  0  0  0
  8  9  2  0  0  0  0
  9 10  1  0  0  0  0
 10 11  2  0  0  0  0
 10 25  1  0  0  0  0
 11 12  1  0  0  0  0
 11 13  1  0  0  0  0
 12 26  1  0  0  0  0
 12 27  1  0  0  0  0
 12 28  1  0  0  0  0
 13 14  2  0  0  0  0
 13 29  1  0  0  0  0
 15 16  1  0  0  0  0
 15 30  1  0  0  0  0
 15 31  1  0  0  0  0
 16 17  1  0  0  0  0
 16 32  1  0  0  0  0
 16 33  1  0  0  0  0
M  END
> <s_m_source_file>
AV-unprocessed.smi

> <i_m_source_file_index>
2490

> <i_lp_mmshare_version>
43012

> <i_f3d_flags>
0

> <s_epik_input>
W0NIM11bTkhdQyg9TylbQ0BASF0xW0NIMl1OKFtDSDJdW0NIMl1PMSljMm5bY0hdYyhbQ0gzXSlbY0hdbjI=

> <s_epik_cmdline>
J2VwaWtfcHl0aG9uJywgJy1waCcsICc3LjAnLCAnLXRuJywgJzgnLCAnLW1hJywgJzIwMCcsICctbWV0YWxfYmluZGluZycsICctaW1hZScsICc8aW5maWxlLm1hZT4nLCAnLW9tYWUnLCAnPG91dGZpbGUubWFlPic=

> <r_lp_tautomer_probability>
1

> <r_epik_Ionization_Penalty>
8.72552e-06

> <r_epik_Ionization_Penalty_Charging>
0

> <r_epik_Ionization_Penalty_Neutral>
8.72552e-06

> <r_epik_State_Penalty>
-0

> <r_epik_Charging_Adjusted_Penalty>
0

> <i_epik_Tot_Q>
0

> <i_epik_Tot_abs_Q>
0

> <r_epik_Metal_State_Penalty>
-0

> <b_epik_Metal_Only>
0

> <s_lp_Force_Field>
OPLS_2005

> <r_lp_Energy>
12.5382

> <b_lp_Chiralities_Consistent>
1

> <s_lp_Variant>
AV-unprocessed.smi:2490-2

> <Gold.Version>
5.8.1

> <Gold.Id.Protein>
6NUR|6NUR_protein|mol2

> <Gold.PLP.Fitness>
36.8154

> <Gold.PLP.PLP>
-31.3930

> <Gold.PLP.part.hbond>
-1.8172

> <Gold.PLP.part.metal>
0.0000

> <Gold.PLP.part.buried>
-4.8172

> <Gold.PLP.part.nonpolar>
-26.7323

> <Gold.PLP.part.repulsive>
0.4389

> <Gold.PLP.ligand.clash>
0.0000

> <Gold.PLP.ligand.torsion>
0.2011

> <Gold.PLP.Chemscore.Hbond>
0.9913

> <Gold.PLP.Chemscore.CHOScore>
0.8547

> <Gold.PLP.Chemscore.Metal>
0.0000

> <Gold.Chemscore.Hbonds>
donor molecule, donor type, donor heavy atom, donor atom, acceptor molecule, acceptor atom, score
      L1  H     2    21       P1  7957  1.00
      L1  C    13    29       P1  8028  0.84

> <Gold.PLP.Chemscore.Internal.Correction>
0.2866

> <Gold.Rescore>
     Score         DG    S(hbond)    S(metal)    S(lipo)     H(rot)  DE(clash)    DE(int)     intcor
     14.70     -14.94       0.99        0.00      81.23       1.31       0.08       0.17       ----

> <Gold.Chemscore.Fitness>
14.6966

> <Gold.Chemscore.DG>
-14.9420

> <Gold.Chemscore.ZeroCoef>
-5.4800

> <Gold.Chemscore.Hbond>
0.9906

> <Gold.Chemscore.Metal>
0.0000

> <Gold.Chemscore.Lipo>
81.2334

> <Gold.Chemscore.Internal_Hbond>
0.0000

> <Gold.Chemscore.DEClash>
0.0775

> <Gold.Chemscore.DEInternal>
0.1679

> <Gold.Chemscore.Rot>
1.3089

> <Gold.Chemscore.Internal.Correction>
   9.000000E+99

> <Gold.Chemscore.Hbonds>
donor molecule, donor type, donor heavy atom, donor atom, acceptor molecule, acceptor atom, score
      L1  H     2    21       P1  7957  0.94

> <Gold.Chemscore.Hbond.Weighted>
-3.3086

> <Gold.Chemscore.Metal.Weighted>
-0.0000

> <Gold.Chemscore.Lipo.Weighted>
-9.5043

> <Gold.Chemscore.Internal_Hbond.Weighted>
0.0000

> <Gold.Chemscore.DEClash.Weighted>
0.0775

> <Gold.Chemscore.DEInternal.Weighted>
0.1679

> <Gold.Chemscore.Rot.Weighted>
3.3509

> <Gold.Chemscore.Internal.Correction.Weighted>
   9.000000E+99

> <Gold.Protein.RotatedTorsions>
[ 6907 6896 6895 6894 ] final  -24.26 input  -60.11 | X-H torsion
[ 7974 7965 7964 7962 ] final -127.94 input  175.53 | X-H torsion
[ 8008 7997 7996 7995 ] final   96.20 input   59.86 | X-H torsion
[ 10167 10162 10161 10158 ] final  -15.45 input  -65.29 | X-H torsion
[ 10718 10713 10712 10709 ] final    1.14 input   66.30 | X-H torsion
[ 10763 10752 10751 10750 ] final    8.13 input  -60.55 | X-H torsion
[ 11005 11000 10999 10996 ] final  114.61 input  -57.11 | X-H torsion

> <Gold.Protein.ActiveResidues>
 VAL166  LYS551  ARG553  GLY616  TRP617  ASP618  TYR619  PRO620  LYS621  CYS622 
 ASP623  PHE694  ASN695  SER759  ASP760  ASP761  ALA762  ILE779  LEU786  VAL792 
 PHE793  MET794  SER795  GLU796  ALA797  LYS798  CYS799  TRP800  GLU811  SER814 

> <Gold.Protein.RotatedAtoms>
  151.1921  135.0407  159.8836 H   0  0  0  0  0  0  0  0  0  0  0  0  # atno 6907 bound_to 6896
  152.5438  134.0944  159.8301 H   0  0  0  0  0  0  0  0  0  0  0  0  # atno 6908 bound_to 6896
  151.1074  133.5151  159.2639 H   0  0  0  0  0  0  0  0  0  0  0  0  # atno 6909 bound_to 6896
  144.9720  140.7555  143.4664 H   0  0  0  0  0  0  0  0  0  0  0  0  # atno 7974 bound_to 7965
  156.0771  140.3276  155.7647 H   0  0  0  0  0  0  0  0  0  0  0  0  # atno 8008 bound_to 7997
  155.5213  140.0585  157.2923 H   0  0  0  0  0  0  0  0  0  0  0  0  # atno 8009 bound_to 7997
  154.4561  140.1943  156.0392 H   0  0  0  0  0  0  0  0  0  0  0  0  # atno 8010 bound_to 7997
  140.7218  143.5217  150.9625 H   0  0  0  0  0  0  0  0  0  0  0  0  # atno 10167 bound_to 10162
  156.8438  130.5530  149.5675 H   0  0  0  0  0  0  0  0  0  0  0  0  # atno 10718 bound_to 10713
  153.2284  135.6890  153.7918 H   0  0  0  0  0  0  0  0  0  0  0  0  # atno 10763 bound_to 10752
  153.7091  135.3285  155.3243 H   0  0  0  0  0  0  0  0  0  0  0  0  # atno 10764 bound_to 10752
  154.8303  135.4586  154.1160 H   0  0  0  0  0  0  0  0  0  0  0  0  # atno 10765 bound_to 10752
  139.8985  134.9570  156.6918 H   0  0  0  0  0  0  0  0  0  0  0  0  # atno 11005 bound_to 11000
  145.2545  139.2018  143.4925 LP  0  0  0  0  0  0  0  0  0  0  0  0  # atno 17320 bound_to 7965
  146.3385  140.2464  142.8597 LP  0  0  0  0  0  0  0  0  0  0  0  0  # atno 17321 bound_to 7965
  139.8935  143.6924  152.3142 LP  0  0  0  0  0  0  0  0  0  0  0  0  # atno 17342 bound_to 10162
  139.7248  144.7595  151.0896 LP  0  0  0  0  0  0  0  0  0  0  0  0  # atno 17343 bound_to 10162
  156.0866  130.5863  150.9658 LP  0  0  0  0  0  0  0  0  0  0  0  0  # atno 17370 bound_to 10713
  157.6341  131.0918  150.8383 LP  0  0  0  0  0  0  0  0  0  0  0  0  # atno 17371 bound_to 10713
  140.7219  133.9133  155.8152 LP  0  0  0  0  0  0  0  0  0  0  0  0  # atno 17394 bound_to 11000
  141.0221  134.0875  157.4109 LP  0  0  0  0  0  0  0  0  0  0  0  0  # atno 17395 bound_to 11000

$$$$
