AV-unprocessed.smi:1449|AV-procd|sdf|5896|dock2
  -GOLD-   22720 5583D 1   1.00000     0.00000
 Structure written by MMmdl.
 34 35  0  0  0  0  0  0  0  0  1 V2000
  154.3136  140.7748  161.5715 C   0  0  0  0  0  0  0  0  0  0  0  0
  154.1733  142.0532  160.9618 O   0  0  0  0  0  0  0  0  0  0  0  0
  153.1665  142.2305  160.0351 C   0  0  0  0  0  0  0  0  0  0  0  0
  153.0108  143.4997  159.4438 C   0  0  0  0  0  0  0  0  0  0  0  0
  151.9852  143.6906  158.4981 C   0  0  0  0  0  0  0  0  0  0  0  0
  151.1492  142.5977  158.1658 C   0  0  0  0  0  0  0  0  0  0  0  0
  150.0692  142.6615  157.2443 N   0  0  0  0  0  0  0  0  0  0  0  0
  149.3327  141.6567  156.7303 C   0  0  0  0  0  0  0  0  0  0  0  0
  149.4585  140.4710  157.0277 O   0  0  0  0  0  0  0  0  0  0  0  0
  148.3903  142.0545  155.8566 N   0  0  0  0  0  0  0  0  0  0  0  0
  147.4275  141.2327  155.1216 C   0  0  1  0  0  0  0  0  0  0  0  0
  148.0411  140.7074  153.8102 C   0  0  0  0  0  0  0  0  0  0  0  0
  147.1512  139.5840  153.2640 C   0  0  0  0  0  0  0  0  0  0  0  0
  146.3967  138.7768  154.7265 S   0  0  0  0  0  0  0  0  0  0  0  0
  144.9326  138.8504  154.6077 O   0  0  0  0  0  0  0  0  0  0  0  0
  147.0723  137.4971  154.9885 O   0  0  0  0  0  0  0  0  0  0  0  0
  146.9707  140.0181  155.9456 C   0  0  0  0  0  0  0  0  0  0  0  0
  151.3813  141.3718  158.8230 C   0  0  0  0  0  0  0  0  0  0  0  0
  152.3621  141.1823  159.7305 N   0  0  0  0  0  0  0  0  0  0  0  0
  155.1470  140.8005  162.2733 H   0  0  0  0  0  0  0  0  0  0  0  0
  154.5279  140.0018  160.8321 H   0  0  0  0  0  0  0  0  0  0  0  0
  153.4190  140.4982  162.1311 H   0  0  0  0  0  0  0  0  0  0  0  0
  153.6641  144.3160  159.7147 H   0  0  0  0  0  0  0  0  0  0  0  0
  151.8565  144.6692  158.0634 H   0  0  0  0  0  0  0  0  0  0  0  0
  149.7945  143.5930  156.9686 H   0  0  0  0  0  0  0  0  0  0  0  0
  148.3200  143.0501  155.7026 H   0  0  0  0  0  0  0  0  0  0  0  0
  146.5525  141.8279  154.8542 H   0  0  0  0  0  0  0  0  0  0  0  0
  148.1749  141.5034  153.0770 H   0  0  0  0  0  0  0  0  0  0  0  0
  149.0305  140.2962  154.0163 H   0  0  0  0  0  0  0  0  0  0  0  0
  146.3457  139.9909  152.6522 H   0  0  0  0  0  0  0  0  0  0  0  0
  147.7033  138.8539  152.6721 H   0  0  0  0  0  0  0  0  0  0  0  0
  147.8033  139.5799  156.4973 H   0  0  0  0  0  0  0  0  0  0  0  0
  146.1711  140.2497  156.6496 H   0  0  0  0  0  0  0  0  0  0  0  0
  150.7617  140.5120  158.6130 H   0  0  0  0  0  0  0  0  0  0  0  0
  1  2  1  0  0  0  0
  1 20  1  0  0  0  0
  1 21  1  0  0  0  0
  1 22  1  0  0  0  0
  2  3  1  0  0  0  0
  3 19  1  0  0  0  0
  3  4  2  0  0  0  0
  4  5  1  0  0  0  0
  4 23  1  0  0  0  0
  5  6  2  0  0  0  0
  5 24  1  0  0  0  0
  6  7  1  0  0  0  0
  6 18  1  0  0  0  0
  7  8  1  0  0  0  0
  7 25  1  0  0  0  0
  8  9  2  0  0  0  0
  8 10  1  0  0  0  0
 10 11  1  0  0  0  0
 10 26  1  0  0  0  0
 11 17  1  0  0  0  0
 11 12  1  0  0  0  0
 11 27  1  0  0  0  0
 12 13  1  0  0  0  0
 12 28  1  0  0  0  0
 12 29  1  0  0  0  0
 13 14  1  0  0  0  0
 13 30  1  0  0  0  0
 13 31  1  0  0  0  0
 14 15  2  0  0  0  0
 14 16  2  0  0  0  0
 14 17  1  0  0  0  0
 17 32  1  0  0  0  0
 17 33  1  0  0  0  0
 18 19  2  0  0  0  0
 18 34  1  0  0  0  0
M  END
> <s_m_source_file>
AV-unprocessed.smi

> <i_m_source_file_index>
1449

> <i_lp_mmshare_version>
43012

> <i_f3d_flags>
0

> <s_epik_input>
W0NIM11PYzFbY0hdW2NIXWMoW2NIXW4xKVtOSF1DKD1PKVtOSF1bQ0BASF0oW0NIMl0yKVtDSDJdW0NIMl1TMig9Tyk9Tw==

> <s_epik_cmdline>
J2VwaWtfcHl0aG9uJywgJy1waCcsICc3LjAnLCAnLXRuJywgJzgnLCAnLW1hJywgJzIwMCcsICctbWV0YWxfYmluZGluZycsICctaW1hZScsICc8aW5maWxlLm1hZT4nLCAnLW9tYWUnLCAnPG91dGZpbGUubWFlPic=

> <r_lp_tautomer_probability>
1

> <r_epik_Ionization_Penalty>
7.6506e-05

> <r_epik_Ionization_Penalty_Charging>
0

> <r_epik_Ionization_Penalty_Neutral>
7.6506e-05

> <r_epik_State_Penalty>
-0

> <r_epik_Charging_Adjusted_Penalty>
0

> <i_epik_Tot_Q>
0

> <i_epik_Tot_abs_Q>
0

> <r_epik_Metal_State_Penalty>
-0

> <b_epik_Metal_Only>
0

> <s_lp_Force_Field>
OPLS_2005

> <r_lp_Energy>
18.5668

> <b_lp_Chiralities_Consistent>
1

> <s_lp_Variant>
AV-unprocessed.smi:1449-2

> <Gold.Version>
5.8.1

> <Gold.Id.Protein>
6NUR|6NUR_protein|mol2

> <Gold.PLP.Fitness>
33.7026

> <Gold.PLP.PLP>
-28.5412

> <Gold.PLP.part.hbond>
-3.0000

> <Gold.PLP.part.metal>
0.0000

> <Gold.PLP.part.buried>
-2.1450

> <Gold.PLP.part.nonpolar>
-24.7458

> <Gold.PLP.part.repulsive>
1.3380

> <Gold.PLP.ligand.clash>
0.0000

> <Gold.PLP.ligand.torsion>
0.3855

> <Gold.PLP.Chemscore.Hbond>
1.9760

> <Gold.PLP.Chemscore.CHOScore>
0.0000

> <Gold.PLP.Chemscore.Metal>
0.0000

> <Gold.Chemscore.Hbonds>
donor molecule, donor type, donor heavy atom, donor atom, acceptor molecule, acceptor atom, score
      L1  H     7    25       P1  8028  0.98
      L1  H    10    26       P1  8028  1.00

> <Gold.PLP.Chemscore.Internal.Correction>
0.0042

> <Gold.Rescore>
     Score         DG    S(hbond)    S(metal)    S(lipo)     H(rot)  DE(clash)    DE(int)     intcor
     13.16     -16.71       1.94        0.00      69.44       1.31       0.20       3.35       ----

> <Gold.Chemscore.Fitness>
13.1635

> <Gold.Chemscore.DG>
-16.7136

> <Gold.Chemscore.ZeroCoef>
-5.4800

> <Gold.Chemscore.Hbond>
1.9356

> <Gold.Chemscore.Metal>
0.0000

> <Gold.Chemscore.Lipo>
69.4400

> <Gold.Chemscore.Internal_Hbond>
0.0000

> <Gold.Chemscore.DEClash>
0.1980

> <Gold.Chemscore.DEInternal>
3.3521

> <Gold.Chemscore.Rot>
1.3109

> <Gold.Chemscore.Internal.Correction>
   9.000000E+99

> <Gold.Chemscore.Hbonds>
donor molecule, donor type, donor heavy atom, donor atom, acceptor molecule, acceptor atom, score
      L1  H     7    25       P1  8028  0.90
      L1  H    10    26       P1  8028  0.95

> <Gold.Chemscore.Hbond.Weighted>
-6.4650

> <Gold.Chemscore.Metal.Weighted>
-0.0000

> <Gold.Chemscore.Lipo.Weighted>
-8.1245

> <Gold.Chemscore.Internal_Hbond.Weighted>
0.0000

> <Gold.Chemscore.DEClash.Weighted>
0.1980

> <Gold.Chemscore.DEInternal.Weighted>
3.3521

> <Gold.Chemscore.Rot.Weighted>
3.3559

> <Gold.Chemscore.Internal.Correction.Weighted>
   9.000000E+99

> <Gold.Protein.RotatedTorsions>
[ 6907 6896 6895 6894 ] final  -45.31 input  -60.11 | X-H torsion
[ 7974 7965 7964 7962 ] final -104.12 input  175.53 | X-H torsion
[ 8008 7997 7996 7995 ] final   65.80 input   59.86 | X-H torsion
[ 10167 10162 10161 10158 ] final  154.10 input  -65.29 | X-H torsion
[ 10718 10713 10712 10709 ] final   52.49 input   66.30 | X-H torsion
[ 10763 10752 10751 10750 ] final   27.05 input  -60.55 | X-H torsion
[ 11005 11000 10999 10996 ] final   49.54 input  -57.11 | X-H torsion

> <Gold.Protein.ActiveResidues>
 VAL166  LYS551  ARG553  GLY616  TRP617  ASP618  TYR619  PRO620  LYS621  CYS622 
 ASP623  PHE694  ASN695  SER759  ASP760  ASP761  ALA762  ILE779  LEU786  VAL792 
 PHE793  MET794  SER795  GLU796  ALA797  LYS798  CYS799  TRP800  GLU811  SER814 

> <Gold.Protein.RotatedAtoms>
  150.9234  134.8651  159.7503 H   0  0  0  0  0  0  0  0  0  0  0  0  # atno 6907 bound_to 6896
  152.5003  134.4185  159.9482 H   0  0  0  0  0  0  0  0  0  0  0  0  # atno 6908 bound_to 6896
  151.4217  133.3656  159.2792 H   0  0  0  0  0  0  0  0  0  0  0  0  # atno 6909 bound_to 6896
  145.2472  140.9225  143.3116 H   0  0  0  0  0  0  0  0  0  0  0  0  # atno 7974 bound_to 7965
  155.6674  140.3497  155.4805 H   0  0  0  0  0  0  0  0  0  0  0  0  # atno 8008 bound_to 7997
  155.9717  140.1157  157.0829 H   0  0  0  0  0  0  0  0  0  0  0  0  # atno 8009 bound_to 7997
  154.4168  140.1155  156.5301 H   0  0  0  0  0  0  0  0  0  0  0  0  # atno 8010 bound_to 7997
  139.4824  144.5216  151.7867 H   0  0  0  0  0  0  0  0  0  0  0  0  # atno 10167 bound_to 10162
  157.5080  130.8481  149.8398 H   0  0  0  0  0  0  0  0  0  0  0  0  # atno 10718 bound_to 10713
  153.0581  135.6546  154.0528 H   0  0  0  0  0  0  0  0  0  0  0  0  # atno 10763 bound_to 10752
  154.0201  135.2920  155.3383 H   0  0  0  0  0  0  0  0  0  0  0  0  # atno 10764 bound_to 10752
  154.6907  135.5284  153.8455 H   0  0  0  0  0  0  0  0  0  0  0  0  # atno 10765 bound_to 10752
  140.1094  134.4975  155.8691 H   0  0  0  0  0  0  0  0  0  0  0  0  # atno 11005 bound_to 11000
  144.9536  139.4056  143.6390 LP  0  0  0  0  0  0  0  0  0  0  0  0  # atno 17320 bound_to 7965
  146.3312  139.8555  142.8865 LP  0  0  0  0  0  0  0  0  0  0  0  0  # atno 17321 bound_to 7965
  140.4730  144.1559  150.5921 LP  0  0  0  0  0  0  0  0  0  0  0  0  # atno 17342 bound_to 10162
  140.4361  143.2547  151.9533 LP  0  0  0  0  0  0  0  0  0  0  0  0  # atno 17343 bound_to 10162
  156.0270  130.3776  150.1794 LP  0  0  0  0  0  0  0  0  0  0  0  0  # atno 17370 bound_to 10713
  156.9984  130.9914  151.3397 LP  0  0  0  0  0  0  0  0  0  0  0  0  # atno 17371 bound_to 10713
  141.2126  133.6722  156.6675 LP  0  0  0  0  0  0  0  0  0  0  0  0  # atno 17394 bound_to 11000
  140.3111  134.8085  157.4177 LP  0  0  0  0  0  0  0  0  0  0  0  0  # atno 17395 bound_to 11000

$$$$
