AV-unprocessed.smi:2795|AV-procd|sdf|10779|dock5
  -GOLD-   2272015213D 1   1.00000     0.00000
 Structure written by MMmdl.
 37 38  0  0  0  0  0  0  0  0  2 V2000
  152.0145  145.0962  160.9059 C   0  0  0  0  0  0  0  0  0  0  0  0
  151.7286  144.5615  159.5715 N   0  0  0  0  0  0  0  0  0  0  0  0
  150.8290  145.1374  158.7644 C   0  0  0  0  0  0  0  0  0  0  0  0
  150.8000  144.4194  157.6398 N   0  3  0  0  0  0  0  0  0  0  0  0
  151.6820  143.3780  157.7258 C   0  0  0  0  0  0  0  0  0  0  0  0
  152.2857  143.4605  158.9566 C   0  0  0  0  0  0  0  0  0  0  0  0
  153.3491  142.6004  159.5713 C   0  0  0  0  0  0  0  0  0  0  0  0
  152.8784  141.1541  159.8287 C   0  0  0  0  0  0  0  0  0  0  0  0
  152.1893  140.5766  158.6769 N   0  0  0  0  0  0  0  0  0  0  0  0
  152.6185  139.5319  157.9492 C   0  0  0  0  0  0  0  0  0  0  0  0
  153.7020  138.9801  158.1455 O   0  0  0  0  0  0  0  0  0  0  0  0
  151.6729  139.0269  156.8494 C   0  0  1  0  0  0  0  0  0  0  0  0
  152.3109  139.1003  155.4427 C   0  0  0  0  0  0  0  0  0  0  0  0
  151.3738  138.5010  154.3885 C   0  0  0  0  0  0  0  0  0  0  0  0
  150.9464  137.0932  154.8140 C   0  0  0  0  0  0  0  0  0  0  0  0
  150.3693  137.1215  156.2371 C   0  0  0  0  0  0  0  0  0  0  0  0
  151.3272  137.6703  157.1358 O   0  0  0  0  0  0  0  0  0  0  0  0
  151.6830  146.1336  160.9718 H   0  0  0  0  0  0  0  0  0  0  0  0
  153.0864  145.0556  161.0968 H   0  0  0  0  0  0  0  0  0  0  0  0
  151.4885  144.4965  161.6490 H   0  0  0  0  0  0  0  0  0  0  0  0
  150.2408  146.0120  158.9776 H   0  0  0  0  0  0  0  0  0  0  0  0
  151.8215  142.6741  156.9183 H   0  0  0  0  0  0  0  0  0  0  0  0
  154.2353  142.5987  158.9365 H   0  0  0  0  0  0  0  0  0  0  0  0
  153.6566  143.0542  160.5137 H   0  0  0  0  0  0  0  0  0  0  0  0
  153.7405  140.5269  160.0559 H   0  0  0  0  0  0  0  0  0  0  0  0
  152.2401  141.1199  160.7132 H   0  0  0  0  0  0  0  0  0  0  0  0
  151.2920  140.9737  158.4380 H   0  0  0  0  0  0  0  0  0  0  0  0
  150.7713  139.6414  156.8816 H   0  0  0  0  0  0  0  0  0  0  0  0
  152.5401  140.1334  155.1781 H   0  0  0  0  0  0  0  0  0  0  0  0
  153.2579  138.5575  155.4349 H   0  0  0  0  0  0  0  0  0  0  0  0
  150.4927  139.1344  154.2784 H   0  0  0  0  0  0  0  0  0  0  0  0
  151.8640  138.4729  153.4148 H   0  0  0  0  0  0  0  0  0  0  0  0
  150.2104  136.6950  154.1149 H   0  0  0  0  0  0  0  0  0  0  0  0
  151.8056  136.4220  154.7823 H   0  0  0  0  0  0  0  0  0  0  0  0
  149.4466  137.7028  156.2727 H   0  0  0  0  0  0  0  0  0  0  0  0
  150.1218  136.1107  156.5618 H   0  0  0  0  0  0  0  0  0  0  0  0
  150.2127  144.6211  156.8403 H   0  0  0  0  0  0  0  0  0  0  0  0
  1  2  1  0  0  0  0
  1 18  1  0  0  0  0
  1 19  1  0  0  0  0
  1 20  1  0  0  0  0
  2  6  1  0  0  0  0
  2  3  1  0  0  0  0
  3  4  2  0  0  0  0
  3 21  1  0  0  0  0
  4  5  1  0  0  0  0
  4 37  1  0  0  0  0
  5  6  2  0  0  0  0
  5 22  1  0  0  0  0
  6  7  1  0  0  0  0
  7  8  1  0  0  0  0
  7 23  1  0  0  0  0
  7 24  1  0  0  0  0
  8  9  1  0  0  0  0
  8 25  1  0  0  0  0
  8 26  1  0  0  0  0
  9 10  1  0  0  0  0
  9 27  1  0  0  0  0
 10 11  2  0  0  0  0
 10 12  1  0  0  0  0
 12 17  1  0  0  0  0
 12 13  1  0  0  0  0
 12 28  1  0  0  0  0
 13 14  1  0  0  0  0
 13 29  1  0  0  0  0
 13 30  1  0  0  0  0
 14 15  1  0  0  0  0
 14 31  1  0  0  0  0
 14 32  1  0  0  0  0
 15 16  1  0  0  0  0
 15 33  1  0  0  0  0
 15 34  1  0  0  0  0
 16 17  1  0  0  0  0
 16 35  1  0  0  0  0
 16 36  1  0  0  0  0
M  CHG  1   4   1
M  END
> <s_m_source_file>
AV-unprocessed.smi

> <i_m_source_file_index>
2795

> <i_lp_mmshare_version>
43012

> <i_f3d_flags>
0

> <s_epik_input>
W0NIM11uMVtjSF1uW2NIXWMxW0NIMl1bQ0gyXVtOSF1DKD1PKVtDQEBIXTJbQ0gyXVtDSDJdW0NIMl1bQ0gyXU8y

> <s_epik_cmdline>
J2VwaWtfcHl0aG9uJywgJy1waCcsICc3LjAnLCAnLXRuJywgJzgnLCAnLW1hJywgJzIwMCcsICctbWV0YWxfYmluZGluZycsICctaW1hZScsICc8aW5maWxlLm1hZT4nLCAnLW9tYWUnLCAnPG91dGZpbGUubWFlPic=

> <r_lp_tautomer_probability>
1

> <r_epik_Ionization_Penalty>
0.154825

> <r_epik_Ionization_Penalty_Charging>
0

> <r_epik_Ionization_Penalty_Neutral>
0.154825

> <r_epik_State_Penalty>
0.144119

> <r_epik_Charging_Adjusted_Penalty>
0.144119

> <i_epik_Tot_Q>
1

> <i_epik_Tot_abs_Q>
1

> <r_epik_Metal_State_Penalty>
0.465431

> <b_epik_Metal_Only>
0

> <s_lp_Force_Field>
OPLS_2005

> <r_lp_Energy>
10.0187

> <b_lp_Chiralities_Consistent>
1

> <s_lp_Variant>
AV-unprocessed.smi:2795-2

> <Gold.Version>
5.8.1

> <Gold.Id.Protein>
6NUR|6NUR_protein|mol2

> <Gold.PLP.Fitness>
45.8739

> <Gold.PLP.PLP>
-35.9363

> <Gold.PLP.part.hbond>
-2.2614

> <Gold.PLP.part.metal>
0.0000

> <Gold.PLP.part.buried>
-3.4871

> <Gold.PLP.part.nonpolar>
-31.0530

> <Gold.PLP.part.repulsive>
0.1656

> <Gold.PLP.ligand.clash>
0.0000

> <Gold.PLP.ligand.torsion>
0.0769

> <Gold.PLP.Chemscore.Hbond>
3.0000

> <Gold.PLP.Chemscore.CHOScore>
0.3591

> <Gold.PLP.Chemscore.Metal>
0.0000

> <Gold.Chemscore.Hbonds>
donor molecule, donor type, donor heavy atom, donor atom, acceptor molecule, acceptor atom, score
      L1  H     4    37       P1  8028  2.00
      P1  H  7997  8008       L1    11  1.00
      L1  C     3    21       P1  8029  0.08

> <Gold.PLP.Chemscore.Internal.Correction>
0.0140

> <Gold.Rescore>
     Score         DG    S(hbond)    S(metal)    S(lipo)     H(rot)  DE(clash)    DE(int)     intcor
     15.29     -16.32       1.58        0.00      87.39       1.82       0.04       0.99       ----

> <Gold.Chemscore.Fitness>
15.2917

> <Gold.Chemscore.DG>
-16.3232

> <Gold.Chemscore.ZeroCoef>
-5.4800

> <Gold.Chemscore.Hbond>
1.5823

> <Gold.Chemscore.Metal>
0.0000

> <Gold.Chemscore.Lipo>
87.3906

> <Gold.Chemscore.Internal_Hbond>
0.0000

> <Gold.Chemscore.DEClash>
0.0401

> <Gold.Chemscore.DEInternal>
0.9915

> <Gold.Chemscore.Rot>
1.8227

> <Gold.Chemscore.Internal.Correction>
   9.000000E+99

> <Gold.Chemscore.Hbonds>
donor molecule, donor type, donor heavy atom, donor atom, acceptor molecule, acceptor atom, score
      L1  H     4    37       P1  8028  0.74
      P1  H  7997  8008       L1    11  0.39

> <Gold.Chemscore.Hbond.Weighted>
-5.2847

> <Gold.Chemscore.Metal.Weighted>
-0.0000

> <Gold.Chemscore.Lipo.Weighted>
-10.2247

> <Gold.Chemscore.Internal_Hbond.Weighted>
0.0000

> <Gold.Chemscore.DEClash.Weighted>
0.0401

> <Gold.Chemscore.DEInternal.Weighted>
0.9915

> <Gold.Chemscore.Rot.Weighted>
4.6662

> <Gold.Chemscore.Internal.Correction.Weighted>
   9.000000E+99

> <Gold.Protein.RotatedTorsions>
[ 6907 6896 6895 6894 ] final -157.42 input  -60.11 | X-H torsion
[ 7974 7965 7964 7962 ] final -142.38 input  175.53 | X-H torsion
[ 8008 7997 7996 7995 ] final -106.08 input   59.86 | X-H torsion
[ 10167 10162 10161 10158 ] final   88.61 input  -65.29 | X-H torsion
[ 10718 10713 10712 10709 ] final  -52.41 input   66.30 | X-H torsion
[ 10763 10752 10751 10750 ] final   95.04 input  -60.55 | X-H torsion
[ 11005 11000 10999 10996 ] final -121.41 input  -57.11 | X-H torsion

> <Gold.Protein.ActiveResidues>
 VAL166  LYS551  ARG553  GLY616  TRP617  ASP618  TYR619  PRO620  LYS621  CYS622 
 ASP623  PHE694  ASN695  SER759  ASP760  ASP761  ALA762  ILE779  LEU786  VAL792 
 PHE793  MET794  SER795  GLU796  ALA797  LYS798  CYS799  TRP800  GLU811  SER814 

> <Gold.Protein.RotatedAtoms>
  151.3026  133.4115  159.2640 H   0  0  0  0  0  0  0  0  0  0  0  0  # atno 6907 bound_to 6896
  151.0182  134.9449  159.8055 H   0  0  0  0  0  0  0  0  0  0  0  0  # atno 6908 bound_to 6896
  152.5318  134.2990  159.9124 H   0  0  0  0  0  0  0  0  0  0  0  0  # atno 6909 bound_to 6896
  144.8448  140.5965  143.5429 H   0  0  0  0  0  0  0  0  0  0  0  0  # atno 7974 bound_to 7965
  154.9093  140.0410  157.1937 H   0  0  0  0  0  0  0  0  0  0  0  0  # atno 8008 bound_to 7997
  154.8364  140.2907  155.5667 H   0  0  0  0  0  0  0  0  0  0  0  0  # atno 8009 bound_to 7997
  156.2990  140.2491  156.3299 H   0  0  0  0  0  0  0  0  0  0  0  0  # atno 8010 bound_to 7997
  139.8656  144.6521  150.9008 H   0  0  0  0  0  0  0  0  0  0  0  0  # atno 10167 bound_to 10162
  156.1624  130.4149  149.9773 H   0  0  0  0  0  0  0  0  0  0  0  0  # atno 10718 bound_to 10713
  153.2486  135.4268  155.0774 H   0  0  0  0  0  0  0  0  0  0  0  0  # atno 10763 bound_to 10752
  154.8372  135.3420  154.6545 H   0  0  0  0  0  0  0  0  0  0  0  0  # atno 10764 bound_to 10752
  153.6967  135.7030  153.5131 H   0  0  0  0  0  0  0  0  0  0  0  0  # atno 10765 bound_to 10752
  141.0072  134.0317  157.3461 H   0  0  0  0  0  0  0  0  0  0  0  0  # atno 11005 bound_to 11000
  145.4620  139.1512  143.3861 LP  0  0  0  0  0  0  0  0  0  0  0  0  # atno 17320 bound_to 7965
  146.2734  140.4750  142.8805 LP  0  0  0  0  0  0  0  0  0  0  0  0  # atno 17321 bound_to 7965
  140.7768  143.3707  151.1654 LP  0  0  0  0  0  0  0  0  0  0  0  0  # atno 17342 bound_to 10162
  139.7332  143.9039  152.3026 LP  0  0  0  0  0  0  0  0  0  0  0  0  # atno 17343 bound_to 10162
  156.7598  130.9147  151.3641 LP  0  0  0  0  0  0  0  0  0  0  0  0  # atno 17370 bound_to 10713
  157.6742  130.9079  150.0111 LP  0  0  0  0  0  0  0  0  0  0  0  0  # atno 17371 bound_to 10713
  139.9070  135.0182  156.7528 LP  0  0  0  0  0  0  0  0  0  0  0  0  # atno 17394 bound_to 11000
  140.6793  133.9489  155.7901 LP  0  0  0  0  0  0  0  0  0  0  0  0  # atno 17395 bound_to 11000

$$$$
