#       Name:                AV-unprocessed.smi:1735
#       Creating user name   scv26
#       Creation time:       Fri Mar 27 08:20:27 2020


#       File generated by GOLD software.
#

@<TRIPOS>MOLECULE
AV-unprocessed.smi:1735
    37    38     1
SMALL
NO_CHARGES


@<TRIPOS>ATOM
      1 ****        -0.8012   1.8369  -0.5308 O.2            1 S1                 0.0000
      2 ****        -1.2477   0.8283   0.0163 C.2            1 S1                 0.0000
      3 ****        -2.5450   0.6046   0.2829 N.am           1 S1                 0.0000
      4 ****        -3.6411   1.4603   0.0051 C.2            1 S1                 0.0000
      5 ****        -4.9972   1.1640   0.3105 C.2            1 S1                 0.0000
      6 ****        -5.8030   2.1484  -0.0612 N.2            1 S1                 0.0000
      7 ****        -4.9741   3.0702  -0.6012 N.pl3          1 S1                 0.0000
      8 ****        -3.6491   2.6943  -0.5826 C.2            1 S1                 0.0000
      9 ****        -0.4835  -0.1959   0.4224 N.am           1 S1                 0.0000
     10 ****         0.9684  -0.2697   0.2880 C.3            1 S1                 0.0000
     11 ****         1.3619  -0.7430  -1.1271 C.3            1 S1                 0.0000
     12 ****         2.8851  -0.9003  -1.2633 C.3            1 S1                 0.0000
     13 ****         3.4440  -1.8488  -0.1889 C.3            1 S1                 0.0000
     14 ****         4.8500  -1.9141  -0.3013 O.3            1 S1                 0.0000
     15 ****         3.0617  -1.3725   1.2230 C.3            1 S1                 0.0000
     16 ****         1.5385  -1.2178   1.3602 C.3            1 S1                 0.0000
     17 ****        -5.3235   3.9419  -0.9735 H              1 S1                 0.0000
     18 ****        -2.7733  -0.2692   0.7339 H              1 S1                 0.0000
     19 ****        -5.4152   0.2859   0.7805 H              1 S1                 0.0000
     20 ****        -2.8641   3.3224  -0.9768 H              1 S1                 0.0000
     21 ****        -0.9389  -0.9822   0.8620 H              1 S1                 0.0000
     22 ****         1.3904   0.7231   0.4569 H              1 S1                 0.0000
     23 ****         0.8790  -1.6966  -1.3457 H              1 S1                 0.0000
     24 ****         1.0012  -0.0365  -1.8756 H              1 S1                 0.0000
     25 ****         3.1297  -1.2742  -2.2583 H              1 S1                 0.0000
     26 ****         3.3569   0.0796  -1.1755 H              1 S1                 0.0000
     27 ****         3.0483  -2.8523  -0.3509 H              1 S1                 0.0000
     28 ****         5.2032  -1.0479  -0.1668 H              1 S1                 0.0000
     29 ****         3.4292  -2.0779   1.9693 H              1 S1                 0.0000
     30 ****         3.5428  -0.4168   1.4367 H              1 S1                 0.0000
     31 ****         1.2967  -0.8448   2.3562 H              1 S1                 0.0000
     32 ****         1.0684  -2.1987   1.2751 H              1 S1                 0.0000
     33 ****        -1.4214   2.5686  -0.8132 LP             1 S1                 0.0000
     34 ****         0.1818   1.9243  -0.6927 LP             1 S1                 0.0000
     35 ****        -6.7970   2.1981   0.0356 LP             1 S1                 0.0000
     36 ****         5.1005  -2.2425  -1.2120 LP             1 S1                 0.0000
     37 ****         5.2148  -2.5379   0.3900 LP             1 S1                 0.0000
@<TRIPOS>BOND
    1    1    2 2     
    2    2    3 am    
    3    2    9 am    
    4    3    4 1     
    5    3   18 1     
    6    4    8 2     
    7    4    5 1     
    8    5    6 2     
    9    5   19 1     
   10    6    7 1     
   11    7   17 1     
   12    7    8 1     
   13    8   20 1     
   14    9   10 1     
   15    9   21 1     
   16   10   16 1     
   17   10   11 1     
   18   10   22 1     
   19   11   12 1     
   20   11   23 1     
   21   11   24 1     
   22   12   13 1     
   23   12   25 1     
   24   12   26 1     
   25   13   14 1     
   26   13   15 1     
   27   13   27 1     
   28   14   28 1     
   29   15   16 1     
   30   15   29 1     
   31   15   30 1     
   32   16   31 1     
   33   16   32 1     
   34    1   33 1     
   35    1   34 1     
   36    6   35 1     
   37   14   36 1     
   38   14   37 1     
@<TRIPOS>SUBSTRUCTURE
      1 S1             1
@<TRIPOS>SET
LONE_PAIRS      STATIC     ATOMS    <user>   **** ""
5 33 34 35 36 37
DONOR_HYDROGENS      STATIC     ATOMS    <user>   **** ""
4 18 17 21 28
ATOM$BLUE        STATIC     ATOMS    COLORGROUP SYSTEM
5 33 34 35 36 37
ATOM$RED        STATIC     ATOMS    COLORGROUP SYSTEM
4 18 17 21 28
