AV-unprocessed.smi:2516|AV-procd|sdf|9899|dock6
  -GOLD-   2272013533D 1   1.00000     0.00000
 Structure written by MMmdl.
 47 48  0  0  0  0  0  0  0  0  1 V2000
  150.6365  141.8472  157.3693 C   0  0  0  0  0  0  0  0  0  0  0  0
  150.0849  142.0530  155.9539 C   0  0  0  0  0  0  0  0  0  0  0  0
  149.9731  140.7958  155.2351 N   0  0  0  0  0  0  0  0  0  0  0  0
  151.0778  140.0257  155.0891 N   0  0  0  0  0  0  0  0  0  0  0  0
  150.6833  138.9584  154.4104 C   0  0  0  0  0  0  0  0  0  0  0  0
  151.6759  137.8605  154.1457 C   0  0  0  0  0  0  0  0  0  0  0  0
  149.2998  139.0658  154.0777 C   0  0  0  0  0  0  0  0  0  0  0  0
  148.4707  138.1440  153.3904 N   0  0  0  0  0  0  0  0  0  0  0  0
  147.2362  137.7545  153.7435 C   0  0  0  0  0  0  0  0  0  0  0  0
  146.6300  138.1524  154.7377 O   0  0  0  0  0  0  0  0  0  0  0  0
  146.7458  136.8497  152.8840 N   0  0  0  0  0  0  0  0  0  0  0  0
  145.4429  136.1933  152.9901 C   0  0  1  0  0  0  0  0  0  0  0  0
  144.3400  137.2627  152.8788 C   0  0  0  0  0  0  0  0  0  0  0  0
  145.3215  135.0725  151.9242 C   0  0  0  0  0  0  0  0  0  0  0  0
  143.9508  134.3655  151.9569 C   0  0  0  0  0  0  0  0  0  0  0  0
  143.8926  133.2083  150.9463 C   0  0  0  0  0  0  0  0  0  0  0  0
  144.9415  132.2827  151.2010 O   0  0  0  0  0  0  0  0  0  0  0  0
  146.2312  132.8629  151.0511 C   0  0  0  0  0  0  0  0  0  0  0  0
  146.4185  133.9959  152.0727 C   0  0  0  0  0  0  0  0  0  0  0  0
  148.8593  140.2287  154.6403 C   0  0  0  0  0  0  0  0  0  0  0  0
  147.5065  140.8644  154.6675 C   0  0  0  0  0  0  0  0  0  0  0  0
  150.7184  142.7981  157.8959 H   0  0  0  0  0  0  0  0  0  0  0  0
  151.6277  141.3937  157.3447 H   0  0  0  0  0  0  0  0  0  0  0  0
  149.9854  141.1974  157.9549 H   0  0  0  0  0  0  0  0  0  0  0  0
  149.1016  142.5232  155.9983 H   0  0  0  0  0  0  0  0  0  0  0  0
  150.7276  142.7298  155.3906 H   0  0  0  0  0  0  0  0  0  0  0  0
  151.1942  136.8830  154.1512 H   0  0  0  0  0  0  0  0  0  0  0  0
  152.4591  137.8393  154.9041 H   0  0  0  0  0  0  0  0  0  0  0  0
  152.1583  137.9933  153.1775 H   0  0  0  0  0  0  0  0  0  0  0  0
  148.8992  137.6513  152.6210 H   0  0  0  0  0  0  0  0  0  0  0  0
  147.3215  136.5844  152.0985 H   0  0  0  0  0  0  0  0  0  0  0  0
  145.3631  135.7257  153.9733 H   0  0  0  0  0  0  0  0  0  0  0  0
  143.3523  136.8478  153.0761 H   0  0  0  0  0  0  0  0  0  0  0  0
  144.3232  137.7145  151.8863 H   0  0  0  0  0  0  0  0  0  0  0  0
  144.4938  138.0627  153.6040 H   0  0  0  0  0  0  0  0  0  0  0  0
  145.4373  135.5292  150.9398 H   0  0  0  0  0  0  0  0  0  0  0  0
  143.7568  133.9799  152.9587 H   0  0  0  0  0  0  0  0  0  0  0  0
  143.1479  135.0664  151.7308 H   0  0  0  0  0  0  0  0  0  0  0  0
  142.9384  132.6876  151.0291 H   0  0  0  0  0  0  0  0  0  0  0  0
  143.9624  133.5814  149.9233 H   0  0  0  0  0  0  0  0  0  0  0  0
  146.9840  132.0900  151.2073 H   0  0  0  0  0  0  0  0  0  0  0  0
  146.3610  133.2319  150.0325 H   0  0  0  0  0  0  0  0  0  0  0  0
  147.4103  134.4289  151.9410 H   0  0  0  0  0  0  0  0  0  0  0  0
  146.3931  133.5806  153.0811 H   0  0  0  0  0  0  0  0  0  0  0  0
  146.8065  140.3310  154.0248 H   0  0  0  0  0  0  0  0  0  0  0  0
  147.5544  141.8970  154.3215 H   0  0  0  0  0  0  0  0  0  0  0  0
  147.1003  140.8636  155.6790 H   0  0  0  0  0  0  0  0  0  0  0  0
  1  2  1  0  0  0  0
  1 22  1  0  0  0  0
  1 23  1  0  0  0  0
  1 24  1  0  0  0  0
  2  3  1  0  0  0  0
  2 25  1  0  0  0  0
  2 26  1  0  0  0  0
  3 20  1  0  0  0  0
  3  4  1  0  0  0  0
  4  5  2  0  0  0  0
  5  6  1  0  0  0  0
  5  7  1  0  0  0  0
  6 27  1  0  0  0  0
  6 28  1  0  0  0  0
  6 29  1  0  0  0  0
  7  8  1  0  0  0  0
  7 20  2  0  0  0  0
  8  9  1  0  0  0  0
  8 30  1  0  0  0  0
  9 10  2  0  0  0  0
  9 11  1  0  0  0  0
 11 12  1  0  0  0  0
 11 31  1  0  0  0  0
 12 13  1  0  0  0  0
 12 14  1  0  0  0  0
 12 32  1  0  0  0  0
 13 33  1  0  0  0  0
 13 34  1  0  0  0  0
 13 35  1  0  0  0  0
 14 19  1  0  0  0  0
 14 15  1  0  0  0  0
 14 36  1  0  0  0  0
 15 16  1  0  0  0  0
 15 37  1  0  0  0  0
 15 38  1  0  0  0  0
 16 17  1  0  0  0  0
 16 39  1  0  0  0  0
 16 40  1  0  0  0  0
 17 18  1  0  0  0  0
 18 19  1  0  0  0  0
 18 41  1  0  0  0  0
 18 42  1  0  0  0  0
 19 43  1  0  0  0  0
 19 44  1  0  0  0  0
 20 21  1  0  0  0  0
 21 45  1  0  0  0  0
 21 46  1  0  0  0  0
 21 47  1  0  0  0  0
M  END
> <s_m_source_file>
AV-unprocessed.smi

> <i_m_source_file_index>
2516

> <i_lp_mmshare_version>
43012

> <i_f3d_flags>
0

> <s_epik_input>
W0NIM11bQ0gyXW4xbmMoW0NIM10pYyhjMVtDSDNdKVtOSF1DKD1PKVtOSF1bQ0BIXShbQ0gzXSlbQ0hdMltDSDJdW0NIMl1PW0NIMl1bQ0gyXTI=

> <s_epik_cmdline>
J2VwaWtfcHl0aG9uJywgJy1waCcsICc3LjAnLCAnLXRuJywgJzgnLCAnLW1hJywgJzIwMCcsICctbWV0YWxfYmluZGluZycsICctaW1hZScsICc8aW5maWxlLm1hZT4nLCAnLW9tYWUnLCAnPG91dGZpbGUubWFlPic=

> <r_lp_tautomer_probability>
1

> <r_epik_Ionization_Penalty>
0.00383358

> <r_epik_Ionization_Penalty_Charging>
0

> <r_epik_Ionization_Penalty_Neutral>
0.00383358

> <r_epik_State_Penalty>
0.00270714

> <r_epik_Charging_Adjusted_Penalty>
0.00270714

> <i_epik_Tot_Q>
0

> <i_epik_Tot_abs_Q>
0

> <r_epik_Metal_State_Penalty>
-0

> <b_epik_Metal_Only>
0

> <s_lp_Force_Field>
OPLS_2005

> <r_lp_Energy>
15.2282

> <b_lp_Chiralities_Consistent>
1

> <s_lp_Variant>
AV-unprocessed.smi:2516-2

> <Gold.Version>
5.8.1

> <Gold.Id.Protein>
6NUR|6NUR_protein|mol2

> <Gold.PLP.Fitness>
39.6113

> <Gold.PLP.PLP>
-33.5143

> <Gold.PLP.part.hbond>
-3.4546

> <Gold.PLP.part.metal>
0.0000

> <Gold.PLP.part.buried>
-1.3044

> <Gold.PLP.part.nonpolar>
-29.6952

> <Gold.PLP.part.repulsive>
0.2911

> <Gold.PLP.ligand.clash>
0.0000

> <Gold.PLP.ligand.torsion>
0.4087

> <Gold.PLP.Chemscore.Hbond>
2.1990

> <Gold.PLP.Chemscore.CHOScore>
0.0000

> <Gold.PLP.Chemscore.Metal>
0.0000

> <Gold.Chemscore.Hbonds>
donor molecule, donor type, donor heavy atom, donor atom, acceptor molecule, acceptor atom, score
      L1  H     8    30       P1  7948  0.91
      L1  H    11    31       P1  7948  0.75
      P1  H  7989  7998       L1     4  0.41

> <Gold.PLP.Chemscore.Internal.Correction>
0.3175

> <Gold.Rescore>
     Score         DG    S(hbond)    S(metal)    S(lipo)     H(rot)  DE(clash)    DE(int)     intcor
     16.90     -17.59       1.78        0.00      81.28       1.30       0.11       0.58       ----

> <Gold.Chemscore.Fitness>
16.9022

> <Gold.Chemscore.DG>
-17.5932

> <Gold.Chemscore.ZeroCoef>
-5.4800

> <Gold.Chemscore.Hbond>
1.7752

> <Gold.Chemscore.Metal>
0.0000

> <Gold.Chemscore.Lipo>
81.2762

> <Gold.Chemscore.Internal_Hbond>
0.0000

> <Gold.Chemscore.DEClash>
0.1106

> <Gold.Chemscore.DEInternal>
0.5805

> <Gold.Chemscore.Rot>
1.2990

> <Gold.Chemscore.Internal.Correction>
   9.000000E+99

> <Gold.Chemscore.Hbonds>
donor molecule, donor type, donor heavy atom, donor atom, acceptor molecule, acceptor atom, score
      L1  H     8    30       P1  7948  0.86
      L1  H    11    31       P1  7948  0.74

> <Gold.Chemscore.Hbond.Weighted>
-5.9293

> <Gold.Chemscore.Metal.Weighted>
-0.0000

> <Gold.Chemscore.Lipo.Weighted>
-9.5093

> <Gold.Chemscore.Internal_Hbond.Weighted>
0.0000

> <Gold.Chemscore.DEClash.Weighted>
0.1106

> <Gold.Chemscore.DEInternal.Weighted>
0.5805

> <Gold.Chemscore.Rot.Weighted>
3.3254

> <Gold.Chemscore.Internal.Correction.Weighted>
   9.000000E+99

> <Gold.Protein.RotatedTorsions>
[ 6907 6896 6895 6894 ] final   63.34 input  -60.11 | X-H torsion
[ 7974 7965 7964 7962 ] final -150.10 input  175.53 | X-H torsion
[ 8008 7997 7996 7995 ] final   29.56 input   59.86 | X-H torsion
[ 10167 10162 10161 10158 ] final  -38.57 input  -65.29 | X-H torsion
[ 10718 10713 10712 10709 ] final  -77.27 input   66.30 | X-H torsion
[ 10763 10752 10751 10750 ] final   33.34 input  -60.55 | X-H torsion
[ 11005 11000 10999 10996 ] final    9.85 input  -57.11 | X-H torsion

> <Gold.Protein.ActiveResidues>
 VAL166  LYS551  ARG553  GLY616  TRP617  ASP618  TYR619  PRO620  LYS621  CYS622 
 ASP623  PHE694  ASN695  SER759  ASP760  ASP761  ALA762  ILE779  LEU786  VAL792 
 PHE793  MET794  SER795  GLU796  ALA797  LYS798  CYS799  TRP800  GLU811  SER814 

> <Gold.Protein.RotatedAtoms>
  152.4245  134.5894  159.9969 H   0  0  0  0  0  0  0  0  0  0  0  0  # atno 6907 bound_to 6896
  151.6034  133.3348  159.3060 H   0  0  0  0  0  0  0  0  0  0  0  0  # atno 6908 bound_to 6896
  150.8134  134.7339  159.6774 H   0  0  0  0  0  0  0  0  0  0  0  0  # atno 6909 bound_to 6896
  144.7927  140.4976  143.5761 H   0  0  0  0  0  0  0  0  0  0  0  0  # atno 7974 bound_to 7965
  155.0764  140.3205  155.4614 H   0  0  0  0  0  0  0  0  0  0  0  0  # atno 8008 bound_to 7997
  156.2778  140.2102  156.5837 H   0  0  0  0  0  0  0  0  0  0  0  0  # atno 8009 bound_to 7997
  154.7013  140.0507  157.0448 H   0  0  0  0  0  0  0  0  0  0  0  0  # atno 8010 bound_to 7997
  140.7088  143.3269  151.2659 H   0  0  0  0  0  0  0  0  0  0  0  0  # atno 10167 bound_to 10162
  156.0150  130.4487  150.3320 H   0  0  0  0  0  0  0  0  0  0  0  0  # atno 10718 bound_to 10713
  153.0217  135.6389  154.1495 H   0  0  0  0  0  0  0  0  0  0  0  0  # atno 10763 bound_to 10752
  154.1229  135.2845  155.3205 H   0  0  0  0  0  0  0  0  0  0  0  0  # atno 10764 bound_to 10752
  154.6250  135.5512  153.7679 H   0  0  0  0  0  0  0  0  0  0  0  0  # atno 10765 bound_to 10752
  140.5211  134.0558  155.7845 H   0  0  0  0  0  0  0  0  0  0  0  0  # atno 11005 bound_to 11000
  145.5752  139.1485  143.3266 LP  0  0  0  0  0  0  0  0  0  0  0  0  # atno 17320 bound_to 7965
  146.2185  140.5884  142.9028 LP  0  0  0  0  0  0  0  0  0  0  0  0  # atno 17321 bound_to 7965
  139.6740  143.9971  152.2770 LP  0  0  0  0  0  0  0  0  0  0  0  0  # atno 17342 bound_to 10162
  139.9578  144.6577  150.8108 LP  0  0  0  0  0  0  0  0  0  0  0  0  # atno 17343 bound_to 10162
  157.1417  131.0298  151.2924 LP  0  0  0  0  0  0  0  0  0  0  0  0  # atno 17370 bound_to 10713
  157.4466  130.7574  149.7115 LP  0  0  0  0  0  0  0  0  0  0  0  0  # atno 17371 bound_to 10713
  141.1334  133.9264  157.2487 LP  0  0  0  0  0  0  0  0  0  0  0  0  # atno 17394 bound_to 11000
  139.9605  135.0155  156.9249 LP  0  0  0  0  0  0  0  0  0  0  0  0  # atno 17395 bound_to 11000

$$$$
