#       Name:                AV-unprocessed.smi:1231
#       Creating user name   scv26
#       Creation time:       Fri Mar 27 04:23:38 2020


#       File generated by GOLD software.
#

@<TRIPOS>MOLECULE
AV-unprocessed.smi:1231
    48    49     1
SMALL
NO_CHARGES


@<TRIPOS>ATOM
      1 ****        -4.8694   0.9129   0.4277 C.3            1 S1                 0.0000
      2 ****        -4.1948   1.0538  -0.9475 C.3            1 S1                 0.0000
      3 ****        -2.6587   1.1640  -0.8696 C.3            1 S1                 0.0000
      4 ****        -2.0120  -0.1051  -0.5510 N.3            1 S1                 0.0000
      5 ****        -0.5586   0.0501  -0.5051 C.3            1 S1                 0.0000
      6 ****         0.2091  -1.1565   0.0675 C.3            1 S1                 0.0000
      7 ****         1.6456  -0.9088   0.0892 N.am           1 S1                 0.0000
      8 ****         2.2945  -0.2035   1.0266 C.2            1 S1                 0.0000
      9 ****         1.7350   0.3201   1.9905 O.2            1 S1                 0.0000
     10 ****         3.6129  -0.1493   0.7666 N.am           1 S1                 0.0000
     11 ****         4.6307   0.5011   1.5138 C.ar           1 S1                 0.0000
     12 ****         5.9324   0.3897   0.9748 C.ar           1 S1                 0.0000
     13 ****         7.0127   1.0011   1.6401 C.ar           1 S1                 0.0000
     14 ****         6.7631   1.7082   2.8296 C.ar           1 S1                 0.0000
     15 ****         5.4379   1.7705   3.2985 C.ar           1 S1                 0.0000
     16 ****         4.4010   1.1859   2.6621 N.ar           1 S1                 0.0000
     17 ****        -2.4372  -1.1094  -1.5219 C.3            1 S1                 0.0000
     18 ****        -3.9682  -1.2659  -1.5583 C.3            1 S1                 0.0000
     19 ****        -4.4205  -2.2524  -2.6400 C.3            1 S1                 0.0000
     20 ****        -4.5698  -0.0024  -1.8326 O.3            1 S1                 0.0000
     21 ****        -4.6706   1.7873   1.0475 H              1 S1                 0.0000
     22 ****        -4.5118   0.0398   0.9730 H              1 S1                 0.0000
     23 ****        -5.9506   0.8219   0.3223 H              1 S1                 0.0000
     24 ****        -4.5736   1.9740  -1.3932 H              1 S1                 0.0000
     25 ****        -2.2852   1.5272  -1.8287 H              1 S1                 0.0000
     26 ****        -2.3858   1.9179  -0.1303 H              1 S1                 0.0000
     27 ****        -0.1828   0.2823  -1.5028 H              1 S1                 0.0000
     28 ****        -0.3213   0.9176   0.1124 H              1 S1                 0.0000
     29 ****        -0.1474  -1.3958   1.0708 H              1 S1                 0.0000
     30 ****         0.0494  -2.0455  -0.5412 H              1 S1                 0.0000
     31 ****         2.1846  -1.3034  -0.6676 H              1 S1                 0.0000
     32 ****         3.9249  -0.6273  -0.0656 H              1 S1                 0.0000
     33 ****         6.1066  -0.1577   0.0597 H              1 S1                 0.0000
     34 ****         8.0148   0.9280   1.2437 H              1 S1                 0.0000
     35 ****         7.5654   2.1901   3.3685 H              1 S1                 0.0000
     36 ****         5.2034   2.3035   4.2081 H              1 S1                 0.0000
     37 ****        -2.0736  -0.8396  -2.5147 H              1 S1                 0.0000
     38 ****        -1.9995  -2.0772  -1.2811 H              1 S1                 0.0000
     39 ****        -4.3191  -1.6319  -0.5931 H              1 S1                 0.0000
     40 ****        -3.9884  -3.2399  -2.4761 H              1 S1                 0.0000
     41 ****        -4.1196  -1.9151  -3.6322 H              1 S1                 0.0000
     42 ****        -5.5055  -2.3601  -2.6396 H              1 S1                 0.0000
     43 ****        -2.2894  -0.4127   0.3592 LP             1 S1                 0.0000
     44 ****         0.7456   0.2299   2.1039 LP             1 S1                 0.0000
     45 ****         2.2701   0.8355   2.6598 LP             1 S1                 0.0000
     46 ****         3.4748   1.2567   3.0325 LP             1 S1                 0.0000
     47 ****        -4.3147   0.2668  -2.7613 LP             1 S1                 0.0000
     48 ****        -5.5621  -0.1138  -1.7786 LP             1 S1                 0.0000
@<TRIPOS>BOND
    1    1    2 1     
    2    1   21 1     
    3    1   22 1     
    4    1   23 1     
    5    2   20 1     
    6    2    3 1     
    7    2   24 1     
    8    3    4 1     
    9    3   25 1     
   10    3   26 1     
   11    4    5 1     
   12    4   17 1     
   13    5    6 1     
   14    5   27 1     
   15    5   28 1     
   16    6    7 1     
   17    6   29 1     
   18    6   30 1     
   19    7    8 am    
   20    7   31 1     
   21    8    9 2     
   22    8   10 am    
   23   10   11 1     
   24   10   32 1     
   25   11   16 ar    
   26   11   12 ar    
   27   12   13 ar    
   28   12   33 1     
   29   13   14 ar    
   30   13   34 1     
   31   14   15 ar    
   32   14   35 1     
   33   15   16 ar    
   34   15   36 1     
   35   17   18 1     
   36   17   37 1     
   37   17   38 1     
   38   18   19 1     
   39   18   20 1     
   40   18   39 1     
   41   19   40 1     
   42   19   41 1     
   43   19   42 1     
   44    4   43 1     
   45    9   44 1     
   46    9   45 1     
   47   16   46 1     
   48   20   47 1     
   49   20   48 1     
@<TRIPOS>SUBSTRUCTURE
      1 S1             1
@<TRIPOS>SET
LONE_PAIRS      STATIC     ATOMS    <user>   **** ""
6 43 44 45 46 47 48
DONOR_HYDROGENS      STATIC     ATOMS    <user>   **** ""
2 31 32
ATOM$BLUE        STATIC     ATOMS    COLORGROUP SYSTEM
6 43 44 45 46 47 48
ATOM$RED        STATIC     ATOMS    COLORGROUP SYSTEM
2 31 32
