AV-unprocessed.smi:100|AV-procd|sdf|899|dock3
  -GOLD-   2262017393D 1   1.00000     0.00000
 Structure written by MMmdl.
 31 33  0  0  0  0  0  0  0  0  1 V2000
  144.1156  139.9965  155.2497 N   0  0  0  0  0  0  0  0  0  0  0  0
  145.3221  140.1992  155.7968 C   0  0  0  0  0  0  0  0  0  0  0  0
  145.4759  139.9635  157.1211 N   0  0  0  0  0  0  0  0  0  0  0  0
  146.6700  140.1575  157.6912 C   0  0  0  0  0  0  0  0  0  0  0  0
  147.8081  140.5735  157.1278 N   0  0  0  0  0  0  0  0  0  0  0  0
  147.6474  140.8136  155.7933 C   0  0  0  0  0  0  0  0  0  0  0  0
  146.4433  140.6491  155.0550 C   0  0  0  0  0  0  0  0  0  0  0  0
  146.6567  140.9811  153.7233 N   0  0  0  0  0  0  0  0  0  0  0  0
  147.9174  141.3227  153.6825 C   0  0  0  0  0  0  0  0  0  0  0  0
  148.5859  141.2546  154.8863 N   0  0  0  0  0  0  0  0  0  0  0  0
  150.0162  141.5671  155.1771 C   0  0  2  0  0  0  0  0  0  0  0  0
  150.7605  140.4226  154.8830 O   0  0  0  0  0  0  0  0  0  0  0  0
  151.7125  140.2079  155.9143 C   0  0  2  0  0  0  0  0  0  0  0  0
  152.1973  138.7497  155.9206 C   0  0  0  0  0  0  0  0  0  0  0  0
  153.2454  138.5856  156.8522 O   0  0  0  0  0  0  0  0  0  0  0  0
  150.9759  140.6685  157.1736 C   0  0  2  0  0  0  0  0  0  0  0  0
  150.1240  139.7317  157.5958 F   0  0  0  0  0  0  0  0  0  0  0  0
  150.1893  141.8713  156.6767 C   0  0  1  0  0  0  0  0  0  0  0  0
  150.9148  143.0645  156.8961 O   0  0  0  0  0  0  0  0  0  0  0  0
  143.9757  140.1660  154.2640 H   0  0  0  0  0  0  0  0  0  0  0  0
  143.3487  139.6783  155.8240 H   0  0  0  0  0  0  0  0  0  0  0  0
  146.7204  139.9515  158.7503 H   0  0  0  0  0  0  0  0  0  0  0  0
  148.3969  141.6366  152.7666 H   0  0  0  0  0  0  0  0  0  0  0  0
  150.2817  142.3913  154.5132 H   0  0  0  0  0  0  0  0  0  0  0  0
  152.5560  140.8746  155.7248 H   0  0  0  0  0  0  0  0  0  0  0  0
  151.3846  138.0625  156.1561 H   0  0  0  0  0  0  0  0  0  0  0  0
  152.5704  138.4767  154.9331 H   0  0  0  0  0  0  0  0  0  0  0  0
  152.9811  137.9405  157.4902 H   0  0  0  0  0  0  0  0  0  0  0  0
  151.6443  140.8917  158.0061 H   0  0  0  0  0  0  0  0  0  0  0  0
  149.2236  141.9621  157.1771 H   0  0  0  0  0  0  0  0  0  0  0  0
  150.4303  143.7826  156.5177 H   0  0  0  0  0  0  0  0  0  0  0  0
  1  2  1  0  0  0  0
  1 20  1  0  0  0  0
  1 21  1  0  0  0  0
  2  7  1  0  0  0  0
  2  3  2  0  0  0  0
  3  4  1  0  0  0  0
  4  5  2  0  0  0  0
  4 22  1  0  0  0  0
  5  6  1  0  0  0  0
  6 10  1  0  0  0  0
  6  7  2  0  0  0  0
  7  8  1  0  0  0  0
  8  9  2  0  0  0  0
  9 10  1  0  0  0  0
  9 23  1  0  0  0  0
 10 11  1  0  0  0  0
 11 18  1  0  0  0  0
 11 12  1  0  0  0  0
 11 24  1  0  0  0  0
 12 13  1  0  0  0  0
 13 14  1  0  0  0  0
 13 16  1  0  0  0  0
 13 25  1  0  0  0  0
 14 15  1  0  0  0  0
 14 26  1  0  0  0  0
 14 27  1  0  0  0  0
 15 28  1  0  0  0  0
 16 17  1  0  0  0  0
 16 18  1  0  0  0  0
 16 29  1  0  0  0  0
 18 19  1  0  0  0  0
 18 30  1  0  0  0  0
 19 31  1  0  0  0  0
M  END
> <s_m_source_file>
AV-unprocessed.smi

> <i_m_source_file_index>
100

> <i_lp_mmshare_version>
43012

> <i_f3d_flags>
0

> <s_epik_input>
bjFbY0hdbmMoW05IMl0pYyhjMTIpbltjSF1uMltDQEBIXTNPW0NAQEhdKFtDSDJdW09IXSlbQ0BIXShGKVtDQEhdM1tPSF0=

> <s_epik_cmdline>
J2VwaWtfcHl0aG9uJywgJy1waCcsICc3LjAnLCAnLXRuJywgJzgnLCAnLW1hJywgJzIwMCcsICctbWV0YWxfYmluZGluZycsICctaW1hZScsICc8aW5maWxlLm1hZT4nLCAnLW9tYWUnLCAnPG91dGZpbGUubWFlPic=

> <r_lp_tautomer_probability>
1

> <r_epik_Ionization_Penalty>
0.000750324

> <r_epik_Ionization_Penalty_Charging>
0

> <r_epik_Ionization_Penalty_Neutral>
0.000750324

> <r_epik_State_Penalty>
-0

> <r_epik_Charging_Adjusted_Penalty>
0

> <i_epik_Tot_Q>
0

> <i_epik_Tot_abs_Q>
0

> <r_epik_Metal_State_Penalty>
-0

> <b_epik_Metal_Only>
0

> <s_epik_Chemistry_Notes>
This compound contains an acetal/aminal-like group ( X-CH(R)-Y where X, Y are N, S, or O) that may be acid/base labile, releasing an aldehyde.

> <s_lp_Force_Field>
OPLS_2005

> <r_lp_Energy>
28.7864

> <b_lp_Chiralities_Consistent>
1

> <s_lp_Variant>
AV-unprocessed.smi:100-3

> <Gold.Version>
5.8.1

> <Gold.Id.Protein>
6NUR|6NUR_protein|mol2

> <Gold.PLP.Fitness>
37.5087

> <Gold.PLP.PLP>
-24.1713

> <Gold.PLP.part.hbond>
-4.0000

> <Gold.PLP.part.metal>
0.0000

> <Gold.PLP.part.buried>
-3.3272

> <Gold.PLP.part.nonpolar>
-17.3684

> <Gold.PLP.part.repulsive>
0.2747

> <Gold.PLP.ligand.clash>
0.0315

> <Gold.PLP.ligand.torsion>
0.6900

> <Gold.PLP.Chemscore.Hbond>
4.0000

> <Gold.PLP.Chemscore.CHOScore>
0.9124

> <Gold.PLP.Chemscore.Metal>
0.0000

> <Gold.Chemscore.Hbonds>
donor molecule, donor type, donor heavy atom, donor atom, acceptor molecule, acceptor atom, score
      L1  H     1    20       P1 10175  1.00
      L1  H    19    31       P1  8028  1.00
      P1  H  7989  7998       L1    12  1.00
      P1  H  7997  8008       L1    15  1.00
      L1  C     9    23       P1  7957  0.86

> <Gold.PLP.Chemscore.Internal.Correction>
0.0117

> <Gold.Rescore>
     Score         DG    S(hbond)    S(metal)    S(lipo)     H(rot)  DE(clash)    DE(int)     intcor
      9.11     -11.71       3.34        0.00      27.70       3.19       0.08       2.52       ----

> <Gold.Chemscore.Fitness>
9.1115

> <Gold.Chemscore.DG>
-11.7113

> <Gold.Chemscore.ZeroCoef>
-5.4800

> <Gold.Chemscore.Hbond>
3.3403

> <Gold.Chemscore.Metal>
0.0000

> <Gold.Chemscore.Lipo>
27.7038

> <Gold.Chemscore.Internal_Hbond>
0.0000

> <Gold.Chemscore.DEClash>
0.0754

> <Gold.Chemscore.DEInternal>
2.5244

> <Gold.Chemscore.Rot>
3.1901

> <Gold.Chemscore.Internal.Correction>
   9.000000E+99

> <Gold.Chemscore.Hbonds>
donor molecule, donor type, donor heavy atom, donor atom, acceptor molecule, acceptor atom, score
      L1  H     1    20       P1 10175  1.00
      L1  H    19    31       P1  8028  0.97
      P1  H  7989  7998       L1    12  0.23
      P1  H  7997  8008       L1    15  0.37

> <Gold.Chemscore.Hbond.Weighted>
-11.1566

> <Gold.Chemscore.Metal.Weighted>
-0.0000

> <Gold.Chemscore.Lipo.Weighted>
-3.2413

> <Gold.Chemscore.Internal_Hbond.Weighted>
0.0000

> <Gold.Chemscore.DEClash.Weighted>
0.0754

> <Gold.Chemscore.DEInternal.Weighted>
2.5244

> <Gold.Chemscore.Rot.Weighted>
8.1667

> <Gold.Chemscore.Internal.Correction.Weighted>
   9.000000E+99

> <Gold.Protein.RotatedTorsions>
[ 6907 6896 6895 6894 ] final -147.62 input  -60.11 | X-H torsion
[ 7974 7965 7964 7962 ] final    7.30 input  175.53 | X-H torsion
[ 8008 7997 7996 7995 ] final  -52.33 input   59.86 | X-H torsion
[ 10167 10162 10161 10158 ] final -168.27 input  -65.29 | X-H torsion
[ 10718 10713 10712 10709 ] final -154.90 input   66.30 | X-H torsion
[ 10763 10752 10751 10750 ] final -116.61 input  -60.55 | X-H torsion
[ 11005 11000 10999 10996 ] final -147.05 input  -57.11 | X-H torsion

> <Gold.Protein.ActiveResidues>
 VAL166  LYS551  ARG553  GLY616  TRP617  ASP618  TYR619  PRO620  LYS621  CYS622 
 ASP623  PHE694  ASN695  SER759  ASP760  ASP761  ALA762  ILE779  LEU786  VAL792 
 PHE793  MET794  SER795  GLU796  ALA797  LYS798  CYS799  TRP800  GLU811  SER814 

> <Gold.Protein.RotatedAtoms>
  151.1582  133.4862  159.2594 H   0  0  0  0  0  0  0  0  0  0  0  0  # atno 6907 bound_to 6896
  151.1482  135.0213  159.8666 H   0  0  0  0  0  0  0  0  0  0  0  0  # atno 6908 bound_to 6896
  152.5463  134.1469  159.8555 H   0  0  0  0  0  0  0  0  0  0  0  0  # atno 6909 bound_to 6896
  146.2428  140.0104  142.8407 H   0  0  0  0  0  0  0  0  0  0  0  0  # atno 7974 bound_to 7965
  154.4104  140.1226  156.4974 H   0  0  0  0  0  0  0  0  0  0  0  0  # atno 8008 bound_to 7997
  155.6929  140.3495  155.4881 H   0  0  0  0  0  0  0  0  0  0  0  0  # atno 8009 bound_to 7997
  155.9453  140.1094  157.1012 H   0  0  0  0  0  0  0  0  0  0  0  0  # atno 8010 bound_to 7997
  139.5996  144.1039  152.1728 H   0  0  0  0  0  0  0  0  0  0  0  0  # atno 10167 bound_to 10162
  156.5056  130.8411  151.2626 H   0  0  0  0  0  0  0  0  0  0  0  0  # atno 10718 bound_to 10713
  154.8526  135.4339  154.1849 H   0  0  0  0  0  0  0  0  0  0  0  0  # atno 10763 bound_to 10752
  153.2931  135.6963  153.7280 H   0  0  0  0  0  0  0  0  0  0  0  0  # atno 10764 bound_to 10752
  153.6440  135.3463  155.3054 H   0  0  0  0  0  0  0  0  0  0  0  0  # atno 10765 bound_to 10752
  140.7756  134.3138  157.5061 H   0  0  0  0  0  0  0  0  0  0  0  0  # atno 11005 bound_to 11000
  145.1333  140.9530  143.4532 LP  0  0  0  0  0  0  0  0  0  0  0  0  # atno 17320 bound_to 7965
  145.0367  139.3295  143.5997 LP  0  0  0  0  0  0  0  0  0  0  0  0  # atno 17321 bound_to 7965
  140.0632  144.5839  150.7247 LP  0  0  0  0  0  0  0  0  0  0  0  0  # atno 17342 bound_to 10162
  140.7239  143.2616  151.4187 LP  0  0  0  0  0  0  0  0  0  0  0  0  # atno 17343 bound_to 10162
  157.7457  130.9967  150.2789 LP  0  0  0  0  0  0  0  0  0  0  0  0  # atno 17370 bound_to 10713
  156.3290  130.3797  149.7507 LP  0  0  0  0  0  0  0  0  0  0  0  0  # atno 17371 bound_to 10713
  139.8749  134.9287  156.3459 LP  0  0  0  0  0  0  0  0  0  0  0  0  # atno 17394 bound_to 11000
  140.9532  133.7437  156.0299 LP  0  0  0  0  0  0  0  0  0  0  0  0  # atno 17395 bound_to 11000

$$$$
