AV-unprocessed.smi:480|AV-procd|sdf|2676|dock10
  -GOLD-   2262023 93D 1   1.00000     0.00000
 Structure written by MMmdl.
 46 48  0  0  0  0  0  0  0  0  1 V2000
  153.0917  138.7268  154.7131 C   0  0  0  0  0  0  0  0  0  0  0  0
  151.8016  138.8781  155.5288 C   0  0  0  0  0  0  0  0  0  0  0  0
  151.8965  139.9483  156.5789 C   0  0  0  0  0  0  0  0  0  0  0  0
  152.6950  139.7893  157.6362 N   0  0  0  0  0  0  0  0  0  0  0  0
  152.5030  140.9554  158.3480 C   0  0  0  0  0  0  0  0  0  0  0  0
  153.0675  141.3904  159.5686 C   0  0  0  0  0  0  0  0  0  0  0  0
  152.7152  142.6435  160.1114 C   0  0  0  0  0  0  0  0  0  0  0  0
  151.7961  143.4776  159.4424 C   0  0  0  0  0  0  0  0  0  0  0  0
  151.2239  143.0631  158.2243 C   0  0  0  0  0  0  0  0  0  0  0  0
  151.5783  141.8105  157.6870 C   0  0  0  0  0  0  0  0  0  0  0  0
  151.2086  141.1223  156.5345 N   0  0  0  0  0  0  0  0  0  0  0  0
  150.2811  141.6274  155.5273 C   0  0  0  0  0  0  0  0  0  0  0  0
  149.2824  140.5597  155.0391 C   0  0  2  0  0  0  0  0  0  0  0  0
  149.4745  140.3430  153.6562 O   0  0  0  0  0  0  0  0  0  0  0  0
  147.8269  140.9980  155.2671 C   0  0  0  0  0  0  0  0  0  0  0  0
  147.4442  141.8962  154.2336 O   0  0  0  0  0  0  0  0  0  0  0  0
  146.3988  142.7618  154.4764 C   0  0  0  0  0  0  0  0  0  0  0  0
  145.7695  142.9188  155.7376 C   0  0  0  0  0  0  0  0  0  0  0  0
  144.7036  143.8258  155.8958 C   0  0  0  0  0  0  0  0  0  0  0  0
  144.2512  144.5873  154.8007 C   0  0  0  0  0  0  0  0  0  0  0  0
  143.1069  145.5642  154.9723 C   0  0  0  0  0  0  0  0  0  0  0  0
  141.9729  145.2416  154.0932 C   0  0  0  0  0  0  0  0  0  0  0  0
  141.0805  144.9879  153.4018 N   0  0  0  0  0  0  0  0  0  0  0  0
  144.8726  144.4385  153.5456 C   0  0  0  0  0  0  0  0  0  0  0  0
  145.9386  143.5320  153.3886 C   0  0  0  0  0  0  0  0  0  0  0  0
  152.9834  137.9488  153.9573 H   0  0  0  0  0  0  0  0  0  0  0  0
  153.9354  138.4581  155.3471 H   0  0  0  0  0  0  0  0  0  0  0  0
  153.3434  139.6548  154.1991 H   0  0  0  0  0  0  0  0  0  0  0  0
  150.9823  139.1362  154.8569 H   0  0  0  0  0  0  0  0  0  0  0  0
  151.5315  137.9185  155.9614 H   0  0  0  0  0  0  0  0  0  0  0  0
  153.7730  140.7586  160.0872 H   0  0  0  0  0  0  0  0  0  0  0  0
  153.1524  142.9663  161.0448 H   0  0  0  0  0  0  0  0  0  0  0  0
  151.5312  144.4362  159.8641 H   0  0  0  0  0  0  0  0  0  0  0  0
  150.5204  143.7002  157.7093 H   0  0  0  0  0  0  0  0  0  0  0  0
  149.7320  142.4543  155.9790 H   0  0  0  0  0  0  0  0  0  0  0  0
  150.8200  142.0671  154.6910 H   0  0  0  0  0  0  0  0  0  0  0  0
  149.4696  139.6266  155.5723 H   0  0  0  0  0  0  0  0  0  0  0  0
  148.9775  140.9910  153.1803 H   0  0  0  0  0  0  0  0  0  0  0  0
  147.1781  140.1222  155.2157 H   0  0  0  0  0  0  0  0  0  0  0  0
  147.7049  141.4452  156.2555 H   0  0  0  0  0  0  0  0  0  0  0  0
  146.0857  142.3549  156.6018 H   0  0  0  0  0  0  0  0  0  0  0  0
  144.2339  143.9354  156.8622 H   0  0  0  0  0  0  0  0  0  0  0  0
  142.7579  145.5533  156.0053 H   0  0  0  0  0  0  0  0  0  0  0  0
  143.4399  146.5780  154.7492 H   0  0  0  0  0  0  0  0  0  0  0  0
  144.5341  145.0203  152.7008 H   0  0  0  0  0  0  0  0  0  0  0  0
  146.4073  143.4255  152.4212 H   0  0  0  0  0  0  0  0  0  0  0  0
  1  2  1  0  0  0  0
  1 26  1  0  0  0  0
  1 27  1  0  0  0  0
  1 28  1  0  0  0  0
  2  3  1  0  0  0  0
  2 29  1  0  0  0  0
  2 30  1  0  0  0  0
  3 11  1  0  0  0  0
  3  4  2  0  0  0  0
  4  5  1  0  0  0  0
  5 10  2  0  0  0  0
  5  6  1  0  0  0  0
  6  7  2  0  0  0  0
  6 31  1  0  0  0  0
  7  8  1  0  0  0  0
  7 32  1  0  0  0  0
  8  9  2  0  0  0  0
  8 33  1  0  0  0  0
  9 10  1  0  0  0  0
  9 34  1  0  0  0  0
 10 11  1  0  0  0  0
 11 12  1  0  0  0  0
 12 13  1  0  0  0  0
 12 35  1  0  0  0  0
 12 36  1  0  0  0  0
 13 14  1  0  0  0  0
 13 15  1  0  0  0  0
 13 37  1  0  0  0  0
 14 38  1  0  0  0  0
 15 16  1  0  0  0  0
 15 39  1  0  0  0  0
 15 40  1  0  0  0  0
 16 17  1  0  0  0  0
 17 25  1  0  0  0  0
 17 18  2  0  0  0  0
 18 19  1  0  0  0  0
 18 41  1  0  0  0  0
 19 20  2  0  0  0  0
 19 42  1  0  0  0  0
 20 21  1  0  0  0  0
 20 24  1  0  0  0  0
 21 22  1  0  0  0  0
 21 43  1  0  0  0  0
 21 44  1  0  0  0  0
 22 23  3  0  0  0  0
 24 25  2  0  0  0  0
 24 45  1  0  0  0  0
 25 46  1  0  0  0  0
M  END
> <s_m_source_file>
AV-unprocessed.smi

> <i_m_source_file_index>
480

> <i_lp_mmshare_version>
43012

> <i_f3d_flags>
0

> <s_epik_input>
W2NIXTFbY0hdW2NIXVtjSF1jKGMxMiluKGMobjIpW0NIMl1bQ0gzXSlbQ0gyXVtDQEhdKFtPSF0pW0NIMl1PYzNbY0hdW2NIXWMoW0NIMl1DI04pW2NIXVtjSF0z

> <s_epik_cmdline>
J2VwaWtfcHl0aG9uJywgJy1waCcsICc3LjAnLCAnLXRuJywgJzgnLCAnLW1hJywgJzIwMCcsICctbWV0YWxfYmluZGluZycsICctaW1hZScsICc8aW5maWxlLm1hZT4nLCAnLW9tYWUnLCAnPG91dGZpbGUubWFlPic=

> <r_lp_tautomer_probability>
1

> <r_epik_Ionization_Penalty>
0.114213

> <r_epik_Ionization_Penalty_Charging>
0

> <r_epik_Ionization_Penalty_Neutral>
0.114213

> <r_epik_State_Penalty>
0.103875

> <r_epik_Charging_Adjusted_Penalty>
0.103875

> <i_epik_Tot_Q>
0

> <i_epik_Tot_abs_Q>
0

> <r_epik_Metal_State_Penalty>
0.000113526

> <b_epik_Metal_Only>
0

> <s_lp_Force_Field>
OPLS_2005

> <r_lp_Energy>
17.1637

> <b_lp_Chiralities_Consistent>
1

> <s_lp_Variant>
AV-unprocessed.smi:480-1

> <Gold.Version>
5.8.1

> <Gold.Id.Protein>
6NUR|6NUR_protein|mol2

> <Gold.PLP.Fitness>
57.5905

> <Gold.PLP.PLP>
-55.1483

> <Gold.PLP.part.hbond>
-4.9532

> <Gold.PLP.part.metal>
0.0000

> <Gold.PLP.part.buried>
-7.4659

> <Gold.PLP.part.nonpolar>
-42.6665

> <Gold.PLP.part.repulsive>
0.2684

> <Gold.PLP.ligand.clash>
0.0000

> <Gold.PLP.ligand.torsion>
1.3893

> <Gold.PLP.Chemscore.Hbond>
1.6867

> <Gold.PLP.Chemscore.CHOScore>
0.0000

> <Gold.PLP.Chemscore.Metal>
0.0000

> <Gold.Chemscore.Hbonds>
donor molecule, donor type, donor heavy atom, donor atom, acceptor molecule, acceptor atom, score
      P1  H  7989  7998       L1    14  0.32
      P1  H  7997  8009       L1     4  1.00
      P1  H 10162 10167       L1    23  0.37

> <Gold.PLP.Chemscore.Internal.Correction>
0.1608

> <Gold.Rescore>
     Score         DG    S(hbond)    S(metal)    S(lipo)     H(rot)  DE(clash)    DE(int)     intcor
     16.56     -19.15       1.39        0.00     133.42       2.58       1.09       1.49       ----

> <Gold.Chemscore.Fitness>
16.5627

> <Gold.Chemscore.DG>
-19.1451

> <Gold.Chemscore.ZeroCoef>
-5.4800

> <Gold.Chemscore.Hbond>
1.3921

> <Gold.Chemscore.Metal>
0.0000

> <Gold.Chemscore.Lipo>
133.4163

> <Gold.Chemscore.Internal_Hbond>
0.0000

> <Gold.Chemscore.DEClash>
1.0920

> <Gold.Chemscore.DEInternal>
1.4904

> <Gold.Chemscore.Rot>
2.5759

> <Gold.Chemscore.Internal.Correction>
   9.000000E+99

> <Gold.Chemscore.Hbonds>
donor molecule, donor type, donor heavy atom, donor atom, acceptor molecule, acceptor atom, score
      P1  H  7989  7998       L1    14  0.06
      P1  H  7997  8009       L1     4  0.15
      P1  H 10162 10167       L1    23  0.34

> <Gold.Chemscore.Hbond.Weighted>
-4.6497

> <Gold.Chemscore.Metal.Weighted>
-0.0000

> <Gold.Chemscore.Lipo.Weighted>
-15.6097

> <Gold.Chemscore.Internal_Hbond.Weighted>
0.0000

> <Gold.Chemscore.DEClash.Weighted>
1.0920

> <Gold.Chemscore.DEInternal.Weighted>
1.4904

> <Gold.Chemscore.Rot.Weighted>
6.5943

> <Gold.Chemscore.Internal.Correction.Weighted>
   9.000000E+99

> <Gold.Protein.RotatedTorsions>
[ 6907 6896 6895 6894 ] final   55.81 input  -60.11 | X-H torsion
[ 7974 7965 7964 7962 ] final  146.07 input  175.53 | X-H torsion
[ 8008 7997 7996 7995 ] final  162.55 input   59.86 | X-H torsion
[ 10167 10162 10161 10158 ] final -154.32 input  -65.29 | X-H torsion
[ 10718 10713 10712 10709 ] final -115.86 input   66.30 | X-H torsion
[ 10763 10752 10751 10750 ] final  -96.96 input  -60.55 | X-H torsion
[ 11005 11000 10999 10996 ] final -127.39 input  -57.11 | X-H torsion

> <Gold.Protein.ActiveResidues>
 VAL166  LYS551  ARG553  GLY616  TRP617  ASP618  TYR619  PRO620  LYS621  CYS622 
 ASP623  PHE694  ASN695  SER759  ASP760  ASP761  ALA762  ILE779  LEU786  VAL792 
 PHE793  MET794  SER795  GLU796  ALA797  LYS798  CYS799  TRP800  GLU811  SER814 

> <Gold.Protein.RotatedAtoms>
  152.3575  134.6919  160.0217 H   0  0  0  0  0  0  0  0  0  0  0  0  # atno 6907 bound_to 6896
  151.7253  133.3310  159.3334 H   0  0  0  0  0  0  0  0  0  0  0  0  # atno 6908 bound_to 6896
  150.7582  134.6346  159.6249 H   0  0  0  0  0  0  0  0  0  0  0  0  # atno 6909 bound_to 6896
  144.8701  139.5860  143.5891 H   0  0  0  0  0  0  0  0  0  0  0  0  # atno 7974 bound_to 7965
  156.2023  140.1747  156.7874 H   0  0  0  0  0  0  0  0  0  0  0  0  # atno 8008 bound_to 7997
  154.5607  140.0700  156.8846 H   0  0  0  0  0  0  0  0  0  0  0  0  # atno 8009 bound_to 7997
  155.2853  140.3351  155.4258 H   0  0  0  0  0  0  0  0  0  0  0  0  # atno 8010 bound_to 7997
  139.7023  143.9243  152.2434 H   0  0  0  0  0  0  0  0  0  0  0  0  # atno 10167 bound_to 10162
  156.0924  130.6104  150.8961 H   0  0  0  0  0  0  0  0  0  0  0  0  # atno 10718 bound_to 10713
  154.7286  135.5064  153.8926 H   0  0  0  0  0  0  0  0  0  0  0  0  # atno 10763 bound_to 10752
  153.0928  135.6664  153.9830 H   0  0  0  0  0  0  0  0  0  0  0  0  # atno 10764 bound_to 10752
  153.9636  135.3045  155.3411 H   0  0  0  0  0  0  0  0  0  0  0  0  # atno 10765 bound_to 10752
  140.9603  134.0945  157.3975 H   0  0  0  0  0  0  0  0  0  0  0  0  # atno 11005 bound_to 11000
  146.2924  139.7178  142.9151 LP  0  0  0  0  0  0  0  0  0  0  0  0  # atno 17320 bound_to 7965
  145.4147  141.0400  143.2997 LP  0  0  0  0  0  0  0  0  0  0  0  0  # atno 17321 bound_to 7965
  139.9089  144.6868  150.8584 LP  0  0  0  0  0  0  0  0  0  0  0  0  # atno 17342 bound_to 10162
  140.7713  143.3458  151.2114 LP  0  0  0  0  0  0  0  0  0  0  0  0  # atno 17343 bound_to 10162
  157.6077  131.0938  150.8850 LP  0  0  0  0  0  0  0  0  0  0  0  0  # atno 17370 bound_to 10713
  156.8995  130.5241  149.5283 LP  0  0  0  0  0  0  0  0  0  0  0  0  # atno 17371 bound_to 10713
  139.8876  135.0091  156.6569 LP  0  0  0  0  0  0  0  0  0  0  0  0  # atno 17394 bound_to 11000
  140.7477  133.8924  155.8324 LP  0  0  0  0  0  0  0  0  0  0  0  0  # atno 17395 bound_to 11000

$$$$
