AV-unprocessed.smi:2255|AV-procd|sdf|9125|dock7
  -GOLD-   2272012333D 1   1.00000     0.00000
 Structure written by MMmdl.
 46 47  0  0  0  0  0  0  0  0  1 V2000
  145.9954  129.2259  151.7436 C   0  0  0  0  0  0  0  0  0  0  0  0
  146.0018  130.7124  151.4553 C   0  0  0  0  0  0  0  0  0  0  0  0
  145.0763  131.2818  150.5590 C   0  0  0  0  0  0  0  0  0  0  0  0
  145.1412  132.6681  150.3312 C   0  0  0  0  0  0  0  0  0  0  0  0
  146.1225  133.4222  151.0029 C   0  0  0  0  0  0  0  0  0  0  0  0
  147.0130  132.7733  151.8876 C   0  0  0  0  0  0  0  0  0  0  0  0
  147.9683  133.6202  152.5095 N   0  0  0  0  0  0  0  0  0  0  0  0
  148.6705  133.3964  153.6343 C   0  0  0  0  0  0  0  0  0  0  0  0
  148.5577  132.4067  154.3582 O   0  0  0  0  0  0  0  0  0  0  0  0
  149.5211  134.4040  153.8793 N   0  0  0  0  0  0  0  0  0  0  0  0
  150.4460  134.4867  155.0084 C   0  0  0  0  0  0  0  0  0  0  0  0
  151.1413  135.8626  155.0862 C   0  0  0  0  0  0  0  0  0  0  0  0
  150.2177  137.0800  154.8780 C   0  0  0  0  0  0  0  0  0  0  0  0
  149.0146  136.9722  155.1202 O   0  0  0  0  0  0  0  0  0  0  0  0
  150.7510  138.2394  154.4190 N   0  0  0  0  0  0  0  0  0  0  0  0
  152.1909  138.3694  154.1620 C   0  0  0  0  0  0  0  0  0  0  0  0
  152.9874  138.6645  155.4497 C   0  0  0  0  0  0  0  0  0  0  0  0
  152.2818  139.5616  156.4907 C   0  0  0  0  0  0  0  0  0  0  0  0
  151.4970  140.7550  155.9104 C   0  0  0  0  0  0  0  0  0  0  0  0
  150.0672  140.3955  155.4537 C   0  0  0  0  0  0  0  0  0  0  0  0
  150.0044  139.4888  154.2107 C   0  0  0  0  0  0  0  0  0  0  0  0
  146.9417  131.4357  152.1009 N   0  0  0  0  0  0  0  0  0  0  0  0
  145.1256  128.7407  151.3003 H   0  0  0  0  0  0  0  0  0  0  0  0
  145.9733  129.0458  152.8187 H   0  0  0  0  0  0  0  0  0  0  0  0
  146.8923  128.7595  151.3350 H   0  0  0  0  0  0  0  0  0  0  0  0
  144.3368  130.6749  150.0573 H   0  0  0  0  0  0  0  0  0  0  0  0
  144.4518  133.1461  149.6511 H   0  0  0  0  0  0  0  0  0  0  0  0
  146.1871  134.4879  150.8375 H   0  0  0  0  0  0  0  0  0  0  0  0
  148.1499  134.4911  152.0337 H   0  0  0  0  0  0  0  0  0  0  0  0
  149.5381  135.1744  153.2271 H   0  0  0  0  0  0  0  0  0  0  0  0
  149.8652  134.3290  155.9173 H   0  0  0  0  0  0  0  0  0  0  0  0
  151.1899  133.6882  154.9883 H   0  0  0  0  0  0  0  0  0  0  0  0
  151.6378  135.9491  156.0530 H   0  0  0  0  0  0  0  0  0  0  0  0
  151.9216  135.8957  154.3259 H   0  0  0  0  0  0  0  0  0  0  0  0
  152.5827  137.4738  153.6766 H   0  0  0  0  0  0  0  0  0  0  0  0
  152.3772  139.1704  153.4461 H   0  0  0  0  0  0  0  0  0  0  0  0
  153.2469  137.7224  155.9340 H   0  0  0  0  0  0  0  0  0  0  0  0
  153.9377  139.1185  155.1674 H   0  0  0  0  0  0  0  0  0  0  0  0
  151.6130  138.9561  157.1038 H   0  0  0  0  0  0  0  0  0  0  0  0
  153.0404  139.9372  157.1780 H   0  0  0  0  0  0  0  0  0  0  0  0
  151.4127  141.5140  156.6889 H   0  0  0  0  0  0  0  0  0  0  0  0
  152.0558  141.2231  155.0994 H   0  0  0  0  0  0  0  0  0  0  0  0
  149.5281  139.9318  156.2802 H   0  0  0  0  0  0  0  0  0  0  0  0
  149.5289  141.3176  155.2321 H   0  0  0  0  0  0  0  0  0  0  0  0
  150.4036  140.0285  153.3512 H   0  0  0  0  0  0  0  0  0  0  0  0
  148.9648  139.3026  153.9450 H   0  0  0  0  0  0  0  0  0  0  0  0
  1  2  1  0  0  0  0
  1 23  1  0  0  0  0
  1 24  1  0  0  0  0
  1 25  1  0  0  0  0
  2 22  1  0  0  0  0
  2  3  2  0  0  0  0
  3  4  1  0  0  0  0
  3 26  1  0  0  0  0
  4  5  2  0  0  0  0
  4 27  1  0  0  0  0
  5  6  1  0  0  0  0
  5 28  1  0  0  0  0
  6  7  1  0  0  0  0
  6 22  2  0  0  0  0
  7  8  1  0  0  0  0
  7 29  1  0  0  0  0
  8  9  2  0  0  0  0
  8 10  1  0  0  0  0
 10 11  1  0  0  0  0
 10 30  1  0  0  0  0
 11 12  1  0  0  0  0
 11 31  1  0  0  0  0
 11 32  1  0  0  0  0
 12 13  1  0  0  0  0
 12 33  1  0  0  0  0
 12 34  1  0  0  0  0
 13 14  2  0  0  0  0
 13 15  1  0  0  0  0
 15 21  1  0  0  0  0
 15 16  1  0  0  0  0
 16 17  1  0  0  0  0
 16 35  1  0  0  0  0
 16 36  1  0  0  0  0
 17 18  1  0  0  0  0
 17 37  1  0  0  0  0
 17 38  1  0  0  0  0
 18 19  1  0  0  0  0
 18 39  1  0  0  0  0
 18 40  1  0  0  0  0
 19 20  1  0  0  0  0
 19 41  1  0  0  0  0
 19 42  1  0  0  0  0
 20 21  1  0  0  0  0
 20 43  1  0  0  0  0
 20 44  1  0  0  0  0
 21 45  1  0  0  0  0
 21 46  1  0  0  0  0
M  END
> <s_m_source_file>
AV-unprocessed.smi

> <i_m_source_file_index>
2255

> <i_lp_mmshare_version>
43012

> <i_f3d_flags>
0

> <s_epik_input>
W0NIM11jMVtjSF1bY0hdW2NIXWMobjEpW05IXUMoPU8pW05IXVtDSDJdW0NIMl1DKD1PKU4yW0NIMl1bQ0gyXVtDSDJdW0NIMl1bQ0gyXVtDSDJdMg==

> <s_epik_cmdline>
J2VwaWtfcHl0aG9uJywgJy1waCcsICc3LjAnLCAnLXRuJywgJzgnLCAnLW1hJywgJzIwMCcsICctbWV0YWxfYmluZGluZycsICctaW1hZScsICc8aW5maWxlLm1hZT4nLCAnLW9tYWUnLCAnPG91dGZpbGUubWFlPic=

> <r_lp_tautomer_probability>
1

> <r_epik_Ionization_Penalty>
7.16633e-05

> <r_epik_Ionization_Penalty_Charging>
0

> <r_epik_Ionization_Penalty_Neutral>
7.16633e-05

> <r_epik_State_Penalty>
-0

> <r_epik_Charging_Adjusted_Penalty>
0

> <i_epik_Tot_Q>
0

> <i_epik_Tot_abs_Q>
0

> <r_epik_Metal_State_Penalty>
-0

> <b_epik_Metal_Only>
0

> <s_lp_Force_Field>
OPLS_2005

> <r_lp_Energy>
24.0956

> <b_lp_Chiralities_Consistent>
1

> <s_lp_Variant>
AV-unprocessed.smi:2255-1

> <Gold.Version>
5.8.1

> <Gold.Id.Protein>
6NUR|6NUR_protein|mol2

> <Gold.PLP.Fitness>
47.2260

> <Gold.PLP.PLP>
-42.2758

> <Gold.PLP.part.hbond>
-2.0000

> <Gold.PLP.part.metal>
0.0000

> <Gold.PLP.part.buried>
-3.8036

> <Gold.PLP.part.nonpolar>
-35.8476

> <Gold.PLP.part.repulsive>
0.2715

> <Gold.PLP.ligand.clash>
0.0000

> <Gold.PLP.ligand.torsion>
0.5302

> <Gold.PLP.Chemscore.Hbond>
2.0000

> <Gold.PLP.Chemscore.CHOScore>
0.0000

> <Gold.PLP.Chemscore.Metal>
0.0000

> <Gold.Chemscore.Hbonds>
donor molecule, donor type, donor heavy atom, donor atom, acceptor molecule, acceptor atom, score
      L1  H     7    29       P1  7948  0.70
      L1  H    10    30       P1  7948  0.40

> <Gold.PLP.Chemscore.Internal.Correction>
0.0105

> <Gold.Rescore>
     Score         DG    S(hbond)    S(metal)    S(lipo)     H(rot)  DE(clash)    DE(int)     intcor
     15.28     -18.32       1.71        0.00      93.69       1.49       0.07       2.97       ----

> <Gold.Chemscore.Fitness>
15.2784

> <Gold.Chemscore.DG>
-18.3197

> <Gold.Chemscore.ZeroCoef>
-5.4800

> <Gold.Chemscore.Hbond>
1.7078

> <Gold.Chemscore.Metal>
0.0000

> <Gold.Chemscore.Lipo>
93.6892

> <Gold.Chemscore.Internal_Hbond>
0.0000

> <Gold.Chemscore.DEClash>
0.0735

> <Gold.Chemscore.DEInternal>
2.9678

> <Gold.Chemscore.Rot>
1.4946

> <Gold.Chemscore.Internal.Correction>
   9.000000E+99

> <Gold.Chemscore.Hbonds>
donor molecule, donor type, donor heavy atom, donor atom, acceptor molecule, acceptor atom, score
      L1  H     7    29       P1  7948  0.07
      L1  H    10    30       P1  7948  0.01

> <Gold.Chemscore.Hbond.Weighted>
-5.7042

> <Gold.Chemscore.Metal.Weighted>
-0.0000

> <Gold.Chemscore.Lipo.Weighted>
-10.9616

> <Gold.Chemscore.Internal_Hbond.Weighted>
0.0000

> <Gold.Chemscore.DEClash.Weighted>
0.0735

> <Gold.Chemscore.DEInternal.Weighted>
2.9678

> <Gold.Chemscore.Rot.Weighted>
3.8261

> <Gold.Chemscore.Internal.Correction.Weighted>
   9.000000E+99

> <Gold.Protein.RotatedTorsions>
[ 6907 6896 6895 6894 ] final  154.02 input  -60.11 | X-H torsion
[ 7974 7965 7964 7962 ] final   22.34 input  175.53 | X-H torsion
[ 8008 7997 7996 7995 ] final   36.51 input   59.86 | X-H torsion
[ 10167 10162 10161 10158 ] final  173.47 input  -65.29 | X-H torsion
[ 10718 10713 10712 10709 ] final    7.60 input   66.30 | X-H torsion
[ 10763 10752 10751 10750 ] final  -80.21 input  -60.55 | X-H torsion
[ 11005 11000 10999 10996 ] final -106.04 input  -57.11 | X-H torsion

> <Gold.Protein.ActiveResidues>
 VAL166  LYS551  ARG553  GLY616  TRP617  ASP618  TYR619  PRO620  LYS621  CYS622 
 ASP623  PHE694  ASN695  SER759  ASP760  ASP761  ALA762  ILE779  LEU786  VAL792 
 PHE793  MET794  SER795  GLU796  ALA797  LYS798  CYS799  TRP800  GLU811  SER814 

> <Gold.Protein.RotatedAtoms>
  152.0645  133.4077  159.4431 H   0  0  0  0  0  0  0  0  0  0  0  0  # atno 6907 bound_to 6896
  150.6865  134.3163  159.4776 H   0  0  0  0  0  0  0  0  0  0  0  0  # atno 6908 bound_to 6896
  152.0987  134.9356  160.0621 H   0  0  0  0  0  0  0  0  0  0  0  0  # atno 6909 bound_to 6896
  146.2033  139.7899  142.8745 H   0  0  0  0  0  0  0  0  0  0  0  0  # atno 7974 bound_to 7965
  155.1885  140.3306  155.4362 H   0  0  0  0  0  0  0  0  0  0  0  0  # atno 8008 bound_to 7997
  156.2451  140.1914  156.6929 H   0  0  0  0  0  0  0  0  0  0  0  0  # atno 8009 bound_to 7997
  154.6222  140.0594  156.9615 H   0  0  0  0  0  0  0  0  0  0  0  0  # atno 8010 bound_to 7997
  139.5109  144.3256  152.0160 H   0  0  0  0  0  0  0  0  0  0  0  0  # atno 10167 bound_to 10162
  156.9393  130.5855  149.5652 H   0  0  0  0  0  0  0  0  0  0  0  0  # atno 10718 bound_to 10713
  154.5483  135.5669  153.6899 H   0  0  0  0  0  0  0  0  0  0  0  0  # atno 10763 bound_to 10752
  152.9982  135.6244  154.2409 H   0  0  0  0  0  0  0  0  0  0  0  0  # atno 10764 bound_to 10752
  154.2342  135.2865  155.2858 H   0  0  0  0  0  0  0  0  0  0  0  0  # atno 10765 bound_to 10752
  141.1024  133.8859  157.1807 H   0  0  0  0  0  0  0  0  0  0  0  0  # atno 11005 bound_to 11000
  145.3408  141.0287  143.3393 LP  0  0  0  0  0  0  0  0  0  0  0  0  # atno 17320 bound_to 7965
  144.8733  139.5007  143.6757 LP  0  0  0  0  0  0  0  0  0  0  0  0  # atno 17321 bound_to 7965
  140.2697  144.3977  150.6155 LP  0  0  0  0  0  0  0  0  0  0  0  0  # atno 17342 bound_to 10162
  140.6097  143.2169  151.6910 LP  0  0  0  0  0  0  0  0  0  0  0  0  # atno 17343 bound_to 10162
  156.0411  130.5494  150.8774 LP  0  0  0  0  0  0  0  0  0  0  0  0  # atno 17370 bound_to 10713
  157.5795  131.0946  150.9293 LP  0  0  0  0  0  0  0  0  0  0  0  0  # atno 17371 bound_to 10713
  139.9881  135.0075  156.9910 LP  0  0  0  0  0  0  0  0  0  0  0  0  # atno 17394 bound_to 11000
  140.4988  134.1118  155.7246 LP  0  0  0  0  0  0  0  0  0  0  0  0  # atno 17395 bound_to 11000

$$$$
