AV-unprocessed.smi:1221|AV-procd|sdf|5118|dock4
  -GOLD-   22720 4173D 1   1.00000     0.00000
 Structure written by MMmdl.
 40 41  0  0  0  0  0  0  0  0  1 V2000
  144.5630  131.4412  150.6269 C   0  0  0  0  0  0  0  0  0  0  0  0
  144.9078  132.8826  150.7831 C   0  0  0  0  0  0  0  0  0  0  0  0
  145.8284  133.5410  151.5490 C   0  0  0  0  0  0  0  0  0  0  0  0
  145.6154  134.9024  151.2049 C   0  0  0  0  0  0  0  0  0  0  0  0
  146.3903  135.9324  151.7965 N   0  0  0  0  0  0  0  0  0  0  0  0
  145.9446  137.0535  152.3884 C   0  0  0  0  0  0  0  0  0  0  0  0
  144.7604  137.3678  152.5117 O   0  0  0  0  0  0  0  0  0  0  0  0
  146.9599  137.8034  152.8410 N   0  0  0  0  0  0  0  0  0  0  0  0
  146.8079  139.0764  153.5344 C   0  0  0  0  0  0  0  0  0  0  0  0
  147.8414  140.1102  153.0491 C   0  0  0  0  0  0  0  0  0  0  0  0
  148.3130  140.9488  154.1580 N   0  0  0  0  0  0  0  0  0  0  0  0
  147.3712  141.9650  154.6559 C   0  0  0  0  0  0  0  0  0  0  0  0
  146.8096  141.6557  156.0637 C   0  0  0  0  0  0  0  0  0  0  0  0
  147.7296  140.8542  157.0059 C   0  0  0  0  0  0  0  0  0  0  0  0
  149.1512  141.4294  157.1744 C   0  0  0  0  0  0  0  0  0  0  0  0
  149.9526  141.6812  155.8748 C   0  0  0  0  0  0  0  0  0  0  0  0
  149.5464  140.7817  154.6963 C   0  0  0  0  0  0  0  0  0  0  0  0
  150.3492  139.9416  154.2889 O   0  0  0  0  0  0  0  0  0  0  0  0
  144.6520  135.0605  150.3102 N   0  0  0  0  0  0  0  0  0  0  0  0
  144.1947  133.7668  150.0339 O   0  0  0  0  0  0  0  0  0  0  0  0
  144.9253  130.8602  151.4752 H   0  0  0  0  0  0  0  0  0  0  0  0
  145.0117  131.0342  149.7209 H   0  0  0  0  0  0  0  0  0  0  0  0
  143.4834  131.3050  150.5613 H   0  0  0  0  0  0  0  0  0  0  0  0
  146.5382  133.1148  152.2424 H   0  0  0  0  0  0  0  0  0  0  0  0
  147.3902  135.7997  151.7679 H   0  0  0  0  0  0  0  0  0  0  0  0
  147.9022  137.4709  152.6983 H   0  0  0  0  0  0  0  0  0  0  0  0
  145.7992  139.4469  153.3491 H   0  0  0  0  0  0  0  0  0  0  0  0
  146.8862  138.9215  154.6119 H   0  0  0  0  0  0  0  0  0  0  0  0
  148.6900  139.6057  152.5834 H   0  0  0  0  0  0  0  0  0  0  0  0
  147.4073  140.7205  152.2567 H   0  0  0  0  0  0  0  0  0  0  0  0
  147.8644  142.9374  154.6607 H   0  0  0  0  0  0  0  0  0  0  0  0
  146.5334  142.0987  153.9708 H   0  0  0  0  0  0  0  0  0  0  0  0
  146.5230  142.5927  156.5423 H   0  0  0  0  0  0  0  0  0  0  0  0
  145.8837  141.0911  155.9489 H   0  0  0  0  0  0  0  0  0  0  0  0
  147.2574  140.7903  157.9864 H   0  0  0  0  0  0  0  0  0  0  0  0
  147.7933  139.8225  156.6573 H   0  0  0  0  0  0  0  0  0  0  0  0
  149.0900  142.3658  157.7298 H   0  0  0  0  0  0  0  0  0  0  0  0
  149.7200  140.7500  157.8104 H   0  0  0  0  0  0  0  0  0  0  0  0
  149.8595  142.7241  155.5727 H   0  0  0  0  0  0  0  0  0  0  0  0
  151.0155  141.5448  156.0783 H   0  0  0  0  0  0  0  0  0  0  0  0
  1  2  1  0  0  0  0
  1 21  1  0  0  0  0
  1 22  1  0  0  0  0
  1 23  1  0  0  0  0
  2 20  1  0  0  0  0
  2  3  2  0  0  0  0
  3  4  1  0  0  0  0
  3 24  1  0  0  0  0
  4  5  1  0  0  0  0
  4 19  2  0  0  0  0
  5  6  1  0  0  0  0
  5 25  1  0  0  0  0
  6  7  2  0  0  0  0
  6  8  1  0  0  0  0
  8  9  1  0  0  0  0
  8 26  1  0  0  0  0
  9 10  1  0  0  0  0
  9 27  1  0  0  0  0
  9 28  1  0  0  0  0
 10 11  1  0  0  0  0
 10 29  1  0  0  0  0
 10 30  1  0  0  0  0
 11 17  1  0  0  0  0
 11 12  1  0  0  0  0
 12 13  1  0  0  0  0
 12 31  1  0  0  0  0
 12 32  1  0  0  0  0
 13 14  1  0  0  0  0
 13 33  1  0  0  0  0
 13 34  1  0  0  0  0
 14 15  1  0  0  0  0
 14 35  1  0  0  0  0
 14 36  1  0  0  0  0
 15 16  1  0  0  0  0
 15 37  1  0  0  0  0
 15 38  1  0  0  0  0
 16 17  1  0  0  0  0
 16 39  1  0  0  0  0
 16 40  1  0  0  0  0
 17 18  2  0  0  0  0
 19 20  1  0  0  0  0
M  END
> <s_m_source_file>
AV-unprocessed.smi

> <i_m_source_file_index>
1221

> <i_lp_mmshare_version>
43012

> <i_f3d_flags>
0

> <s_epik_input>
W0NIM11jMVtjSF1jKG5vMSlbTkhdQyg9TylbTkhdW0NIMl1bQ0gyXU4yW0NIMl1bQ0gyXVtDSDJdW0NIMl1bQ0gyXUMyPU8=

> <s_epik_cmdline>
J2VwaWtfcHl0aG9uJywgJy1waCcsICc3LjAnLCAnLXRuJywgJzgnLCAnLW1hJywgJzIwMCcsICctbWV0YWxfYmluZGluZycsICctaW1hZScsICc8aW5maWxlLm1hZT4nLCAnLW9tYWUnLCAnPG91dGZpbGUubWFlPic=

> <r_lp_tautomer_probability>
1

> <r_epik_Ionization_Penalty>
2.943e-05

> <r_epik_Ionization_Penalty_Charging>
0

> <r_epik_Ionization_Penalty_Neutral>
2.943e-05

> <r_epik_State_Penalty>
-0

> <r_epik_Charging_Adjusted_Penalty>
0

> <i_epik_Tot_Q>
0

> <i_epik_Tot_abs_Q>
0

> <r_epik_Metal_State_Penalty>
0.0104721

> <b_epik_Metal_Only>
0

> <s_lp_Force_Field>
OPLS_2005

> <r_lp_Energy>
18.1231

> <b_lp_Chiralities_Consistent>
1

> <s_lp_Variant>
AV-unprocessed.smi:1221-1

> <Gold.Version>
5.8.1

> <Gold.Id.Protein>
6NUR|6NUR_protein|mol2

> <Gold.PLP.Fitness>
38.7583

> <Gold.PLP.PLP>
-31.9144

> <Gold.PLP.part.hbond>
-3.0000

> <Gold.PLP.part.metal>
0.0000

> <Gold.PLP.part.buried>
-1.8908

> <Gold.PLP.part.nonpolar>
-28.0173

> <Gold.PLP.part.repulsive>
0.8946

> <Gold.PLP.ligand.clash>
0.0000

> <Gold.PLP.ligand.torsion>
0.9985

> <Gold.PLP.Chemscore.Hbond>
2.9440

> <Gold.PLP.Chemscore.CHOScore>
0.0000

> <Gold.PLP.Chemscore.Metal>
0.0000

> <Gold.Chemscore.Hbonds>
donor molecule, donor type, donor heavy atom, donor atom, acceptor molecule, acceptor atom, score
      L1  H     5    25       P1  7948  1.00
      L1  H     8    26       P1  7948  0.91
      P1  H  7989  7998       L1    18  1.00

> <Gold.PLP.Chemscore.Internal.Correction>
0.0089

> <Gold.Rescore>
     Score         DG    S(hbond)    S(metal)    S(lipo)     H(rot)  DE(clash)    DE(int)     intcor
     15.19     -17.28       2.84        0.00      55.51       1.63       1.24       0.85       ----

> <Gold.Chemscore.Fitness>
15.1938

> <Gold.Chemscore.DG>
-17.2809

> <Gold.Chemscore.ZeroCoef>
-5.4800

> <Gold.Chemscore.Hbond>
2.8355

> <Gold.Chemscore.Metal>
0.0000

> <Gold.Chemscore.Lipo>
55.5069

> <Gold.Chemscore.Internal_Hbond>
0.0000

> <Gold.Chemscore.DEClash>
1.2391

> <Gold.Chemscore.DEInternal>
0.8480

> <Gold.Chemscore.Rot>
1.6266

> <Gold.Chemscore.Internal.Correction>
   9.000000E+99

> <Gold.Chemscore.Hbonds>
donor molecule, donor type, donor heavy atom, donor atom, acceptor molecule, acceptor atom, score
      L1  H     5    25       P1  7948  0.97
      L1  H     8    26       P1  7948  0.90
      P1  H  7989  7998       L1    18  0.50

> <Gold.Chemscore.Hbond.Weighted>
-9.4706

> <Gold.Chemscore.Metal.Weighted>
-0.0000

> <Gold.Chemscore.Lipo.Weighted>
-6.4943

> <Gold.Chemscore.Internal_Hbond.Weighted>
0.0000

> <Gold.Chemscore.DEClash.Weighted>
1.2391

> <Gold.Chemscore.DEInternal.Weighted>
0.8480

> <Gold.Chemscore.Rot.Weighted>
4.1641

> <Gold.Chemscore.Internal.Correction.Weighted>
   9.000000E+99

> <Gold.Protein.RotatedTorsions>
[ 6907 6896 6895 6894 ] final   20.54 input  -60.11 | X-H torsion
[ 7974 7965 7964 7962 ] final  120.10 input  175.53 | X-H torsion
[ 8008 7997 7996 7995 ] final -129.04 input   59.86 | X-H torsion
[ 10167 10162 10161 10158 ] final -107.58 input  -65.29 | X-H torsion
[ 10718 10713 10712 10709 ] final -147.18 input   66.30 | X-H torsion
[ 10763 10752 10751 10750 ] final  -35.95 input  -60.55 | X-H torsion
[ 11005 11000 10999 10996 ] final -109.83 input  -57.11 | X-H torsion

> <Gold.Protein.ActiveResidues>
 VAL166  LYS551  ARG553  GLY616  TRP617  ASP618  TYR619  PRO620  LYS621  CYS622 
 ASP623  PHE694  ASN695  SER759  ASP760  ASP761  ALA762  ILE779  LEU786  VAL792 
 PHE793  MET794  SER795  GLU796  ALA797  LYS798  CYS799  TRP800  GLU811  SER814 

> <Gold.Protein.RotatedAtoms>
  151.8979  135.0390  160.0503 H   0  0  0  0  0  0  0  0  0  0  0  0  # atno 6907 bound_to 6896
  152.2382  133.5109  159.5263 H   0  0  0  0  0  0  0  0  0  0  0  0  # atno 6908 bound_to 6896
  150.7045  134.1041  159.4019 H   0  0  0  0  0  0  0  0  0  0  0  0  # atno 6909 bound_to 6896
  145.1352  139.3302  143.4645 H   0  0  0  0  0  0  0  0  0  0  0  0  # atno 7974 bound_to 7965
  155.2726  140.0440  157.3008 H   0  0  0  0  0  0  0  0  0  0  0  0  # atno 8008 bound_to 7997
  154.5644  140.2355  155.8255 H   0  0  0  0  0  0  0  0  0  0  0  0  # atno 8009 bound_to 7997
  156.2073  140.3009  155.9663 H   0  0  0  0  0  0  0  0  0  0  0  0  # atno 8010 bound_to 7997
  140.1755  143.4009  152.1322 H   0  0  0  0  0  0  0  0  0  0  0  0  # atno 10167 bound_to 10162
  156.4042  130.7949  151.2162 H   0  0  0  0  0  0  0  0  0  0  0  0  # atno 10718 bound_to 10713
  153.8717  135.6830  153.4774 H   0  0  0  0  0  0  0  0  0  0  0  0  # atno 10763 bound_to 10752
  153.1284  135.4709  154.9307 H   0  0  0  0  0  0  0  0  0  0  0  0  # atno 10764 bound_to 10752
  154.7711  135.3239  154.8138 H   0  0  0  0  0  0  0  0  0  0  0  0  # atno 10765 bound_to 10752
  141.0826  133.9194  157.2256 H   0  0  0  0  0  0  0  0  0  0  0  0  # atno 11005 bound_to 11000
  146.3510  140.1366  142.8595 LP  0  0  0  0  0  0  0  0  0  0  0  0  # atno 17320 bound_to 7965
  145.0592  140.9075  143.4949 LP  0  0  0  0  0  0  0  0  0  0  0  0  # atno 17321 bound_to 7965
  139.5319  144.7168  151.5026 LP  0  0  0  0  0  0  0  0  0  0  0  0  # atno 17342 bound_to 10162
  140.6554  143.8610  150.6830 LP  0  0  0  0  0  0  0  0  0  0  0  0  # atno 17343 bound_to 10162
  157.7505  131.0277  150.4018 LP  0  0  0  0  0  0  0  0  0  0  0  0  # atno 17370 bound_to 10713
  156.4304  130.3971  149.6764 LP  0  0  0  0  0  0  0  0  0  0  0  0  # atno 17371 bound_to 10713
  139.9641  135.0146  156.9340 LP  0  0  0  0  0  0  0  0  0  0  0  0  # atno 17394 bound_to 11000
  140.5435  134.0697  155.7348 LP  0  0  0  0  0  0  0  0  0  0  0  0  # atno 17395 bound_to 11000

$$$$
