AV-unprocessed.smi:467|AV-procd|sdf|2644|dock4
  -GOLD-   2262023 53D 1   1.00000     0.00000
 Structure written by MMmdl.
 44 46  0  0  0  0  0  0  0  0  1 V2000
  152.7210  143.3188  160.8743 C   0  0  0  0  0  0  0  0  0  0  0  0
  152.1993  142.5639  159.6645 C   0  0  0  0  0  0  0  0  0  0  0  0
  152.1776  141.1510  159.6924 C   0  0  0  0  0  0  0  0  0  0  0  0
  151.6940  140.4121  158.5903 C   0  0  0  0  0  0  0  0  0  0  0  0
  151.5771  139.0448  158.4063 N   0  0  0  0  0  0  0  0  0  0  0  0
  151.0594  138.9827  157.1828 C   0  0  0  0  0  0  0  0  0  0  0  0
  150.8287  140.1491  156.5504 N   0  0  0  0  0  0  0  0  0  0  0  0
  150.2729  140.3262  155.2204 C   0  0  0  0  0  0  0  0  0  0  0  0
  149.0697  141.2885  155.2049 C   0  0  1  0  0  0  0  0  0  0  0  0
  149.4986  142.5683  154.7828 O   0  0  0  0  0  0  0  0  0  0  0  0
  147.9707  140.8026  154.2391 C   0  0  0  0  0  0  0  0  0  0  0  0
  146.6620  141.4398  154.3981 N   0  0  0  0  0  0  0  0  0  0  0  0
  146.6370  142.8184  153.9114 C   0  0  0  0  0  0  0  0  0  0  0  0
  145.2599  143.4742  154.1163 C   0  0  0  0  0  0  0  0  0  0  0  0
  144.8998  143.4145  155.4923 O   0  0  0  0  0  0  0  0  0  0  0  0
  144.8664  142.0820  155.9924 C   0  0  0  0  0  0  0  0  0  0  0  0
  146.2435  141.4254  155.7960 C   0  0  0  0  0  0  0  0  0  0  0  0
  151.2346  141.1309  157.4481 C   0  0  0  0  0  0  0  0  0  0  0  0
  151.2538  142.5361  157.4075 C   0  0  0  0  0  0  0  0  0  0  0  0
  151.7340  143.2591  158.5193 C   0  0  0  0  0  0  0  0  0  0  0  0
  151.7392  144.7766  158.4693 C   0  0  0  0  0  0  0  0  0  0  0  0
  153.0884  142.6369  161.6416 H   0  0  0  0  0  0  0  0  0  0  0  0
  151.9290  143.9246  161.3152 H   0  0  0  0  0  0  0  0  0  0  0  0
  153.5433  143.9760  160.5914 H   0  0  0  0  0  0  0  0  0  0  0  0
  152.5300  140.6210  160.5650 H   0  0  0  0  0  0  0  0  0  0  0  0
  150.8340  138.0339  156.7181 H   0  0  0  0  0  0  0  0  0  0  0  0
  151.0615  140.6850  154.5573 H   0  0  0  0  0  0  0  0  0  0  0  0
  149.9739  139.3467  154.8444 H   0  0  0  0  0  0  0  0  0  0  0  0
  148.6838  141.3702  156.2202 H   0  0  0  0  0  0  0  0  0  0  0  0
  149.0662  143.2171  155.3173 H   0  0  0  0  0  0  0  0  0  0  0  0
  148.3260  140.9635  153.2199 H   0  0  0  0  0  0  0  0  0  0  0  0
  147.8547  139.7226  154.3429 H   0  0  0  0  0  0  0  0  0  0  0  0
  147.3971  143.4072  154.4269 H   0  0  0  0  0  0  0  0  0  0  0  0
  146.8794  142.8542  152.8503 H   0  0  0  0  0  0  0  0  0  0  0  0
  145.2851  144.5167  153.7989 H   0  0  0  0  0  0  0  0  0  0  0  0
  144.5007  142.9737  153.5128 H   0  0  0  0  0  0  0  0  0  0  0  0
  144.6038  142.1038  157.0501 H   0  0  0  0  0  0  0  0  0  0  0  0
  144.0897  141.5121  155.4799 H   0  0  0  0  0  0  0  0  0  0  0  0
  146.2055  140.3982  156.1608 H   0  0  0  0  0  0  0  0  0  0  0  0
  146.9809  141.9466  156.4088 H   0  0  0  0  0  0  0  0  0  0  0  0
  150.8940  143.0518  156.5293 H   0  0  0  0  0  0  0  0  0  0  0  0
  151.3287  145.1446  157.5285 H   0  0  0  0  0  0  0  0  0  0  0  0
  152.7554  145.1593  158.5641 H   0  0  0  0  0  0  0  0  0  0  0  0
  151.1361  145.1872  159.2794 H   0  0  0  0  0  0  0  0  0  0  0  0
  1  2  1  0  0  0  0
  1 22  1  0  0  0  0
  1 23  1  0  0  0  0
  1 24  1  0  0  0  0
  2 20  1  0  0  0  0
  2  3  2  0  0  0  0
  3  4  1  0  0  0  0
  3 25  1  0  0  0  0
  4 18  2  0  0  0  0
  4  5  1  0  0  0  0
  5  6  2  0  0  0  0
  6  7  1  0  0  0  0
  6 26  1  0  0  0  0
  7  8  1  0  0  0  0
  7 18  1  0  0  0  0
  8  9  1  0  0  0  0
  8 27  1  0  0  0  0
  8 28  1  0  0  0  0
  9 10  1  0  0  0  0
  9 11  1  0  0  0  0
  9 29  1  0  0  0  0
 10 30  1  0  0  0  0
 11 12  1  0  0  0  0
 11 31  1  0  0  0  0
 11 32  1  0  0  0  0
 12 17  1  0  0  0  0
 12 13  1  0  0  0  0
 13 14  1  0  0  0  0
 13 33  1  0  0  0  0
 13 34  1  0  0  0  0
 14 15  1  0  0  0  0
 14 35  1  0  0  0  0
 14 36  1  0  0  0  0
 15 16  1  0  0  0  0
 16 17  1  0  0  0  0
 16 37  1  0  0  0  0
 16 38  1  0  0  0  0
 17 39  1  0  0  0  0
 17 40  1  0  0  0  0
 18 19  1  0  0  0  0
 19 20  2  0  0  0  0
 19 41  1  0  0  0  0
 20 21  1  0  0  0  0
 21 42  1  0  0  0  0
 21 43  1  0  0  0  0
 21 44  1  0  0  0  0
M  END
> <s_m_source_file>
AV-unprocessed.smi

> <i_m_source_file_index>
467

> <i_lp_mmshare_version>
43012

> <i_f3d_flags>
0

> <s_epik_input>
W0NIM11jKFtjSF0xKWMoW0NIM10pW2NIXWMoYzEyKW4oW2NIXW4yKVtDSDJdW0NASF0oW09IXSlbQ0gyXU4zW0NIMl1bQ0gyXU9bQ0gyXVtDSDJdMw==

> <s_epik_cmdline>
J2VwaWtfcHl0aG9uJywgJy1waCcsICc3LjAnLCAnLXRuJywgJzgnLCAnLW1hJywgJzIwMCcsICctbWV0YWxfYmluZGluZycsICctaW1hZScsICc8aW5maWxlLm1hZT4nLCAnLW9tYWUnLCAnPG91dGZpbGUubWFlPic=

> <r_epik_Ionization_Penalty>
0.345029

> <r_epik_Ionization_Penalty_Charging>
0

> <r_epik_Ionization_Penalty_Neutral>
0.345029

> <r_epik_State_Penalty>
0.314465

> <r_epik_Charging_Adjusted_Penalty>
0.314465

> <i_epik_Tot_Q>
0

> <i_epik_Tot_abs_Q>
0

> <r_epik_Metal_State_Penalty>
0.239717

> <b_epik_Metal_Only>
0

> <s_lp_Force_Field>
OPLS_2005

> <r_lp_Energy>
29.8688

> <b_lp_Chiralities_Consistent>
1

> <s_lp_Variant>
AV-unprocessed.smi:467-2

> <Gold.Version>
5.8.1

> <Gold.Id.Protein>
6NUR|6NUR_protein|mol2

> <Gold.PLP.Fitness>
42.9865

> <Gold.PLP.PLP>
-41.5039

> <Gold.PLP.part.hbond>
-1.7755

> <Gold.PLP.part.metal>
0.0000

> <Gold.PLP.part.buried>
-3.6751

> <Gold.PLP.part.nonpolar>
-35.4630

> <Gold.PLP.part.repulsive>
0.3120

> <Gold.PLP.ligand.clash>
0.0000

> <Gold.PLP.ligand.torsion>
0.7795

> <Gold.PLP.Chemscore.Hbond>
1.0016

> <Gold.PLP.Chemscore.CHOScore>
0.0000

> <Gold.PLP.Chemscore.Metal>
0.0000

> <Gold.Chemscore.Hbonds>
donor molecule, donor type, donor heavy atom, donor atom, acceptor molecule, acceptor atom, score
      L1  H    10    30       P1  8028  0.94

> <Gold.PLP.Chemscore.Internal.Correction>
0.0370

> <Gold.Rescore>
     Score         DG    S(hbond)    S(metal)    S(lipo)     H(rot)  DE(clash)    DE(int)     intcor
     15.18     -17.17       1.06        0.00     113.85       2.02       0.24       1.74       ----

> <Gold.Chemscore.Fitness>
15.1827

> <Gold.Chemscore.DG>
-17.1655

> <Gold.Chemscore.ZeroCoef>
-5.4800

> <Gold.Chemscore.Hbond>
1.0609

> <Gold.Chemscore.Metal>
0.0000

> <Gold.Chemscore.Lipo>
113.8467

> <Gold.Chemscore.Internal_Hbond>
0.0000

> <Gold.Chemscore.DEClash>
0.2393

> <Gold.Chemscore.DEInternal>
1.7435

> <Gold.Chemscore.Rot>
2.0227

> <Gold.Chemscore.Internal.Correction>
   9.000000E+99

> <Gold.Chemscore.Hbonds>
donor molecule, donor type, donor heavy atom, donor atom, acceptor molecule, acceptor atom, score
      L1  H    10    30       P1  8028  0.86

> <Gold.Chemscore.Hbond.Weighted>
-3.5434

> <Gold.Chemscore.Metal.Weighted>
-0.0000

> <Gold.Chemscore.Lipo.Weighted>
-13.3201

> <Gold.Chemscore.Internal_Hbond.Weighted>
0.0000

> <Gold.Chemscore.DEClash.Weighted>
0.2393

> <Gold.Chemscore.DEInternal.Weighted>
1.7435

> <Gold.Chemscore.Rot.Weighted>
5.1780

> <Gold.Chemscore.Internal.Correction.Weighted>
   9.000000E+99

> <Gold.Protein.RotatedTorsions>
[ 6907 6896 6895 6894 ] final  -55.03 input  -60.11 | X-H torsion
[ 7974 7965 7964 7962 ] final  -55.78 input  175.53 | X-H torsion
[ 8008 7997 7996 7995 ] final  168.20 input   59.86 | X-H torsion
[ 10167 10162 10161 10158 ] final  -13.58 input  -65.29 | X-H torsion
[ 10718 10713 10712 10709 ] final  177.48 input   66.30 | X-H torsion
[ 10763 10752 10751 10750 ] final  123.82 input  -60.55 | X-H torsion
[ 11005 11000 10999 10996 ] final   31.43 input  -57.11 | X-H torsion

> <Gold.Protein.ActiveResidues>
 VAL166  LYS551  ARG553  GLY616  TRP617  ASP618  TYR619  PRO620  LYS621  CYS622 
 ASP623  PHE694  ASN695  SER759  ASP760  ASP761  ALA762  ILE779  LEU786  VAL792 
 PHE793  MET794  SER795  GLU796  ALA797  LYS798  CYS799  TRP800  GLU811  SER814 

> <Gold.Protein.RotatedAtoms>
  150.8287  134.7530  159.6834 H   0  0  0  0  0  0  0  0  0  0  0  0  # atno 6907 bound_to 6896
  152.4394  134.5617  159.9906 H   0  0  0  0  0  0  0  0  0  0  0  0  # atno 6908 bound_to 6896
  151.5784  133.3343  159.3039 H   0  0  0  0  0  0  0  0  0  0  0  0  # atno 6909 bound_to 6896
  145.8702  140.8221  142.9892 H   0  0  0  0  0  0  0  0  0  0  0  0  # atno 7974 bound_to 7965
  156.1567  140.1596  156.8680 H   0  0  0  0  0  0  0  0  0  0  0  0  # atno 8008 bound_to 7997
  154.5122  140.0798  156.8048 H   0  0  0  0  0  0  0  0  0  0  0  0  # atno 8009 bound_to 7997
  155.3788  140.3404  155.4248 H   0  0  0  0  0  0  0  0  0  0  0  0  # atno 8010 bound_to 7997
  140.7185  143.5411  150.9408 H   0  0  0  0  0  0  0  0  0  0  0  0  # atno 10167 bound_to 10162
  156.9048  130.9890  151.3030 H   0  0  0  0  0  0  0  0  0  0  0  0  # atno 10718 bound_to 10713
  153.6516  135.3362  155.3101 H   0  0  0  0  0  0  0  0  0  0  0  0  # atno 10763 bound_to 10752
  154.8536  135.4342  154.1898 H   0  0  0  0  0  0  0  0  0  0  0  0  # atno 10764 bound_to 10752
  153.2842  135.7011  153.7430 H   0  0  0  0  0  0  0  0  0  0  0  0  # atno 10765 bound_to 10752
  140.2840  134.2941  155.7793 H   0  0  0  0  0  0  0  0  0  0  0  0  # atno 11005 bound_to 11000
  144.6726  140.1227  143.7449 LP  0  0  0  0  0  0  0  0  0  0  0  0  # atno 17320 bound_to 7965
  145.9146  139.2508  143.1417 LP  0  0  0  0  0  0  0  0  0  0  0  0  # atno 17321 bound_to 7965
  139.9134  143.6693  152.3111 LP  0  0  0  0  0  0  0  0  0  0  0  0  # atno 17342 bound_to 10162
  139.7084  144.7624  151.1154 LP  0  0  0  0  0  0  0  0  0  0  0  0  # atno 17343 bound_to 10162
  157.6004  130.8508  149.8793 LP  0  0  0  0  0  0  0  0  0  0  0  0  # atno 17370 bound_to 10713
  156.0564  130.3707  150.1081 LP  0  0  0  0  0  0  0  0  0  0  0  0  # atno 17371 bound_to 10713
  141.2158  133.7543  156.9523 LP  0  0  0  0  0  0  0  0  0  0  0  0  # atno 17394 bound_to 11000
  140.1257  134.9388  157.2267 LP  0  0  0  0  0  0  0  0  0  0  0  0  # atno 17395 bound_to 11000

$$$$
