#       Name:                AV-unprocessed.smi:3222
#       Creating user name   scv26
#       Creation time:       Fri Mar 27 18:14:36 2020


#       File generated by GOLD software.
#

@<TRIPOS>MOLECULE
AV-unprocessed.smi:3222
    44    45     1
SMALL
NO_CHARGES


@<TRIPOS>ATOM
      1 ****        -2.3611  -1.8832  -0.9401 C.3            1 S1                 0.0000
      2 ****        -1.7670  -1.0573   0.2175 C.3            1 S1                 0.0000
      3 ****        -0.2885  -1.0304   0.1113 N.4            1 S1                 1.0000
      4 ****         0.2614  -0.0766  -0.8735 C.3            1 S1                 0.0000
      5 ****         1.7973  -0.0754  -0.8300 C.3            1 S1                 0.0000
      6 ****         2.3635   0.8646  -1.7935 N.am           1 S1                 0.0000
      7 ****         2.9871   2.0997  -1.3493 C.3            1 S1                 0.0000
      8 ****         3.2942   2.8780  -2.6370 C.3            1 S1                 0.0000
      9 ****         3.1170   1.8772  -3.7844 C.3            1 S1                 0.0000
     10 ****         2.4306   0.6964  -3.1194 C.2            1 S1                 0.0000
     11 ****         2.0055  -0.2715  -3.7483 O.2            1 S1                 0.0000
     12 ****        -2.1827  -1.6011   1.6100 C.3            1 S1                 0.0000
     13 ****        -3.7077  -1.6565   1.8214 C.3            1 S1                 0.0000
     14 ****        -1.5649  -0.8198   2.6767 N.pl3          1 S1                 0.0000
     15 ****        -1.8822   0.4501   3.1180 C.2            1 S1                 0.0000
     16 ****        -1.0012   0.7702   4.1107 C.2            1 S1                 0.0000
     17 ****        -0.1642  -0.3762   4.2024 C.2            1 S1                 0.0000
     18 ****        -0.4969  -1.3199   3.3367 N.2            1 S1                 0.0000
     19 ****        -3.4501  -1.8463  -0.9429 H              1 S1                 0.0000
     20 ****        -2.0628  -2.9300  -0.8739 H              1 S1                 0.0000
     21 ****        -2.0391  -1.5093  -1.9116 H              1 S1                 0.0000
     22 ****        -2.1327  -0.0323   0.1353 H              1 S1                 0.0000
     23 ****         0.0714  -0.7630   1.0170 H              1 S1                 0.0000
     24 ****        -0.0858  -0.3410  -1.8721 H              1 S1                 0.0000
     25 ****        -0.1138   0.9242  -0.6550 H              1 S1                 0.0000
     26 ****         2.1409   0.1845   0.1724 H              1 S1                 0.0000
     27 ****         2.1817  -1.0755  -1.0378 H              1 S1                 0.0000
     28 ****         2.3278   2.6611  -0.6861 H              1 S1                 0.0000
     29 ****         3.9032   1.8668  -0.8049 H              1 S1                 0.0000
     30 ****         2.5908   3.7036  -2.7530 H              1 S1                 0.0000
     31 ****         4.2981   3.3039  -2.6200 H              1 S1                 0.0000
     32 ****         2.5129   2.2842  -4.5959 H              1 S1                 0.0000
     33 ****         4.0787   1.5591  -4.1884 H              1 S1                 0.0000
     34 ****        -1.8127  -2.6246   1.6982 H              1 S1                 0.0000
     35 ****        -4.1806  -2.3799   1.1578 H              1 S1                 0.0000
     36 ****        -4.1741  -0.6869   1.6445 H              1 S1                 0.0000
     37 ****        -3.9488  -1.9600   2.8410 H              1 S1                 0.0000
     38 ****        -2.6997   1.0156   2.6953 H              1 S1                 0.0000
     39 ****        -0.9598   1.6847   4.6836 H              1 S1                 0.0000
     40 ****         0.6723  -0.5475   4.8638 H              1 S1                 0.0000
     41 ****         0.0435  -1.9611  -0.0983 H              1 S1                 0.0000
     42 ****         1.5613  -1.0259  -3.2649 LP             1 S1                 0.0000
     43 ****         2.1040  -0.3039  -4.7429 LP             1 S1                 0.0000
     44 ****        -0.0557  -2.2069   3.2009 LP             1 S1                 0.0000
@<TRIPOS>BOND
    1    1    2 1     
    2    1   19 1     
    3    1   20 1     
    4    1   21 1     
    5    2    3 1     
    6    2   12 1     
    7    2   22 1     
    8    3    4 1     
    9    3   23 1     
   10    3   41 1     
   11    4    5 1     
   12    4   24 1     
   13    4   25 1     
   14    5    6 1     
   15    5   26 1     
   16    5   27 1     
   17    6   10 am    
   18    6    7 1     
   19    7    8 1     
   20    7   28 1     
   21    7   29 1     
   22    8    9 1     
   23    8   30 1     
   24    8   31 1     
   25    9   10 1     
   26    9   32 1     
   27    9   33 1     
   28   10   11 2     
   29   12   13 1     
   30   12   14 1     
   31   12   34 1     
   32   13   35 1     
   33   13   36 1     
   34   13   37 1     
   35   14   18 1     
   36   14   15 1     
   37   15   16 2     
   38   15   38 1     
   39   16   17 1     
   40   16   39 1     
   41   17   18 2     
   42   17   40 1     
   43   11   42 1     
   44   11   43 1     
   45   18   44 1     
@<TRIPOS>SUBSTRUCTURE
      1 S1             1
@<TRIPOS>SET
LONE_PAIRS      STATIC     ATOMS    <user>   **** ""
3 42 43 44
DONOR_HYDROGENS      STATIC     ATOMS    <user>   **** ""
2 23 41
ATOM$BLUE        STATIC     ATOMS    COLORGROUP SYSTEM
3 42 43 44
ATOM$RED        STATIC     ATOMS    COLORGROUP SYSTEM
2 23 41
