AV-unprocessed.smi:2751|AV-procd|sdf|10597|dock9
  -GOLD-   2272015 53D 1   1.00000     0.00000
 Structure written by MMmdl.
 35 36  0  0  0  0  0  0  0  0  2 V2000
  147.5098  139.3538  150.4201 O   0  0  0  0  0  0  0  0  0  0  0  0
  146.7944  139.2046  151.4112 C   0  0  0  0  0  0  0  0  0  0  0  0
  146.8025  140.0329  152.4661 N   0  0  0  0  0  0  0  0  0  0  0  0
  147.6396  141.2212  152.5879 C   0  0  0  0  0  0  0  0  0  0  0  0
  149.1304  140.8574  152.6966 C   0  0  0  0  0  0  0  0  0  0  0  0
  149.5813  140.6208  154.1467 C   0  0  2  0  0  0  0  0  0  0  0  0
  149.8199  141.9442  154.8995 C   0  0  0  0  0  0  0  0  0  0  0  0
  150.3396  141.6714  156.3154 C   0  0  0  0  0  0  0  0  0  0  0  0
  151.5687  140.7590  156.2480 C   0  0  0  0  0  0  0  0  0  0  0  0
  151.2542  139.5006  155.4237 C   0  0  0  0  0  0  0  0  0  0  0  0
  150.7956  139.8720  154.1272 O   0  0  0  0  0  0  0  0  0  0  0  0
  145.9152  138.2039  151.5733 N   0  0  0  0  0  0  0  0  0  0  0  0
  145.6506  137.1797  150.6353 C   0  0  0  0  0  0  0  0  0  0  0  0
  146.5121  136.2122  150.3253 N   0  3  0  0  0  0  0  0  0  0  0  0
  145.9327  135.3884  149.3923 C   0  0  0  0  0  0  0  0  0  0  0  0
  144.6833  135.9106  149.1576 C   0  0  0  0  0  0  0  0  0  0  0  0
  144.4912  137.0373  149.9319 O   0  0  0  0  0  0  0  0  0  0  0  0
  146.1820  139.8362  153.2381 H   0  0  0  0  0  0  0  0  0  0  0  0
  147.4684  141.8895  151.7421 H   0  0  0  0  0  0  0  0  0  0  0  0
  147.3222  141.7636  153.4789 H   0  0  0  0  0  0  0  0  0  0  0  0
  149.3382  139.9683  152.0996 H   0  0  0  0  0  0  0  0  0  0  0  0
  149.7283  141.6623  152.2669 H   0  0  0  0  0  0  0  0  0  0  0  0
  148.8114  140.0452  154.6641 H   0  0  0  0  0  0  0  0  0  0  0  0
  150.5449  142.5517  154.3562 H   0  0  0  0  0  0  0  0  0  0  0  0
  148.8985  142.5254  154.9473 H   0  0  0  0  0  0  0  0  0  0  0  0
  150.5866  142.6068  156.8181 H   0  0  0  0  0  0  0  0  0  0  0  0
  149.5585  141.1928  156.9076 H   0  0  0  0  0  0  0  0  0  0  0  0
  152.3997  141.2964  155.7895 H   0  0  0  0  0  0  0  0  0  0  0  0
  151.8894  140.4828  157.2528 H   0  0  0  0  0  0  0  0  0  0  0  0
  152.1504  138.8891  155.3181 H   0  0  0  0  0  0  0  0  0  0  0  0
  150.5053  138.8843  155.9237 H   0  0  0  0  0  0  0  0  0  0  0  0
  147.4447  136.0707  150.6928 H   0  0  0  0  0  0  0  0  0  0  0  0
  146.4555  134.5293  148.9968 H   0  0  0  0  0  0  0  0  0  0  0  0
  143.8623  135.6233  148.5171 H   0  0  0  0  0  0  0  0  0  0  0  0
  145.3837  138.1800  152.4311 H   0  0  0  0  0  0  0  0  0  0  0  0
  1  2  2  0  0  0  0
  2 12  1  0  0  0  0
  2  3  1  0  0  0  0
  3  4  1  0  0  0  0
  3 18  1  0  0  0  0
  4  5  1  0  0  0  0
  4 19  1  0  0  0  0
  4 20  1  0  0  0  0
  5  6  1  0  0  0  0
  5 21  1  0  0  0  0
  5 22  1  0  0  0  0
  6 11  1  0  0  0  0
  6  7  1  0  0  0  0
  6 23  1  0  0  0  0
  7  8  1  0  0  0  0
  7 24  1  0  0  0  0
  7 25  1  0  0  0  0
  8  9  1  0  0  0  0
  8 26  1  0  0  0  0
  8 27  1  0  0  0  0
  9 10  1  0  0  0  0
  9 28  1  0  0  0  0
  9 29  1  0  0  0  0
 10 11  1  0  0  0  0
 10 30  1  0  0  0  0
 10 31  1  0  0  0  0
 12 13  1  0  0  0  0
 12 35  1  0  0  0  0
 13 17  1  0  0  0  0
 13 14  2  0  0  0  0
 14 32  1  0  0  0  0
 14 15  1  0  0  0  0
 15 33  1  0  0  0  0
 15 16  2  0  0  0  0
 16 34  1  0  0  0  0
 16 17  1  0  0  0  0
M  CHG  1  14   1
M  END
> <s_m_source_file>
AV-unprocessed.smi

> <i_m_source_file_index>
2751

> <i_lp_mmshare_version>
43012

> <i_f3d_flags>
0

> <s_epik_input>
bzFbY0hdW2NIXW5jMVtOSF1DKD1PKVtOSF1bQ0gyXVtDSDJdW0NAQEhdMltDSDJdW0NIMl1bQ0gyXVtDSDJdTzI=

> <s_epik_cmdline>
J2VwaWtfcHl0aG9uJywgJy1waCcsICc3LjAnLCAnLXRuJywgJzgnLCAnLW1hJywgJzIwMCcsICctbWV0YWxfYmluZGluZycsICctaW1hZScsICc8aW5maWxlLm1hZT4nLCAnLW9tYWUnLCAnPG91dGZpbGUubWFlPic=

> <r_epik_Ionization_Penalty>
6.63408

> <r_epik_Ionization_Penalty_Charging>
6.57733

> <r_epik_Ionization_Penalty_Neutral>
0.0567487

> <r_epik_State_Penalty>
1.8175

> <r_epik_Charging_Adjusted_Penalty>
8.39483

> <i_epik_Tot_Q>
1

> <i_epik_Tot_abs_Q>
1

> <r_epik_Metal_State_Penalty>
1.83396

> <b_epik_Metal_Only>
0

> <s_lp_Force_Field>
OPLS_2005

> <r_lp_Energy>
16.4857

> <b_lp_Chiralities_Consistent>
1

> <s_lp_Variant>
AV-unprocessed.smi:2751-3

> <Gold.Version>
5.8.1

> <Gold.Id.Protein>
6NUR|6NUR_protein|mol2

> <Gold.PLP.Fitness>
41.4355

> <Gold.PLP.PLP>
-28.4865

> <Gold.PLP.part.hbond>
-3.8430

> <Gold.PLP.part.metal>
0.0000

> <Gold.PLP.part.buried>
2.0703

> <Gold.PLP.part.nonpolar>
-28.4336

> <Gold.PLP.part.repulsive>
1.1232

> <Gold.PLP.ligand.clash>
0.0000

> <Gold.PLP.ligand.torsion>
1.0276

> <Gold.PLP.Chemscore.Hbond>
4.0000

> <Gold.PLP.Chemscore.CHOScore>
1.0000

> <Gold.PLP.Chemscore.Metal>
0.0000

> <Gold.Chemscore.Hbonds>
donor molecule, donor type, donor heavy atom, donor atom, acceptor molecule, acceptor atom, score
      L1  H    14    32       P1  7948  2.00
      P1  H  7954  7966       L1     1  0.30
      P1  H  7989  7998       L1    11  0.70

> <Gold.PLP.Chemscore.Internal.Correction>
0.0042

> <Gold.Rescore>
     Score         DG    S(hbond)    S(metal)    S(lipo)     H(rot)  DE(clash)    DE(int)     intcor
     13.31     -16.60       2.42        0.00      62.11       1.66       2.51       0.79       ----

> <Gold.Chemscore.Fitness>
13.3105

> <Gold.Chemscore.DG>
-16.6034

> <Gold.Chemscore.ZeroCoef>
-5.4800

> <Gold.Chemscore.Hbond>
2.4249

> <Gold.Chemscore.Metal>
0.0000

> <Gold.Chemscore.Lipo>
62.1146

> <Gold.Chemscore.Internal_Hbond>
0.0000

> <Gold.Chemscore.DEClash>
2.5072

> <Gold.Chemscore.DEInternal>
0.7856

> <Gold.Chemscore.Rot>
1.6575

> <Gold.Chemscore.Internal.Correction>
   9.000000E+99

> <Gold.Chemscore.Hbonds>
donor molecule, donor type, donor heavy atom, donor atom, acceptor molecule, acceptor atom, score
      L1  H    14    32       P1  7948  0.60
      P1  H  7954  7966       L1     1  0.26
      P1  H  7989  7998       L1    11  0.12

> <Gold.Chemscore.Hbond.Weighted>
-8.0990

> <Gold.Chemscore.Metal.Weighted>
-0.0000

> <Gold.Chemscore.Lipo.Weighted>
-7.2674

> <Gold.Chemscore.Internal_Hbond.Weighted>
0.0000

> <Gold.Chemscore.DEClash.Weighted>
2.5072

> <Gold.Chemscore.DEInternal.Weighted>
0.7856

> <Gold.Chemscore.Rot.Weighted>
4.2431

> <Gold.Chemscore.Internal.Correction.Weighted>
   9.000000E+99

> <Gold.Protein.RotatedTorsions>
[ 6907 6896 6895 6894 ] final -124.77 input  -60.11 | X-H torsion
[ 7974 7965 7964 7962 ] final   23.98 input  175.53 | X-H torsion
[ 8008 7997 7996 7995 ] final -102.86 input   59.86 | X-H torsion
[ 10167 10162 10161 10158 ] final  -41.99 input  -65.29 | X-H torsion
[ 10718 10713 10712 10709 ] final   17.83 input   66.30 | X-H torsion
[ 10763 10752 10751 10750 ] final -175.64 input  -60.55 | X-H torsion
[ 11005 11000 10999 10996 ] final   19.23 input  -57.11 | X-H torsion

> <Gold.Protein.ActiveResidues>
 VAL166  LYS551  ARG553  GLY616  TRP617  ASP618  TYR619  PRO620  LYS621  CYS622 
 ASP623  PHE694  ASN695  SER759  ASP760  ASP761  ALA762  ILE779  LEU786  VAL792 
 PHE793  MET794  SER795  GLU796  ALA797  LYS798  CYS799  TRP800  GLU811  SER814 

> <Gold.Protein.RotatedAtoms>
  150.8801  133.7384  159.2934 H   0  0  0  0  0  0  0  0  0  0  0  0  # atno 6907 bound_to 6896
  151.4968  135.1058  159.9828 H   0  0  0  0  0  0  0  0  0  0  0  0  # atno 6908 bound_to 6896
  152.4754  133.8080  159.7044 H   0  0  0  0  0  0  0  0  0  0  0  0  # atno 6909 bound_to 6896
  146.1959  139.7668  142.8798 H   0  0  0  0  0  0  0  0  0  0  0  0  # atno 7974 bound_to 7965
  154.8627  140.0426  157.1675 H   0  0  0  0  0  0  0  0  0  0  0  0  # atno 8008 bound_to 7997
  154.8823  140.2974  155.5397 H   0  0  0  0  0  0  0  0  0  0  0  0  # atno 8009 bound_to 7997
  156.2998  140.2409  156.3827 H   0  0  0  0  0  0  0  0  0  0  0  0  # atno 8010 bound_to 7997
  140.6984  143.3063  151.3144 H   0  0  0  0  0  0  0  0  0  0  0  0  # atno 10167 bound_to 10162
  157.0878  130.6415  149.5841 H   0  0  0  0  0  0  0  0  0  0  0  0  # atno 10718 bound_to 10713
  154.5819  135.2837  155.0724 H   0  0  0  0  0  0  0  0  0  0  0  0  # atno 10763 bound_to 10752
  154.2057  135.6417  153.5104 H   0  0  0  0  0  0  0  0  0  0  0  0  # atno 10764 bound_to 10752
  153.0091  135.5479  154.6476 H   0  0  0  0  0  0  0  0  0  0  0  0  # atno 10765 bound_to 10752
  140.4160  134.1569  155.7670 H   0  0  0  0  0  0  0  0  0  0  0  0  # atno 11005 bound_to 11000
  145.3645  141.0332  143.3266 LP  0  0  0  0  0  0  0  0  0  0  0  0  # atno 17320 bound_to 7965
  144.8579  139.5221  143.6826 LP  0  0  0  0  0  0  0  0  0  0  0  0  # atno 17321 bound_to 7965
  139.6470  144.0433  152.2598 LP  0  0  0  0  0  0  0  0  0  0  0  0  # atno 17342 bound_to 10162
  139.9957  144.6330  150.7775 LP  0  0  0  0  0  0  0  0  0  0  0  0  # atno 17343 bound_to 10162
  155.9906  130.4958  150.7264 LP  0  0  0  0  0  0  0  0  0  0  0  0  # atno 17370 bound_to 10713
  157.4747  131.0896  151.0604 LP  0  0  0  0  0  0  0  0  0  0  0  0  # atno 17371 bound_to 10713
  141.1803  133.8428  157.1282 LP  0  0  0  0  0  0  0  0  0  0  0  0  # atno 17394 bound_to 11000
  140.0234  134.9935  157.0637 LP  0  0  0  0  0  0  0  0  0  0  0  0  # atno 17395 bound_to 11000

$$$$
