#       Name:                AV-unprocessed.smi:867
#       Creating user name   scv26
#       Creation time:       Fri Mar 27 01:47:42 2020


#       File generated by GOLD software.
#

@<TRIPOS>MOLECULE
AV-unprocessed.smi:867
    56    59     1
SMALL
NO_CHARGES


@<TRIPOS>ATOM
      1 ****         1.4833   0.8723  -2.4430 O.2            1 S1                 0.0000
      2 ****         0.8283  -0.1229  -2.1313 C.2            1 S1                 0.0000
      3 ****         1.3551  -1.3591  -2.1355 N.am           1 S1                 0.0000
      4 ****         2.7363  -1.6836  -2.4716 C.3            1 S1                 0.0000
      5 ****         3.6726  -1.4714  -1.2716 C.3            1 S1                 0.0000
      6 ****         5.1079  -1.8314  -1.5999 C.ar           1 S1                 0.0000
      7 ****         5.9943  -0.8667  -2.1210 C.ar           1 S1                 0.0000
      8 ****         7.3172  -1.2497  -2.4147 C.ar           1 S1                 0.0000
      9 ****         7.6979  -2.5852  -2.1748 C.ar           1 S1                 0.0000
     10 ****         6.8571  -3.5179  -1.6778 N.ar           1 S1                 0.0000
     11 ****         5.5903  -3.1421  -1.3985 C.ar           1 S1                 0.0000
     12 ****        -0.4938  -0.0752  -1.8337 N.am           1 S1                 0.0000
     13 ****        -1.2429  -1.0830  -1.0737 C.3            1 S1                 0.0000
     14 ****        -1.5348  -0.5476   0.3423 C.3            1 S1                 0.0000
     15 ****        -2.2298   0.7735   0.3146 N.4            1 S1                 1.0000
     16 ****        -2.4986   1.3653   1.6619 C.3            1 S1                 0.0000
     17 ****        -3.5293   2.5235   1.5849 C.3            1 S1                 0.0000
     18 ****        -4.6073   2.1218   2.6050 C.3            1 S1                 0.0000
     19 ****        -4.0388   2.2404   4.0283 C.3            1 S1                 0.0000
     20 ****        -3.0647   1.0519   4.0961 C.3            1 S1                 0.0000
     21 ****        -3.1839   0.4232   2.6928 C.3            1 S1                 0.0000
     22 ****        -4.6684   0.6137   2.4032 C.3            1 S1                 0.0000
     23 ****        -1.5404   1.7453  -0.5849 C.3            1 S1                 0.0000
     24 ****        -1.2796   1.1507  -1.9782 C.3            1 S1                 0.0000
     25 ****         0.7510  -2.1331  -1.9010 H              1 S1                 0.0000
     26 ****         2.7698  -2.7262  -2.7893 H              1 S1                 0.0000
     27 ****         3.0657  -1.0888  -3.3254 H              1 S1                 0.0000
     28 ****         3.6370  -0.4323  -0.9415 H              1 S1                 0.0000
     29 ****         3.3398  -2.0748  -0.4258 H              1 S1                 0.0000
     30 ****         5.6675   0.1481  -2.2949 H              1 S1                 0.0000
     31 ****         8.0231  -0.5377  -2.8155 H              1 S1                 0.0000
     32 ****         8.7044  -2.9129  -2.3891 H              1 S1                 0.0000
     33 ****         4.9421  -3.9115  -1.0054 H              1 S1                 0.0000
     34 ****        -2.1804  -1.2906  -1.5919 H              1 S1                 0.0000
     35 ****        -0.7348  -2.0444  -0.9980 H              1 S1                 0.0000
     36 ****        -2.1466  -1.2942   0.8440 H              1 S1                 0.0000
     37 ****        -0.6049  -0.4559   0.9059 H              1 S1                 0.0000
     38 ****        -1.5493   1.7192   2.0680 H              1 S1                 0.0000
     39 ****        -3.0826   3.4923   1.8118 H              1 S1                 0.0000
     40 ****        -3.9892   2.5956   0.5984 H              1 S1                 0.0000
     41 ****        -5.5549   2.6437   2.4680 H              1 S1                 0.0000
     42 ****        -3.5438   3.1974   4.1976 H              1 S1                 0.0000
     43 ****        -4.8277   2.1335   4.7739 H              1 S1                 0.0000
     44 ****        -2.0454   1.3605   4.3315 H              1 S1                 0.0000
     45 ****        -3.3814   0.3449   4.8642 H              1 S1                 0.0000
     46 ****        -2.8470  -0.6107   2.7028 H              1 S1                 0.0000
     47 ****        -5.3187   0.1082   3.1196 H              1 S1                 0.0000
     48 ****        -4.9539   0.3209   1.3913 H              1 S1                 0.0000
     49 ****        -2.1298   2.6547  -0.6973 H              1 S1                 0.0000
     50 ****        -0.5925   2.0438  -0.1338 H              1 S1                 0.0000
     51 ****        -0.7899   1.8887  -2.6158 H              1 S1                 0.0000
     52 ****        -2.2251   0.9183  -2.4705 H              1 S1                 0.0000
     53 ****        -3.1329   0.5958  -0.1012 H              1 S1                 0.0000
     54 ****         2.4419   0.7762  -2.7112 LP             1 S1                 0.0000
     55 ****         1.0567   1.7766  -2.4279 LP             1 S1                 0.0000
     56 ****         7.1629  -4.4571  -1.5215 LP             1 S1                 0.0000
@<TRIPOS>BOND
    1    1    2 2     
    2    2    3 am    
    3    2   12 am    
    4    3    4 1     
    5    3   25 1     
    6    4    5 1     
    7    4   26 1     
    8    4   27 1     
    9    5    6 1     
   10    5   28 1     
   11    5   29 1     
   12    6   11 ar    
   13    6    7 ar    
   14    7    8 ar    
   15    7   30 1     
   16    8    9 ar    
   17    8   31 1     
   18    9   10 ar    
   19    9   32 1     
   20   10   11 ar    
   21   11   33 1     
   22   12   24 1     
   23   12   13 1     
   24   13   14 1     
   25   13   34 1     
   26   13   35 1     
   27   14   15 1     
   28   14   36 1     
   29   14   37 1     
   30   15   16 1     
   31   15   23 1     
   32   15   53 1     
   33   16   21 1     
   34   16   17 1     
   35   16   38 1     
   36   17   18 1     
   37   17   39 1     
   38   17   40 1     
   39   18   22 1     
   40   18   19 1     
   41   18   41 1     
   42   19   20 1     
   43   19   42 1     
   44   19   43 1     
   45   20   21 1     
   46   20   44 1     
   47   20   45 1     
   48   21   22 1     
   49   21   46 1     
   50   22   47 1     
   51   22   48 1     
   52   23   24 1     
   53   23   49 1     
   54   23   50 1     
   55   24   51 1     
   56   24   52 1     
   57    1   54 1     
   58    1   55 1     
   59   10   56 1     
@<TRIPOS>SUBSTRUCTURE
      1 S1             1
@<TRIPOS>SET
LONE_PAIRS      STATIC     ATOMS    <user>   **** ""
3 54 55 56
DONOR_HYDROGENS      STATIC     ATOMS    <user>   **** ""
2 25 53
ATOM$BLUE        STATIC     ATOMS    COLORGROUP SYSTEM
3 54 55 56
ATOM$RED        STATIC     ATOMS    COLORGROUP SYSTEM
2 25 53
