AV-unprocessed.smi:1508|AV-procd|sdf|6087|dock5
  -GOLD-   22720 6213D 1   1.00000     0.00000
 Structure written by MMmdl.
 38 39  0  0  0  0  0  0  0  0  2 V2000
  149.8384  140.4433  154.9009 C   0  0  0  0  0  0  0  0  0  0  0  0
  149.1871  139.0522  154.8795 C   0  0  0  0  0  0  0  0  0  0  0  0
  150.1901  137.8687  154.9556 C   0  0  1  0  0  0  0  0  0  0  0  0
  150.8484  137.7437  156.3592 C   0  0  0  0  0  0  0  0  0  0  0  0
  149.8928  137.8633  157.4601 N   0  0  0  0  0  0  0  0  0  0  0  0
  149.5492  136.8819  158.3064 C   0  0  0  0  0  0  0  0  0  0  0  0
  150.0185  135.7461  158.2542 O   0  0  0  0  0  0  0  0  0  0  0  0
  148.6440  137.3081  159.2016 N   0  0  0  0  0  0  0  0  0  0  0  0
  148.0544  136.5744  160.2615 C   0  0  0  0  0  0  0  0  0  0  0  0
  147.5780  137.2582  161.3082 N   0  0  0  0  0  0  0  0  0  0  0  0
  147.0299  136.4200  162.2713 N   0  0  0  0  0  0  0  0  0  0  0  0
  147.1141  135.1353  161.9123 C   0  0  0  0  0  0  0  0  0  0  0  0
  147.8743  134.8204  160.3625 S   0  0  0  0  0  0  0  0  0  0  0  0
  149.5527  136.5787  154.5493 N   0  3  0  0  0  0  0  0  0  0  0  0
  150.3817  135.3622  154.6976 C   0  0  0  0  0  0  0  0  0  0  0  0
  149.3901  134.2049  154.6971 C   0  0  0  0  0  0  0  0  0  0  0  0
  148.1982  134.7713  155.4590 C   0  0  0  0  0  0  0  0  0  0  0  0
  148.2529  136.2843  155.2066 C   0  0  0  0  0  0  0  0  0  0  0  0
  149.0901  141.2177  154.7318 H   0  0  0  0  0  0  0  0  0  0  0  0
  150.5924  140.5382  154.1192 H   0  0  0  0  0  0  0  0  0  0  0  0
  150.3128  140.6633  155.8560 H   0  0  0  0  0  0  0  0  0  0  0  0
  148.4503  138.9786  155.6795 H   0  0  0  0  0  0  0  0  0  0  0  0
  148.6210  139.0030  153.9503 H   0  0  0  0  0  0  0  0  0  0  0  0
  150.9833  138.0753  154.2350 H   0  0  0  0  0  0  0  0  0  0  0  0
  151.3162  136.7645  156.4583 H   0  0  0  0  0  0  0  0  0  0  0  0
  151.6719  138.4472  156.4806 H   0  0  0  0  0  0  0  0  0  0  0  0
  149.4412  138.7593  157.5723 H   0  0  0  0  0  0  0  0  0  0  0  0
  148.3425  138.2680  159.1219 H   0  0  0  0  0  0  0  0  0  0  0  0
  146.7260  134.3676  162.5652 H   0  0  0  0  0  0  0  0  0  0  0  0
  151.1132  135.2640  153.8948 H   0  0  0  0  0  0  0  0  0  0  0  0
  150.9154  135.3918  155.6493 H   0  0  0  0  0  0  0  0  0  0  0  0
  149.0973  133.9689  153.6733 H   0  0  0  0  0  0  0  0  0  0  0  0
  149.7934  133.2988  155.1504 H   0  0  0  0  0  0  0  0  0  0  0  0
  147.2539  134.3271  155.1423 H   0  0  0  0  0  0  0  0  0  0  0  0
  148.3150  134.5721  156.5254 H   0  0  0  0  0  0  0  0  0  0  0  0
  148.1515  136.8135  156.1553 H   0  0  0  0  0  0  0  0  0  0  0  0
  147.4389  136.6083  154.5576 H   0  0  0  0  0  0  0  0  0  0  0  0
  149.3539  136.6504  153.5616 H   0  0  0  0  0  0  0  0  0  0  0  0
  1  2  1  0  0  0  0
  1 19  1  0  0  0  0
  1 20  1  0  0  0  0
  1 21  1  0  0  0  0
  2  3  1  0  0  0  0
  2 22  1  0  0  0  0
  2 23  1  0  0  0  0
  3  4  1  0  0  0  0
  3 14  1  0  0  0  0
  3 24  1  0  0  0  0
  4  5  1  0  0  0  0
  4 25  1  0  0  0  0
  4 26  1  0  0  0  0
  5  6  1  0  0  0  0
  5 27  1  0  0  0  0
  6  7  2  0  0  0  0
  6  8  1  0  0  0  0
  8  9  1  0  0  0  0
  8 28  1  0  0  0  0
  9 13  1  0  0  0  0
  9 10  2  0  0  0  0
 10 11  1  0  0  0  0
 11 12  2  0  0  0  0
 12 13  1  0  0  0  0
 12 29  1  0  0  0  0
 14 18  1  0  0  0  0
 14 15  1  0  0  0  0
 14 38  1  0  0  0  0
 15 16  1  0  0  0  0
 15 30  1  0  0  0  0
 15 31  1  0  0  0  0
 16 17  1  0  0  0  0
 16 32  1  0  0  0  0
 16 33  1  0  0  0  0
 17 18  1  0  0  0  0
 17 34  1  0  0  0  0
 17 35  1  0  0  0  0
 18 36  1  0  0  0  0
 18 37  1  0  0  0  0
M  CHG  1  14   1
M  END
> <s_m_source_file>
AV-unprocessed.smi

> <i_m_source_file_index>
1508

> <i_lp_mmshare_version>
43012

> <i_f3d_flags>
0

> <s_epik_input>
W0NIMl0xW0NIMl1bQ0gyXVtDSDJdTjFbQ0BIXShbQ0gyXVtDSDNdKVtDSDJdW05IXUMoPU8pW05IXWMybm5bY0hdczI=

> <s_epik_cmdline>
J2VwaWtfcHl0aG9uJywgJy1waCcsICc3LjAnLCAnLXRuJywgJzgnLCAnLW1hJywgJzIwMCcsICctbWV0YWxfYmluZGluZycsICctaW1hZScsICc8aW5maWxlLm1hZT4nLCAnLW9tYWUnLCAnPG91dGZpbGUubWFlPic=

> <r_lp_tautomer_probability>
1

> <r_epik_Ionization_Penalty>
0.00193711

> <r_epik_Ionization_Penalty_Charging>
0.00115997

> <r_epik_Ionization_Penalty_Neutral>
0.000777142

> <r_epik_State_Penalty>
-0

> <r_epik_Charging_Adjusted_Penalty>
0.00115997

> <i_epik_Tot_Q>
1

> <i_epik_Tot_abs_Q>
1

> <r_epik_Metal_State_Penalty>
0.264283

> <b_epik_Metal_Only>
0

> <s_lp_Force_Field>
OPLS_2005

> <r_lp_Energy>
37.6611

> <b_lp_Chiralities_Consistent>
1

> <s_lp_Variant>
AV-unprocessed.smi:1508-2

> <Gold.Version>
5.8.1

> <Gold.Id.Protein>
6NUR|6NUR_protein|mol2

> <Gold.PLP.Fitness>
38.1421

> <Gold.PLP.PLP>
-24.8793

> <Gold.PLP.part.hbond>
-4.0000

> <Gold.PLP.part.metal>
0.0000

> <Gold.PLP.part.buried>
-3.6377

> <Gold.PLP.part.nonpolar>
-17.1008

> <Gold.PLP.part.repulsive>
0.2647

> <Gold.PLP.ligand.clash>
0.0000

> <Gold.PLP.ligand.torsion>
0.5250

> <Gold.PLP.Chemscore.Hbond>
4.7520

> <Gold.PLP.Chemscore.CHOScore>
0.0000

> <Gold.PLP.Chemscore.Metal>
0.0000

> <Gold.Chemscore.Hbonds>
donor molecule, donor type, donor heavy atom, donor atom, acceptor molecule, acceptor atom, score
      L1  H    14    38       P1  7948  2.00
      P1  H  6896  6909       L1     7  0.96
      P1  H  6931  6943       L1    10  0.91
      P1  H  6934  6947       L1    10  0.86

> <Gold.PLP.Chemscore.Internal.Correction>
0.0569

> <Gold.Rescore>
     Score         DG    S(hbond)    S(metal)    S(lipo)     H(rot)  DE(clash)    DE(int)     intcor
     16.92     -17.50       3.25        0.00      51.34       1.89       0.08       0.50       ----

> <Gold.Chemscore.Fitness>
16.9201

> <Gold.Chemscore.DG>
-17.4980

> <Gold.Chemscore.ZeroCoef>
-5.4800

> <Gold.Chemscore.Hbond>
3.2522

> <Gold.Chemscore.Metal>
0.0000

> <Gold.Chemscore.Lipo>
51.3399

> <Gold.Chemscore.Internal_Hbond>
0.0000

> <Gold.Chemscore.DEClash>
0.0793

> <Gold.Chemscore.DEInternal>
0.4985

> <Gold.Chemscore.Rot>
1.8950

> <Gold.Chemscore.Internal.Correction>
   9.000000E+99

> <Gold.Chemscore.Hbonds>
donor molecule, donor type, donor heavy atom, donor atom, acceptor molecule, acceptor atom, score
      L1  H    14    38       P1  7948  0.90
      P1  H  6896  6909       L1     7  0.92
      P1  H  6931  6943       L1    10  0.39
      P1  H  6934  6947       L1    10  0.76

> <Gold.Chemscore.Hbond.Weighted>
-10.8623

> <Gold.Chemscore.Metal.Weighted>
-0.0000

> <Gold.Chemscore.Lipo.Weighted>
-6.0068

> <Gold.Chemscore.Internal_Hbond.Weighted>
0.0000

> <Gold.Chemscore.DEClash.Weighted>
0.0793

> <Gold.Chemscore.DEInternal.Weighted>
0.4985

> <Gold.Chemscore.Rot.Weighted>
4.8511

> <Gold.Chemscore.Internal.Correction.Weighted>
   9.000000E+99

> <Gold.Protein.RotatedTorsions>
[ 6907 6896 6895 6894 ] final   52.91 input  -60.11 | X-H torsion
[ 7974 7965 7964 7962 ] final  -13.30 input  175.53 | X-H torsion
[ 8008 7997 7996 7995 ] final -152.12 input   59.86 | X-H torsion
[ 10167 10162 10161 10158 ] final -101.67 input  -65.29 | X-H torsion
[ 10718 10713 10712 10709 ] final  175.15 input   66.30 | X-H torsion
[ 10763 10752 10751 10750 ] final  112.38 input  -60.55 | X-H torsion
[ 11005 11000 10999 10996 ] final -137.70 input  -57.11 | X-H torsion

> <Gold.Protein.ActiveResidues>
 VAL166  LYS551  ARG553  GLY616  TRP617  ASP618  TYR619  PRO620  LYS621  CYS622 
 ASP623  PHE694  ASN695  SER759  ASP760  ASP761  ALA762  ILE779  LEU786  VAL792 
 PHE793  MET794  SER795  GLU796  ALA797  LYS798  CYS799  TRP800  GLU811  SER814 

> <Gold.Protein.RotatedAtoms>
  152.3282  134.7293  160.0296 H   0  0  0  0  0  0  0  0  0  0  0  0  # atno 6907 bound_to 6896
  151.7718  133.3336  159.3455 H   0  0  0  0  0  0  0  0  0  0  0  0  # atno 6908 bound_to 6896
  150.7408  134.5943  159.6048 H   0  0  0  0  0  0  0  0  0  0  0  0  # atno 6909 bound_to 6896
  146.2119  140.3184  142.8388 H   0  0  0  0  0  0  0  0  0  0  0  0  # atno 7974 bound_to 7965
  155.6501  140.0711  157.2590 H   0  0  0  0  0  0  0  0  0  0  0  0  # atno 8008 bound_to 7997
  154.4164  140.1735  156.1715 H   0  0  0  0  0  0  0  0  0  0  0  0  # atno 8009 bound_to 7997
  155.9784  140.3356  155.6643 H   0  0  0  0  0  0  0  0  0  0  0  0  # atno 8010 bound_to 7997
  140.2389  143.3553  152.0820 H   0  0  0  0  0  0  0  0  0  0  0  0  # atno 10167 bound_to 10162
  156.9391  130.9995  151.2972 H   0  0  0  0  0  0  0  0  0  0  0  0  # atno 10718 bound_to 10713
  153.4770  135.3688  155.2421 H   0  0  0  0  0  0  0  0  0  0  0  0  # atno 10763 bound_to 10752
  154.8756  135.3945  154.3745 H   0  0  0  0  0  0  0  0  0  0  0  0  # atno 10764 bound_to 10752
  153.4342  135.7083  153.6275 H   0  0  0  0  0  0  0  0  0  0  0  0  # atno 10765 bound_to 10752
  140.8686  134.2079  157.4664 H   0  0  0  0  0  0  0  0  0  0  0  0  # atno 11005 bound_to 11000
  144.8938  140.7557  143.5910 LP  0  0  0  0  0  0  0  0  0  0  0  0  # atno 17320 bound_to 7965
  145.3107  139.1819  143.4640 LP  0  0  0  0  0  0  0  0  0  0  0  0  # atno 17321 bound_to 7965
  139.5084  144.6849  151.5912 LP  0  0  0  0  0  0  0  0  0  0  0  0  # atno 17342 bound_to 10162
  140.6129  143.9403  150.6466 LP  0  0  0  0  0  0  0  0  0  0  0  0  # atno 17343 bound_to 10162
  157.5797  130.8367  149.8505 LP  0  0  0  0  0  0  0  0  0  0  0  0  # atno 17370 bound_to 10713
  156.0412  130.3738  150.1430 LP  0  0  0  0  0  0  0  0  0  0  0  0  # atno 17371 bound_to 10713
  139.8711  134.9764  156.4918 LP  0  0  0  0  0  0  0  0  0  0  0  0  # atno 17394 bound_to 11000
  140.8599  133.8067  155.9254 LP  0  0  0  0  0  0  0  0  0  0  0  0  # atno 17395 bound_to 11000

$$$$
