#       Name:                AV-unprocessed.smi:1033
#       Creating user name   scv26
#       Creation time:       Fri Mar 27 02:50:45 2020


#       File generated by GOLD software.
#

@<TRIPOS>MOLECULE
AV-unprocessed.smi:1033
    62    64     1
SMALL
NO_CHARGES


@<TRIPOS>ATOM
      1 ****        -7.1359   1.2566   3.0406 C.3            1 S1                 0.0000
      2 ****        -5.9451   1.0200   2.1273 C.ar           1 S1                 0.0000
      3 ****        -6.1030   0.1491   1.0253 C.ar           1 S1                 0.0000
      4 ****        -4.9966  -0.0455   0.2070 C.ar           1 S1                 0.0000
      5 ****        -4.8307  -0.8272  -0.9384 N.pl3          1 S1                 1.0000
      6 ****        -3.5559  -0.6943  -1.3990 C.2            1 S1                 0.0000
      7 ****        -2.9043   0.1571  -0.5608 N.pl3          1 S1                 0.0000
      8 ****        -1.5189   0.6432  -0.5969 C.3            1 S1                 0.0000
      9 ****        -0.5959  -0.1071   0.3867 C.3            1 S1                 0.0000
     10 ****        -0.6001  -1.4994   0.1407 O.3            1 S1                 0.0000
     11 ****         0.8521   0.4275   0.4377 C.3            1 S1                 0.0000
     12 ****         1.4838   0.7574  -0.8480 N.3            1 S1                 0.0000
     13 ****         2.7456   1.4789  -0.6843 C.3            1 S1                 0.0000
     14 ****         3.8883   0.5938  -0.1436 C.3            1 S1                 0.0000
     15 ****         4.0980  -0.5839  -1.0252 N.4            1 S1                 1.0000
     16 ****         5.2292  -1.4330  -0.5732 C.3            1 S1                 0.0000
     17 ****         5.7962  -2.3271  -1.6944 C.3            1 S1                 0.0000
     18 ****         6.4310  -1.5276  -2.8420 C.3            1 S1                 0.0000
     19 ****         6.7899  -3.1609  -1.1371 O.3            1 S1                 0.0000
     20 ****         2.8269  -1.3334  -1.2128 C.3            1 S1                 0.0000
     21 ****         1.7230  -0.3891  -1.7280 C.3            1 S1                 0.0000
     22 ****        -3.7646   0.5906   0.4533 C.ar           1 S1                 0.0000
     23 ****        -3.5915   1.4523   1.5335 C.ar           1 S1                 0.0000
     24 ****        -4.7051   1.6634   2.3777 C.ar           1 S1                 0.0000
     25 ****        -4.5473   2.5988   3.5644 C.3            1 S1                 0.0000
     26 ****        -8.0007   0.6702   2.7286 H              1 S1                 0.0000
     27 ****        -7.4241   2.3079   3.0277 H              1 S1                 0.0000
     28 ****        -6.8963   0.9750   4.0662 H              1 S1                 0.0000
     29 ****        -7.0440  -0.3433   0.8276 H              1 S1                 0.0000
     30 ****        -3.1377  -1.1783  -2.2700 H              1 S1                 0.0000
     31 ****        -1.1657   0.5283  -1.6221 H              1 S1                 0.0000
     32 ****        -1.5227   1.7140  -0.3896 H              1 S1                 0.0000
     33 ****        -1.0059   0.0044   1.3907 H              1 S1                 0.0000
     34 ****        -1.4850  -1.8171   0.2351 H              1 S1                 0.0000
     35 ****         0.8184   1.3431   1.0297 H              1 S1                 0.0000
     36 ****         1.4722  -0.2590   1.0135 H              1 S1                 0.0000
     37 ****         3.0454   1.8921  -1.6485 H              1 S1                 0.0000
     38 ****         2.6001   2.3379  -0.0282 H              1 S1                 0.0000
     39 ****         4.8052   1.1826  -0.0992 H              1 S1                 0.0000
     40 ****         3.6795   0.2640   0.8749 H              1 S1                 0.0000
     41 ****         6.0329  -0.7955  -0.2004 H              1 S1                 0.0000
     42 ****         4.9035  -2.0394   0.2740 H              1 S1                 0.0000
     43 ****         5.0222  -2.9823  -2.0926 H              1 S1                 0.0000
     44 ****         5.6949  -0.8942  -3.3374 H              1 S1                 0.0000
     45 ****         6.8491  -2.1929  -3.5983 H              1 S1                 0.0000
     46 ****         7.2356  -0.8845  -2.4834 H              1 S1                 0.0000
     47 ****         7.4938  -2.6206  -0.8111 H              1 S1                 0.0000
     48 ****         2.9658  -2.1346  -1.9373 H              1 S1                 0.0000
     49 ****         2.5278  -1.8076  -0.2772 H              1 S1                 0.0000
     50 ****         0.8013  -0.9447  -1.8931 H              1 S1                 0.0000
     51 ****         2.0126  -0.0209  -2.7133 H              1 S1                 0.0000
     52 ****        -2.6476   1.9417   1.7236 H              1 S1                 0.0000
     53 ****        -3.5416   3.0177   3.6116 H              1 S1                 0.0000
     54 ****        -4.7310   2.0677   4.4986 H              1 S1                 0.0000
     55 ****        -5.2503   3.4290   3.4933 H              1 S1                 0.0000
     56 ****         4.3564  -0.2138  -1.9287 H              1 S1                 0.0000
     57 ****        -5.5344  -1.4074  -1.3771 H              1 S1                 0.0000
     58 ****        -0.0041  -1.9601   0.7984 LP             1 S1                 0.0000
     59 ****        -0.2741  -1.6791  -0.7874 LP             1 S1                 0.0000
     60 ****         0.8036   1.3436  -1.2882 LP             1 S1                 0.0000
     61 ****         7.1400  -3.7815  -1.8387 LP             1 S1                 0.0000
     62 ****         6.3994  -3.6932  -0.3860 LP             1 S1                 0.0000
@<TRIPOS>BOND
    1    1    2 1     
    2    1   26 1     
    3    1   27 1     
    4    1   28 1     
    5    2   24 ar    
    6    2    3 ar    
    7    3    4 ar    
    8    3   29 1     
    9    4   22 ar    
   10    4    5 1     
   11    5    6 2     
   12    5   57 1     
   13    6    7 1     
   14    6   30 1     
   15    7    8 1     
   16    7   22 1     
   17    8    9 1     
   18    8   31 1     
   19    8   32 1     
   20    9   10 1     
   21    9   11 1     
   22    9   33 1     
   23   10   34 1     
   24   11   12 1     
   25   11   35 1     
   26   11   36 1     
   27   12   21 1     
   28   12   13 1     
   29   13   14 1     
   30   13   37 1     
   31   13   38 1     
   32   14   15 1     
   33   14   39 1     
   34   14   40 1     
   35   15   16 1     
   36   15   20 1     
   37   15   56 1     
   38   16   17 1     
   39   16   41 1     
   40   16   42 1     
   41   17   18 1     
   42   17   19 1     
   43   17   43 1     
   44   18   44 1     
   45   18   45 1     
   46   18   46 1     
   47   19   47 1     
   48   20   21 1     
   49   20   48 1     
   50   20   49 1     
   51   21   50 1     
   52   21   51 1     
   53   22   23 ar    
   54   23   24 ar    
   55   23   52 1     
   56   24   25 1     
   57   25   53 1     
   58   25   54 1     
   59   25   55 1     
   60   10   58 1     
   61   10   59 1     
   62   12   60 1     
   63   19   61 1     
   64   19   62 1     
@<TRIPOS>SUBSTRUCTURE
      1 S1             1
@<TRIPOS>SET
LONE_PAIRS      STATIC     ATOMS    <user>   **** ""
5 58 59 60 61 62
DONOR_HYDROGENS      STATIC     ATOMS    <user>   **** ""
4 57 34 56 47
ATOM$BLUE        STATIC     ATOMS    COLORGROUP SYSTEM
5 58 59 60 61 62
ATOM$RED        STATIC     ATOMS    COLORGROUP SYSTEM
4 57 34 56 47
