AV-unprocessed.smi:2552|AV-procd|sdf|10016|dock9
  -GOLD-   2272014 63D 1   1.00000     0.00000
 Structure written by MMmdl.
 34 36  0  0  0  0  0  0  0  0  1 V2000
  145.0699  142.6265  155.6704 C   0  0  0  0  0  0  0  0  0  0  0  0
  146.3638  142.0506  155.3113 N   0  0  0  0  0  0  0  0  0  0  0  0
  146.4645  141.6167  153.9841 N   0  0  0  0  0  0  0  0  0  0  0  0
  147.5579  141.0900  153.5281 C   0  0  0  0  0  0  0  0  0  0  0  0
  148.6923  140.9578  154.4374 C   0  0  0  0  0  0  0  0  0  0  0  0
  150.0187  140.4559  154.3320 C   0  0  0  0  0  0  0  0  0  0  0  0
  150.6852  140.5615  155.4802 N   0  0  0  0  0  0  0  0  0  0  0  0
  149.8176  141.1257  156.3601 N   0  0  0  0  0  0  0  0  0  0  0  0
  150.2333  141.3794  157.7309 C   0  0  0  0  0  0  0  0  0  0  0  0
  151.2752  142.5111  157.8397 C   0  0  1  0  0  0  0  0  0  0  0  0
  150.6534  143.7641  157.6225 O   0  0  0  0  0  0  0  0  0  0  0  0
  152.0116  142.4516  159.1713 C   0  0  0  0  0  0  0  0  0  0  0  0
  151.8962  143.5109  160.0997 C   0  0  0  0  0  0  0  0  0  0  0  0
  152.5697  143.4526  161.3350 C   0  0  0  0  0  0  0  0  0  0  0  0
  153.3603  142.3325  161.6536 C   0  0  0  0  0  0  0  0  0  0  0  0
  153.4743  141.2703  160.7369 C   0  0  0  0  0  0  0  0  0  0  0  0
  152.8016  141.3263  159.5004 C   0  0  0  0  0  0  0  0  0  0  0  0
  152.9175  140.2910  158.6343 F   0  0  0  0  0  0  0  0  0  0  0  0
  148.6161  141.3684  155.7271 C   0  0  0  0  0  0  0  0  0  0  0  0
  147.3630  141.9695  156.2409 C   0  0  0  0  0  0  0  0  0  0  0  0
  147.2575  142.3551  157.4053 O   0  0  0  0  0  0  0  0  0  0  0  0
  145.1887  143.6566  156.0091 H   0  0  0  0  0  0  0  0  0  0  0  0
  144.6040  142.0540  156.4736 H   0  0  0  0  0  0  0  0  0  0  0  0
  144.3780  142.6355  154.8265 H   0  0  0  0  0  0  0  0  0  0  0  0
  147.6340  140.7526  152.4946 H   0  0  0  0  0  0  0  0  0  0  0  0
  150.5145  140.0254  153.4745 H   0  0  0  0  0  0  0  0  0  0  0  0
  149.3522  141.6177  158.3293 H   0  0  0  0  0  0  0  0  0  0  0  0
  150.6377  140.4528  158.1397 H   0  0  0  0  0  0  0  0  0  0  0  0
  152.0048  142.3979  157.0376 H   0  0  0  0  0  0  0  0  0  0  0  0
  150.0914  143.6924  156.8664 H   0  0  0  0  0  0  0  0  0  0  0  0
  151.2875  144.3731  159.8694 H   0  0  0  0  0  0  0  0  0  0  0  0
  152.4775  144.2667  162.0388 H   0  0  0  0  0  0  0  0  0  0  0  0
  153.8767  142.2867  162.6012 H   0  0  0  0  0  0  0  0  0  0  0  0
  154.0773  140.4088  160.9829 H   0  0  0  0  0  0  0  0  0  0  0  0
  1  2  1  0  0  0  0
  1 22  1  0  0  0  0
  1 23  1  0  0  0  0
  1 24  1  0  0  0  0
  2 20  1  0  0  0  0
  2  3  1  0  0  0  0
  3  4  2  0  0  0  0
  4  5  1  0  0  0  0
  4 25  1  0  0  0  0
  5 19  2  0  0  0  0
  5  6  1  0  0  0  0
  6  7  2  0  0  0  0
  6 26  1  0  0  0  0
  7  8  1  0  0  0  0
  8  9  1  0  0  0  0
  8 19  1  0  0  0  0
  9 10  1  0  0  0  0
  9 27  1  0  0  0  0
  9 28  1  0  0  0  0
 10 11  1  0  0  0  0
 10 12  1  0  0  0  0
 10 29  1  0  0  0  0
 11 30  1  0  0  0  0
 12 17  1  0  0  0  0
 12 13  2  0  0  0  0
 13 14  1  0  0  0  0
 13 31  1  0  0  0  0
 14 15  2  0  0  0  0
 14 32  1  0  0  0  0
 15 16  1  0  0  0  0
 15 33  1  0  0  0  0
 16 17  2  0  0  0  0
 16 34  1  0  0  0  0
 17 18  1  0  0  0  0
 19 20  1  0  0  0  0
 20 21  2  0  0  0  0
M  END
> <s_m_source_file>
AV-unprocessed.smi

> <i_m_source_file_index>
2552

> <i_lp_mmshare_version>
43012

> <i_f3d_flags>
0

> <s_epik_input>
W2NIXTFubihbQ0gzXSljKD1PKWMoYzEyKW4obltjSF0yKVtDSDJdW0NASF0oW09IXSljM1tjSF1bY0hdW2NIXVtjSF1jM0Y=

> <s_epik_cmdline>
J2VwaWtfcHl0aG9uJywgJy1waCcsICc3LjAnLCAnLXRuJywgJzgnLCAnLW1hJywgJzIwMCcsICctbWV0YWxfYmluZGluZycsICctaW1hZScsICc8aW5maWxlLm1hZT4nLCAnLW9tYWUnLCAnPG91dGZpbGUubWFlPic=

> <r_lp_tautomer_probability>
1

> <r_epik_Ionization_Penalty>
6.28011e-06

> <r_epik_Ionization_Penalty_Charging>
1.65421e-10

> <r_epik_Ionization_Penalty_Neutral>
6.27995e-06

> <r_epik_State_Penalty>
-0

> <r_epik_Charging_Adjusted_Penalty>
1.65421e-10

> <i_epik_Tot_Q>
0

> <i_epik_Tot_abs_Q>
0

> <r_epik_Metal_State_Penalty>
-0

> <b_epik_Metal_Only>
0

> <s_lp_Force_Field>
OPLS_2005

> <r_lp_Energy>
28.1215

> <b_lp_Chiralities_Consistent>
1

> <s_lp_Variant>
AV-unprocessed.smi:2552-2

> <Gold.Version>
5.8.1

> <Gold.Id.Protein>
6NUR|6NUR_protein|mol2

> <Gold.PLP.Fitness>
49.1805

> <Gold.PLP.PLP>
-41.5453

> <Gold.PLP.part.hbond>
-1.5776

> <Gold.PLP.part.metal>
0.0000

> <Gold.PLP.part.buried>
-2.5758

> <Gold.PLP.part.nonpolar>
-37.7300

> <Gold.PLP.part.repulsive>
0.4104

> <Gold.PLP.ligand.clash>
0.0000

> <Gold.PLP.ligand.torsion>
0.2690

> <Gold.PLP.Chemscore.Hbond>
0.8480

> <Gold.PLP.Chemscore.CHOScore>
1.8688

> <Gold.PLP.Chemscore.Metal>
0.0000

> <Gold.Chemscore.Hbonds>
donor molecule, donor type, donor heavy atom, donor atom, acceptor molecule, acceptor atom, score
      L1  H    11    30       P1  8028  0.85
      L1  C     4    25       P1  7957  1.00
      L1  C     6    26       P1  7957  0.91

> <Gold.PLP.Chemscore.Internal.Correction>
0.0230

> <Gold.Rescore>
     Score         DG    S(hbond)    S(metal)    S(lipo)     H(rot)  DE(clash)    DE(int)     intcor
     14.84     -15.43       0.83        0.00     105.60       2.02       0.10       0.49       ----

> <Gold.Chemscore.Fitness>
14.8397

> <Gold.Chemscore.DG>
-15.4264

> <Gold.Chemscore.ZeroCoef>
-5.4800

> <Gold.Chemscore.Hbond>
0.8255

> <Gold.Chemscore.Metal>
0.0000

> <Gold.Chemscore.Lipo>
105.6039

> <Gold.Chemscore.Internal_Hbond>
0.0000

> <Gold.Chemscore.DEClash>
0.1016

> <Gold.Chemscore.DEInternal>
0.4850

> <Gold.Chemscore.Rot>
2.0181

> <Gold.Chemscore.Internal.Correction>
   9.000000E+99

> <Gold.Chemscore.Hbonds>
donor molecule, donor type, donor heavy atom, donor atom, acceptor molecule, acceptor atom, score
      L1  H    11    30       P1  8028  0.83

> <Gold.Chemscore.Hbond.Weighted>
-2.7571

> <Gold.Chemscore.Metal.Weighted>
-0.0000

> <Gold.Chemscore.Lipo.Weighted>
-12.3557

> <Gold.Chemscore.Internal_Hbond.Weighted>
0.0000

> <Gold.Chemscore.DEClash.Weighted>
0.1016

> <Gold.Chemscore.DEInternal.Weighted>
0.4850

> <Gold.Chemscore.Rot.Weighted>
5.1663

> <Gold.Chemscore.Internal.Correction.Weighted>
   9.000000E+99

> <Gold.Protein.RotatedTorsions>
[ 6907 6896 6895 6894 ] final  144.01 input  -60.11 | X-H torsion
[ 7974 7965 7964 7962 ] final -108.51 input  175.53 | X-H torsion
[ 8008 7997 7996 7995 ] final  -59.15 input   59.86 | X-H torsion
[ 10167 10162 10161 10158 ] final  -42.65 input  -65.29 | X-H torsion
[ 10718 10713 10712 10709 ] final -119.10 input   66.30 | X-H torsion
[ 10763 10752 10751 10750 ] final -103.35 input  -60.55 | X-H torsion
[ 11005 11000 10999 10996 ] final   75.00 input  -57.11 | X-H torsion

> <Gold.Protein.ActiveResidues>
 VAL166  LYS551  ARG553  GLY616  TRP617  ASP618  TYR619  PRO620  LYS621  CYS622 
 ASP623  PHE694  ASN695  SER759  ASP760  ASP761  ALA762  ILE779  LEU786  VAL792 
 PHE793  MET794  SER795  GLU796  ALA797  LYS798  CYS799  TRP800  GLU811  SER814 

> <Gold.Protein.RotatedAtoms>
  152.1991  133.4828  159.5048 H   0  0  0  0  0  0  0  0  0  0  0  0  # atno 6907 bound_to 6896
  150.6966  134.1614  159.4187 H   0  0  0  0  0  0  0  0  0  0  0  0  # atno 6908 bound_to 6896
  151.9531  135.0159  160.0594 H   0  0  0  0  0  0  0  0  0  0  0  0  # atno 6909 bound_to 6896
  145.1919  140.9018  143.3419 H   0  0  0  0  0  0  0  0  0  0  0  0  # atno 7974 bound_to 7965
  154.4339  140.1068  156.6070 H   0  0  0  0  0  0  0  0  0  0  0  0  # atno 8008 bound_to 7997
  155.5850  140.3491  155.4532 H   0  0  0  0  0  0  0  0  0  0  0  0  # atno 8009 bound_to 7997
  156.0289  140.1256  157.0268 H   0  0  0  0  0  0  0  0  0  0  0  0  # atno 8010 bound_to 7997
  140.6962  143.3026  151.3239 H   0  0  0  0  0  0  0  0  0  0  0  0  # atno 10167 bound_to 10162
  156.1155  130.6283  150.9374 H   0  0  0  0  0  0  0  0  0  0  0  0  # atno 10718 bound_to 10713
  154.7801  135.4826  153.9827 H   0  0  0  0  0  0  0  0  0  0  0  0  # atno 10763 bound_to 10752
  153.1482  135.6786  153.8929 H   0  0  0  0  0  0  0  0  0  0  0  0  # atno 10764 bound_to 10752
  153.8582  135.3158  155.3414 H   0  0  0  0  0  0  0  0  0  0  0  0  # atno 10765 bound_to 10752
  139.9364  134.7480  156.1217 H   0  0  0  0  0  0  0  0  0  0  0  0  # atno 11005 bound_to 11000
  145.0032  139.3578  143.6157 LP  0  0  0  0  0  0  0  0  0  0  0  0  # atno 17320 bound_to 7965
  146.3434  139.9264  142.8759 LP  0  0  0  0  0  0  0  0  0  0  0  0  # atno 17321 bound_to 7965
  139.6419  144.0522  152.2561 LP  0  0  0  0  0  0  0  0  0  0  0  0  # atno 17342 bound_to 10162
  140.0031  144.6279  150.7713 LP  0  0  0  0  0  0  0  0  0  0  0  0  # atno 17343 bound_to 10162
  157.6338  131.0918  150.8388 LP  0  0  0  0  0  0  0  0  0  0  0  0  # atno 17370 bound_to 10713
  156.8492  130.5074  149.5313 LP  0  0  0  0  0  0  0  0  0  0  0  0  # atno 17371 bound_to 10713
  141.0980  133.6688  156.2688 LP  0  0  0  0  0  0  0  0  0  0  0  0  # atno 17394 bound_to 11000
  140.6064  134.5502  157.5526 LP  0  0  0  0  0  0  0  0  0  0  0  0  # atno 17395 bound_to 11000

$$$$
