#       Name:                AV-unprocessed.smi:238
#       Creating user name   scv26
#       Creation time:       Thu Mar 26 20:41:25 2020


#       File generated by GOLD software.
#

@<TRIPOS>MOLECULE
AV-unprocessed.smi:238
    61    63     1
SMALL
NO_CHARGES


@<TRIPOS>ATOM
      1 ****        -3.1135   1.4986   0.5656 C.3            1 S1                 0.0000
      2 ****        -2.5882   1.8410   1.8426 O.3            1 S1                 0.0000
      3 ****        -2.9435   1.0218   2.9622 C.3            1 S1                 0.0000
      4 ****        -2.5774   1.8607   4.2000 C.3            1 S1                 0.0000
      5 ****        -4.4649   0.7570   2.9969 C.3            1 S1                 0.0000
      6 ****        -2.1831  -0.3357   2.9207 C.3            1 S1                 0.0000
      7 ****        -0.7267  -0.2467   3.0583 N.pl3          1 S1                 0.0000
      8 ****        -0.1110  -0.2804   4.3819 C.3            1 S1                 0.0000
      9 ****        -0.0077   0.2728   2.0324 C.ar           1 S1                 0.0000
     10 ****         0.8360   1.3091   2.2797 N.ar           1 S1                 0.0000
     11 ****         1.5281   1.8678   1.2834 C.ar           1 S1                 0.0000
     12 ****         1.5353   1.5444  -0.0108 N.ar           1 S1                 0.0000
     13 ****         0.7119   0.4867  -0.2629 C.ar           1 S1                 0.0000
     14 ****        -0.0906  -0.2005   0.6918 C.ar           1 S1                 0.0000
     15 ****        -0.7945  -1.2209   0.0645 N.2            1 S1                 0.0000
     16 ****        -0.4508  -1.1240  -1.1901 C.2            1 S1                 0.0000
     17 ****         0.4772  -0.1455  -1.4730 N.pl3          1 S1                 0.0000
     18 ****         1.0120   0.2063  -2.7617 C.3            1 S1                 0.0000
     19 ****         1.0996  -0.8162  -3.9028 C.3            1 S1                 0.0000
     20 ****         2.6073  -1.0051  -3.6280 C.3            1 S1                 0.0000
     21 ****         2.9638  -2.1730  -2.6857 C.3            1 S1                 0.0000
     22 ****         2.6251  -3.4211  -3.2559 O.3            1 S1                 0.0000
     23 ****         3.5044  -1.0723  -4.8752 C.3            1 S1                 0.0000
     24 ****         4.8570  -0.8224  -4.5500 O.3            1 S1                 0.0000
     25 ****         2.5245   0.3781  -2.9488 C.3            1 S1                 0.0000
     26 ****        -2.6031   2.0854  -0.1980 H              1 S1                 0.0000
     27 ****        -4.1761   1.7315   0.4979 H              1 S1                 0.0000
     28 ****        -2.9728   0.4471   0.3226 H              1 S1                 0.0000
     29 ****        -2.7213   1.2968   5.1221 H              1 S1                 0.0000
     30 ****        -3.1943   2.7578   4.2617 H              1 S1                 0.0000
     31 ****        -1.5414   2.1965   4.1661 H              1 S1                 0.0000
     32 ****        -4.7521   0.2507   3.9191 H              1 S1                 0.0000
     33 ****        -4.7898   0.1207   2.1734 H              1 S1                 0.0000
     34 ****        -5.0317   1.6872   2.9446 H              1 S1                 0.0000
     35 ****        -2.5456  -0.9580   3.7394 H              1 S1                 0.0000
     36 ****        -2.4405  -0.8923   2.0218 H              1 S1                 0.0000
     37 ****         0.8502  -0.7937   4.3370 H              1 S1                 0.0000
     38 ****        -0.7418  -0.8178   5.0903 H              1 S1                 0.0000
     39 ****         0.0578   0.7224   4.7739 H              1 S1                 0.0000
     40 ****         2.1665   2.6928   1.5628 H              1 S1                 0.0000
     41 ****        -0.8684  -1.7788  -1.9400 H              1 S1                 0.0000
     42 ****         0.4700   1.1005  -3.0720 H              1 S1                 0.0000
     43 ****         0.5014  -1.7186  -3.7824 H              1 S1                 0.0000
     44 ****         0.9018  -0.3592  -4.8740 H              1 S1                 0.0000
     45 ****         4.0256  -2.1768  -2.4388 H              1 S1                 0.0000
     46 ****         2.4368  -2.0886  -1.7354 H              1 S1                 0.0000
     47 ****         2.8705  -4.1036  -2.6499 H              1 S1                 0.0000
     48 ****         3.4318  -2.0409  -5.3705 H              1 S1                 0.0000
     49 ****         3.1982  -0.3295  -5.6125 H              1 S1                 0.0000
     50 ****         5.3699  -0.8699  -5.3424 H              1 S1                 0.0000
     51 ****         2.7648   1.1999  -3.6257 H              1 S1                 0.0000
     52 ****         3.1025   0.4564  -2.0278 H              1 S1                 0.0000
     53 ****        -2.8912   2.7716   2.0481 LP             1 S1                 0.0000
     54 ****        -1.5912   1.8241   1.7674 LP             1 S1                 0.0000
     55 ****         0.9391   1.6551   3.2123 LP             1 S1                 0.0000
     56 ****         2.0754   2.0171  -0.7071 LP             1 S1                 0.0000
     57 ****        -1.4217  -1.8796   0.4801 LP             1 S1                 0.0000
     58 ****         3.1167  -3.5427  -4.1182 LP             1 S1                 0.0000
     59 ****         1.6403  -3.4585  -3.4255 LP             1 S1                 0.0000
     60 ****         5.1794  -1.5085  -3.8979 LP             1 S1                 0.0000
     61 ****         4.9441   0.0882  -4.1460 LP             1 S1                 0.0000
@<TRIPOS>BOND
    1    1    2 1     
    2    1   26 1     
    3    1   27 1     
    4    1   28 1     
    5    2    3 1     
    6    3    4 1     
    7    3    5 1     
    8    3    6 1     
    9    4   29 1     
   10    4   30 1     
   11    4   31 1     
   12    5   32 1     
   13    5   33 1     
   14    5   34 1     
   15    6    7 1     
   16    6   35 1     
   17    6   36 1     
   18    7    8 1     
   19    7    9 1     
   20    8   37 1     
   21    8   38 1     
   22    8   39 1     
   23    9   14 ar    
   24    9   10 ar    
   25   10   11 ar    
   26   11   12 ar    
   27   11   40 1     
   28   12   13 ar    
   29   13   17 1     
   30   13   14 ar    
   31   14   15 1     
   32   15   16 2     
   33   16   17 1     
   34   16   41 1     
   35   17   18 1     
   36   18   25 1     
   37   18   19 1     
   38   18   42 1     
   39   19   20 1     
   40   19   43 1     
   41   19   44 1     
   42   20   21 1     
   43   20   23 1     
   44   20   25 1     
   45   21   22 1     
   46   21   45 1     
   47   21   46 1     
   48   22   47 1     
   49   23   24 1     
   50   23   48 1     
   51   23   49 1     
   52   24   50 1     
   53   25   51 1     
   54   25   52 1     
   55    2   53 1     
   56    2   54 1     
   57   10   55 1     
   58   12   56 1     
   59   15   57 1     
   60   22   58 1     
   61   22   59 1     
   62   24   60 1     
   63   24   61 1     
@<TRIPOS>SUBSTRUCTURE
      1 S1             1
@<TRIPOS>SET
LONE_PAIRS      STATIC     ATOMS    <user>   **** ""
9 53 54 55 56 57 58 59 60 61
DONOR_HYDROGENS      STATIC     ATOMS    <user>   **** ""
2 47 50
ATOM$BLUE        STATIC     ATOMS    COLORGROUP SYSTEM
9 53 54 55 56 57 58 59 60 61
ATOM$RED        STATIC     ATOMS    COLORGROUP SYSTEM
2 47 50
