AV-unprocessed.smi:1928|AV-procd|sdf|7798|dock2
  -GOLD-   22720 9543D 1   1.00000     0.00000
 Structure written by MMmdl.
 34 35  0  0  0  0  0  0  0  0  1 V2000
  146.2718  143.0469  158.2767 C   0  0  0  0  0  0  0  0  0  0  0  0
  146.5078  142.7868  156.8284 C   0  0  0  0  0  0  0  0  0  0  0  0
  147.6356  142.2587  156.3460 N   0  0  0  0  0  0  0  0  0  0  0  0
  147.6106  142.1111  154.9548 C   0  0  0  0  0  0  0  0  0  0  0  0
  148.7935  141.5237  154.2368 C   0  0  0  0  0  0  0  0  0  0  0  0
  149.9912  141.3691  155.1792 C   0  0  0  0  0  0  0  0  0  0  0  0
  150.6228  140.3130  155.1999 O   0  0  0  0  0  0  0  0  0  0  0  0
  150.2824  142.4190  155.9645 N   0  0  0  0  0  0  0  0  0  0  0  0
  151.3820  142.4874  156.9208 C   0  0  0  0  0  0  0  0  0  0  0  0
  150.9276  141.9646  158.2986 C   0  0  0  0  0  0  0  0  0  0  0  0
  152.0372  142.1142  159.3521 C   0  0  0  0  0  0  0  0  0  0  0  0
  152.5270  143.5678  159.4457 C   0  0  0  0  0  0  0  0  0  0  0  0
  152.9902  144.0857  158.0753 C   0  0  0  0  0  0  0  0  0  0  0  0
  151.8808  143.9410  157.0212 C   0  0  0  0  0  0  0  0  0  0  0  0
  146.4395  142.5502  154.3872 C   0  0  0  0  0  0  0  0  0  0  0  0
  145.3225  143.1513  155.5809 S   0  0  0  0  0  0  0  0  0  0  0  0
  147.0108  142.5260  158.8865 H   0  0  0  0  0  0  0  0  0  0  0  0
  145.2784  142.6995  158.5613 H   0  0  0  0  0  0  0  0  0  0  0  0
  146.3404  144.1159  158.4785 H   0  0  0  0  0  0  0  0  0  0  0  0
  148.5462  140.5453  153.8235 H   0  0  0  0  0  0  0  0  0  0  0  0
  149.0778  142.1517  153.3912 H   0  0  0  0  0  0  0  0  0  0  0  0
  149.7035  143.2421  155.8823 H   0  0  0  0  0  0  0  0  0  0  0  0
  152.2106  141.8708  156.5662 H   0  0  0  0  0  0  0  0  0  0  0  0
  150.0427  142.5116  158.6275 H   0  0  0  0  0  0  0  0  0  0  0  0
  150.6329  140.9171  158.2246 H   0  0  0  0  0  0  0  0  0  0  0  0
  151.6729  141.7811  160.3243 H   0  0  0  0  0  0  0  0  0  0  0  0
  152.8734  141.4625  159.0953 H   0  0  0  0  0  0  0  0  0  0  0  0
  151.7232  144.2012  159.8236 H   0  0  0  0  0  0  0  0  0  0  0  0
  153.3424  143.6403  160.1658 H   0  0  0  0  0  0  0  0  0  0  0  0
  153.2927  145.1303  158.1548 H   0  0  0  0  0  0  0  0  0  0  0  0
  153.8729  143.5314  157.7541 H   0  0  0  0  0  0  0  0  0  0  0  0
  152.2504  144.2764  156.0513 H   0  0  0  0  0  0  0  0  0  0  0  0
  151.0504  144.5996  157.2800 H   0  0  0  0  0  0  0  0  0  0  0  0
  146.1650  142.5518  153.3427 H   0  0  0  0  0  0  0  0  0  0  0  0
  1  2  1  0  0  0  0
  1 17  1  0  0  0  0
  1 18  1  0  0  0  0
  1 19  1  0  0  0  0
  2 16  1  0  0  0  0
  2  3  2  0  0  0  0
  3  4  1  0  0  0  0
  4  5  1  0  0  0  0
  4 15  2  0  0  0  0
  5  6  1  0  0  0  0
  5 20  1  0  0  0  0
  5 21  1  0  0  0  0
  6  7  2  0  0  0  0
  6  8  1  0  0  0  0
  8  9  1  0  0  0  0
  8 22  1  0  0  0  0
  9 14  1  0  0  0  0
  9 10  1  0  0  0  0
  9 23  1  0  0  0  0
 10 11  1  0  0  0  0
 10 24  1  0  0  0  0
 10 25  1  0  0  0  0
 11 12  1  0  0  0  0
 11 26  1  0  0  0  0
 11 27  1  0  0  0  0
 12 13  1  0  0  0  0
 12 28  1  0  0  0  0
 12 29  1  0  0  0  0
 13 14  1  0  0  0  0
 13 30  1  0  0  0  0
 13 31  1  0  0  0  0
 14 32  1  0  0  0  0
 14 33  1  0  0  0  0
 15 16  1  0  0  0  0
 15 34  1  0  0  0  0
M  END
> <s_m_source_file>
AV-unprocessed.smi

> <i_m_source_file_index>
1928

> <i_lp_mmshare_version>
43012

> <i_f3d_flags>
0

> <s_epik_input>
W0NIM11jMW5jKFtjSF1zMSlbQ0gyXUMoPU8pW05IXVtDSF0yW0NIMl1bQ0gyXVtDSDJdW0NIMl1bQ0gyXTI=

> <s_epik_cmdline>
J2VwaWtfcHl0aG9uJywgJy1waCcsICc3LjAnLCAnLXRuJywgJzgnLCAnLW1hJywgJzIwMCcsICctbWV0YWxfYmluZGluZycsICctaW1hZScsICc8aW5maWxlLm1hZT4nLCAnLW9tYWUnLCAnPG91dGZpbGUubWFlPic=

> <r_lp_tautomer_probability>
1

> <r_epik_Ionization_Penalty>
6.58409e-05

> <r_epik_Ionization_Penalty_Charging>
0

> <r_epik_Ionization_Penalty_Neutral>
6.58409e-05

> <r_epik_State_Penalty>
-0

> <r_epik_Charging_Adjusted_Penalty>
0

> <i_epik_Tot_Q>
0

> <i_epik_Tot_abs_Q>
0

> <r_epik_Metal_State_Penalty>
-0

> <b_epik_Metal_Only>
0

> <s_lp_Force_Field>
OPLS_2005

> <r_lp_Energy>
7.15539

> <b_lp_Chiralities_Consistent>
1

> <s_lp_Variant>
AV-unprocessed.smi:1928-1

> <Gold.Version>
5.8.1

> <Gold.Id.Protein>
6NUR|6NUR_protein|mol2

> <Gold.PLP.Fitness>
40.0103

> <Gold.PLP.PLP>
-35.2288

> <Gold.PLP.part.hbond>
-2.0000

> <Gold.PLP.part.metal>
0.0000

> <Gold.PLP.part.buried>
-2.7518

> <Gold.PLP.part.nonpolar>
-30.8168

> <Gold.PLP.part.repulsive>
0.3198

> <Gold.PLP.ligand.clash>
0.0000

> <Gold.PLP.ligand.torsion>
0.6110

> <Gold.PLP.Chemscore.Hbond>
2.0000

> <Gold.PLP.Chemscore.CHOScore>
0.0000

> <Gold.PLP.Chemscore.Metal>
0.0000

> <Gold.Chemscore.Hbonds>
donor molecule, donor type, donor heavy atom, donor atom, acceptor molecule, acceptor atom, score
      L1  H     8    22       P1  8028  1.00
      P1  H  7989  7998       L1     7  0.47

> <Gold.PLP.Chemscore.Internal.Correction>
0.0035

> <Gold.Rescore>
     Score         DG    S(hbond)    S(metal)    S(lipo)     H(rot)  DE(clash)    DE(int)     intcor
     17.28     -17.68       1.66        0.00      84.66       1.28       0.04       0.36       ----

> <Gold.Chemscore.Fitness>
17.2805

> <Gold.Chemscore.DG>
-17.6772

> <Gold.Chemscore.ZeroCoef>
-5.4800

> <Gold.Chemscore.Hbond>
1.6643

> <Gold.Chemscore.Metal>
0.0000

> <Gold.Chemscore.Lipo>
84.6585

> <Gold.Chemscore.Internal_Hbond>
0.0000

> <Gold.Chemscore.DEClash>
0.0388

> <Gold.Chemscore.DEInternal>
0.3578

> <Gold.Chemscore.Rot>
1.2761

> <Gold.Chemscore.Internal.Correction>
   9.000000E+99

> <Gold.Chemscore.Hbonds>
donor molecule, donor type, donor heavy atom, donor atom, acceptor molecule, acceptor atom, score
      L1  H     8    22       P1  8028  1.00
      P1  H  7989  7998       L1     7  0.02

> <Gold.Chemscore.Hbond.Weighted>
-5.5588

> <Gold.Chemscore.Metal.Weighted>
-0.0000

> <Gold.Chemscore.Lipo.Weighted>
-9.9050

> <Gold.Chemscore.Internal_Hbond.Weighted>
0.0000

> <Gold.Chemscore.DEClash.Weighted>
0.0388

> <Gold.Chemscore.DEInternal.Weighted>
0.3578

> <Gold.Chemscore.Rot.Weighted>
3.2667

> <Gold.Chemscore.Internal.Correction.Weighted>
   9.000000E+99

> <Gold.Protein.RotatedTorsions>
[ 6907 6896 6895 6894 ] final  148.20 input  -60.11 | X-H torsion
[ 7974 7965 7964 7962 ] final   -4.33 input  175.53 | X-H torsion
[ 8008 7997 7996 7995 ] final   39.70 input   59.86 | X-H torsion
[ 10167 10162 10161 10158 ] final   -8.69 input  -65.29 | X-H torsion
[ 10718 10713 10712 10709 ] final  101.99 input   66.30 | X-H torsion
[ 10763 10752 10751 10750 ] final  112.63 input  -60.55 | X-H torsion
[ 11005 11000 10999 10996 ] final    5.25 input  -57.11 | X-H torsion

> <Gold.Protein.ActiveResidues>
 VAL166  LYS551  ARG553  GLY616  TRP617  ASP618  TYR619  PRO620  LYS621  CYS622 
 ASP623  PHE694  ASN695  SER759  ASP760  ASP761  ALA762  ILE779  LEU786  VAL792 
 PHE793  MET794  SER795  GLU796  ALA797  LYS798  CYS799  TRP800  GLU811  SER814 

> <Gold.Protein.RotatedAtoms>
  152.1446  133.4484  159.4783 H   0  0  0  0  0  0  0  0  0  0  0  0  # atno 6907 bound_to 6896
  150.6889  134.2264  159.4426 H   0  0  0  0  0  0  0  0  0  0  0  0  # atno 6908 bound_to 6896
  152.0156  134.9851  160.0620 H   0  0  0  0  0  0  0  0  0  0  0  0  # atno 6909 bound_to 6896
  146.2374  140.1856  142.8332 H   0  0  0  0  0  0  0  0  0  0  0  0  # atno 7974 bound_to 7965
  155.2410  140.3345  155.4292 H   0  0  0  0  0  0  0  0  0  0  0  0  # atno 8008 bound_to 7997
  156.2256  140.1828  156.7417 H   0  0  0  0  0  0  0  0  0  0  0  0  # atno 8009 bound_to 7997
  154.5893  140.0640  156.9201 H   0  0  0  0  0  0  0  0  0  0  0  0  # atno 8010 bound_to 7997
  140.7066  143.5940  150.8864 H   0  0  0  0  0  0  0  0  0  0  0  0  # atno 10167 bound_to 10162
  157.6814  131.0741  150.5337 H   0  0  0  0  0  0  0  0  0  0  0  0  # atno 10718 bound_to 10713
  153.4807  135.3680  155.2440 H   0  0  0  0  0  0  0  0  0  0  0  0  # atno 10763 bound_to 10752
  154.8755  135.3953  154.3704 H   0  0  0  0  0  0  0  0  0  0  0  0  # atno 10764 bound_to 10752
  153.4307  135.7082  153.6298 H   0  0  0  0  0  0  0  0  0  0  0  0  # atno 10765 bound_to 10752
  140.5728  134.0086  155.8015 H   0  0  0  0  0  0  0  0  0  0  0  0  # atno 11005 bound_to 11000
  144.9899  140.8537  143.5345 LP  0  0  0  0  0  0  0  0  0  0  0  0  # atno 17320 bound_to 7965
  145.1860  139.2326  143.5267 LP  0  0  0  0  0  0  0  0  0  0  0  0  # atno 17321 bound_to 7965
  139.9666  143.6104  152.2986 LP  0  0  0  0  0  0  0  0  0  0  0  0  # atno 17342 bound_to 10162
  139.6676  144.7662  151.1844 LP  0  0  0  0  0  0  0  0  0  0  0  0  # atno 17343 bound_to 10162
  156.5646  130.4264  149.6047 LP  0  0  0  0  0  0  0  0  0  0  0  0  # atno 17370 bound_to 10713
  156.2792  130.7061  151.1880 LP  0  0  0  0  0  0  0  0  0  0  0  0  # atno 17371 bound_to 10713
  141.1045  133.9715  157.3021 LP  0  0  0  0  0  0  0  0  0  0  0  0  # atno 17394 bound_to 11000
  139.9353  135.0197  156.8537 LP  0  0  0  0  0  0  0  0  0  0  0  0  # atno 17395 bound_to 11000

$$$$
