AV-unprocessed.smi:1830|AV-procd|sdf|7439|dock7
  -GOLD-   22720 9123D 1   1.00000     0.00000
 Structure written by MMmdl.
 53 56  0  0  0  0  0  0  0  0  2 V2000
  149.3806  134.7134  158.0018 O   0  0  0  0  0  0  0  0  0  0  0  0
  148.6178  133.7518  158.0935 C   0  0  0  0  0  0  0  0  0  0  0  0
  148.5152  132.7956  157.1600 N   0  0  0  0  0  0  0  0  0  0  0  0
  149.2873  132.7427  155.9227 C   0  0  0  0  0  0  0  0  0  0  0  0
  148.7413  133.7174  154.8633 C   0  0  1  0  0  0  0  0  0  0  0  0
  148.0202  132.9702  153.7161 C   0  0  0  0  0  0  0  0  0  0  0  0
  147.4339  133.9712  152.8058 N   0  3  1  0  0  0  0  0  0  0  0  0
  146.7081  133.4959  151.6154 C   0  0  0  0  0  0  0  0  0  0  0  0
  145.7507  134.6491  151.2518 C   0  0  0  0  0  0  0  0  0  0  0  0
  145.8812  135.6766  152.3913 C   0  0  0  0  0  0  0  0  0  0  0  0
  146.5138  134.8624  153.5152 C   0  0  2  0  0  0  0  0  0  0  0  0
  147.2866  135.6095  154.6088 C   0  0  0  0  0  0  0  0  0  0  0  0
  147.8312  134.6280  155.4915 O   0  0  0  0  0  0  0  0  0  0  0  0
  147.8030  133.5049  159.1324 N   0  0  0  0  0  0  0  0  0  0  0  0
  147.7111  134.2192  160.3598 C   0  0  0  0  0  0  0  0  0  0  0  0
  147.8022  135.6320  160.4023 C   0  0  0  0  0  0  0  0  0  0  0  0
  147.6412  136.2972  161.6299 C   0  0  0  0  0  0  0  0  0  0  0  0
  147.3765  135.5259  162.7737 C   0  0  0  0  0  0  0  0  0  0  0  0
  147.2713  134.1823  162.7474 N   0  0  0  0  0  0  0  0  0  0  0  0
  147.4384  133.5249  161.5735 C   0  0  0  0  0  0  0  0  0  0  0  0
  147.3317  132.1154  161.6107 N   0  0  0  0  0  0  0  0  0  0  0  0
  148.5110  131.2780  161.4174 C   0  0  0  0  0  0  0  0  0  0  0  0
  147.9617  129.8817  161.1406 C   0  0  0  0  0  0  0  0  0  0  0  0
  146.6967  130.1827  160.3427 C   0  0  0  0  0  0  0  0  0  0  0  0
  146.1869  131.4930  160.9522 C   0  0  0  0  0  0  0  0  0  0  0  0
  147.8591  132.0451  157.3201 H   0  0  0  0  0  0  0  0  0  0  0  0
  150.3143  133.0110  156.1715 H   0  0  0  0  0  0  0  0  0  0  0  0
  149.3224  131.7249  155.5301 H   0  0  0  0  0  0  0  0  0  0  0  0
  149.5736  134.2881  154.4465 H   0  0  0  0  0  0  0  0  0  0  0  0
  148.7208  132.3408  153.1663 H   0  0  0  0  0  0  0  0  0  0  0  0
  147.2364  132.3208  154.1100 H   0  0  0  0  0  0  0  0  0  0  0  0
  147.3986  133.2535  150.8072 H   0  0  0  0  0  0  0  0  0  0  0  0
  146.1386  132.5976  151.8584 H   0  0  0  0  0  0  0  0  0  0  0  0
  146.0047  135.0980  150.2911 H   0  0  0  0  0  0  0  0  0  0  0  0
  144.7276  134.2779  151.1802 H   0  0  0  0  0  0  0  0  0  0  0  0
  146.5493  136.4843  152.0886 H   0  0  0  0  0  0  0  0  0  0  0  0
  144.9259  136.1183  152.6762 H   0  0  0  0  0  0  0  0  0  0  0  0
  145.7324  134.2584  153.9823 H   0  0  0  0  0  0  0  0  0  0  0  0
  148.0818  136.2277  154.1893 H   0  0  0  0  0  0  0  0  0  0  0  0
  146.6211  136.2666  155.1690 H   0  0  0  0  0  0  0  0  0  0  0  0
  147.2916  132.6350  159.1008 H   0  0  0  0  0  0  0  0  0  0  0  0
  147.9709  136.2168  159.5112 H   0  0  0  0  0  0  0  0  0  0  0  0
  147.7066  137.3734  161.6900 H   0  0  0  0  0  0  0  0  0  0  0  0
  147.2395  135.9999  163.7343 H   0  0  0  0  0  0  0  0  0  0  0  0
  149.0901  131.6167  160.5572 H   0  0  0  0  0  0  0  0  0  0  0  0
  149.1582  131.2930  162.2948 H   0  0  0  0  0  0  0  0  0  0  0  0
  148.6665  129.2461  160.6038 H   0  0  0  0  0  0  0  0  0  0  0  0
  147.7030  129.3883  162.0785 H   0  0  0  0  0  0  0  0  0  0  0  0
  146.9554  130.3419  159.2949 H   0  0  0  0  0  0  0  0  0  0  0  0
  145.9616  129.3791  160.3891 H   0  0  0  0  0  0  0  0  0  0  0  0
  145.4244  131.2801  161.7015 H   0  0  0  0  0  0  0  0  0  0  0  0
  145.7457  132.1407  160.1932 H   0  0  0  0  0  0  0  0  0  0  0  0
  148.1892  134.5506  152.4680 H   0  0  0  0  0  0  0  0  0  0  0  0
  1  2  2  0  0  0  0
  2  3  1  0  0  0  0
  2 14  1  0  0  0  0
  3  4  1  0  0  0  0
  3 26  1  0  0  0  0
  4  5  1  0  0  0  0
  4 27  1  0  0  0  0
  4 28  1  0  0  0  0
  5 13  1  0  0  0  0
  5  6  1  0  0  0  0
  5 29  1  0  0  0  0
  6  7  1  0  0  0  0
  6 30  1  0  0  0  0
  6 31  1  0  0  0  0
  7 11  1  0  0  0  0
  7  8  1  0  0  0  0
  7 53  1  0  0  0  0
  8  9  1  0  0  0  0
  8 32  1  0  0  0  0
  8 33  1  0  0  0  0
  9 10  1  0  0  0  0
  9 34  1  0  0  0  0
  9 35  1  0  0  0  0
 10 11  1  0  0  0  0
 10 36  1  0  0  0  0
 10 37  1  0  0  0  0
 11 12  1  0  0  0  0
 11 38  1  0  0  0  0
 12 13  1  0  0  0  0
 12 39  1  0  0  0  0
 12 40  1  0  0  0  0
 14 15  1  0  0  0  0
 14 41  1  0  0  0  0
 15 20  1  0  0  0  0
 15 16  2  0  0  0  0
 16 17  1  0  0  0  0
 16 42  1  0  0  0  0
 17 18  2  0  0  0  0
 17 43  1  0  0  0  0
 18 19  1  0  0  0  0
 18 44  1  0  0  0  0
 19 20  2  0  0  0  0
 20 21  1  0  0  0  0
 21 25  1  0  0  0  0
 21 22  1  0  0  0  0
 22 23  1  0  0  0  0
 22 45  1  0  0  0  0
 22 46  1  0  0  0  0
 23 24  1  0  0  0  0
 23 47  1  0  0  0  0
 23 48  1  0  0  0  0
 24 25  1  0  0  0  0
 24 49  1  0  0  0  0
 24 50  1  0  0  0  0
 25 51  1  0  0  0  0
 25 52  1  0  0  0  0
M  CHG  1   7   1
M  END
> <s_m_source_file>
AV-unprocessed.smi

> <i_m_source_file_index>
1830

> <i_lp_mmshare_version>
43012

> <i_f3d_flags>
0

> <s_epik_input>
W0NIMl0xW0NIMl1bQ0gyXVtDQEhdKE4xMilbQ0gyXU9bQ0BASF0oW0NIMl0yKVtDSDJdW05IXUMoPU8pW05IXWMzW2NIXVtjSF1bY0hdbmMzTjRbQ0gyXVtDSDJdW0NIMl1bQ0gyXTQ=

> <s_epik_cmdline>
J2VwaWtfcHl0aG9uJywgJy1waCcsICc3LjAnLCAnLXRuJywgJzgnLCAnLW1hJywgJzIwMCcsICctbWV0YWxfYmluZGluZycsICctaW1hZScsICc8aW5maWxlLm1hZT4nLCAnLW9tYWUnLCAnPG91dGZpbGUubWFlPic=

> <r_lp_tautomer_probability>
1

> <r_epik_Ionization_Penalty>
0.193547

> <r_epik_Ionization_Penalty_Charging>
0.10673

> <r_epik_Ionization_Penalty_Neutral>
0.0868166

> <r_epik_State_Penalty>
0.173595

> <r_epik_Charging_Adjusted_Penalty>
0.280326

> <i_epik_Tot_Q>
1

> <i_epik_Tot_abs_Q>
1

> <r_epik_Metal_State_Penalty>
0.164683

> <b_epik_Metal_Only>
0

> <s_lp_Force_Field>
OPLS_2005

> <r_lp_Energy>
64.524

> <b_lp_Chiralities_Consistent>
1

> <s_lp_Variant>
AV-unprocessed.smi:1830-8

> <Gold.Version>
5.8.1

> <Gold.Id.Protein>
6NUR|6NUR_protein|mol2

> <Gold.PLP.Fitness>
41.3039

> <Gold.PLP.PLP>
-34.4169

> <Gold.PLP.part.hbond>
-2.0000

> <Gold.PLP.part.metal>
0.0000

> <Gold.PLP.part.buried>
-4.1933

> <Gold.PLP.part.nonpolar>
-28.0357

> <Gold.PLP.part.repulsive>
0.1573

> <Gold.PLP.ligand.clash>
0.0000

> <Gold.PLP.ligand.torsion>
1.2285

> <Gold.PLP.Chemscore.Hbond>
3.0000

> <Gold.PLP.Chemscore.CHOScore>
0.0000

> <Gold.PLP.Chemscore.Metal>
0.0000

> <Gold.Chemscore.Hbonds>
donor molecule, donor type, donor heavy atom, donor atom, acceptor molecule, acceptor atom, score
      L1  H     7    53       P1  7948  2.00
      P1  H  6896  6909       L1     1  1.00

> <Gold.PLP.Chemscore.Internal.Correction>
0.3441

> <Gold.Rescore>
     Score         DG    S(hbond)    S(metal)    S(lipo)     H(rot)  DE(clash)    DE(int)     intcor
     10.85     -16.12       1.84        0.00      69.15       1.41       0.52       4.75       ----

> <Gold.Chemscore.Fitness>
10.8495

> <Gold.Chemscore.DG>
-16.1202

> <Gold.Chemscore.ZeroCoef>
-5.4800

> <Gold.Chemscore.Hbond>
1.8417

> <Gold.Chemscore.Metal>
0.0000

> <Gold.Chemscore.Lipo>
69.1455

> <Gold.Chemscore.Internal_Hbond>
0.0000

> <Gold.Chemscore.DEClash>
0.5158

> <Gold.Chemscore.DEInternal>
4.7549

> <Gold.Chemscore.Rot>
1.4067

> <Gold.Chemscore.Internal.Correction>
   9.000000E+99

> <Gold.Chemscore.Hbonds>
donor molecule, donor type, donor heavy atom, donor atom, acceptor molecule, acceptor atom, score
      L1  H     7    53       P1  7948  0.29
      P1  H  6896  6909       L1     1  0.39

> <Gold.Chemscore.Hbond.Weighted>
-6.1513

> <Gold.Chemscore.Metal.Weighted>
-0.0000

> <Gold.Chemscore.Lipo.Weighted>
-8.0900

> <Gold.Chemscore.Internal_Hbond.Weighted>
0.0000

> <Gold.Chemscore.DEClash.Weighted>
0.5158

> <Gold.Chemscore.DEInternal.Weighted>
4.7549

> <Gold.Chemscore.Rot.Weighted>
3.6011

> <Gold.Chemscore.Internal.Correction.Weighted>
   9.000000E+99

> <Gold.Protein.RotatedTorsions>
[ 6907 6896 6895 6894 ] final   39.20 input  -60.11 | X-H torsion
[ 7974 7965 7964 7962 ] final    5.57 input  175.53 | X-H torsion
[ 8008 7997 7996 7995 ] final  123.52 input   59.86 | X-H torsion
[ 10167 10162 10161 10158 ] final   64.28 input  -65.29 | X-H torsion
[ 10718 10713 10712 10709 ] final   18.51 input   66.30 | X-H torsion
[ 10763 10752 10751 10750 ] final    5.53 input  -60.55 | X-H torsion
[ 11005 11000 10999 10996 ] final  -45.56 input  -57.11 | X-H torsion

> <Gold.Protein.ActiveResidues>
 VAL166  LYS551  ARG553  GLY616  TRP617  ASP618  TYR619  PRO620  LYS621  CYS622 
 ASP623  PHE694  ASN695  SER759  ASP760  ASP761  ALA762  ILE779  LEU786  VAL792 
 PHE793  MET794  SER795  GLU796  ALA797  LYS798  CYS799  TRP800  GLU811  SER814 

> <Gold.Protein.RotatedAtoms>
  152.1665  134.8869  160.0537 H   0  0  0  0  0  0  0  0  0  0  0  0  # atno 6907 bound_to 6896
  151.9845  133.3764  159.4128 H   0  0  0  0  0  0  0  0  0  0  0  0  # atno 6908 bound_to 6896
  150.6895  134.3925  159.5127 H   0  0  0  0  0  0  0  0  0  0  0  0  # atno 6909 bound_to 6896
  146.2440  140.0364  142.8385 H   0  0  0  0  0  0  0  0  0  0  0  0  # atno 7974 bound_to 7965
  156.2769  140.2761  156.1641 H   0  0  0  0  0  0  0  0  0  0  0  0  # atno 8008 bound_to 7997
  155.0723  140.0387  157.2630 H   0  0  0  0  0  0  0  0  0  0  0  0  # atno 8009 bound_to 7997
  154.7030  140.2653  155.6707 H   0  0  0  0  0  0  0  0  0  0  0  0  # atno 8010 bound_to 7997
  140.1239  144.4706  150.6904 H   0  0  0  0  0  0  0  0  0  0  0  0  # atno 10167 bound_to 10162
  157.0973  130.6453  149.5863 H   0  0  0  0  0  0  0  0  0  0  0  0  # atno 10718 bound_to 10713
  153.2583  135.6920  153.7605 H   0  0  0  0  0  0  0  0  0  0  0  0  # atno 10763 bound_to 10752
  153.6674  135.3350  155.3145 H   0  0  0  0  0  0  0  0  0  0  0  0  # atno 10764 bound_to 10752
  154.8421  135.4491  154.1564 H   0  0  0  0  0  0  0  0  0  0  0  0  # atno 10765 bound_to 10752
  141.0523  133.6738  156.3030 H   0  0  0  0  0  0  0  0  0  0  0  0  # atno 11005 bound_to 11000
  145.1109  140.9404  143.4657 LP  0  0  0  0  0  0  0  0  0  0  0  0  # atno 17320 bound_to 7965
  145.0577  139.3130  143.5896 LP  0  0  0  0  0  0  0  0  0  0  0  0  # atno 17321 bound_to 7965
  140.6856  143.2348  151.5269 LP  0  0  0  0  0  0  0  0  0  0  0  0  # atno 17342 bound_to 10162
  139.5554  144.2288  152.1603 LP  0  0  0  0  0  0  0  0  0  0  0  0  # atno 17343 bound_to 10162
  155.9882  130.4925  150.7161 LP  0  0  0  0  0  0  0  0  0  0  0  0  # atno 17370 bound_to 10713
  157.4670  131.0889  151.0683 LP  0  0  0  0  0  0  0  0  0  0  0  0  # atno 17371 bound_to 10713
  140.6031  134.5534  157.5521 LP  0  0  0  0  0  0  0  0  0  0  0  0  # atno 17394 bound_to 11000
  139.9361  134.7873  156.0800 LP  0  0  0  0  0  0  0  0  0  0  0  0  # atno 17395 bound_to 11000

$$$$
