AV-unprocessed.smi:3009|AV-procd|sdf|11449|dock8
  -GOLD-   2272016383D 1   1.00000     0.00000
 Structure written by MMmdl.
 44 45  0  0  0  0  0  0  0  0  2 V2000
  148.8804  141.9669  158.2007 C   0  0  0  0  0  0  0  0  0  0  0  0
  150.2801  141.5119  157.7617 C   0  0  0  0  0  0  0  0  0  0  0  0
  151.3341  141.9547  158.7907 C   0  0  0  0  0  0  0  0  0  0  0  0
  150.5997  142.0358  156.3442 C   0  0  0  0  0  0  0  0  0  0  0  0
  150.4398  141.0051  155.2860 N   0  3  1  0  0  0  0  0  0  0  0  0
  151.1600  139.7390  155.5700 C   0  0  0  0  0  0  0  0  0  0  0  0
  150.9709  138.7438  154.4134 C   0  0  0  0  0  0  0  0  0  0  0  0
  149.5832  138.5219  154.1980 O   0  0  0  0  0  0  0  0  0  0  0  0
  148.8984  139.7138  153.8253 C   0  0  1  0  0  0  0  0  0  0  0  0
  147.4318  139.3590  153.5207 C   0  0  0  0  0  0  0  0  0  0  0  0
  147.3160  138.1136  152.7692 N   0  0  0  0  0  0  0  0  0  0  0  0
  146.1735  137.4422  152.5692 C   0  0  0  0  0  0  0  0  0  0  0  0
  145.0840  137.8139  153.0053 O   0  0  0  0  0  0  0  0  0  0  0  0
  146.3780  136.3334  151.8404 N   0  0  0  0  0  0  0  0  0  0  0  0
  145.4036  135.3949  151.4174 C   0  0  0  0  0  0  0  0  0  0  0  0
  145.5385  133.9932  151.1939 C   0  0  0  0  0  0  0  0  0  0  0  0
  144.3907  133.4569  150.8045 N   0  0  0  0  0  0  0  0  0  0  0  0
  143.5281  134.4976  150.7771 N   0  0  0  0  0  0  0  0  0  0  0  0
  144.1024  135.6948  151.1433 C   0  0  0  0  0  0  0  0  0  0  0  0
  149.0164  140.7292  154.9779 C   0  0  0  0  0  0  0  0  0  0  0  0
  142.5617  134.3755  150.5095 H   0  0  0  0  0  0  0  0  0  0  0  0
  148.8149  143.0542  158.2530 H   0  0  0  0  0  0  0  0  0  0  0  0
  148.6277  141.5708  159.1849 H   0  0  0  0  0  0  0  0  0  0  0  0
  148.1168  141.6208  157.5034 H   0  0  0  0  0  0  0  0  0  0  0  0
  150.2630  140.4227  157.7465 H   0  0  0  0  0  0  0  0  0  0  0  0
  151.3971  143.0417  158.8526 H   0  0  0  0  0  0  0  0  0  0  0  0
  152.3247  141.5768  158.5373 H   0  0  0  0  0  0  0  0  0  0  0  0
  151.0905  141.5800  159.7852 H   0  0  0  0  0  0  0  0  0  0  0  0
  149.9727  142.8957  156.1029 H   0  0  0  0  0  0  0  0  0  0  0  0
  151.6281  142.4005  156.3390 H   0  0  0  0  0  0  0  0  0  0  0  0
  152.2241  139.9246  155.7098 H   0  0  0  0  0  0  0  0  0  0  0  0
  150.7859  139.3042  156.4982 H   0  0  0  0  0  0  0  0  0  0  0  0
  151.4406  139.1124  153.5000 H   0  0  0  0  0  0  0  0  0  0  0  0
  151.4469  137.7930  154.6538 H   0  0  0  0  0  0  0  0  0  0  0  0
  149.3623  140.1348  152.9314 H   0  0  0  0  0  0  0  0  0  0  0  0
  146.8697  139.2539  154.4491 H   0  0  0  0  0  0  0  0  0  0  0  0
  146.9550  140.1652  152.9607 H   0  0  0  0  0  0  0  0  0  0  0  0
  148.1658  137.7387  152.3737 H   0  0  0  0  0  0  0  0  0  0  0  0
  147.3274  136.1415  151.5563 H   0  0  0  0  0  0  0  0  0  0  0  0
  146.4031  133.3543  151.2964 H   0  0  0  0  0  0  0  0  0  0  0  0
  143.5512  136.6229  151.1744 H   0  0  0  0  0  0  0  0  0  0  0  0
  148.5164  140.3499  155.8709 H   0  0  0  0  0  0  0  0  0  0  0  0
  148.5155  141.6571  154.6987 H   0  0  0  0  0  0  0  0  0  0  0  0
  150.8403  141.3924  154.4432 H   0  0  0  0  0  0  0  0  0  0  0  0
  1  2  1  0  0  0  0
  1 22  1  0  0  0  0
  1 23  1  0  0  0  0
  1 24  1  0  0  0  0
  2  3  1  0  0  0  0
  2  4  1  0  0  0  0
  2 25  1  0  0  0  0
  3 26  1  0  0  0  0
  3 27  1  0  0  0  0
  3 28  1  0  0  0  0
  4  5  1  0  0  0  0
  4 29  1  0  0  0  0
  4 30  1  0  0  0  0
  5 20  1  0  0  0  0
  5  6  1  0  0  0  0
  5 44  1  0  0  0  0
  6  7  1  0  0  0  0
  6 31  1  0  0  0  0
  6 32  1  0  0  0  0
  7  8  1  0  0  0  0
  7 33  1  0  0  0  0
  7 34  1  0  0  0  0
  8  9  1  0  0  0  0
  9 10  1  0  0  0  0
  9 20  1  0  0  0  0
  9 35  1  0  0  0  0
 10 11  1  0  0  0  0
 10 36  1  0  0  0  0
 10 37  1  0  0  0  0
 11 12  1  0  0  0  0
 11 38  1  0  0  0  0
 12 13  2  0  0  0  0
 12 14  1  0  0  0  0
 14 15  1  0  0  0  0
 14 39  1  0  0  0  0
 15 19  2  0  0  0  0
 15 16  1  0  0  0  0
 16 17  2  0  0  0  0
 16 40  1  0  0  0  0
 17 18  1  0  0  0  0
 18 21  1  0  0  0  0
 18 19  1  0  0  0  0
 19 41  1  0  0  0  0
 20 42  1  0  0  0  0
 20 43  1  0  0  0  0
M  CHG  1   5   1
M  END
> <s_m_source_file>
AV-unprocessed.smi

> <i_m_source_file_index>
3009

> <i_lp_mmshare_version>
43012

> <i_f3d_flags>
0

> <s_epik_input>
W0NIM11bQ0hdKFtDSDNdKVtDSDJdTjFbQ0gyXVtDSDJdT1tDQEhdKFtDSDJdMSlbQ0gyXVtOSF1DKD1PKVtOSF1jMltjSF1uW25IXVtjSF0y

> <s_epik_cmdline>
J2VwaWtfcHl0aG9uJywgJy1waCcsICc3LjAnLCAnLXRuJywgJzgnLCAnLW1hJywgJzIwMCcsICctbWV0YWxfYmluZGluZycsICctaW1hZScsICc8aW5maWxlLm1hZT4nLCAnLW9tYWUnLCAnPG91dGZpbGUubWFlPic=

> <r_lp_tautomer_probability>
0.5

> <r_epik_Ionization_Penalty>
0.0974064

> <r_epik_Ionization_Penalty_Charging>
0.0973651

> <r_epik_Ionization_Penalty_Neutral>
4.13573e-05

> <r_epik_State_Penalty>
0.0874853

> <r_epik_Charging_Adjusted_Penalty>
0.18485

> <i_epik_Tot_Q>
1

> <i_epik_Tot_abs_Q>
1

> <r_epik_Metal_State_Penalty>
0.0874855

> <b_epik_Metal_Only>
0

> <s_lp_Force_Field>
OPLS_2005

> <r_lp_Energy>
19.2351

> <b_lp_Chiralities_Consistent>
1

> <s_lp_Variant>
AV-unprocessed.smi:3009-1

> <Gold.Version>
5.8.1

> <Gold.Id.Protein>
6NUR|6NUR_protein|mol2

> <Gold.PLP.Fitness>
39.2871

> <Gold.PLP.PLP>
-29.7413

> <Gold.PLP.part.hbond>
-3.0000

> <Gold.PLP.part.metal>
0.0000

> <Gold.PLP.part.buried>
-2.4510

> <Gold.PLP.part.nonpolar>
-25.9909

> <Gold.PLP.part.repulsive>
2.3570

> <Gold.PLP.ligand.clash>
0.0000

> <Gold.PLP.ligand.torsion>
1.1172

> <Gold.PLP.Chemscore.Hbond>
2.9280

> <Gold.PLP.Chemscore.CHOScore>
0.9888

> <Gold.PLP.Chemscore.Metal>
0.0000

> <Gold.Chemscore.Hbonds>
donor molecule, donor type, donor heavy atom, donor atom, acceptor molecule, acceptor atom, score
      L1  H    11    38       P1  7948  0.90
      L1  H    14    39       P1  7948  1.00
      L1  H    18    21       P1 10186  1.00
      L1  C    19    41       P1 10171  0.97

> <Gold.PLP.Chemscore.Internal.Correction>
0.0297

> <Gold.Rescore>
     Score         DG    S(hbond)    S(metal)    S(lipo)     H(rot)  DE(clash)    DE(int)     intcor
     15.69     -18.18       2.86        0.00      66.21       1.80       0.46       2.04       ----

> <Gold.Chemscore.Fitness>
15.6868

> <Gold.Chemscore.DG>
-18.1844

> <Gold.Chemscore.ZeroCoef>
-5.4800

> <Gold.Chemscore.Hbond>
2.8612

> <Gold.Chemscore.Metal>
0.0000

> <Gold.Chemscore.Lipo>
66.2100

> <Gold.Chemscore.Internal_Hbond>
0.0000

> <Gold.Chemscore.DEClash>
0.4624

> <Gold.Chemscore.DEInternal>
2.0352

> <Gold.Chemscore.Rot>
1.7963

> <Gold.Chemscore.Internal.Correction>
   9.000000E+99

> <Gold.Chemscore.Hbonds>
donor molecule, donor type, donor heavy atom, donor atom, acceptor molecule, acceptor atom, score
      L1  H    11    38       P1  7948  0.88
      L1  H    14    39       P1  7948  0.95
      L1  H    18    21       P1 10186  0.50

> <Gold.Chemscore.Hbond.Weighted>
-9.5563

> <Gold.Chemscore.Metal.Weighted>
-0.0000

> <Gold.Chemscore.Lipo.Weighted>
-7.7466

> <Gold.Chemscore.Internal_Hbond.Weighted>
0.0000

> <Gold.Chemscore.DEClash.Weighted>
0.4624

> <Gold.Chemscore.DEInternal.Weighted>
2.0352

> <Gold.Chemscore.Rot.Weighted>
4.5985

> <Gold.Chemscore.Internal.Correction.Weighted>
   9.000000E+99

> <Gold.Protein.RotatedTorsions>
[ 6907 6896 6895 6894 ] final -167.80 input  -60.11 | X-H torsion
[ 7974 7965 7964 7962 ] final  123.13 input  175.53 | X-H torsion
[ 8008 7997 7996 7995 ] final   12.01 input   59.86 | X-H torsion
[ 10167 10162 10161 10158 ] final  -90.33 input  -65.29 | X-H torsion
[ 10718 10713 10712 10709 ] final    3.71 input   66.30 | X-H torsion
[ 10763 10752 10751 10750 ] final    6.72 input  -60.55 | X-H torsion
[ 11005 11000 10999 10996 ] final -160.40 input  -57.11 | X-H torsion

> <Gold.Protein.ActiveResidues>
 VAL166  LYS551  ARG553  GLY616  TRP617  ASP618  TYR619  PRO620  LYS621  CYS622 
 ASP623  PHE694  ASN695  SER759  ASP760  ASP761  ALA762  ILE779  LEU786  VAL792 
 PHE793  MET794  SER795  GLU796  ALA797  LYS798  CYS799  TRP800  GLU811  SER814 

> <Gold.Protein.RotatedAtoms>
  151.4653  133.3582  159.2815 H   0  0  0  0  0  0  0  0  0  0  0  0  # atno 6907 bound_to 6896
  150.8997  134.8410  159.7362 H   0  0  0  0  0  0  0  0  0  0  0  0  # atno 6908 bound_to 6896
  152.4872  134.4572  159.9645 H   0  0  0  0  0  0  0  0  0  0  0  0  # atno 6909 bound_to 6896
  145.0995  139.3529  143.4819 H   0  0  0  0  0  0  0  0  0  0  0  0  # atno 7974 bound_to 7965
  154.8148  140.2874  155.5828 H   0  0  0  0  0  0  0  0  0  0  0  0  # atno 8008 bound_to 7997
  156.2992  140.2561  156.2973 H   0  0  0  0  0  0  0  0  0  0  0  0  # atno 8009 bound_to 7997
  154.9406  140.0381  157.2084 H   0  0  0  0  0  0  0  0  0  0  0  0  # atno 8010 bound_to 7997
  140.3560  143.2866  151.9671 H   0  0  0  0  0  0  0  0  0  0  0  0  # atno 10167 bound_to 10162
  156.8818  130.5656  149.5653 H   0  0  0  0  0  0  0  0  0  0  0  0  # atno 10718 bound_to 10713
  153.2444  135.6907  153.7747 H   0  0  0  0  0  0  0  0  0  0  0  0  # atno 10763 bound_to 10752
  153.6864  135.3320  155.3192 H   0  0  0  0  0  0  0  0  0  0  0  0  # atno 10764 bound_to 10752
  154.8369  135.4535  154.1378 H   0  0  0  0  0  0  0  0  0  0  0  0  # atno 10765 bound_to 10752
  140.6319  134.4642  157.5230 H   0  0  0  0  0  0  0  0  0  0  0  0  # atno 11005 bound_to 11000
  146.3530  140.0866  142.8615 LP  0  0  0  0  0  0  0  0  0  0  0  0  # atno 17320 bound_to 7965
  145.0972  140.9322  143.4734 LP  0  0  0  0  0  0  0  0  0  0  0  0  # atno 17321 bound_to 7965
  139.4820  144.6035  151.7563 LP  0  0  0  0  0  0  0  0  0  0  0  0  # atno 17342 bound_to 10162
  140.5173  144.0932  150.6012 LP  0  0  0  0  0  0  0  0  0  0  0  0  # atno 17343 bound_to 10162
  156.0673  130.5714  150.9314 LP  0  0  0  0  0  0  0  0  0  0  0  0  # atno 17370 bound_to 10713
  157.6136  131.0935  150.8751 LP  0  0  0  0  0  0  0  0  0  0  0  0  # atno 17371 bound_to 10713
  139.9113  134.8339  156.1519 LP  0  0  0  0  0  0  0  0  0  0  0  0  # atno 17394 bound_to 11000
  141.0669  133.6815  156.2063 LP  0  0  0  0  0  0  0  0  0  0  0  0  # atno 17395 bound_to 11000

$$$$
