AV-unprocessed.smi:763|AV-procd|sdf|3639|dock7
  -GOLD-   22720 1 43D 1   1.00000     0.00000
 Structure written by MMmdl.
 43 44  0  0  0  0  0  0  0  0  2 V2000
  144.7382  132.2199  150.7671 C   0  0  0  0  0  0  0  0  0  0  0  0
  144.5696  132.9667  151.9588 O   0  0  0  0  0  0  0  0  0  0  0  0
  145.6834  132.8576  152.8299 C   0  0  0  0  0  0  0  0  0  0  0  0
  146.9346  133.3749  152.1144 C   0  0  0  0  0  0  0  0  0  0  0  0
  147.7591  134.0366  153.0678 O   0  0  0  0  0  0  0  0  0  0  0  0
  148.6220  133.2857  153.8449 C   0  0  0  0  0  0  0  0  0  0  0  0
  148.6361  131.9406  153.6620 N   0  0  0  0  0  0  0  0  0  0  0  0
  149.4726  131.1985  154.4129 C   0  0  0  0  0  0  0  0  0  0  0  0
  150.3298  131.7520  155.3779 C   0  0  0  0  0  0  0  0  0  0  0  0
  150.3113  133.1459  155.5632 C   0  0  0  0  0  0  0  0  0  0  0  0
  149.4442  133.9541  154.7871 C   0  0  0  0  0  0  0  0  0  0  0  0
  149.3812  135.2911  154.9101 N   0  5  0  0  0  0  0  0  0  0  0  0
  150.3657  136.2238  155.7930 S   0  0  0  0  0  0  0  0  0  0  0  0
  149.7178  136.6499  157.0436 O   0  0  0  0  0  0  0  0  0  0  0  0
  151.7027  135.6236  155.9147 O   0  0  0  0  0  0  0  0  0  0  0  0
  150.4921  137.7338  154.6903 C   0  0  1  0  0  0  0  0  0  0  0  0
  149.9721  138.9981  155.4067 C   0  0  0  0  0  0  0  0  0  0  0  0
  150.9449  139.4865  156.4936 C   0  0  0  0  0  0  0  0  0  0  0  0
  152.3296  139.7833  155.8960 C   0  0  0  0  0  0  0  0  0  0  0  0
  152.9041  138.5588  155.1655 C   0  0  0  0  0  0  0  0  0  0  0  0
  151.9097  138.0074  154.1217 C   0  0  1  0  0  0  0  0  0  0  0  0
  152.4465  136.8671  153.4826 O   0  0  0  0  0  0  0  0  0  0  0  0
  143.8605  132.3399  150.1323 H   0  0  0  0  0  0  0  0  0  0  0  0
  144.8547  131.1568  150.9825 H   0  0  0  0  0  0  0  0  0  0  0  0
  145.6090  132.5616  150.2062 H   0  0  0  0  0  0  0  0  0  0  0  0
  145.5162  133.4144  153.7533 H   0  0  0  0  0  0  0  0  0  0  0  0
  145.8243  131.8098  153.0995 H   0  0  0  0  0  0  0  0  0  0  0  0
  147.4772  132.5297  151.6881 H   0  0  0  0  0  0  0  0  0  0  0  0
  146.6550  134.0431  151.2981 H   0  0  0  0  0  0  0  0  0  0  0  0
  149.4578  130.1327  154.2396 H   0  0  0  0  0  0  0  0  0  0  0  0
  150.9866  131.1248  155.9617 H   0  0  0  0  0  0  0  0  0  0  0  0
  150.9672  133.5783  156.3041 H   0  0  0  0  0  0  0  0  0  0  0  0
  149.8170  137.5472  153.8545 H   0  0  0  0  0  0  0  0  0  0  0  0
  149.8375  139.7932  154.6722 H   0  0  0  0  0  0  0  0  0  0  0  0
  148.9838  138.8231  155.8317 H   0  0  0  0  0  0  0  0  0  0  0  0
  150.5479  140.3844  156.9674 H   0  0  0  0  0  0  0  0  0  0  0  0
  151.0360  138.7374  157.2809 H   0  0  0  0  0  0  0  0  0  0  0  0
  152.2515  140.6181  155.1986 H   0  0  0  0  0  0  0  0  0  0  0  0
  153.0146  140.1009  156.6823 H   0  0  0  0  0  0  0  0  0  0  0  0
  153.8368  138.8360  154.6729 H   0  0  0  0  0  0  0  0  0  0  0  0
  153.1730  137.7984  155.8958 H   0  0  0  0  0  0  0  0  0  0  0  0
  151.8046  138.7636  153.3428 H   0  0  0  0  0  0  0  0  0  0  0  0
  151.9412  136.6925  152.7032 H   0  0  0  0  0  0  0  0  0  0  0  0
  1  2  1  0  0  0  0
  1 23  1  0  0  0  0
  1 24  1  0  0  0  0
  1 25  1  0  0  0  0
  2  3  1  0  0  0  0
  3  4  1  0  0  0  0
  3 26  1  0  0  0  0
  3 27  1  0  0  0  0
  4  5  1  0  0  0  0
  4 28  1  0  0  0  0
  4 29  1  0  0  0  0
  5  6  1  0  0  0  0
  6 11  1  0  0  0  0
  6  7  2  0  0  0  0
  7  8  1  0  0  0  0
  8  9  2  0  0  0  0
  8 30  1  0  0  0  0
  9 10  1  0  0  0  0
  9 31  1  0  0  0  0
 10 11  2  0  0  0  0
 10 32  1  0  0  0  0
 11 12  1  0  0  0  0
 12 13  1  0  0  0  0
 13 14  2  0  0  0  0
 13 15  2  0  0  0  0
 13 16  1  0  0  0  0
 16 21  1  0  0  0  0
 16 17  1  0  0  0  0
 16 33  1  0  0  0  0
 17 18  1  0  0  0  0
 17 34  1  0  0  0  0
 17 35  1  0  0  0  0
 18 19  1  0  0  0  0
 18 36  1  0  0  0  0
 18 37  1  0  0  0  0
 19 20  1  0  0  0  0
 19 38  1  0  0  0  0
 19 39  1  0  0  0  0
 20 21  1  0  0  0  0
 20 40  1  0  0  0  0
 20 41  1  0  0  0  0
 21 22  1  0  0  0  0
 21 42  1  0  0  0  0
 22 43  1  0  0  0  0
M  CHG  1  12  -1
M  END
> <s_m_source_file>
AV-unprocessed.smi

> <i_m_source_file_index>
763

> <i_lp_mmshare_version>
43012

> <i_f3d_flags>
0

> <s_epik_input>
W0NIM11PW0NIMl1bQ0gyXU9jMW5bY0hdW2NIXVtjSF1jMVtOSF1TKD1PKSg9TylbQ0BASF0yW0NIMl1bQ0gyXVtDSDJdW0NIMl1bQ0BIXTJbT0hd

> <s_epik_cmdline>
J2VwaWtfcHl0aG9uJywgJy1waCcsICc3LjAnLCAnLXRuJywgJzgnLCAnLW1hJywgJzIwMCcsICctbWV0YWxfYmluZGluZycsICctaW1hZScsICc8aW5maWxlLm1hZT4nLCAnLW9tYWUnLCAnPG91dGZpbGUubWFlPic=

> <r_epik_Ionization_Penalty>
0.985866

> <r_epik_Ionization_Penalty_Charging>
0.984689

> <r_epik_Ionization_Penalty_Neutral>
0.00117669

> <r_epik_State_Penalty>
1.03185

> <r_epik_Charging_Adjusted_Penalty>
2.01654

> <i_epik_Tot_Q>
-1

> <i_epik_Tot_abs_Q>
1

> <r_epik_Metal_State_Penalty>
0.379327

> <b_epik_Metal_Only>
0

> <s_lp_Force_Field>
OPLS_2005

> <r_lp_Energy>
9.05773

> <b_lp_Chiralities_Consistent>
1

> <s_lp_Variant>
AV-unprocessed.smi:763-6

> <Gold.Version>
5.8.1

> <Gold.Id.Protein>
6NUR|6NUR_protein|mol2

> <Gold.PLP.Fitness>
42.6695

> <Gold.PLP.PLP>
-35.7718

> <Gold.PLP.part.hbond>
-2.6369

> <Gold.PLP.part.metal>
0.0000

> <Gold.PLP.part.buried>
-6.7078

> <Gold.PLP.part.nonpolar>
-28.7398

> <Gold.PLP.part.repulsive>
1.5755

> <Gold.PLP.ligand.clash>
0.0000

> <Gold.PLP.ligand.torsion>
1.0185

> <Gold.PLP.Chemscore.Hbond>
2.5840

> <Gold.PLP.Chemscore.CHOScore>
0.0000

> <Gold.PLP.Chemscore.Metal>
0.0000

> <Gold.Chemscore.Hbonds>
donor molecule, donor type, donor heavy atom, donor atom, acceptor molecule, acceptor atom, score
      L1  H    22    43       P1  7949  1.00
      P1  H 10752 10763       L1    22  0.61
      P1  H 10752 10764       L1    15  0.96

> <Gold.PLP.Chemscore.Internal.Correction>
1.1827

> <Gold.Rescore>
     Score         DG    S(hbond)    S(metal)    S(lipo)     H(rot)  DE(clash)    DE(int)     intcor
     13.33     -15.96       2.09        0.00      81.48       2.35       0.16       2.47       ----

> <Gold.Chemscore.Fitness>
13.3287

> <Gold.Chemscore.DG>
-15.9609

> <Gold.Chemscore.ZeroCoef>
-5.4800

> <Gold.Chemscore.Hbond>
2.0856

> <Gold.Chemscore.Metal>
0.0000

> <Gold.Chemscore.Lipo>
81.4809

> <Gold.Chemscore.Internal_Hbond>
0.0000

> <Gold.Chemscore.DEClash>
0.1582

> <Gold.Chemscore.DEInternal>
2.4740

> <Gold.Chemscore.Rot>
2.3509

> <Gold.Chemscore.Internal.Correction>
   9.000000E+99

> <Gold.Chemscore.Hbonds>
donor molecule, donor type, donor heavy atom, donor atom, acceptor molecule, acceptor atom, score
      L1  H    22    43       P1  7949  0.98
      P1  H 10752 10763       L1    22  0.32
      P1  H 10752 10764       L1    15  0.92

> <Gold.Chemscore.Hbond.Weighted>
-6.9658

> <Gold.Chemscore.Metal.Weighted>
-0.0000

> <Gold.Chemscore.Lipo.Weighted>
-9.5333

> <Gold.Chemscore.Internal_Hbond.Weighted>
0.0000

> <Gold.Chemscore.DEClash.Weighted>
0.1582

> <Gold.Chemscore.DEInternal.Weighted>
2.4740

> <Gold.Chemscore.Rot.Weighted>
6.0182

> <Gold.Chemscore.Internal.Correction.Weighted>
   9.000000E+99

> <Gold.Protein.RotatedTorsions>
[ 6907 6896 6895 6894 ] final   -1.94 input  -60.11 | X-H torsion
[ 7974 7965 7964 7962 ] final  -73.62 input  175.53 | X-H torsion
[ 8008 7997 7996 7995 ] final -123.65 input   59.86 | X-H torsion
[ 10167 10162 10161 10158 ] final  116.02 input  -65.29 | X-H torsion
[ 10718 10713 10712 10709 ] final  -49.48 input   66.30 | X-H torsion
[ 10763 10752 10751 10750 ] final  -16.08 input  -60.55 | X-H torsion
[ 11005 11000 10999 10996 ] final -108.19 input  -57.11 | X-H torsion

> <Gold.Protein.ActiveResidues>
 VAL166  LYS551  ARG553  GLY616  TRP617  ASP618  TYR619  PRO620  LYS621  CYS622 
 ASP623  PHE694  ASN695  SER759  ASP760  ASP761  ALA762  ILE779  LEU786  VAL792 
 PHE793  MET794  SER795  GLU796  ALA797  LYS798  CYS799  TRP800  GLU811  SER814 

> <Gold.Protein.RotatedAtoms>
  151.5380  135.1068  159.9918 H   0  0  0  0  0  0  0  0  0  0  0  0  # atno 6907 bound_to 6896
  152.4548  133.7697  159.6803 H   0  0  0  0  0  0  0  0  0  0  0  0  # atno 6908 bound_to 6896
  150.8488  133.7753  159.3057 H   0  0  0  0  0  0  0  0  0  0  0  0  # atno 6909 bound_to 6896
  145.6498  140.9286  143.0991 H   0  0  0  0  0  0  0  0  0  0  0  0  # atno 7974 bound_to 7965
  155.1841  140.0411  157.2888 H   0  0  0  0  0  0  0  0  0  0  0  0  # atno 8008 bound_to 7997
  154.6184  140.2494  155.7553 H   0  0  0  0  0  0  0  0  0  0  0  0  # atno 8009 bound_to 7997
  156.2419  140.2900  156.0480 H   0  0  0  0  0  0  0  0  0  0  0  0  # atno 8010 bound_to 7997
  139.6276  144.7110  151.2500 H   0  0  0  0  0  0  0  0  0  0  0  0  # atno 10167 bound_to 10162
  156.1890  130.4152  149.9399 H   0  0  0  0  0  0  0  0  0  0  0  0  # atno 10718 bound_to 10713
  153.5531  135.7011  153.5582 H   0  0  0  0  0  0  0  0  0  0  0  0  # atno 10763 bound_to 10752
  153.3497  135.3998  155.1636 H   0  0  0  0  0  0  0  0  0  0  0  0  # atno 10764 bound_to 10752
  154.8658  135.3762  154.5043 H   0  0  0  0  0  0  0  0  0  0  0  0  # atno 10765 bound_to 10752
  141.0915  133.9047  157.2065 H   0  0  0  0  0  0  0  0  0  0  0  0  # atno 11005 bound_to 11000
  144.7126  139.8312  143.7409 LP  0  0  0  0  0  0  0  0  0  0  0  0  # atno 17320 bound_to 7965
  146.1213  139.4231  143.0227 LP  0  0  0  0  0  0  0  0  0  0  0  0  # atno 17321 bound_to 7965
  140.7420  143.6539  150.8224 LP  0  0  0  0  0  0  0  0  0  0  0  0  # atno 17342 bound_to 10162
  140.0159  143.5593  152.2820 LP  0  0  0  0  0  0  0  0  0  0  0  0  # atno 17343 bound_to 10162
  156.7145  130.8983  151.3612 LP  0  0  0  0  0  0  0  0  0  0  0  0  # atno 17370 bound_to 10713
  157.6917  130.9240  150.0531 LP  0  0  0  0  0  0  0  0  0  0  0  0  # atno 17371 bound_to 10713
  139.9741  135.0119  156.9588 LP  0  0  0  0  0  0  0  0  0  0  0  0  # atno 17394 bound_to 11000
  140.5242  134.0878  155.7299 LP  0  0  0  0  0  0  0  0  0  0  0  0  # atno 17395 bound_to 11000

$$$$
