AV-unprocessed.smi:2891|AV-procd|sdf|11117|dock4
  -GOLD-   2272015583D 1   1.00000     0.00000
 Structure written by MMmdl.
 35 36  0  0  0  0  0  0  0  0  1 V2000
  152.1468  137.9739  154.7990 C   0  0  0  0  0  0  0  0  0  0  0  0
  151.8575  136.7262  155.4051 O   0  0  0  0  0  0  0  0  0  0  0  0
  150.6266  136.1810  154.9615 C   0  0  0  0  0  0  0  0  0  0  0  0
  150.0701  135.2545  156.0530 C   0  0  0  0  0  0  0  0  0  0  0  0
  150.0137  133.8598  155.5954 N   0  0  0  0  0  0  0  0  0  0  0  0
  149.2843  133.6023  154.4191 C   0  0  0  0  0  0  0  0  0  0  0  0
  149.1623  132.3708  153.8912 C   0  0  0  0  0  0  0  0  0  0  0  0
  148.4154  132.2374  152.7120 N   0  0  0  0  0  0  0  0  0  0  0  0
  147.3317  132.9257  152.3075 C   0  0  0  0  0  0  0  0  0  0  0  0
  146.7736  133.8272  152.9321 O   0  0  0  0  0  0  0  0  0  0  0  0
  146.9161  132.4956  151.1084 N   0  0  0  0  0  0  0  0  0  0  0  0
  145.7889  132.9987  150.3913 C   0  0  0  0  0  0  0  0  0  0  0  0
  144.6484  133.5826  151.1973 C   0  0  0  0  0  0  0  0  0  0  0  0
  144.4805  132.2494  150.5224 C   0  0  0  0  0  0  0  0  0  0  0  0
  149.8227  131.2851  154.6014 C   0  0  0  0  0  0  0  0  0  0  0  0
  150.5305  131.5238  155.7229 C   0  0  0  0  0  0  0  0  0  0  0  0
  150.6663  132.8728  156.2775 C   0  0  0  0  0  0  0  0  0  0  0  0
  151.3264  133.1002  157.2916 O   0  0  0  0  0  0  0  0  0  0  0  0
  153.0987  138.3512  155.1720 H   0  0  0  0  0  0  0  0  0  0  0  0
  151.3782  138.7126  155.0304 H   0  0  0  0  0  0  0  0  0  0  0  0
  152.2245  137.8768  153.7153 H   0  0  0  0  0  0  0  0  0  0  0  0
  149.9179  136.9843  154.7530 H   0  0  0  0  0  0  0  0  0  0  0  0
  150.7790  135.6264  154.0342 H   0  0  0  0  0  0  0  0  0  0  0  0
  150.6761  135.3390  156.9570 H   0  0  0  0  0  0  0  0  0  0  0  0
  149.0759  135.5938  156.3473 H   0  0  0  0  0  0  0  0  0  0  0  0
  148.8363  134.4770  153.9687 H   0  0  0  0  0  0  0  0  0  0  0  0
  148.7441  131.5176  152.0852 H   0  0  0  0  0  0  0  0  0  0  0  0
  147.4352  131.7505  150.6675 H   0  0  0  0  0  0  0  0  0  0  0  0
  145.9775  133.4662  149.4258 H   0  0  0  0  0  0  0  0  0  0  0  0
  144.7416  133.5890  152.2818 H   0  0  0  0  0  0  0  0  0  0  0  0
  144.1159  134.4309  150.7719 H   0  0  0  0  0  0  0  0  0  0  0  0
  143.8374  132.2075  149.6456 H   0  0  0  0  0  0  0  0  0  0  0  0
  144.4595  131.3655  151.1575 H   0  0  0  0  0  0  0  0  0  0  0  0
  149.7644  130.2642  154.2615 H   0  0  0  0  0  0  0  0  0  0  0  0
  151.0085  130.6986  156.2300 H   0  0  0  0  0  0  0  0  0  0  0  0
  1  2  1  0  0  0  0
  1 19  1  0  0  0  0
  1 20  1  0  0  0  0
  1 21  1  0  0  0  0
  2  3  1  0  0  0  0
  3  4  1  0  0  0  0
  3 22  1  0  0  0  0
  3 23  1  0  0  0  0
  4  5  1  0  0  0  0
  4 24  1  0  0  0  0
  4 25  1  0  0  0  0
  5 17  1  0  0  0  0
  5  6  1  0  0  0  0
  6  7  2  0  0  0  0
  6 26  1  0  0  0  0
  7  8  1  0  0  0  0
  7 15  1  0  0  0  0
  8  9  1  0  0  0  0
  8 27  1  0  0  0  0
  9 10  2  0  0  0  0
  9 11  1  0  0  0  0
 11 12  1  0  0  0  0
 11 28  1  0  0  0  0
 12 14  1  0  0  0  0
 12 13  1  0  0  0  0
 12 29  1  0  0  0  0
 13 14  1  0  0  0  0
 13 30  1  0  0  0  0
 13 31  1  0  0  0  0
 14 32  1  0  0  0  0
 14 33  1  0  0  0  0
 15 16  2  0  0  0  0
 15 34  1  0  0  0  0
 16 17  1  0  0  0  0
 16 35  1  0  0  0  0
 17 18  2  0  0  0  0
M  END
> <s_m_source_file>
AV-unprocessed.smi

> <i_m_source_file_index>
2891

> <i_lp_mmshare_version>
43012

> <i_f3d_flags>
0

> <s_epik_input>
W0NIM11PW0NIMl1bQ0gyXW4xW2NIXWMoW2NIXVtjSF1jMT1PKVtOSF1DKD1PKVtOSF1bQ0hdMltDSDJdW0NIMl0y

> <s_epik_cmdline>
J2VwaWtfcHl0aG9uJywgJy1waCcsICc3LjAnLCAnLXRuJywgJzgnLCAnLW1hJywgJzIwMCcsICctbWV0YWxfYmluZGluZycsICctaW1hZScsICc8aW5maWxlLm1hZT4nLCAnLW9tYWUnLCAnPG91dGZpbGUubWFlPic=

> <r_lp_tautomer_probability>
1

> <r_epik_Ionization_Penalty>
2.77726e-05

> <r_epik_Ionization_Penalty_Charging>
5.82689e-06

> <r_epik_Ionization_Penalty_Neutral>
2.19457e-05

> <r_epik_State_Penalty>
-0

> <r_epik_Charging_Adjusted_Penalty>
5.82689e-06

> <i_epik_Tot_Q>
0

> <i_epik_Tot_abs_Q>
0

> <r_epik_Metal_State_Penalty>
-0

> <b_epik_Metal_Only>
0

> <s_lp_Force_Field>
OPLS_2005

> <r_lp_Energy>
28.443

> <b_lp_Chiralities_Consistent>
1

> <s_lp_Variant>
AV-unprocessed.smi:2891-1

> <Gold.Version>
5.8.1

> <Gold.Id.Protein>
6NUR|6NUR_protein|mol2

> <Gold.PLP.Fitness>
48.5697

> <Gold.PLP.PLP>
-36.7566

> <Gold.PLP.part.hbond>
-4.0000

> <Gold.PLP.part.metal>
0.0000

> <Gold.PLP.part.buried>
-5.9082

> <Gold.PLP.part.nonpolar>
-27.5510

> <Gold.PLP.part.repulsive>
0.2571

> <Gold.PLP.ligand.clash>
0.0000

> <Gold.PLP.ligand.torsion>
1.1125

> <Gold.PLP.Chemscore.Hbond>
3.6635

> <Gold.PLP.Chemscore.CHOScore>
1.0000

> <Gold.PLP.Chemscore.Metal>
0.0000

> <Gold.Chemscore.Hbonds>
donor molecule, donor type, donor heavy atom, donor atom, acceptor molecule, acceptor atom, score
      L1  H     8    27       P1 10747  1.00
      L1  H    11    28       P1 10747  1.00
      P1  H  6896  6908       L1    18  0.83
      P1  H 10752 10765       L1     2  1.00
      L1  C     6    26       P1  7948  0.56

> <Gold.PLP.Chemscore.Internal.Correction>
0.0475

> <Gold.Rescore>
     Score         DG    S(hbond)    S(metal)    S(lipo)     H(rot)  DE(clash)    DE(int)     intcor
     15.90     -18.55       2.87        0.00      66.47       1.67       0.02       2.63       ----

> <Gold.Chemscore.Fitness>
15.8979

> <Gold.Chemscore.DG>
-18.5493

> <Gold.Chemscore.ZeroCoef>
-5.4800

> <Gold.Chemscore.Hbond>
2.8669

> <Gold.Chemscore.Metal>
0.0000

> <Gold.Chemscore.Lipo>
66.4680

> <Gold.Chemscore.Internal_Hbond>
0.0000

> <Gold.Chemscore.DEClash>
0.0222

> <Gold.Chemscore.DEInternal>
2.6292

> <Gold.Chemscore.Rot>
1.6730

> <Gold.Chemscore.Internal.Correction>
   9.000000E+99

> <Gold.Chemscore.Hbonds>
donor molecule, donor type, donor heavy atom, donor atom, acceptor molecule, acceptor atom, score
      L1  H     8    27       P1 10747  0.89
      L1  H    11    28       P1 10747  0.97
      P1  H  6896  6908       L1    18  0.83
      P1  H 10752 10765       L1     2  0.13

> <Gold.Chemscore.Hbond.Weighted>
-9.5753

> <Gold.Chemscore.Metal.Weighted>
-0.0000

> <Gold.Chemscore.Lipo.Weighted>
-7.7768

> <Gold.Chemscore.Internal_Hbond.Weighted>
0.0000

> <Gold.Chemscore.DEClash.Weighted>
0.0222

> <Gold.Chemscore.DEInternal.Weighted>
2.6292

> <Gold.Chemscore.Rot.Weighted>
4.2828

> <Gold.Chemscore.Internal.Correction.Weighted>
   9.000000E+99

> <Gold.Protein.RotatedTorsions>
[ 6907 6896 6895 6894 ] final   85.33 input  -60.11 | X-H torsion
[ 7974 7965 7964 7962 ] final  -59.22 input  175.53 | X-H torsion
[ 8008 7997 7996 7995 ] final  -56.25 input   59.86 | X-H torsion
[ 10167 10162 10161 10158 ] final -130.94 input  -65.29 | X-H torsion
[ 10718 10713 10712 10709 ] final  -63.08 input   66.30 | X-H torsion
[ 10763 10752 10751 10750 ] final -176.70 input  -60.55 | X-H torsion
[ 11005 11000 10999 10996 ] final    9.89 input  -57.11 | X-H torsion

> <Gold.Protein.ActiveResidues>
 VAL166  LYS551  ARG553  GLY616  TRP617  ASP618  TYR619  PRO620  LYS621  CYS622 
 ASP623  PHE694  ASN695  SER759  ASP760  ASP761  ALA762  ILE779  LEU786  VAL792 
 PHE793  MET794  SER795  GLU796  ALA797  LYS798  CYS799  TRP800  GLU811  SER814 

> <Gold.Protein.RotatedAtoms>
  152.5372  134.2603  159.8932 H   0  0  0  0  0  0  0  0  0  0  0  0  # atno 6907 bound_to 6896
  151.2563  133.4318  159.2621 H   0  0  0  0  0  0  0  0  0  0  0  0  # atno 6908 bound_to 6896
  151.0494  134.9676  159.8259 H   0  0  0  0  0  0  0  0  0  0  0  0  # atno 6909 bound_to 6896
  145.8300  140.8486  143.0088 H   0  0  0  0  0  0  0  0  0  0  0  0  # atno 7974 bound_to 7965
  154.4223  140.1134  156.5607 H   0  0  0  0  0  0  0  0  0  0  0  0  # atno 8008 bound_to 7997
  155.6314  140.3495  155.4665 H   0  0  0  0  0  0  0  0  0  0  0  0  # atno 8009 bound_to 7997
  155.9945  140.1186  157.0596 H   0  0  0  0  0  0  0  0  0  0  0  0  # atno 8010 bound_to 7997
  139.9240  143.6348  152.2546 H   0  0  0  0  0  0  0  0  0  0  0  0  # atno 10167 bound_to 10162
  156.0814  130.4216  150.1226 H   0  0  0  0  0  0  0  0  0  0  0  0  # atno 10718 bound_to 10713
  154.5692  135.2826  155.0844 H   0  0  0  0  0  0  0  0  0  0  0  0  # atno 10763 bound_to 10752
  154.2223  135.6389  153.5152 H   0  0  0  0  0  0  0  0  0  0  0  0  # atno 10764 bound_to 10752
  153.0052  135.5517  154.6310 H   0  0  0  0  0  0  0  0  0  0  0  0  # atno 10765 bound_to 10752
  140.5206  134.0562  155.7844 H   0  0  0  0  0  0  0  0  0  0  0  0  # atno 11005 bound_to 11000
  144.6740  140.0658  143.7474 LP  0  0  0  0  0  0  0  0  0  0  0  0  # atno 17320 bound_to 7965
  145.9581  139.2781  143.1172 LP  0  0  0  0  0  0  0  0  0  0  0  0  # atno 17321 bound_to 7965
  139.6837  144.7653  151.1562 LP  0  0  0  0  0  0  0  0  0  0  0  0  # atno 17342 bound_to 10162
  140.7655  143.5687  150.9019 LP  0  0  0  0  0  0  0  0  0  0  0  0  # atno 17343 bound_to 10162
  156.9257  130.9697  151.3541 LP  0  0  0  0  0  0  0  0  0  0  0  0  # atno 17370 bound_to 10713
  157.5932  130.8458  149.8689 LP  0  0  0  0  0  0  0  0  0  0  0  0  # atno 17371 bound_to 10713
  141.1336  133.9260  157.2483 LP  0  0  0  0  0  0  0  0  0  0  0  0  # atno 17394 bound_to 11000
  139.9608  135.0154  156.9254 LP  0  0  0  0  0  0  0  0  0  0  0  0  # atno 17395 bound_to 11000

$$$$
