AV-unprocessed.smi:740|AV-procd|sdf|3548|dock2
  -GOLD-   22720 0543D 1   1.00000     0.00000
 Structure written by MMmdl.
 44 46  0  0  0  0  0  0  0  0  1 V2000
  154.1597  141.8463  162.5310 C   0  0  0  0  0  0  0  0  0  0  0  0
  153.4117  141.7762  161.2111 C   0  0  0  0  0  0  0  0  0  0  0  0
  153.6264  140.6708  160.3575 C   0  0  0  0  0  0  0  0  0  0  0  0
  152.9533  140.5692  159.1205 C   0  0  0  0  0  0  0  0  0  0  0  0
  153.0136  139.5909  158.1427 N   0  0  0  0  0  0  0  0  0  0  0  0
  152.1632  140.0653  157.2371 C   0  0  0  0  0  0  0  0  0  0  0  0
  151.5564  141.2354  157.5137 N   0  0  0  0  0  0  0  0  0  0  0  0
  150.6001  141.9393  156.6778 C   0  0  0  0  0  0  0  0  0  0  0  0
  149.1779  141.9229  157.2705 C   0  0  2  0  0  0  0  0  0  0  0  0
  149.1270  140.9526  158.2989 O   0  0  0  0  0  0  0  0  0  0  0  0
  148.1188  141.5735  156.2046 C   0  0  0  0  0  0  0  0  0  0  0  0
  148.4091  140.2965  155.5428 N   0  0  0  0  0  0  0  0  0  0  0  0
  147.8902  139.1202  155.9210 C   0  0  0  0  0  0  0  0  0  0  0  0
  147.0996  138.9366  156.8462 O   0  0  0  0  0  0  0  0  0  0  0  0
  148.4139  137.9868  155.0503 C   0  0  0  0  0  0  0  0  0  0  0  0
  149.3611  138.7005  154.0739 C   0  0  2  0  0  0  0  0  0  0  0  0
  150.8099  138.1883  154.1303 C   0  0  0  0  0  0  0  0  0  0  0  0
  149.2575  140.1596  154.5140 C   0  0  0  0  0  0  0  0  0  0  0  0
  149.8905  141.0647  153.9703 O   0  0  0  0  0  0  0  0  0  0  0  0
  152.0502  141.6111  158.7584 C   0  0  0  0  0  0  0  0  0  0  0  0
  151.8275  142.7157  159.5996 C   0  0  0  0  0  0  0  0  0  0  0  0
  152.5100  142.8026  160.8310 C   0  0  0  0  0  0  0  0  0  0  0  0
  152.2660  144.0016  161.7302 C   0  0  0  0  0  0  0  0  0  0  0  0
  154.7811  140.9636  162.6840 H   0  0  0  0  0  0  0  0  0  0  0  0
  153.4605  141.9108  163.3649 H   0  0  0  0  0  0  0  0  0  0  0  0
  154.8092  142.7216  162.5543 H   0  0  0  0  0  0  0  0  0  0  0  0
  154.3140  139.8894  160.6460 H   0  0  0  0  0  0  0  0  0  0  0  0
  151.9701  139.5325  156.3172 H   0  0  0  0  0  0  0  0  0  0  0  0
  150.9463  142.9673  156.5629 H   0  0  0  0  0  0  0  0  0  0  0  0
  150.6087  141.4958  155.6814 H   0  0  0  0  0  0  0  0  0  0  0  0
  148.9680  142.9019  157.7038 H   0  0  0  0  0  0  0  0  0  0  0  0
  149.7537  140.2728  158.1037 H   0  0  0  0  0  0  0  0  0  0  0  0
  147.1391  141.4910  156.6788 H   0  0  0  0  0  0  0  0  0  0  0  0
  148.0159  142.3842  155.4807 H   0  0  0  0  0  0  0  0  0  0  0  0
  148.9271  137.2479  155.6667 H   0  0  0  0  0  0  0  0  0  0  0  0
  147.5914  137.4944  154.5305 H   0  0  0  0  0  0  0  0  0  0  0  0
  148.9797  138.6163  153.0555 H   0  0  0  0  0  0  0  0  0  0  0  0
  151.4482  138.7293  153.4310 H   0  0  0  0  0  0  0  0  0  0  0  0
  150.8577  137.1315  153.8670 H   0  0  0  0  0  0  0  0  0  0  0  0
  151.2369  138.3011  155.1278 H   0  0  0  0  0  0  0  0  0  0  0  0
  151.1396  143.4913  159.2971 H   0  0  0  0  0  0  0  0  0  0  0  0
  151.5627  144.7012  161.2775 H   0  0  0  0  0  0  0  0  0  0  0  0
  153.1974  144.5370  161.9153 H   0  0  0  0  0  0  0  0  0  0  0  0
  151.8523  143.6831  162.6872 H   0  0  0  0  0  0  0  0  0  0  0  0
  1  2  1  0  0  0  0
  1 24  1  0  0  0  0
  1 25  1  0  0  0  0
  1 26  1  0  0  0  0
  2 22  1  0  0  0  0
  2  3  2  0  0  0  0
  3  4  1  0  0  0  0
  3 27  1  0  0  0  0
  4 20  2  0  0  0  0
  4  5  1  0  0  0  0
  5  6  2  0  0  0  0
  6  7  1  0  0  0  0
  6 28  1  0  0  0  0
  7  8  1  0  0  0  0
  7 20  1  0  0  0  0
  8  9  1  0  0  0  0
  8 29  1  0  0  0  0
  8 30  1  0  0  0  0
  9 10  1  0  0  0  0
  9 11  1  0  0  0  0
  9 31  1  0  0  0  0
 10 32  1  0  0  0  0
 11 12  1  0  0  0  0
 11 33  1  0  0  0  0
 11 34  1  0  0  0  0
 12 18  1  0  0  0  0
 12 13  1  0  0  0  0
 13 14  2  0  0  0  0
 13 15  1  0  0  0  0
 15 16  1  0  0  0  0
 15 35  1  0  0  0  0
 15 36  1  0  0  0  0
 16 17  1  0  0  0  0
 16 18  1  0  0  0  0
 16 37  1  0  0  0  0
 17 38  1  0  0  0  0
 17 39  1  0  0  0  0
 17 40  1  0  0  0  0
 18 19  2  0  0  0  0
 20 21  1  0  0  0  0
 21 22  2  0  0  0  0
 21 41  1  0  0  0  0
 22 23  1  0  0  0  0
 23 42  1  0  0  0  0
 23 43  1  0  0  0  0
 23 44  1  0  0  0  0
M  END
> <s_m_source_file>
AV-unprocessed.smi

> <i_m_source_file_index>
740

> <i_lp_mmshare_version>
43012

> <i_f3d_flags>
0

> <s_epik_input>
W0NIM11jKFtjSF0xKWMoW0NIM10pW2NIXWMoYzEyKW4oW2NIXW4yKVtDSDJdW0NASF0oW09IXSlbQ0gyXU4zQyg9TylbQ0gyXVtDQEBIXShbQ0gzXSlDMz1P

> <s_epik_cmdline>
J2VwaWtfcHl0aG9uJywgJy1waCcsICc3LjAnLCAnLXRuJywgJzgnLCAnLW1hJywgJzIwMCcsICctbWV0YWxfYmluZGluZycsICctaW1hZScsICc8aW5maWxlLm1hZT4nLCAnLW9tYWUnLCAnPG91dGZpbGUubWFlPic=

> <r_lp_tautomer_probability>
1

> <r_epik_Ionization_Penalty>
0.104021

> <r_epik_Ionization_Penalty_Charging>
0

> <r_epik_Ionization_Penalty_Neutral>
0.104021

> <r_epik_State_Penalty>
0.0939354

> <r_epik_Charging_Adjusted_Penalty>
0.0939354

> <i_epik_Tot_Q>
0

> <i_epik_Tot_abs_Q>
0

> <r_epik_Metal_State_Penalty>
0.000101783

> <b_epik_Metal_Only>
0

> <s_lp_Force_Field>
OPLS_2005

> <r_lp_Energy>
16.7866

> <b_lp_Chiralities_Consistent>
1

> <s_lp_Variant>
AV-unprocessed.smi:740-3

> <Gold.Version>
5.8.1

> <Gold.Id.Protein>
6NUR|6NUR_protein|mol2

> <Gold.PLP.Fitness>
44.6673

> <Gold.PLP.PLP>
-40.5902

> <Gold.PLP.part.hbond>
-3.1605

> <Gold.PLP.part.metal>
0.0000

> <Gold.PLP.part.buried>
-0.0130

> <Gold.PLP.part.nonpolar>
-36.5515

> <Gold.PLP.part.repulsive>
1.0360

> <Gold.PLP.ligand.clash>
0.0000

> <Gold.PLP.ligand.torsion>
1.0935

> <Gold.PLP.Chemscore.Hbond>
2.0705

> <Gold.PLP.Chemscore.CHOScore>
0.0000

> <Gold.PLP.Chemscore.Metal>
0.0000

> <Gold.Chemscore.Hbonds>
donor molecule, donor type, donor heavy atom, donor atom, acceptor molecule, acceptor atom, score
      P1  H  7989  7998       L1    19  0.42
      P1  H  7997  8009       L1     5  0.88
      P1  H  8011  8017       L1    19  0.64

> <Gold.PLP.Chemscore.Internal.Correction>
0.0526

> <Gold.Rescore>
     Score         DG    S(hbond)    S(metal)    S(lipo)     H(rot)  DE(clash)    DE(int)     intcor
     12.98     -16.55       1.34        0.00     107.12       2.31       0.06       3.51       ----

> <Gold.Chemscore.Fitness>
12.9826

> <Gold.Chemscore.DG>
-16.5492

> <Gold.Chemscore.ZeroCoef>
-5.4800

> <Gold.Chemscore.Hbond>
1.3359

> <Gold.Chemscore.Metal>
0.0000

> <Gold.Chemscore.Lipo>
107.1195

> <Gold.Chemscore.Internal_Hbond>
0.0000

> <Gold.Chemscore.DEClash>
0.0591

> <Gold.Chemscore.DEInternal>
3.5075

> <Gold.Chemscore.Rot>
2.3147

> <Gold.Chemscore.Internal.Correction>
   9.000000E+99

> <Gold.Chemscore.Hbonds>
donor molecule, donor type, donor heavy atom, donor atom, acceptor molecule, acceptor atom, score
      P1  H  7989  7998       L1    19  0.42
      P1  H  7997  8009       L1     5  0.06
      P1  H  8011  8017       L1    19  0.62

> <Gold.Chemscore.Hbond.Weighted>
-4.4618

> <Gold.Chemscore.Metal.Weighted>
-0.0000

> <Gold.Chemscore.Lipo.Weighted>
-12.5330

> <Gold.Chemscore.Internal_Hbond.Weighted>
0.0000

> <Gold.Chemscore.DEClash.Weighted>
0.0591

> <Gold.Chemscore.DEInternal.Weighted>
3.5075

> <Gold.Chemscore.Rot.Weighted>
5.9256

> <Gold.Chemscore.Internal.Correction.Weighted>
   9.000000E+99

> <Gold.Protein.RotatedTorsions>
[ 6907 6896 6895 6894 ] final  130.15 input  -60.11 | X-H torsion
[ 7974 7965 7964 7962 ] final   34.66 input  175.53 | X-H torsion
[ 8008 7997 7996 7995 ] final  140.77 input   59.86 | X-H torsion
[ 10167 10162 10161 10158 ] final   -5.88 input  -65.29 | X-H torsion
[ 10718 10713 10712 10709 ] final  170.55 input   66.30 | X-H torsion
[ 10763 10752 10751 10750 ] final -139.92 input  -60.55 | X-H torsion
[ 11005 11000 10999 10996 ] final  153.60 input  -57.11 | X-H torsion

> <Gold.Protein.ActiveResidues>
 VAL166  LYS551  ARG553  GLY616  TRP617  ASP618  TYR619  PRO620  LYS621  CYS622 
 ASP623  PHE694  ASN695  SER759  ASP760  ASP761  ALA762  ILE779  LEU786  VAL792 
 PHE793  MET794  SER795  GLU796  ALA797  LYS798  CYS799  TRP800  GLU811  SER814 

> <Gold.Protein.RotatedAtoms>
  152.3555  133.6231  159.5975 H   0  0  0  0  0  0  0  0  0  0  0  0  # atno 6907 bound_to 6896
  150.7565  133.9507  159.3494 H   0  0  0  0  0  0  0  0  0  0  0  0  # atno 6908 bound_to 6896
  151.7353  135.0867  160.0358 H   0  0  0  0  0  0  0  0  0  0  0  0  # atno 6909 bound_to 6896
  146.1337  139.6240  142.9209 H   0  0  0  0  0  0  0  0  0  0  0  0  # atno 7974 bound_to 7965
  156.2975  140.2333  156.4455 H   0  0  0  0  0  0  0  0  0  0  0  0  # atno 8008 bound_to 7997
  154.8148  140.0441  157.1389 H   0  0  0  0  0  0  0  0  0  0  0  0  # atno 8009 bound_to 7997
  154.9382  140.3026  155.5137 H   0  0  0  0  0  0  0  0  0  0  0  0  # atno 8010 bound_to 7997
  140.6978  143.6257  150.8570 H   0  0  0  0  0  0  0  0  0  0  0  0  # atno 10167 bound_to 10162
  157.0064  131.0191  151.2816 H   0  0  0  0  0  0  0  0  0  0  0  0  # atno 10718 bound_to 10713
  154.8594  135.3568  154.5625 H   0  0  0  0  0  0  0  0  0  0  0  0  # atno 10763 bound_to 10752
  153.6239  135.7005  153.5305 H   0  0  0  0  0  0  0  0  0  0  0  0  # atno 10764 bound_to 10752
  153.3105  135.4180  155.1292 H   0  0  0  0  0  0  0  0  0  0  0  0  # atno 10765 bound_to 10752
  140.1412  134.8737  157.2334 H   0  0  0  0  0  0  0  0  0  0  0  0  # atno 11005 bound_to 11000
  145.5203  141.0432  143.2439 LP  0  0  0  0  0  0  0  0  0  0  0  0  # atno 17320 bound_to 7965
  144.7717  139.6720  143.7192 LP  0  0  0  0  0  0  0  0  0  0  0  0  # atno 17321 bound_to 7965
  139.9977  143.5778  152.2887 LP  0  0  0  0  0  0  0  0  0  0  0  0  # atno 17342 bound_to 10162
  139.6456  144.7658  151.2250 LP  0  0  0  0  0  0  0  0  0  0  0  0  # atno 17343 bound_to 10162
  157.5352  130.8084  149.7964 LP  0  0  0  0  0  0  0  0  0  0  0  0  # atno 17370 bound_to 10713
  156.0152  130.3816  150.2135 LP  0  0  0  0  0  0  0  0  0  0  0  0  # atno 17371 bound_to 10713
  140.2719  134.3450  155.7370 LP  0  0  0  0  0  0  0  0  0  0  0  0  # atno 17394 bound_to 11000
  141.2186  133.7428  156.9236 LP  0  0  0  0  0  0  0  0  0  0  0  0  # atno 17395 bound_to 11000

$$$$
