#       Name:                AV-unprocessed.smi:797
#       Creating user name   scv26
#       Creation time:       Fri Mar 27 01:20:11 2020


#       File generated by GOLD software.
#

@<TRIPOS>MOLECULE
AV-unprocessed.smi:797
    38    39     1
SMALL
NO_CHARGES


@<TRIPOS>ATOM
      1 ****        -3.7493   3.3110  -0.5321 C.3            1 S1                 0.0000
      2 ****        -3.4935   1.9248  -1.0452 C.2            1 S1                 0.0000
      3 ****        -2.9238   0.8194  -0.3569 C.2            1 S1                 0.0000
      4 ****        -2.9208  -0.1769  -1.2917 C.2            1 S1                 0.0000
      5 ****        -2.4631  -1.5981  -1.2630 C.3            1 S1                 0.0000
      6 ****        -0.6361  -1.6888  -1.5064 S.o2           1 S1                 0.0000
      7 ****        -0.3438  -3.0970  -1.8191 O.2            1 S1                 0.0000
      8 ****        -0.3031  -0.6894  -2.5351 O.2            1 S1                 0.0000
      9 ****        -0.1136  -1.2717  -0.0272 N.pl3          1 S1                -1.0000
     10 ****         1.3134  -1.1546   0.2325 C.3            1 S1                 0.0000
     11 ****         1.5986  -1.4225   1.7308 C.3            1 S1                 0.0000
     12 ****         3.0793  -1.1871   2.1244 C.3            1 S1                 0.0000
     13 ****         3.5718   0.2297   1.7617 C.3            1 S1                 0.0000
     14 ****         3.2996   0.5052   0.2681 C.3            1 S1                 0.0000
     15 ****         1.8194   0.2665  -0.1239 C.3            1 S1                 0.0000
     16 ****        -3.4542   0.2739  -2.4566 O.3            1 S1                 0.0000
     17 ****        -3.8178   1.6147  -2.2892 N.2            1 S1                 0.0000
     18 ****        -3.1219   3.5310   0.3319 H              1 S1                 0.0000
     19 ****        -4.7890   3.4283  -0.2267 H              1 S1                 0.0000
     20 ****        -3.5375   4.0622  -1.2935 H              1 S1                 0.0000
     21 ****        -2.5629   0.7649   0.6593 H              1 S1                 0.0000
     22 ****        -2.7214  -2.0841  -0.3226 H              1 S1                 0.0000
     23 ****        -2.9345  -2.1595  -2.0692 H              1 S1                 0.0000
     24 ****         1.8860  -1.8793  -0.3478 H              1 S1                 0.0000
     25 ****         0.9691  -0.7752   2.3436 H              1 S1                 0.0000
     26 ****         1.3168  -2.4456   1.9823 H              1 S1                 0.0000
     27 ****         3.1989  -1.3476   3.1962 H              1 S1                 0.0000
     28 ****         3.7187  -1.9285   1.6406 H              1 S1                 0.0000
     29 ****         3.0499   0.9674   2.3723 H              1 S1                 0.0000
     30 ****         4.6348   0.3330   1.9812 H              1 S1                 0.0000
     31 ****         3.5737   1.5343   0.0344 H              1 S1                 0.0000
     32 ****         3.9537  -0.1213  -0.3418 H              1 S1                 0.0000
     33 ****         1.7022   0.4489  -1.1922 H              1 S1                 0.0000
     34 ****         1.1998   1.0105   0.3793 H              1 S1                 0.0000
     35 ****        -0.7717  -1.0954   0.7049 LP             1 S1                 0.0000
     36 ****        -4.2617  -0.2679  -2.6897 LP             1 S1                 0.0000
     37 ****        -2.7780   0.1968  -3.1893 LP             1 S1                 0.0000
     38 ****        -4.2368   2.2151  -2.9703 LP             1 S1                 0.0000
@<TRIPOS>BOND
    1    1    2 1     
    2    1   18 1     
    3    1   19 1     
    4    1   20 1     
    5    2   17 2     
    6    2    3 1     
    7    3    4 2     
    8    3   21 1     
    9    4    5 1     
   10    4   16 1     
   11    5    6 1     
   12    5   22 1     
   13    5   23 1     
   14    6    7 2     
   15    6    8 2     
   16    6    9 1     
   17    9   10 1     
   18   10   15 1     
   19   10   11 1     
   20   10   24 1     
   21   11   12 1     
   22   11   25 1     
   23   11   26 1     
   24   12   13 1     
   25   12   27 1     
   26   12   28 1     
   27   13   14 1     
   28   13   29 1     
   29   13   30 1     
   30   14   15 1     
   31   14   31 1     
   32   14   32 1     
   33   15   33 1     
   34   15   34 1     
   35   16   17 1     
   36    9   35 1     
   37   16   36 1     
   38   16   37 1     
   39   17   38 1     
@<TRIPOS>SUBSTRUCTURE
      1 S1             1
@<TRIPOS>SET
LONE_PAIRS      STATIC     ATOMS    <user>   **** ""
6 7 8 35 36 37 38
ATOM$BLUE        STATIC     ATOMS    COLORGROUP SYSTEM
6 7 8 35 36 37 38
