AV-unprocessed.smi:2678|AV-procd|sdf|10369|dock8
  -GOLD-   2272014393D 1   1.00000     0.00000
 Structure written by MMmdl.
 46 47  0  0  0  0  0  0  0  0  1 V2000
  147.0732  136.6307  156.9324 C   0  0  0  0  0  0  0  0  0  0  0  0
  147.8189  135.4365  157.5425 C   0  0  0  0  0  0  0  0  0  0  0  0
  148.5291  135.8197  158.8506 C   0  0  0  0  0  0  0  0  0  0  0  0
  148.7783  134.9167  156.5723 N   0  0  0  0  0  0  0  0  0  0  0  0
  149.5593  133.8390  156.7496 C   0  0  0  0  0  0  0  0  0  0  0  0
  149.5460  133.1685  157.7818 O   0  0  0  0  0  0  0  0  0  0  0  0
  150.4883  133.4703  155.5772 C   0  0  1  0  0  0  0  0  0  0  0  0
  151.3542  132.2224  155.8688 C   0  0  0  0  0  0  0  0  0  0  0  0
  150.5859  130.8950  155.7344 C   0  0  0  0  0  0  0  0  0  0  0  0
  149.8967  130.7859  154.3660 C   0  0  0  0  0  0  0  0  0  0  0  0
  148.9523  131.9754  154.1207 C   0  0  2  0  0  0  0  0  0  0  0  0
  148.3394  131.8490  152.7967 N   0  0  0  0  0  0  0  0  0  0  0  0
  147.1173  132.2529  152.4031 C   0  0  0  0  0  0  0  0  0  0  0  0
  146.3418  132.7898  153.1908 O   0  0  0  0  0  0  0  0  0  0  0  0
  146.8416  131.9924  151.1100 N   0  0  0  0  0  0  0  0  0  0  0  0
  145.6570  132.2658  150.3756 C   0  0  0  0  0  0  0  0  0  0  0  0
  144.4654  132.7801  150.9416 C   0  0  0  0  0  0  0  0  0  0  0  0
  143.3643  133.0249  150.0984 C   0  0  0  0  0  0  0  0  0  0  0  0
  143.4965  132.7537  148.7226 C   0  0  0  0  0  0  0  0  0  0  0  0
  144.6304  132.2758  148.1680 N   0  0  0  0  0  0  0  0  0  0  0  0
  145.6824  132.0448  148.9822 C   0  0  0  0  0  0  0  0  0  0  0  0
  149.7225  133.3122  154.2428 C   0  0  0  0  0  0  0  0  0  0  0  0
  146.3273  137.0208  157.6257 H   0  0  0  0  0  0  0  0  0  0  0  0
  146.5539  136.3447  156.0171 H   0  0  0  0  0  0  0  0  0  0  0  0
  147.7571  137.4444  156.6881 H   0  0  0  0  0  0  0  0  0  0  0  0
  147.0814  134.6619  157.7608 H   0  0  0  0  0  0  0  0  0  0  0  0
  147.8187  136.2055  159.5823 H   0  0  0  0  0  0  0  0  0  0  0  0
  149.2835  136.5888  158.6821 H   0  0  0  0  0  0  0  0  0  0  0  0
  149.0256  134.9593  159.3004 H   0  0  0  0  0  0  0  0  0  0  0  0
  148.8502  135.4123  155.6955 H   0  0  0  0  0  0  0  0  0  0  0  0
  151.1749  134.3093  155.4504 H   0  0  0  0  0  0  0  0  0  0  0  0
  152.1954  132.2115  155.1746 H   0  0  0  0  0  0  0  0  0  0  0  0
  151.7942  132.2917  156.8649 H   0  0  0  0  0  0  0  0  0  0  0  0
  151.2725  130.0588  155.8680 H   0  0  0  0  0  0  0  0  0  0  0  0
  149.8444  130.8049  156.5282 H   0  0  0  0  0  0  0  0  0  0  0  0
  150.6541  130.7440  153.5817 H   0  0  0  0  0  0  0  0  0  0  0  0
  149.3412  129.8490  154.3101 H   0  0  0  0  0  0  0  0  0  0  0  0
  148.1653  131.9271  154.8737 H   0  0  0  0  0  0  0  0  0  0  0  0
  148.9031  131.3860  152.0984 H   0  0  0  0  0  0  0  0  0  0  0  0
  147.5519  131.4807  150.6066 H   0  0  0  0  0  0  0  0  0  0  0  0
  144.3768  133.0039  151.9929 H   0  0  0  0  0  0  0  0  0  0  0  0
  142.4401  133.4159  150.4975 H   0  0  0  0  0  0  0  0  0  0  0  0
  142.6711  132.9309  148.0492 H   0  0  0  0  0  0  0  0  0  0  0  0
  146.5740  131.6651  148.5042 H   0  0  0  0  0  0  0  0  0  0  0  0
  149.0412  134.1538  154.1104 H   0  0  0  0  0  0  0  0  0  0  0  0
  150.4391  133.3841  153.4234 H   0  0  0  0  0  0  0  0  0  0  0  0
  1  2  1  0  0  0  0
  1 23  1  0  0  0  0
  1 24  1  0  0  0  0
  1 25  1  0  0  0  0
  2  3  1  0  0  0  0
  2  4  1  0  0  0  0
  2 26  1  0  0  0  0
  3 27  1  0  0  0  0
  3 28  1  0  0  0  0
  3 29  1  0  0  0  0
  4  5  1  0  0  0  0
  4 30  1  0  0  0  0
  5  6  2  0  0  0  0
  5  7  1  0  0  0  0
  7 22  1  0  0  0  0
  7  8  1  0  0  0  0
  7 31  1  0  0  0  0
  8  9  1  0  0  0  0
  8 32  1  0  0  0  0
  8 33  1  0  0  0  0
  9 10  1  0  0  0  0
  9 34  1  0  0  0  0
  9 35  1  0  0  0  0
 10 11  1  0  0  0  0
 10 36  1  0  0  0  0
 10 37  1  0  0  0  0
 11 12  1  0  0  0  0
 11 22  1  0  0  0  0
 11 38  1  0  0  0  0
 12 13  1  0  0  0  0
 12 39  1  0  0  0  0
 13 14  2  0  0  0  0
 13 15  1  0  0  0  0
 15 16  1  0  0  0  0
 15 40  1  0  0  0  0
 16 21  1  0  0  0  0
 16 17  2  0  0  0  0
 17 18  1  0  0  0  0
 17 41  1  0  0  0  0
 18 19  2  0  0  0  0
 18 42  1  0  0  0  0
 19 20  1  0  0  0  0
 19 43  1  0  0  0  0
 20 21  2  0  0  0  0
 21 44  1  0  0  0  0
 22 45  1  0  0  0  0
 22 46  1  0  0  0  0
M  END
> <s_m_source_file>
AV-unprocessed.smi

> <i_m_source_file_index>
2678

> <i_lp_mmshare_version>
43012

> <i_f3d_flags>
0

> <s_epik_input>
W0NIM11bQ0hdKFtDSDNdKVtOSF1DKD1PKVtDQEBIXTFbQ0gyXVtDSDJdW0NIMl1bQ0BIXShbQ0gyXTEpW05IXUMoPU8pW05IXWMyW2NIXVtjSF1bY0hdbltjSF0y

> <s_epik_cmdline>
J2VwaWtfcHl0aG9uJywgJy1waCcsICc3LjAnLCAnLXRuJywgJzgnLCAnLW1hJywgJzIwMCcsICctbWV0YWxfYmluZGluZycsICctaW1hZScsICc8aW5maWxlLm1hZT4nLCAnLW9tYWUnLCAnPG91dGZpbGUubWFlPic=

> <r_epik_Ionization_Penalty>
0.00482944

> <r_epik_Ionization_Penalty_Charging>
0

> <r_epik_Ionization_Penalty_Neutral>
0.00482944

> <r_epik_State_Penalty>
0.00347168

> <r_epik_Charging_Adjusted_Penalty>
0.00347168

> <i_epik_Tot_Q>
0

> <i_epik_Tot_abs_Q>
0

> <r_epik_Metal_State_Penalty>
-0

> <b_epik_Metal_Only>
0

> <s_lp_Force_Field>
OPLS_2005

> <r_lp_Energy>
20.538

> <b_lp_Chiralities_Consistent>
1

> <s_lp_Variant>
AV-unprocessed.smi:2678-4

> <Gold.Version>
5.8.1

> <Gold.Id.Protein>
6NUR|6NUR_protein|mol2

> <Gold.PLP.Fitness>
45.5594

> <Gold.PLP.PLP>
-34.8355

> <Gold.PLP.part.hbond>
-4.7622

> <Gold.PLP.part.metal>
0.0000

> <Gold.PLP.part.buried>
0.5707

> <Gold.PLP.part.nonpolar>
-29.8506

> <Gold.PLP.part.repulsive>
1.1707

> <Gold.PLP.ligand.clash>
0.0000

> <Gold.PLP.ligand.torsion>
0.4265

> <Gold.PLP.Chemscore.Hbond>
2.9296

> <Gold.PLP.Chemscore.CHOScore>
0.9108

> <Gold.PLP.Chemscore.Metal>
0.0000

> <Gold.Chemscore.Hbonds>
donor molecule, donor type, donor heavy atom, donor atom, acceptor molecule, acceptor atom, score
      L1  H    12    39       P1 10747  0.93
      L1  H    15    40       P1 10747  1.00
      P1  H  6896  6909       L1     6  0.99
      L1  C    19    43       P1 10186  0.31
      L1  C    19    43       P1 10195  0.66

> <Gold.PLP.Chemscore.Internal.Correction>
0.0559

> <Gold.Rescore>
     Score         DG    S(hbond)    S(metal)    S(lipo)     H(rot)  DE(clash)    DE(int)     intcor
     18.63     -21.29       2.64        0.00      91.79       1.46       1.00       1.66       ----

> <Gold.Chemscore.Fitness>
18.6295

> <Gold.Chemscore.DG>
-21.2860

> <Gold.Chemscore.ZeroCoef>
-5.4800

> <Gold.Chemscore.Hbond>
2.6363

> <Gold.Chemscore.Metal>
0.0000

> <Gold.Chemscore.Lipo>
91.7876

> <Gold.Chemscore.Internal_Hbond>
0.0000

> <Gold.Chemscore.DEClash>
1.0001

> <Gold.Chemscore.DEInternal>
1.6564

> <Gold.Chemscore.Rot>
1.4603

> <Gold.Chemscore.Internal.Correction>
   9.000000E+99

> <Gold.Chemscore.Hbonds>
donor molecule, donor type, donor heavy atom, donor atom, acceptor molecule, acceptor atom, score
      L1  H    12    39       P1 10747  0.70
      L1  H    15    40       P1 10747  0.97
      P1  H  6896  6909       L1     6  0.84
      P1  H  7918  7932       L1    20  0.01

> <Gold.Chemscore.Hbond.Weighted>
-8.8052

> <Gold.Chemscore.Metal.Weighted>
-0.0000

> <Gold.Chemscore.Lipo.Weighted>
-10.7392

> <Gold.Chemscore.Internal_Hbond.Weighted>
0.0000

> <Gold.Chemscore.DEClash.Weighted>
1.0001

> <Gold.Chemscore.DEInternal.Weighted>
1.6564

> <Gold.Chemscore.Rot.Weighted>
3.7383

> <Gold.Chemscore.Internal.Correction.Weighted>
   9.000000E+99

> <Gold.Protein.RotatedTorsions>
[ 6907 6896 6895 6894 ] final    4.68 input  -60.11 | X-H torsion
[ 7974 7965 7964 7962 ] final   53.64 input  175.53 | X-H torsion
[ 8008 7997 7996 7995 ] final  -93.04 input   59.86 | X-H torsion
[ 10167 10162 10161 10158 ] final   37.82 input  -65.29 | X-H torsion
[ 10718 10713 10712 10709 ] final -112.84 input   66.30 | X-H torsion
[ 10763 10752 10751 10750 ] final   35.58 input  -60.55 | X-H torsion
[ 11005 11000 10999 10996 ] final  -30.05 input  -57.11 | X-H torsion

> <Gold.Protein.ActiveResidues>
 VAL166  LYS551  ARG553  GLY616  TRP617  ASP618  TYR619  PRO620  LYS621  CYS622 
 ASP623  PHE694  ASN695  SER759  ASP760  ASP761  ALA762  ILE779  LEU786  VAL792 
 PHE793  MET794  SER795  GLU796  ALA797  LYS798  CYS799  TRP800  GLU811  SER814 

> <Gold.Protein.RotatedAtoms>
  151.6452  135.1008  160.0149 H   0  0  0  0  0  0  0  0  0  0  0  0  # atno 6907 bound_to 6896
  152.4032  133.6844  159.6342 H   0  0  0  0  0  0  0  0  0  0  0  0  # atno 6908 bound_to 6896
  150.7929  133.8672  159.3289 H   0  0  0  0  0  0  0  0  0  0  0  0  # atno 6909 bound_to 6896
  145.9691  139.4132  143.0201 H   0  0  0  0  0  0  0  0  0  0  0  0  # atno 7974 bound_to 7965
  154.7307  140.0503  157.0724 H   0  0  0  0  0  0  0  0  0  0  0  0  # atno 8008 bound_to 7997
  155.0306  140.3157  155.4741 H   0  0  0  0  0  0  0  0  0  0  0  0  # atno 8009 bound_to 7997
  156.2840  140.2150  156.5427 H   0  0  0  0  0  0  0  0  0  0  0  0  # atno 8010 bound_to 7997
  140.3995  144.1742  150.6133 H   0  0  0  0  0  0  0  0  0  0  0  0  # atno 10167 bound_to 10162
  156.0730  130.5941  150.8563 H   0  0  0  0  0  0  0  0  0  0  0  0  # atno 10718 bound_to 10713
  153.0113  135.6329  154.1850 H   0  0  0  0  0  0  0  0  0  0  0  0  # atno 10763 bound_to 10752
  154.1591  135.2824  155.3115 H   0  0  0  0  0  0  0  0  0  0  0  0  # atno 10764 bound_to 10752
  154.5995  135.5592  153.7420 H   0  0  0  0  0  0  0  0  0  0  0  0  # atno 10765 bound_to 10752
  140.9349  133.7315  156.0990 H   0  0  0  0  0  0  0  0  0  0  0  0  # atno 11005 bound_to 11000
  145.7931  140.9805  143.1038 LP  0  0  0  0  0  0  0  0  0  0  0  0  # atno 17320 bound_to 7965
  144.6832  139.9708  143.7482 LP  0  0  0  0  0  0  0  0  0  0  0  0  # atno 17321 bound_to 7965
  140.4754  143.2398  151.9030 LP  0  0  0  0  0  0  0  0  0  0  0  0  # atno 17342 bound_to 10162
  139.4785  144.5325  151.8645 LP  0  0  0  0  0  0  0  0  0  0  0  0  # atno 17343 bound_to 10162
  157.5811  131.0946  150.9269 LP  0  0  0  0  0  0  0  0  0  0  0  0  # atno 17370 bound_to 10713
  156.9465  130.5404  149.5281 LP  0  0  0  0  0  0  0  0  0  0  0  0  # atno 17371 bound_to 10713
  140.7812  134.3723  157.5487 LP  0  0  0  0  0  0  0  0  0  0  0  0  # atno 17394 bound_to 11000
  139.8805  134.9083  156.2964 LP  0  0  0  0  0  0  0  0  0  0  0  0  # atno 17395 bound_to 11000

$$$$
