AV-unprocessed.smi:101|AV-procd|sdf|929|dock7
  -GOLD-   2262017443D 1   1.00000     0.00000
 Structure written by MMmdl.
 43 45  0  0  0  0  0  0  0  0  2 V2000
  149.0905  134.7461  156.9966 C   0  0  0  0  0  0  0  0  0  0  0  0
  150.0446  135.6724  156.2626 C   0  0  0  0  0  0  0  0  0  0  0  0
  149.6203  136.5598  155.3360 C   0  0  0  0  0  0  0  0  0  0  0  0
  150.4890  137.4085  154.6643 N   0  0  0  0  0  0  0  0  0  0  0  0
  149.9933  138.4726  153.6895 C   0  0  2  0  0  0  0  0  0  0  0  0
  150.3612  139.7166  154.1953 O   0  0  0  0  0  0  0  0  0  0  0  0
  149.2991  140.2093  154.9997 C   0  0  1  0  0  0  0  0  0  0  0  0
  149.4778  141.7090  155.2773 C   0  0  0  0  0  0  0  0  0  0  0  0
  150.5760  141.8800  156.1576 O   0  0  0  0  0  0  0  0  0  0  0  0
  150.5449  141.3455  157.3923 C   0  0  0  0  0  0  0  0  0  0  0  0
  149.9323  140.3135  157.6743 O   0  0  0  0  0  0  0  0  0  0  0  0
  151.3338  142.1329  158.3835 C   0  0  0  0  0  0  0  0  0  0  0  0
  151.5575  143.5107  158.1551 C   0  0  0  0  0  0  0  0  0  0  0  0
  152.2975  144.2794  159.0748 C   0  0  0  0  0  0  0  0  0  0  0  0
  152.8230  143.6797  160.2341 C   0  0  0  0  0  0  0  0  0  0  0  0
  152.6080  142.3098  160.4725 C   0  0  0  0  0  0  0  0  0  0  0  0
  151.8689  141.5392  159.5538 C   0  0  0  0  0  0  0  0  0  0  0  0
  148.0469  139.8053  154.2007 C   0  0  1  0  0  0  0  0  0  0  0  0
  147.6683  140.8322  153.2968 O   0  0  0  0  0  0  0  0  0  0  0  0
  148.4619  138.5039  153.4914 C   0  0  1  0  0  0  0  0  0  0  0  0
  148.0988  138.4780  152.1233 O   0  0  0  0  0  0  0  0  0  0  0  0
  151.8615  137.4178  155.0391 C   0  0  0  0  0  0  0  0  0  0  0  0
  152.6053  138.2479  154.5163 O   0  0  0  0  0  0  0  0  0  0  0  0
  152.3027  136.5127  155.9585 N   0  5  0  0  0  0  0  0  0  0  0  0
  151.4752  135.6253  156.5786 C   0  0  0  0  0  0  0  0  0  0  0  0
  151.8904  134.8009  157.3926 O   0  0  0  0  0  0  0  0  0  0  0  0
  148.0608  134.8976  156.6722 H   0  0  0  0  0  0  0  0  0  0  0  0
  149.1368  134.9258  158.0711 H   0  0  0  0  0  0  0  0  0  0  0  0
  149.3532  133.7045  156.8100 H   0  0  0  0  0  0  0  0  0  0  0  0
  148.5607  136.6075  155.1418 H   0  0  0  0  0  0  0  0  0  0  0  0
  150.5054  138.2733  152.7472 H   0  0  0  0  0  0  0  0  0  0  0  0
  149.2951  139.6753  155.9506 H   0  0  0  0  0  0  0  0  0  0  0  0
  149.6380  142.2580  154.3482 H   0  0  0  0  0  0  0  0  0  0  0  0
  148.5811  142.1100  155.7520 H   0  0  0  0  0  0  0  0  0  0  0  0
  151.1639  143.9933  157.2721 H   0  0  0  0  0  0  0  0  0  0  0  0
  152.4617  145.3307  158.8895 H   0  0  0  0  0  0  0  0  0  0  0  0
  153.3900  144.2693  160.9394 H   0  0  0  0  0  0  0  0  0  0  0  0
  153.0110  141.8473  161.3617 H   0  0  0  0  0  0  0  0  0  0  0  0
  151.7242  140.4899  159.7671 H   0  0  0  0  0  0  0  0  0  0  0  0
  147.2038  139.6318  154.8701 H   0  0  0  0  0  0  0  0  0  0  0  0
  148.2660  140.8246  152.5651 H   0  0  0  0  0  0  0  0  0  0  0  0
  147.9892  137.6310  153.9368 H   0  0  0  0  0  0  0  0  0  0  0  0
  148.7954  138.8800  151.6265 H   0  0  0  0  0  0  0  0  0  0  0  0
  1  2  1  0  0  0  0
  1 27  1  0  0  0  0
  1 28  1  0  0  0  0
  1 29  1  0  0  0  0
  2 25  1  0  0  0  0
  2  3  2  0  0  0  0
  3  4  1  0  0  0  0
  3 30  1  0  0  0  0
  4  5  1  0  0  0  0
  4 22  1  0  0  0  0
  5 20  1  0  0  0  0
  5  6  1  0  0  0  0
  5 31  1  0  0  0  0
  6  7  1  0  0  0  0
  7  8  1  0  0  0  0
  7 18  1  0  0  0  0
  7 32  1  0  0  0  0
  8  9  1  0  0  0  0
  8 33  1  0  0  0  0
  8 34  1  0  0  0  0
  9 10  1  0  0  0  0
 10 11  2  0  0  0  0
 10 12  1  0  0  0  0
 12 17  1  0  0  0  0
 12 13  2  0  0  0  0
 13 14  1  0  0  0  0
 13 35  1  0  0  0  0
 14 15  2  0  0  0  0
 14 36  1  0  0  0  0
 15 16  1  0  0  0  0
 15 37  1  0  0  0  0
 16 17  2  0  0  0  0
 16 38  1  0  0  0  0
 17 39  1  0  0  0  0
 18 19  1  0  0  0  0
 18 20  1  0  0  0  0
 18 40  1  0  0  0  0
 19 41  1  0  0  0  0
 20 21  1  0  0  0  0
 20 42  1  0  0  0  0
 21 43  1  0  0  0  0
 22 23  2  0  0  0  0
 22 24  1  0  0  0  0
 24 25  1  0  0  0  0
 25 26  2  0  0  0  0
M  CHG  1  24  -1
M  END
> <s_m_source_file>
AV-unprocessed.smi

> <i_m_source_file_index>
101

> <i_lp_mmshare_version>
43012

> <i_f3d_flags>
0

> <s_epik_input>
Tz1jMVtuSF1jKD1PKW4oW2NIXWMxW0NIM10pW0NAQEhdMk9bQ0BIXShbQ0BASF0oW09IXSlbQ0BIXTJbT0hdKVtDSDJdT0MoPU8pYzNbY0hdW2NIXVtjSF1bY0hdW2NIXTM=

> <s_epik_cmdline>
J2VwaWtfcHl0aG9uJywgJy1waCcsICc3LjAnLCAnLXRuJywgJzgnLCAnLW1hJywgJzIwMCcsICctbWV0YWxfYmluZGluZycsICctaW1hZScsICc8aW5maWxlLm1hZT4nLCAnLW9tYWUnLCAnPG91dGZpbGUubWFlPic=

> <r_lp_tautomer_probability>
0.999537

> <r_epik_Ionization_Penalty>
3.21006

> <r_epik_Ionization_Penalty_Charging>
5.75142e-08

> <r_epik_Ionization_Penalty_Neutral>
3.21006

> <r_epik_State_Penalty>
3.20925

> <r_epik_Charging_Adjusted_Penalty>
3.20925

> <i_epik_Tot_Q>
-1

> <i_epik_Tot_abs_Q>
1

> <r_epik_Metal_State_Penalty>
0.119957

> <b_epik_Metal_Only>
1

> <s_epik_Chemistry_Notes>
This compound has an ester and may undergo hydrolysis at high or low pH. This compound contains an acetal/aminal-like group ( X-CH(R)-Y where X, Y are N, S, or O) that may be acid/base labile, releasing an aldehyde.

> <s_lp_Force_Field>
OPLS_2005

> <r_lp_Energy>
45.1107

> <b_lp_Chiralities_Consistent>
1

> <s_lp_Variant>
AV-unprocessed.smi:101-17

> <Gold.Version>
5.8.1

> <Gold.Id.Protein>
6NUR|6NUR_protein|mol2

> <Gold.PLP.Fitness>
51.7435

> <Gold.PLP.PLP>
-38.0652

> <Gold.PLP.part.hbond>
-6.0252

> <Gold.PLP.part.metal>
0.0000

> <Gold.PLP.part.buried>
2.8159

> <Gold.PLP.part.nonpolar>
-35.1703

> <Gold.PLP.part.repulsive>
0.4099

> <Gold.PLP.ligand.clash>
0.0000

> <Gold.PLP.ligand.torsion>
0.7364

> <Gold.PLP.Chemscore.Hbond>
5.0000

> <Gold.PLP.Chemscore.CHOScore>
0.0000

> <Gold.PLP.Chemscore.Metal>
0.0000

> <Gold.Chemscore.Hbonds>
donor molecule, donor type, donor heavy atom, donor atom, acceptor molecule, acceptor atom, score
      L1  H    19    41       P1  7957  0.88
      L1  H    21    43       P1  7957  0.81
      P1  H  7989  7998       L1     6  1.00
      P1  H 10752 10763       L1    24  1.90

> <Gold.PLP.Chemscore.Internal.Correction>
0.1510

> <Gold.Rescore>
     Score         DG    S(hbond)    S(metal)    S(lipo)     H(rot)  DE(clash)    DE(int)     intcor
     13.03     -18.56       2.93        0.00      99.72       3.27       1.78       3.75       ----

> <Gold.Chemscore.Fitness>
13.0325

> <Gold.Chemscore.DG>
-18.5646

> <Gold.Chemscore.ZeroCoef>
-5.4800

> <Gold.Chemscore.Hbond>
2.9272

> <Gold.Chemscore.Metal>
0.0000

> <Gold.Chemscore.Lipo>
99.7237

> <Gold.Chemscore.Internal_Hbond>
0.0000

> <Gold.Chemscore.DEClash>
1.7776

> <Gold.Chemscore.DEInternal>
3.7544

> <Gold.Chemscore.Rot>
3.2656

> <Gold.Chemscore.Internal.Correction>
   9.000000E+99

> <Gold.Chemscore.Hbonds>
donor molecule, donor type, donor heavy atom, donor atom, acceptor molecule, acceptor atom, score
      L1  H    19    41       P1  7957  0.85
      L1  H    21    43       P1  7957  0.35
      P1  H  7989  7998       L1     6  0.98
      P1  H 10752 10763       L1    24  0.11

> <Gold.Chemscore.Hbond.Weighted>
-9.7768

> <Gold.Chemscore.Metal.Weighted>
-0.0000

> <Gold.Chemscore.Lipo.Weighted>
-11.6677

> <Gold.Chemscore.Internal_Hbond.Weighted>
0.0000

> <Gold.Chemscore.DEClash.Weighted>
1.7776

> <Gold.Chemscore.DEInternal.Weighted>
3.7544

> <Gold.Chemscore.Rot.Weighted>
8.3598

> <Gold.Chemscore.Internal.Correction.Weighted>
   9.000000E+99

> <Gold.Protein.RotatedTorsions>
[ 6907 6896 6895 6894 ] final   46.44 input  -60.11 | X-H torsion
[ 7974 7965 7964 7962 ] final  -10.34 input  175.53 | X-H torsion
[ 8008 7997 7996 7995 ] final  -32.64 input   59.86 | X-H torsion
[ 10167 10162 10161 10158 ] final -126.08 input  -65.29 | X-H torsion
[ 10718 10713 10712 10709 ] final -112.93 input   66.30 | X-H torsion
[ 10763 10752 10751 10750 ] final   97.86 input  -60.55 | X-H torsion
[ 11005 11000 10999 10996 ] final   33.23 input  -57.11 | X-H torsion

> <Gold.Protein.ActiveResidues>
 VAL166  LYS551  ARG553  GLY616  TRP617  ASP618  TYR619  PRO620  LYS621  CYS622 
 ASP623  PHE694  ASN695  SER759  ASP760  ASP761  ALA762  ILE779  LEU786  VAL792 
 PHE793  MET794  SER795  GLU796  ALA797  LYS798  CYS799  TRP800  GLU811  SER814 

> <Gold.Protein.RotatedAtoms>
  152.2564  134.8079  160.0437 H   0  0  0  0  0  0  0  0  0  0  0  0  # atno 6907 bound_to 6896
  151.8741  133.3476  159.3753 H   0  0  0  0  0  0  0  0  0  0  0  0  # atno 6908 bound_to 6896
  150.7101  134.5010  159.5605 H   0  0  0  0  0  0  0  0  0  0  0  0  # atno 6909 bound_to 6896
  146.2224  140.2749  142.8359 H   0  0  0  0  0  0  0  0  0  0  0  0  # atno 7974 bound_to 7965
  154.4173  140.1732  156.1759 H   0  0  0  0  0  0  0  0  0  0  0  0  # atno 8008 bound_to 7997
  155.9722  140.3384  155.6562 H   0  0  0  0  0  0  0  0  0  0  0  0  # atno 8009 bound_to 7997
  155.6610  140.0701  157.2544 H   0  0  0  0  0  0  0  0  0  0  0  0  # atno 8010 bound_to 7997
  139.9753  143.5801  152.2398 H   0  0  0  0  0  0  0  0  0  0  0  0  # atno 10167 bound_to 10162
  156.0735  130.5946  150.8574 H   0  0  0  0  0  0  0  0  0  0  0  0  # atno 10718 bound_to 10713
  153.2820  135.4168  155.1087 H   0  0  0  0  0  0  0  0  0  0  0  0  # atno 10763 bound_to 10752
  154.8492  135.3497  154.6099 H   0  0  0  0  0  0  0  0  0  0  0  0  # atno 10764 bound_to 10752
  153.6520  135.7052  153.5263 H   0  0  0  0  0  0  0  0  0  0  0  0  # atno 10765 bound_to 10752
  140.2653  134.3145  155.7844 H   0  0  0  0  0  0  0  0  0  0  0  0  # atno 11005 bound_to 11000
  144.9240  140.7900  143.5730 LP  0  0  0  0  0  0  0  0  0  0  0  0  # atno 17320 bound_to 7965
  145.2688  139.1963  143.4853 LP  0  0  0  0  0  0  0  0  0  0  0  0  # atno 17321 bound_to 7965
  139.6450  144.7657  151.2261 LP  0  0  0  0  0  0  0  0  0  0  0  0  # atno 17342 bound_to 10162
  140.7508  143.6253  150.8474 LP  0  0  0  0  0  0  0  0  0  0  0  0  # atno 17343 bound_to 10162
  157.5819  131.0946  150.9258 LP  0  0  0  0  0  0  0  0  0  0  0  0  # atno 17370 bound_to 10713
  156.9452  130.5399  149.5281 LP  0  0  0  0  0  0  0  0  0  0  0  0  # atno 17371 bound_to 10713
  141.2185  133.7434  156.9250 LP  0  0  0  0  0  0  0  0  0  0  0  0  # atno 17394 bound_to 11000
  140.1425  134.9284  157.2486 LP  0  0  0  0  0  0  0  0  0  0  0  0  # atno 17395 bound_to 11000

$$$$
