#       Name:                AV-unprocessed.smi:1884
#       Creating user name   scv26
#       Creation time:       Fri Mar 27 09:37:43 2020


#       File generated by GOLD software.
#

@<TRIPOS>MOLECULE
AV-unprocessed.smi:1884
    46    48     1
SMALL
NO_CHARGES


@<TRIPOS>ATOM
      1 ****        -2.4360   0.4977  -2.4336 C.3            1 S1                 0.0000
      2 ****        -2.9353   0.4985  -1.0278 C.2            1 S1                 0.0000
      3 ****        -4.2412   0.5314  -0.6401 N.pl3          1 S1                 1.0000
      4 ****        -4.3204   0.5200   0.7532 C.ar           1 S1                 0.0000
      5 ****        -5.4225   0.5411   1.6025 C.ar           1 S1                 0.0000
      6 ****        -5.1551   0.5166   2.9870 C.ar           1 S1                 0.0000
      7 ****        -3.8345   0.4723   3.4789 C.ar           1 S1                 0.0000
      8 ****        -2.7249   0.4522   2.6082 C.ar           1 S1                 0.0000
      9 ****        -2.9974   0.4782   1.2402 C.ar           1 S1                 0.0000
     10 ****        -2.1770   0.4679   0.1050 N.pl3          1 S1                 0.0000
     11 ****        -0.7137   0.4326   0.2575 C.3            1 S1                 0.0000
     12 ****        -0.1368  -0.9937   0.1604 C.3            1 S1                 0.0000
     13 ****        -0.6710  -1.8025   1.1888 O.3            1 S1                 0.0000
     14 ****         1.3947  -1.0169   0.2676 C.3            1 S1                 0.0000
     15 ****         1.9453  -0.3903  -0.8836 O.3            1 S1                 0.0000
     16 ****         3.3168  -0.3013  -0.9854 C.ar           1 S1                 0.0000
     17 ****         3.8330   0.3390  -2.1307 C.ar           1 S1                 0.0000
     18 ****         5.2222   0.4753  -2.3176 C.ar           1 S1                 0.0000
     19 ****         6.1159  -0.0313  -1.3536 C.ar           1 S1                 0.0000
     20 ****         7.5501   0.1086  -1.5420 C.1            1 S1                 0.0000
     21 ****         8.6920   0.2200  -1.6917 N.1            1 S1                 0.0000
     22 ****         5.6129  -0.6739  -0.2054 C.ar           1 S1                 0.0000
     23 ****         4.2230  -0.8091  -0.0203 C.ar           1 S1                 0.0000
     24 ****        -3.2693   0.5016  -3.1368 H              1 S1                 0.0000
     25 ****        -1.8309  -0.3898  -2.6183 H              1 S1                 0.0000
     26 ****        -1.8242   1.3813  -2.6160 H              1 S1                 0.0000
     27 ****        -6.4352   0.5735   1.2279 H              1 S1                 0.0000
     28 ****        -5.9792   0.5308   3.6858 H              1 S1                 0.0000
     29 ****        -3.6686   0.4523   4.5464 H              1 S1                 0.0000
     30 ****        -1.7184   0.4131   2.9976 H              1 S1                 0.0000
     31 ****        -0.2951   1.0582  -0.5316 H              1 S1                 0.0000
     32 ****        -0.4351   0.9099   1.1971 H              1 S1                 0.0000
     33 ****        -0.4289  -1.4425  -0.7896 H              1 S1                 0.0000
     34 ****        -1.6079  -1.8489   1.0754 H              1 S1                 0.0000
     35 ****         1.7158  -0.5073   1.1779 H              1 S1                 0.0000
     36 ****         1.7420  -2.0507   0.3167 H              1 S1                 0.0000
     37 ****         3.1558   0.7314  -2.8753 H              1 S1                 0.0000
     38 ****         5.5946   0.9703  -3.2031 H              1 S1                 0.0000
     39 ****         6.2890  -1.0670   0.5403 H              1 S1                 0.0000
     40 ****         3.8777  -1.3081   0.8723 H              1 S1                 0.0000
     41 ****        -5.0206   0.5601  -1.2849 H              1 S1                 0.0000
     42 ****        -0.4581  -1.4008   2.0795 LP             1 S1                 0.0000
     43 ****        -0.2784  -2.7206   1.1348 LP             1 S1                 0.0000
     44 ****         1.5849   0.5420  -0.9142 LP             1 S1                 0.0000
     45 ****         1.6215  -0.8992  -1.6812 LP             1 S1                 0.0000
     46 ****         9.6789   0.3163  -1.8211 LP             1 S1                 0.0000
@<TRIPOS>BOND
    1    1    2 1     
    2    1   24 1     
    3    1   25 1     
    4    1   26 1     
    5    2   10 1     
    6    2    3 2     
    7    3    4 1     
    8    3   41 1     
    9    4    9 ar    
   10    4    5 ar    
   11    5    6 ar    
   12    5   27 1     
   13    6    7 ar    
   14    6   28 1     
   15    7    8 ar    
   16    7   29 1     
   17    8    9 ar    
   18    8   30 1     
   19    9   10 1     
   20   10   11 1     
   21   11   12 1     
   22   11   31 1     
   23   11   32 1     
   24   12   13 1     
   25   12   14 1     
   26   12   33 1     
   27   13   34 1     
   28   14   15 1     
   29   14   35 1     
   30   14   36 1     
   31   15   16 1     
   32   16   23 ar    
   33   16   17 ar    
   34   17   18 ar    
   35   17   37 1     
   36   18   19 ar    
   37   18   38 1     
   38   19   20 1     
   39   19   22 ar    
   40   20   21 3     
   41   22   23 ar    
   42   22   39 1     
   43   23   40 1     
   44   13   42 1     
   45   13   43 1     
   46   15   44 1     
   47   15   45 1     
   48   21   46 1     
@<TRIPOS>SUBSTRUCTURE
      1 S1             1
@<TRIPOS>SET
LONE_PAIRS      STATIC     ATOMS    <user>   **** ""
5 42 43 44 45 46
DONOR_HYDROGENS      STATIC     ATOMS    <user>   **** ""
2 41 34
ATOM$BLUE        STATIC     ATOMS    COLORGROUP SYSTEM
5 42 43 44 45 46
ATOM$RED        STATIC     ATOMS    COLORGROUP SYSTEM
2 41 34
