#       Name:                AV-unprocessed.smi:2917
#       Creating user name   scv26
#       Creation time:       Fri Mar 27 16:08:21 2020


#       File generated by GOLD software.
#

@<TRIPOS>MOLECULE
AV-unprocessed.smi:2917
    39    40     1
SMALL
NO_CHARGES


@<TRIPOS>ATOM
      1 ****        -2.4896   1.4112  -0.9248 C.3            1 S1                 0.0000
      2 ****        -1.9243  -0.0217  -0.8197 C.3            1 S1                 0.0000
      3 ****        -0.4584   0.0267  -0.7034 N.am           1 S1                 0.0000
      4 ****         0.2862   0.5756   0.2712 C.2            1 S1                 0.0000
      5 ****        -0.1801   1.1514   1.2534 O.2            1 S1                 0.0000
      6 ****         1.5968   0.4246   0.0147 N.am           1 S1                 0.0000
      7 ****         2.7054   0.8614   0.7894 C.ar           1 S1                 0.0000
      8 ****         2.6535   1.1166   2.1813 C.ar           1 S1                 0.0000
      9 ****         3.8276   1.5279   2.8410 C.ar           1 S1                 0.0000
     10 ****         5.0105   1.6620   2.0887 C.ar           1 S1                 0.0000
     11 ****         5.0779   1.4086   0.7648 N.ar           1 S1                 0.0000
     12 ****         3.9485   1.0135   0.1392 C.ar           1 S1                 0.0000
     13 ****        -2.5712  -0.7817   0.3644 C.3            1 S1                 0.0000
     14 ****        -2.2009  -2.2759   0.3622 C.3            1 S1                 0.0000
     15 ****        -2.5871  -2.8681  -0.8725 O.3            1 S1                 0.0000
     16 ****        -1.9218  -2.2965  -1.9925 C.3            1 S1                 0.0000
     17 ****        -2.2711  -0.8005  -2.1074 C.3            1 S1                 0.0000
     18 ****        -3.5641   1.3995  -1.1102 H              1 S1                 0.0000
     19 ****        -2.0235   1.9627  -1.7422 H              1 S1                 0.0000
     20 ****        -2.3326   1.9817  -0.0096 H              1 S1                 0.0000
     21 ****         0.0459  -0.4115  -1.4600 H              1 S1                 0.0000
     22 ****         1.8293   0.0014  -0.8718 H              1 S1                 0.0000
     23 ****         1.7484   0.9928   2.7551 H              1 S1                 0.0000
     24 ****         3.8222   1.7311   3.9015 H              1 S1                 0.0000
     25 ****         5.9282   1.9749   2.5645 H              1 S1                 0.0000
     26 ****         4.0407   0.8170  -0.9192 H              1 S1                 0.0000
     27 ****        -2.3040  -0.3338   1.3211 H              1 S1                 0.0000
     28 ****        -3.6567  -0.6981   0.2948 H              1 S1                 0.0000
     29 ****        -1.1325  -2.4190   0.5307 H              1 S1                 0.0000
     30 ****        -2.7191  -2.7888   1.1726 H              1 S1                 0.0000
     31 ****        -0.8447  -2.4462  -1.9042 H              1 S1                 0.0000
     32 ****        -2.2386  -2.8230  -2.8928 H              1 S1                 0.0000
     33 ****        -3.3393  -0.7127  -2.3120 H              1 S1                 0.0000
     34 ****        -1.7613  -0.3645  -2.9678 H              1 S1                 0.0000
     35 ****        -1.1709   1.2325   1.3618 LP             1 S1                 0.0000
     36 ****         0.4317   1.5384   1.9433 LP             1 S1                 0.0000
     37 ****         5.9370   1.5103   0.2631 LP             1 S1                 0.0000
     38 ****        -3.5726  -2.7462  -0.9904 LP             1 S1                 0.0000
     39 ****        -2.3737  -3.8444  -0.8387 LP             1 S1                 0.0000
@<TRIPOS>BOND
    1    1    2 1     
    2    1   18 1     
    3    1   19 1     
    4    1   20 1     
    5    2   17 1     
    6    2    3 1     
    7    2   13 1     
    8    3    4 am    
    9    3   21 1     
   10    4    5 2     
   11    4    6 am    
   12    6    7 1     
   13    6   22 1     
   14    7   12 ar    
   15    7    8 ar    
   16    8    9 ar    
   17    8   23 1     
   18    9   10 ar    
   19    9   24 1     
   20   10   11 ar    
   21   10   25 1     
   22   11   12 ar    
   23   12   26 1     
   24   13   14 1     
   25   13   27 1     
   26   13   28 1     
   27   14   15 1     
   28   14   29 1     
   29   14   30 1     
   30   15   16 1     
   31   16   17 1     
   32   16   31 1     
   33   16   32 1     
   34   17   33 1     
   35   17   34 1     
   36    5   35 1     
   37    5   36 1     
   38   11   37 1     
   39   15   38 1     
   40   15   39 1     
@<TRIPOS>SUBSTRUCTURE
      1 S1             1
@<TRIPOS>SET
LONE_PAIRS      STATIC     ATOMS    <user>   **** ""
5 35 36 37 38 39
DONOR_HYDROGENS      STATIC     ATOMS    <user>   **** ""
2 21 22
ATOM$BLUE        STATIC     ATOMS    COLORGROUP SYSTEM
5 35 36 37 38 39
ATOM$RED        STATIC     ATOMS    COLORGROUP SYSTEM
2 21 22
