#       Name:                AV-unprocessed.smi:2039
#       Creating user name   scv26
#       Creation time:       Fri Mar 27 10:55:17 2020


#       File generated by GOLD software.
#

@<TRIPOS>MOLECULE
AV-unprocessed.smi:2039
    39    40     1
SMALL
NO_CHARGES


@<TRIPOS>ATOM
      1 ****        -6.8994   2.0822  -0.8474 C.3            1 S1                 0.0000
      2 ****        -5.5436   1.4970  -0.6436 C.2            1 S1                 0.0000
      3 ****        -5.2920   0.1879  -0.7656 N.2            1 S1                 0.0000
      4 ****        -3.9586  -0.1159  -0.5292 N.2            1 S1                 0.0000
      5 ****        -3.2413   0.9773  -0.2352 C.2            1 S1                 0.0000
      6 ****        -1.8508   0.9556   0.0523 N.am           1 S1                 0.0000
      7 ****        -1.0212  -0.1025   0.0770 C.2            1 S1                 0.0000
      8 ****        -1.3441  -1.2666  -0.1617 O.2            1 S1                 0.0000
      9 ****         0.2275   0.2679   0.3965 N.am           1 S1                 0.0000
     10 ****         1.3706  -0.6331   0.5124 C.3            1 S1                 0.0000
     11 ****         2.4158  -0.0213   1.4626 C.3            1 S1                 0.0000
     12 ****         3.6610  -0.9173   1.5833 C.3            1 S1                 0.0000
     13 ****         4.2832  -1.2387   0.2114 C.3            1 S1                 0.0000
     14 ****         4.8798  -0.0781  -0.3331 O.3            1 S1                 0.0000
     15 ****         3.2366  -1.8045  -0.7672 C.3            1 S1                 0.0000
     16 ****         1.9894  -0.9091  -0.8729 C.3            1 S1                 0.0000
     17 ****        -4.1471   2.4813  -0.2234 S.3            1 S1                 0.0000
     18 ****        -7.6321   1.2988  -1.0443 H              1 S1                 0.0000
     19 ****        -6.8850   2.7680  -1.6945 H              1 S1                 0.0000
     20 ****        -7.2061   2.6306   0.0433 H              1 S1                 0.0000
     21 ****        -1.4395   1.8522   0.2659 H              1 S1                 0.0000
     22 ****         0.4027   1.2459   0.5750 H              1 S1                 0.0000
     23 ****         1.0346  -1.5782   0.9439 H              1 S1                 0.0000
     24 ****         2.7114   0.9654   1.1029 H              1 S1                 0.0000
     25 ****         1.9793   0.1303   2.4504 H              1 S1                 0.0000
     26 ****         4.4001  -0.4476   2.2334 H              1 S1                 0.0000
     27 ****         3.3773  -1.8505   2.0717 H              1 S1                 0.0000
     28 ****         5.0795  -1.9718   0.3448 H              1 S1                 0.0000
     29 ****         5.2897  -0.3075  -1.1531 H              1 S1                 0.0000
     30 ****         3.6790  -1.9494  -1.7535 H              1 S1                 0.0000
     31 ****         2.9303  -2.7939  -0.4250 H              1 S1                 0.0000
     32 ****         1.2562  -1.3866  -1.5241 H              1 S1                 0.0000
     33 ****         2.2569   0.0337  -1.3524 H              1 S1                 0.0000
     34 ****        -5.9855  -0.4933  -1.0003 LP             1 S1                 0.0000
     35 ****        -3.5786  -1.0399  -0.5730 LP             1 S1                 0.0000
     36 ****        -2.2912  -1.4846  -0.3972 LP             1 S1                 0.0000
     37 ****        -0.6592  -1.9941  -0.1201 LP             1 S1                 0.0000
     38 ****         5.5678   0.2761   0.3003 LP             1 S1                 0.0000
     39 ****         4.1801   0.6190  -0.4893 LP             1 S1                 0.0000
@<TRIPOS>BOND
    1    1    2 1     
    2    1   18 1     
    3    1   19 1     
    4    1   20 1     
    5    2   17 1     
    6    2    3 2     
    7    3    4 1     
    8    4    5 2     
    9    5    6 1     
   10    5   17 1     
   11    6    7 am    
   12    6   21 1     
   13    7    8 2     
   14    7    9 am    
   15    9   10 1     
   16    9   22 1     
   17   10   16 1     
   18   10   11 1     
   19   10   23 1     
   20   11   12 1     
   21   11   24 1     
   22   11   25 1     
   23   12   13 1     
   24   12   26 1     
   25   12   27 1     
   26   13   14 1     
   27   13   15 1     
   28   13   28 1     
   29   14   29 1     
   30   15   16 1     
   31   15   30 1     
   32   15   31 1     
   33   16   32 1     
   34   16   33 1     
   35    3   34 1     
   36    4   35 1     
   37    8   36 1     
   38    8   37 1     
   39   14   38 1     
   40   14   39 1     
@<TRIPOS>SUBSTRUCTURE
      1 S1             1
@<TRIPOS>SET
LONE_PAIRS      STATIC     ATOMS    <user>   **** ""
6 34 35 36 37 38 39
DONOR_HYDROGENS      STATIC     ATOMS    <user>   **** ""
3 21 22 29
ATOM$BLUE        STATIC     ATOMS    COLORGROUP SYSTEM
6 34 35 36 37 38 39
ATOM$RED        STATIC     ATOMS    COLORGROUP SYSTEM
3 21 22 29
