AV-unprocessed.smi:2664|AV-procd|sdf|10328|dock10
  -GOLD-   2272014343D 1   1.00000     0.00000
 Structure written by MMmdl.
 44 45  0  0  0  0  0  0  0  0  2 V2000
  145.1454  138.4823  152.9574 O   0  0  0  0  0  0  0  0  0  0  0  0
  146.1564  137.8217  152.7223 C   0  0  0  0  0  0  0  0  0  0  0  0
  147.4177  138.2310  152.9429 N   0  0  0  0  0  0  0  0  0  0  0  0
  147.8668  139.4483  153.5242 C   0  0  0  0  0  0  0  0  0  0  0  0
  147.0683  140.5975  153.3306 C   0  0  0  0  0  0  0  0  0  0  0  0
  147.4814  141.8316  153.8727 C   0  0  0  0  0  0  0  0  0  0  0  0
  148.6387  141.9088  154.5639 N   0  3  0  0  0  0  0  0  0  0  0  0
  149.4418  140.8419  154.7638 C   0  0  0  0  0  0  0  0  0  0  0  0
  149.0815  139.5817  154.2445 C   0  0  0  0  0  0  0  0  0  0  0  0
  146.1354  136.5913  152.1873 N   0  0  0  0  0  0  0  0  0  0  0  0
  144.9372  135.8285  151.8244 C   0  0  2  0  0  0  0  0  0  0  0  0
  144.0747  135.6142  153.0944 C   0  0  0  0  0  0  0  0  0  0  0  0
  142.7098  134.9413  152.8539 C   0  0  0  0  0  0  0  0  0  0  0  0
  142.0767  134.6494  154.0816 O   0  0  0  0  0  0  0  0  0  0  0  0
  145.3424  134.5023  151.1173 C   0  0  0  0  0  0  0  0  0  0  0  0
  144.1294  133.7887  150.4650 C   0  0  0  0  0  0  0  0  0  0  0  0
  144.5247  132.4762  149.7698 C   0  0  0  0  0  0  0  0  0  0  0  0
  145.2287  131.5214  150.7412 C   0  0  0  0  0  0  0  0  0  0  0  0
  146.4470  132.2013  151.3773 C   0  0  0  0  0  0  0  0  0  0  0  0
  146.0580  133.5156  152.0734 C   0  0  0  0  0  0  0  0  0  0  0  0
  148.1457  137.6131  152.6151 H   0  0  0  0  0  0  0  0  0  0  0  0
  146.1428  140.5367  152.7763 H   0  0  0  0  0  0  0  0  0  0  0  0
  146.9256  142.7526  153.7732 H   0  0  0  0  0  0  0  0  0  0  0  0
  150.3467  141.0276  155.3240 H   0  0  0  0  0  0  0  0  0  0  0  0
  149.7497  138.7486  154.3993 H   0  0  0  0  0  0  0  0  0  0  0  0
  147.0203  136.1341  152.0233 H   0  0  0  0  0  0  0  0  0  0  0  0
  144.3385  136.4020  151.1148 H   0  0  0  0  0  0  0  0  0  0  0  0
  144.6131  135.0062  153.8198 H   0  0  0  0  0  0  0  0  0  0  0  0
  143.9075  136.5780  153.5769 H   0  0  0  0  0  0  0  0  0  0  0  0
  142.0627  135.6114  152.2873 H   0  0  0  0  0  0  0  0  0  0  0  0
  142.8065  134.0285  152.2662 H   0  0  0  0  0  0  0  0  0  0  0  0
  142.2304  133.7410  154.2922 H   0  0  0  0  0  0  0  0  0  0  0  0
  146.0420  134.7534  150.3183 H   0  0  0  0  0  0  0  0  0  0  0  0
  143.3739  133.5836  151.2249 H   0  0  0  0  0  0  0  0  0  0  0  0
  143.6520  134.4312  149.7255 H   0  0  0  0  0  0  0  0  0  0  0  0
  143.6390  131.9949  149.3539 H   0  0  0  0  0  0  0  0  0  0  0  0
  145.1831  132.6927  148.9276 H   0  0  0  0  0  0  0  0  0  0  0  0
  144.5325  131.2078  151.5203 H   0  0  0  0  0  0  0  0  0  0  0  0
  145.5379  130.6167  150.2171 H   0  0  0  0  0  0  0  0  0  0  0  0
  146.9153  131.5265  152.0944 H   0  0  0  0  0  0  0  0  0  0  0  0
  147.1950  132.4030  150.6097 H   0  0  0  0  0  0  0  0  0  0  0  0
  146.9681  133.9561  152.4769 H   0  0  0  0  0  0  0  0  0  0  0  0
  145.4142  133.2983  152.9268 H   0  0  0  0  0  0  0  0  0  0  0  0
  148.9206  142.8116  154.9470 H   0  0  0  0  0  0  0  0  0  0  0  0
  1  2  2  0  0  0  0
  2  3  1  0  0  0  0
  2 10  1  0  0  0  0
  3  4  1  0  0  0  0
  3 21  1  0  0  0  0
  4  9  1  0  0  0  0
  4  5  2  0  0  0  0
  5  6  1  0  0  0  0
  5 22  1  0  0  0  0
  6  7  2  0  0  0  0
  6 23  1  0  0  0  0
  7  8  1  0  0  0  0
  7 44  1  0  0  0  0
  8  9  2  0  0  0  0
  8 24  1  0  0  0  0
  9 25  1  0  0  0  0
 10 11  1  0  0  0  0
 10 26  1  0  0  0  0
 11 12  1  0  0  0  0
 11 15  1  0  0  0  0
 11 27  1  0  0  0  0
 12 13  1  0  0  0  0
 12 28  1  0  0  0  0
 12 29  1  0  0  0  0
 13 14  1  0  0  0  0
 13 30  1  0  0  0  0
 13 31  1  0  0  0  0
 14 32  1  0  0  0  0
 15 20  1  0  0  0  0
 15 16  1  0  0  0  0
 15 33  1  0  0  0  0
 16 17  1  0  0  0  0
 16 34  1  0  0  0  0
 16 35  1  0  0  0  0
 17 18  1  0  0  0  0
 17 36  1  0  0  0  0
 17 37  1  0  0  0  0
 18 19  1  0  0  0  0
 18 38  1  0  0  0  0
 18 39  1  0  0  0  0
 19 20  1  0  0  0  0
 19 40  1  0  0  0  0
 19 41  1  0  0  0  0
 20 42  1  0  0  0  0
 20 43  1  0  0  0  0
M  CHG  1   7   1
M  END
> <s_m_source_file>
AV-unprocessed.smi

> <i_m_source_file_index>
2664

> <i_lp_mmshare_version>
43012

> <i_f3d_flags>
0

> <s_epik_input>
W2NIXTFbY0hdbltjSF1bY0hdYzFbTkhdQyg9TylbTkhdW0NASF0oW0NIMl1bQ0gyXVtPSF0pW0NIXTJbQ0gyXVtDSDJdW0NIMl1bQ0gyXVtDSDJdMg==

> <s_epik_cmdline>
J2VwaWtfcHl0aG9uJywgJy1waCcsICc3LjAnLCAnLXRuJywgJzgnLCAnLW1hJywgJzIwMCcsICctbWV0YWxfYmluZGluZycsICctaW1hZScsICc8aW5maWxlLm1hZT4nLCAnLW9tYWUnLCAnPG91dGZpbGUubWFlPic=

> <r_epik_Ionization_Penalty>
1.0085

> <r_epik_Ionization_Penalty_Charging>
1.00848

> <r_epik_Ionization_Penalty_Neutral>
2.14516e-05

> <r_epik_State_Penalty>
1.05769

> <r_epik_Charging_Adjusted_Penalty>
2.06617

> <i_epik_Tot_Q>
1

> <i_epik_Tot_abs_Q>
1

> <r_epik_Metal_State_Penalty>
1.15842

> <b_epik_Metal_Only>
0

> <s_lp_Force_Field>
OPLS_2005

> <r_lp_Energy>
27.8621

> <b_lp_Chiralities_Consistent>
1

> <s_lp_Variant>
AV-unprocessed.smi:2664-3

> <Gold.Version>
5.8.1

> <Gold.Id.Protein>
6NUR|6NUR_protein|mol2

> <Gold.PLP.Fitness>
50.5553

> <Gold.PLP.PLP>
-36.0816

> <Gold.PLP.part.hbond>
-4.8072

> <Gold.PLP.part.metal>
0.0000

> <Gold.PLP.part.buried>
-3.8698

> <Gold.PLP.part.nonpolar>
-31.5408

> <Gold.PLP.part.repulsive>
4.1096

> <Gold.PLP.ligand.clash>
0.0000

> <Gold.PLP.ligand.torsion>
0.2964

> <Gold.PLP.Chemscore.Hbond>
5.0041

> <Gold.PLP.Chemscore.CHOScore>
0.0000

> <Gold.PLP.Chemscore.Metal>
0.0000

> <Gold.Chemscore.Hbonds>
donor molecule, donor type, donor heavy atom, donor atom, acceptor molecule, acceptor atom, score
      L1  H     3    21       P1  7948  1.00
      L1  H     7    44       P1  8028  2.00
      L1  H    10    26       P1  7948  1.00
      L1  H    14    32       P1 10957  0.91

> <Gold.PLP.Chemscore.Internal.Correction>
0.0544

> <Gold.Rescore>
     Score         DG    S(hbond)    S(metal)    S(lipo)     H(rot)  DE(clash)    DE(int)     intcor
     20.39     -23.99       3.94        0.00      95.29       2.27       1.85       1.75       ----

> <Gold.Chemscore.Fitness>
20.3904

> <Gold.Chemscore.DG>
-23.9861

> <Gold.Chemscore.ZeroCoef>
-5.4800

> <Gold.Chemscore.Hbond>
3.9450

> <Gold.Chemscore.Metal>
0.0000

> <Gold.Chemscore.Lipo>
95.2914

> <Gold.Chemscore.Internal_Hbond>
0.0000

> <Gold.Chemscore.DEClash>
1.8482

> <Gold.Chemscore.DEInternal>
1.7476

> <Gold.Chemscore.Rot>
2.2731

> <Gold.Chemscore.Internal.Correction>
   9.000000E+99

> <Gold.Chemscore.Hbonds>
donor molecule, donor type, donor heavy atom, donor atom, acceptor molecule, acceptor atom, score
      L1  H     3    21       P1  7948  1.00
      L1  H     7    44       P1  8028  0.93
      L1  H    10    26       P1  7948  0.94
      L1  H    14    32       P1 10957  0.87

> <Gold.Chemscore.Hbond.Weighted>
-13.1763

> <Gold.Chemscore.Metal.Weighted>
-0.0000

> <Gold.Chemscore.Lipo.Weighted>
-11.1491

> <Gold.Chemscore.Internal_Hbond.Weighted>
0.0000

> <Gold.Chemscore.DEClash.Weighted>
1.8482

> <Gold.Chemscore.DEInternal.Weighted>
1.7476

> <Gold.Chemscore.Rot.Weighted>
5.8192

> <Gold.Chemscore.Internal.Correction.Weighted>
   9.000000E+99

> <Gold.Protein.RotatedTorsions>
[ 6907 6896 6895 6894 ] final -149.44 input  -60.11 | X-H torsion
[ 7974 7965 7964 7962 ] final -123.87 input  175.53 | X-H torsion
[ 8008 7997 7996 7995 ] final   77.61 input   59.86 | X-H torsion
[ 10167 10162 10161 10158 ] final  159.76 input  -65.29 | X-H torsion
[ 10718 10713 10712 10709 ] final  -23.12 input   66.30 | X-H torsion
[ 10763 10752 10751 10750 ] final   66.86 input  -60.55 | X-H torsion
[ 11005 11000 10999 10996 ] final   29.54 input  -57.11 | X-H torsion

> <Gold.Protein.ActiveResidues>
 VAL166  LYS551  ARG553  GLY616  TRP617  ASP618  TYR619  PRO620  LYS621  CYS622 
 ASP623  PHE694  ASN695  SER759  ASP760  ASP761  ALA762  ILE779  LEU786  VAL792 
 PHE793  MET794  SER795  GLU796  ALA797  LYS798  CYS799  TRP800  GLU811  SER814 

> <Gold.Protein.RotatedAtoms>
  151.1841  133.4707  159.2594 H   0  0  0  0  0  0  0  0  0  0  0  0  # atno 6907 bound_to 6896
  151.1229  135.0089  159.8557 H   0  0  0  0  0  0  0  0  0  0  0  0  # atno 6908 bound_to 6896
  152.5457  134.1751  159.8666 H   0  0  0  0  0  0  0  0  0  0  0  0  # atno 6909 bound_to 6896
  145.0140  140.7931  143.4421 H   0  0  0  0  0  0  0  0  0  0  0  0  # atno 7974 bound_to 7965
  155.8440  140.3461  155.5650 H   0  0  0  0  0  0  0  0  0  0  0  0  # atno 8008 bound_to 7997
  155.8110  140.0899  157.1923 H   0  0  0  0  0  0  0  0  0  0  0  0  # atno 8009 bound_to 7997
  154.4006  140.1448  156.3374 H   0  0  0  0  0  0  0  0  0  0  0  0  # atno 8010 bound_to 7997
  139.4834  144.4699  151.8590 H   0  0  0  0  0  0  0  0  0  0  0  0  # atno 10167 bound_to 10162
  156.4953  130.4575  149.6732 H   0  0  0  0  0  0  0  0  0  0  0  0  # atno 10718 bound_to 10713
  153.0159  135.5305  154.6890 H   0  0  0  0  0  0  0  0  0  0  0  0  # atno 10763 bound_to 10752
  154.6030  135.2870  155.0517 H   0  0  0  0  0  0  0  0  0  0  0  0  # atno 10764 bound_to 10752
  154.1567  135.6554  153.5028 H   0  0  0  0  0  0  0  0  0  0  0  0  # atno 10765 bound_to 10752
  140.3038  134.2726  155.7748 H   0  0  0  0  0  0  0  0  0  0  0  0  # atno 11005 bound_to 11000
  145.1984  139.2265  143.5206 LP  0  0  0  0  0  0  0  0  0  0  0  0  # atno 17320 bound_to 7965
  146.3475  140.1796  142.8589 LP  0  0  0  0  0  0  0  0  0  0  0  0  # atno 17321 bound_to 7965
  140.4167  144.2297  150.5887 LP  0  0  0  0  0  0  0  0  0  0  0  0  # atno 17342 bound_to 10162
  140.4913  143.2346  151.8814 LP  0  0  0  0  0  0  0  0  0  0  0  0  # atno 17343 bound_to 10162
  156.3386  130.7370  151.2311 LP  0  0  0  0  0  0  0  0  0  0  0  0  # atno 17370 bound_to 10713
  157.7469  131.0410  150.4624 LP  0  0  0  0  0  0  0  0  0  0  0  0  # atno 17371 bound_to 10713
  141.2122  133.7664  156.9807 LP  0  0  0  0  0  0  0  0  0  0  0  0  # atno 17394 bound_to 11000
  140.1085  134.9491  157.2030 LP  0  0  0  0  0  0  0  0  0  0  0  0  # atno 17395 bound_to 11000

$$$$
