AV-unprocessed.smi:1484|AV-procd|sdf|5995|dock2
  -GOLD-   22720 6 93D 1   1.00000     0.00000
 Structure written by MMmdl.
 37 38  0  0  0  0  0  0  0  0  2 V2000
  153.1123  142.1739  161.3897 C   0  0  0  0  0  0  0  0  0  0  0  0
  152.8431  143.2145  160.2932 C   0  0  2  0  0  0  0  0  0  0  0  0
  152.1535  144.4685  160.8632 C   0  0  0  0  0  0  0  0  0  0  0  0
  151.8874  145.5102  159.7658 C   0  0  0  0  0  0  0  0  0  0  0  0
  151.0591  144.9108  158.6191 C   0  0  0  0  0  0  0  0  0  0  0  0
  151.7351  143.6573  158.0340 C   0  0  2  0  0  0  0  0  0  0  0  0
  150.8865  143.0886  156.9914 N   0  0  0  0  0  0  0  0  0  0  0  0
  151.0216  141.8640  156.4594 C   0  0  0  0  0  0  0  0  0  0  0  0
  151.8981  141.0721  156.8103 O   0  0  0  0  0  0  0  0  0  0  0  0
  149.9965  141.4966  155.3744 C   0  0  0  0  0  0  0  0  0  0  0  0
  149.8175  140.0508  155.1761 N   0  0  0  0  0  0  0  0  0  0  0  0
  148.4430  139.5952  155.3667 N   0  5  0  0  0  0  0  0  0  0  0  0
  148.1579  138.2732  155.2286 C   0  0  0  0  0  0  0  0  0  0  0  0
  147.0295  137.8144  155.3906 O   0  0  0  0  0  0  0  0  0  0  0  0
  149.2415  137.3734  154.8696 C   0  0  0  0  0  0  0  0  0  0  0  0
  150.4964  137.8252  154.6772 C   0  0  0  0  0  0  0  0  0  0  0  0
  150.8489  139.2327  154.8199 C   0  0  0  0  0  0  0  0  0  0  0  0
  151.9913  139.6534  154.6362 O   0  0  0  0  0  0  0  0  0  0  0  0
  152.0111  142.6180  159.1410 C   0  0  0  0  0  0  0  0  0  0  0  0
  152.1834  141.8235  161.8409 H   0  0  0  0  0  0  0  0  0  0  0  0
  153.7317  142.5916  162.1837 H   0  0  0  0  0  0  0  0  0  0  0  0
  153.6350  141.3060  160.9870 H   0  0  0  0  0  0  0  0  0  0  0  0
  153.8087  143.5179  159.8860 H   0  0  0  0  0  0  0  0  0  0  0  0
  151.2104  144.1887  161.3350 H   0  0  0  0  0  0  0  0  0  0  0  0
  152.7704  144.9117  161.6456 H   0  0  0  0  0  0  0  0  0  0  0  0
  151.3683  146.3710  160.1884 H   0  0  0  0  0  0  0  0  0  0  0  0
  152.8360  145.8820  159.3762 H   0  0  0  0  0  0  0  0  0  0  0  0
  150.0642  144.6564  158.9880 H   0  0  0  0  0  0  0  0  0  0  0  0
  150.9176  145.6589  157.8382 H   0  0  0  0  0  0  0  0  0  0  0  0
  152.6852  143.9608  157.5898 H   0  0  0  0  0  0  0  0  0  0  0  0
  150.1370  143.6703  156.6467 H   0  0  0  0  0  0  0  0  0  0  0  0
  149.0444  141.9620  155.6363 H   0  0  0  0  0  0  0  0  0  0  0  0
  150.2975  141.9603  154.4333 H   0  0  0  0  0  0  0  0  0  0  0  0
  149.0349  136.3198  154.7525 H   0  0  0  0  0  0  0  0  0  0  0  0
  151.2704  137.1210  154.4109 H   0  0  0  0  0  0  0  0  0  0  0  0
  152.5351  141.7589  158.7199 H   0  0  0  0  0  0  0  0  0  0  0  0
  151.0655  142.2391  159.5320 H   0  0  0  0  0  0  0  0  0  0  0  0
  1  2  1  0  0  0  0
  1 20  1  0  0  0  0
  1 21  1  0  0  0  0
  1 22  1  0  0  0  0
  2 19  1  0  0  0  0
  2  3  1  0  0  0  0
  2 23  1  0  0  0  0
  3  4  1  0  0  0  0
  3 24  1  0  0  0  0
  3 25  1  0  0  0  0
  4  5  1  0  0  0  0
  4 26  1  0  0  0  0
  4 27  1  0  0  0  0
  5  6  1  0  0  0  0
  5 28  1  0  0  0  0
  5 29  1  0  0  0  0
  6  7  1  0  0  0  0
  6 19  1  0  0  0  0
  6 30  1  0  0  0  0
  7  8  1  0  0  0  0
  7 31  1  0  0  0  0
  8  9  2  0  0  0  0
  8 10  1  0  0  0  0
 10 32  1  0  0  0  0
 10 33  1  0  0  0  0
 10 11  1  0  0  0  0
 11 12  1  0  0  0  0
 11 17  1  0  0  0  0
 12 13  1  0  0  0  0
 13 14  2  0  0  0  0
 13 15  1  0  0  0  0
 15 34  1  0  0  0  0
 15 16  2  0  0  0  0
 16 35  1  0  0  0  0
 16 17  1  0  0  0  0
 17 18  2  0  0  0  0
 19 36  1  0  0  0  0
 19 37  1  0  0  0  0
M  CHG  1  12  -1
M  END
> <s_m_source_file>
AV-unprocessed.smi

> <i_m_source_file_index>
1484

> <i_lp_mmshare_version>
43012

> <i_f3d_flags>
0

> <s_epik_input>
W0NIM11bQ0BASF0xW0NIMl1bQ0gyXVtDSDJdW0NASF0oW0NIMl0xKVtOSF1DKD1PKVtDSDJdbjJbbkhdYyg9TylbY0hdW2NIXWMyPU8=

> <s_epik_cmdline>
J2VwaWtfcHl0aG9uJywgJy1waCcsICc3LjAnLCAnLXRuJywgJzgnLCAnLW1hJywgJzIwMCcsICctbWV0YWxfYmluZGluZycsICctaW1hZScsICc8aW5maWxlLm1hZT4nLCAnLW9tYWUnLCAnPG91dGZpbGUubWFlPic=

> <r_lp_tautomer_probability>
1

> <r_epik_Ionization_Penalty>
0.101352

> <r_epik_Ionization_Penalty_Charging>
0.101352

> <r_epik_Ionization_Penalty_Neutral>
1.90469e-08

> <r_epik_State_Penalty>
0.0358555

> <r_epik_Charging_Adjusted_Penalty>
0.137208

> <i_epik_Tot_Q>
-1

> <i_epik_Tot_abs_Q>
1

> <r_epik_Metal_State_Penalty>
0.0358555

> <b_epik_Metal_Only>
0

> <s_lp_Force_Field>
OPLS_2005

> <r_lp_Energy>
24.7991

> <b_lp_Chiralities_Consistent>
1

> <s_lp_Variant>
AV-unprocessed.smi:1484-3

> <Gold.Version>
5.8.1

> <Gold.Id.Protein>
6NUR|6NUR_protein|mol2

> <Gold.PLP.Fitness>
46.0983

> <Gold.PLP.PLP>
-41.1840

> <Gold.PLP.part.hbond>
-2.0000

> <Gold.PLP.part.metal>
0.0000

> <Gold.PLP.part.buried>
-4.8822

> <Gold.PLP.part.nonpolar>
-34.6838

> <Gold.PLP.part.repulsive>
0.1342

> <Gold.PLP.ligand.clash>
0.0000

> <Gold.PLP.ligand.torsion>
0.5109

> <Gold.PLP.Chemscore.Hbond>
1.9760

> <Gold.PLP.Chemscore.CHOScore>
0.0000

> <Gold.PLP.Chemscore.Metal>
0.0000

> <Gold.Chemscore.Hbonds>
donor molecule, donor type, donor heavy atom, donor atom, acceptor molecule, acceptor atom, score
      L1  H     7    31       P1  8028  1.00
      P1  H  7989  7998       L1    18  0.90

> <Gold.PLP.Chemscore.Internal.Correction>
0.0080

> <Gold.Rescore>
     Score         DG    S(hbond)    S(metal)    S(lipo)     H(rot)  DE(clash)    DE(int)     intcor
     14.71     -19.08       1.98        0.00      95.81       1.65       0.02       4.34       ----

> <Gold.Chemscore.Fitness>
14.7141

> <Gold.Chemscore.DG>
-19.0774

> <Gold.Chemscore.ZeroCoef>
-5.4800

> <Gold.Chemscore.Hbond>
1.9833

> <Gold.Chemscore.Metal>
0.0000

> <Gold.Chemscore.Lipo>
95.8092

> <Gold.Chemscore.Internal_Hbond>
0.0000

> <Gold.Chemscore.DEClash>
0.0215

> <Gold.Chemscore.DEInternal>
4.3418

> <Gold.Chemscore.Rot>
1.6549

> <Gold.Chemscore.Internal.Correction>
   9.000000E+99

> <Gold.Chemscore.Hbonds>
donor molecule, donor type, donor heavy atom, donor atom, acceptor molecule, acceptor atom, score
      L1  H     7    31       P1  8028  1.00
      P1  H  7989  7998       L1    18  0.23

> <Gold.Chemscore.Hbond.Weighted>
-6.6242

> <Gold.Chemscore.Metal.Weighted>
-0.0000

> <Gold.Chemscore.Lipo.Weighted>
-11.2097

> <Gold.Chemscore.Internal_Hbond.Weighted>
0.0000

> <Gold.Chemscore.DEClash.Weighted>
0.0215

> <Gold.Chemscore.DEInternal.Weighted>
4.3418

> <Gold.Chemscore.Rot.Weighted>
4.2364

> <Gold.Chemscore.Internal.Correction.Weighted>
   9.000000E+99

> <Gold.Protein.RotatedTorsions>
[ 6907 6896 6895 6894 ] final  -58.09 input  -60.11 | X-H torsion
[ 7974 7965 7964 7962 ] final  148.99 input  175.53 | X-H torsion
[ 8008 7997 7996 7995 ] final -144.54 input   59.86 | X-H torsion
[ 10167 10162 10161 10158 ] final -169.43 input  -65.29 | X-H torsion
[ 10718 10713 10712 10709 ] final   11.20 input   66.30 | X-H torsion
[ 10763 10752 10751 10750 ] final -167.19 input  -60.55 | X-H torsion
[ 11005 11000 10999 10996 ] final   52.29 input  -57.11 | X-H torsion

> <Gold.Protein.ActiveResidues>
 VAL166  LYS551  ARG553  GLY616  TRP617  ASP618  TYR619  PRO620  LYS621  CYS622 
 ASP623  PHE694  ASN695  SER759  ASP760  ASP761  ALA762  ILE779  LEU786  VAL792 
 PHE793  MET794  SER795  GLU796  ALA797  LYS798  CYS799  TRP800  GLU811  SER814 

> <Gold.Protein.RotatedAtoms>
  150.8034  134.7143  159.6621 H   0  0  0  0  0  0  0  0  0  0  0  0  # atno 6907 bound_to 6896
  152.4153  134.6050  160.0020 H   0  0  0  0  0  0  0  0  0  0  0  0  # atno 6908 bound_to 6896
  151.6281  133.3297  159.3139 H   0  0  0  0  0  0  0  0  0  0  0  0  # atno 6909 bound_to 6896
  144.8472  139.6223  143.5990 H   0  0  0  0  0  0  0  0  0  0  0  0  # atno 7974 bound_to 7965
  155.5286  140.0597  157.2893 H   0  0  0  0  0  0  0  0  0  0  0  0  # atno 8008 bound_to 7997
  154.4492  140.1940  156.0517 H   0  0  0  0  0  0  0  0  0  0  0  0  # atno 8009 bound_to 7997
  156.0668  140.3265  155.7531 H   0  0  0  0  0  0  0  0  0  0  0  0  # atno 8010 bound_to 7997
  139.5923  144.1187  152.1649 H   0  0  0  0  0  0  0  0  0  0  0  0  # atno 10167 bound_to 10162
  156.9922  130.6047  149.5687 H   0  0  0  0  0  0  0  0  0  0  0  0  # atno 10718 bound_to 10713
  154.6757  135.2946  154.9682 H   0  0  0  0  0  0  0  0  0  0  0  0  # atno 10763 bound_to 10752
  154.0694  135.6620  153.4826 H   0  0  0  0  0  0  0  0  0  0  0  0  # atno 10764 bound_to 10752
  153.0514  135.5171  154.7775 H   0  0  0  0  0  0  0  0  0  0  0  0  # atno 10765 bound_to 10752
  140.0862  134.5271  155.8897 H   0  0  0  0  0  0  0  0  0  0  0  0  # atno 11005 bound_to 11000
  146.2754  139.6739  142.9267 LP  0  0  0  0  0  0  0  0  0  0  0  0  # atno 17320 bound_to 7965
  145.4573  141.0431  143.2771 LP  0  0  0  0  0  0  0  0  0  0  0  0  # atno 17321 bound_to 7965
  140.0764  144.5737  150.7154 LP  0  0  0  0  0  0  0  0  0  0  0  0  # atno 17342 bound_to 10162
  140.7183  143.2565  151.4362 LP  0  0  0  0  0  0  0  0  0  0  0  0  # atno 17343 bound_to 10162
  156.0203  130.5298  150.8255 LP  0  0  0  0  0  0  0  0  0  0  0  0  # atno 17370 bound_to 10713
  157.5451  131.0942  150.9774 LP  0  0  0  0  0  0  0  0  0  0  0  0  # atno 17371 bound_to 10713
  141.2063  133.6654  156.6234 LP  0  0  0  0  0  0  0  0  0  0  0  0  # atno 17394 bound_to 11000
  140.3417  134.7843  157.4403 LP  0  0  0  0  0  0  0  0  0  0  0  0  # atno 17395 bound_to 11000

$$$$
