#       Name:                AV-unprocessed.smi:1011
#       Creating user name   scv26
#       Creation time:       Fri Mar 27 02:37:11 2020


#       File generated by GOLD software.
#

@<TRIPOS>MOLECULE
AV-unprocessed.smi:1011
    48    50     1
SMALL
NO_CHARGES


@<TRIPOS>ATOM
      1 ****        -4.5481   6.2697   0.9270 C.3            1 S1                 0.0000
      2 ****        -4.1156   4.9402   0.3793 C.2            1 S1                 0.0000
      3 ****        -4.1681   4.4920  -0.9713 C.2            1 S1                 0.0000
      4 ****        -3.7106   3.2597  -1.1224 N.2            1 S1                 0.0000
      5 ****        -3.3479   2.8798   0.1212 N.pl3          1 S1                 0.0000
      6 ****        -2.8010   1.5546   0.3389 C.3            1 S1                 0.0000
      7 ****        -1.3665   1.4359  -0.1958 C.3            1 S1                 0.0000
      8 ****        -0.8658   0.0935   0.0508 N.3            1 S1                 0.0000
      9 ****         0.4923  -0.0249  -0.4539 C.3            1 S1                 0.0000
     10 ****         0.9939  -1.4310  -0.3876 C.2            1 S1                 0.0000
     11 ****         0.3850  -2.5131  -0.9505 N.pl3          1 S1                 1.0000
     12 ****         1.1357  -3.6622  -0.7030 C.ar           1 S1                 0.0000
     13 ****         0.9227  -4.9870  -1.0710 C.ar           1 S1                 0.0000
     14 ****         1.8939  -5.9238  -0.6600 C.ar           1 S1                 0.0000
     15 ****         1.6981  -7.5849  -1.0819 Cl             1 S1                 0.0000
     16 ****         3.0223  -5.5272   0.0875 C.ar           1 S1                 0.0000
     17 ****         3.2270  -4.1811   0.4562 C.ar           1 S1                 0.0000
     18 ****         2.2605  -3.2630   0.0467 C.ar           1 S1                 0.0000
     19 ****         2.1298  -1.8807   0.2225 N.pl3          1 S1                 0.0000
     20 ****         3.1679  -1.1557   0.9728 C.3            1 S1                 0.0000
     21 ****         4.3606  -0.7517   0.0904 C.3            1 S1                 0.0000
     22 ****         3.9406   0.0806  -0.9708 O.3            1 S1                 0.0000
     23 ****        -3.5819   3.8744   1.0469 C.2            1 S1                 0.0000
     24 ****        -5.2184   6.7905   0.2429 H              1 S1                 0.0000
     25 ****        -3.6968   6.9265   1.1057 H              1 S1                 0.0000
     26 ****        -5.0774   6.1627   1.8740 H              1 S1                 0.0000
     27 ****        -4.5255   5.0226  -1.8415 H              1 S1                 0.0000
     28 ****        -2.8288   1.3405   1.4084 H              1 S1                 0.0000
     29 ****        -3.4537   0.8280  -0.1476 H              1 S1                 0.0000
     30 ****        -1.3465   1.6442  -1.2665 H              1 S1                 0.0000
     31 ****        -0.7212   2.1667   0.2939 H              1 S1                 0.0000
     32 ****        -0.8600  -0.0610   1.0491 H              1 S1                 0.0000
     33 ****         0.5267   0.2960  -1.4960 H              1 S1                 0.0000
     34 ****         1.1502   0.6385   0.1070 H              1 S1                 0.0000
     35 ****         0.0591  -5.2904  -1.6446 H              1 S1                 0.0000
     36 ****         3.7476  -6.2705   0.3851 H              1 S1                 0.0000
     37 ****         4.0960  -3.8906   1.0274 H              1 S1                 0.0000
     38 ****         2.7098  -0.2733   1.4195 H              1 S1                 0.0000
     39 ****         3.4971  -1.7762   1.8067 H              1 S1                 0.0000
     40 ****         5.1051  -0.2194   0.6829 H              1 S1                 0.0000
     41 ****         4.8497  -1.6337  -0.3238 H              1 S1                 0.0000
     42 ****         4.6981   0.3220  -1.4820 H              1 S1                 0.0000
     43 ****        -3.3534   3.7427   2.0946 H              1 S1                 0.0000
     44 ****        -0.4839  -2.4611  -1.4668 H              1 S1                 0.0000
     45 ****        -3.6476   2.7291  -1.9677 LP             1 S1                 0.0000
     46 ****        -1.4465  -0.5783  -0.4089 LP             1 S1                 0.0000
     47 ****         3.5065   0.9028  -0.6027 LP             1 S1                 0.0000
     48 ****         3.2880  -0.4114  -1.5470 LP             1 S1                 0.0000
@<TRIPOS>BOND
    1    1    2 1     
    2    1   24 1     
    3    1   25 1     
    4    1   26 1     
    5    2   23 2     
    6    2    3 1     
    7    3    4 2     
    8    3   27 1     
    9    4    5 1     
   10    5    6 1     
   11    5   23 1     
   12    6    7 1     
   13    6   28 1     
   14    6   29 1     
   15    7    8 1     
   16    7   30 1     
   17    7   31 1     
   18    8    9 1     
   19    8   32 1     
   20    9   10 1     
   21    9   33 1     
   22    9   34 1     
   23   10   19 1     
   24   10   11 2     
   25   11   12 1     
   26   11   44 1     
   27   12   18 ar    
   28   12   13 ar    
   29   13   14 ar    
   30   13   35 1     
   31   14   15 1     
   32   14   16 ar    
   33   16   17 ar    
   34   16   36 1     
   35   17   18 ar    
   36   17   37 1     
   37   18   19 1     
   38   19   20 1     
   39   20   21 1     
   40   20   38 1     
   41   20   39 1     
   42   21   22 1     
   43   21   40 1     
   44   21   41 1     
   45   22   42 1     
   46   23   43 1     
   47    4   45 1     
   48    8   46 1     
   49   22   47 1     
   50   22   48 1     
@<TRIPOS>SUBSTRUCTURE
      1 S1             1
@<TRIPOS>SET
LONE_PAIRS      STATIC     ATOMS    <user>   **** ""
4 45 46 47 48
DONOR_HYDROGENS      STATIC     ATOMS    <user>   **** ""
3 32 44 42
ATOM$BLUE        STATIC     ATOMS    COLORGROUP SYSTEM
4 45 46 47 48
ATOM$RED        STATIC     ATOMS    COLORGROUP SYSTEM
3 32 44 42
