AV-unprocessed.smi:1190|AV-procd|sdf|4980|dock6
  -GOLD-   22720 3573D 1   1.00000     0.00000
 Structure written by MMmdl.
 43 44  0  0  0  0  0  0  0  0  1 V2000
  150.6647  142.1976  157.8063 C   0  0  0  0  0  0  0  0  0  0  0  0
  150.7995  141.9384  156.4131 O   0  0  0  0  0  0  0  0  0  0  0  0
  150.2776  140.7635  155.9121 C   0  0  0  0  0  0  0  0  0  0  0  0
  149.3596  140.0436  156.7018 C   0  0  0  0  0  0  0  0  0  0  0  0
  148.8240  138.8449  156.1949 C   0  0  0  0  0  0  0  0  0  0  0  0
  149.2218  138.3967  154.9192 C   0  0  0  0  0  0  0  0  0  0  0  0
  148.6458  137.1908  154.4345 N   0  0  0  0  0  0  0  0  0  0  0  0
  147.8401  136.3221  155.0691 C   0  0  0  0  0  0  0  0  0  0  0  0
  147.4241  136.4432  156.2210 O   0  0  0  0  0  0  0  0  0  0  0  0
  147.5307  135.2882  154.2745 N   0  0  0  0  0  0  0  0  0  0  0  0
  146.7084  134.1392  154.6487 C   0  0  0  0  0  0  0  0  0  0  0  0
  146.7485  133.0147  153.5804 C   0  0  2  0  0  0  0  0  0  0  0  0
  148.1969  132.8919  153.0549 C   0  0  0  0  0  0  0  0  0  0  0  0
  145.7419  133.1689  152.5069 N   0  0  0  0  0  0  0  0  0  0  0  0
  145.9958  134.3379  151.6596 C   0  0  0  0  0  0  0  0  0  0  0  0
  144.9561  134.4892  150.5356 C   0  0  0  0  0  0  0  0  0  0  0  0
  144.9305  133.3074  149.7456 O   0  0  0  0  0  0  0  0  0  0  0  0
  144.6214  132.1533  150.5158 C   0  0  0  0  0  0  0  0  0  0  0  0
  145.6574  131.9885  151.6414 C   0  0  0  0  0  0  0  0  0  0  0  0
  150.1424  139.1974  154.1986 C   0  0  0  0  0  0  0  0  0  0  0  0
  150.6608  140.3475  154.6800 N   0  0  0  0  0  0  0  0  0  0  0  0
  151.1368  143.1508  158.0437 H   0  0  0  0  0  0  0  0  0  0  0  0
  151.1543  141.4290  158.4061 H   0  0  0  0  0  0  0  0  0  0  0  0
  149.6158  142.2658  158.0981 H   0  0  0  0  0  0  0  0  0  0  0  0
  149.0703  140.4051  157.6777 H   0  0  0  0  0  0  0  0  0  0  0  0
  148.1167  138.2773  156.7821 H   0  0  0  0  0  0  0  0  0  0  0  0
  148.8480  136.9770  153.4689 H   0  0  0  0  0  0  0  0  0  0  0  0
  147.9208  135.2754  153.3435 H   0  0  0  0  0  0  0  0  0  0  0  0
  147.0120  133.7434  155.6193 H   0  0  0  0  0  0  0  0  0  0  0  0
  145.6888  134.4879  154.8084 H   0  0  0  0  0  0  0  0  0  0  0  0
  146.5346  132.0840  154.1081 H   0  0  0  0  0  0  0  0  0  0  0  0
  148.9169  132.9027  153.8739 H   0  0  0  0  0  0  0  0  0  0  0  0
  148.4507  133.7128  152.3837 H   0  0  0  0  0  0  0  0  0  0  0  0
  148.3604  131.9570  152.5198 H   0  0  0  0  0  0  0  0  0  0  0  0
  145.9725  135.2517  152.2516 H   0  0  0  0  0  0  0  0  0  0  0  0
  146.9932  134.2693  151.2229 H   0  0  0  0  0  0  0  0  0  0  0  0
  143.9650  134.6813  150.9498 H   0  0  0  0  0  0  0  0  0  0  0  0
  145.2069  135.3376  149.8990 H   0  0  0  0  0  0  0  0  0  0  0  0
  143.6146  132.2397  150.9273 H   0  0  0  0  0  0  0  0  0  0  0  0
  144.6275  131.2788  149.8649 H   0  0  0  0  0  0  0  0  0  0  0  0
  146.6352  131.7793  151.2048 H   0  0  0  0  0  0  0  0  0  0  0  0
  145.3749  131.1095  152.2181 H   0  0  0  0  0  0  0  0  0  0  0  0
  150.4726  138.9433  153.2043 H   0  0  0  0  0  0  0  0  0  0  0  0
  1  2  1  0  0  0  0
  1 22  1  0  0  0  0
  1 23  1  0  0  0  0
  1 24  1  0  0  0  0
  2  3  1  0  0  0  0
  3 21  1  0  0  0  0
  3  4  2  0  0  0  0
  4  5  1  0  0  0  0
  4 25  1  0  0  0  0
  5  6  2  0  0  0  0
  5 26  1  0  0  0  0
  6  7  1  0  0  0  0
  6 20  1  0  0  0  0
  7  8  1  0  0  0  0
  7 27  1  0  0  0  0
  8  9  2  0  0  0  0
  8 10  1  0  0  0  0
 10 11  1  0  0  0  0
 10 28  1  0  0  0  0
 11 12  1  0  0  0  0
 11 29  1  0  0  0  0
 11 30  1  0  0  0  0
 12 13  1  0  0  0  0
 12 14  1  0  0  0  0
 12 31  1  0  0  0  0
 13 32  1  0  0  0  0
 13 33  1  0  0  0  0
 13 34  1  0  0  0  0
 14 19  1  0  0  0  0
 14 15  1  0  0  0  0
 15 16  1  0  0  0  0
 15 35  1  0  0  0  0
 15 36  1  0  0  0  0
 16 17  1  0  0  0  0
 16 37  1  0  0  0  0
 16 38  1  0  0  0  0
 17 18  1  0  0  0  0
 18 19  1  0  0  0  0
 18 39  1  0  0  0  0
 18 40  1  0  0  0  0
 19 41  1  0  0  0  0
 19 42  1  0  0  0  0
 20 21  2  0  0  0  0
 20 43  1  0  0  0  0
M  END
> <s_m_source_file>
AV-unprocessed.smi

> <i_m_source_file_index>
1190

> <i_lp_mmshare_version>
43012

> <i_f3d_flags>
0

> <s_epik_input>
W0NIM11PYzFbY0hdW2NIXWMoW2NIXW4xKVtOSF1DKD1PKVtOSF1bQ0gyXVtDQEhdKFtDSDNdKU4yW0NIMl1bQ0gyXU9bQ0gyXVtDSDJdMg==

> <s_epik_cmdline>
J2VwaWtfcHl0aG9uJywgJy1waCcsICc3LjAnLCAnLXRuJywgJzgnLCAnLW1hJywgJzIwMCcsICctbWV0YWxfYmluZGluZycsICctaW1hZScsICc8aW5maWxlLm1hZT4nLCAnLW9tYWUnLCAnPG91dGZpbGUubWFlPic=

> <r_lp_tautomer_probability>
1

> <r_epik_Ionization_Penalty>
0.266084

> <r_epik_Ionization_Penalty_Charging>
0

> <r_epik_Ionization_Penalty_Neutral>
0.266084

> <r_epik_State_Penalty>
0.257924

> <r_epik_Charging_Adjusted_Penalty>
0.257924

> <i_epik_Tot_Q>
0

> <i_epik_Tot_abs_Q>
0

> <r_epik_Metal_State_Penalty>
0.257922

> <b_epik_Metal_Only>
0

> <s_lp_Force_Field>
OPLS_2005

> <r_lp_Energy>
36.3321

> <b_lp_Chiralities_Consistent>
1

> <s_lp_Variant>
AV-unprocessed.smi:1190-1

> <Gold.Version>
5.8.1

> <Gold.Id.Protein>
6NUR|6NUR_protein|mol2

> <Gold.PLP.Fitness>
38.6657

> <Gold.PLP.PLP>
-27.7037

> <Gold.PLP.part.hbond>
-3.0000

> <Gold.PLP.part.metal>
0.0000

> <Gold.PLP.part.buried>
-5.4780

> <Gold.PLP.part.nonpolar>
-20.5595

> <Gold.PLP.part.repulsive>
1.0252

> <Gold.PLP.ligand.clash>
0.0000

> <Gold.PLP.ligand.torsion>
0.5462

> <Gold.PLP.Chemscore.Hbond>
3.0000

> <Gold.PLP.Chemscore.CHOScore>
1.0000

> <Gold.PLP.Chemscore.Metal>
0.0000

> <Gold.Chemscore.Hbonds>
donor molecule, donor type, donor heavy atom, donor atom, acceptor molecule, acceptor atom, score
      L1  H     7    27       P1  7948  1.00
      L1  H    10    28       P1  7948  1.00
      P1  H  7989  7998       L1    21  1.00
      L1  C    20    43       P1  7957  0.89

> <Gold.PLP.Chemscore.Internal.Correction>
0.0545

> <Gold.Rescore>
     Score         DG    S(hbond)    S(metal)    S(lipo)     H(rot)  DE(clash)    DE(int)     intcor
     14.96     -16.92       2.55        0.00      62.93       1.73       0.00       1.96       ----

> <Gold.Chemscore.Fitness>
14.9626

> <Gold.Chemscore.DG>
-16.9215

> <Gold.Chemscore.ZeroCoef>
-5.4800

> <Gold.Chemscore.Hbond>
2.5464

> <Gold.Chemscore.Metal>
0.0000

> <Gold.Chemscore.Lipo>
62.9330

> <Gold.Chemscore.Internal_Hbond>
0.0000

> <Gold.Chemscore.DEClash>
0.0000

> <Gold.Chemscore.DEInternal>
1.9588

> <Gold.Chemscore.Rot>
1.7292

> <Gold.Chemscore.Internal.Correction>
   9.000000E+99

> <Gold.Chemscore.Hbonds>
donor molecule, donor type, donor heavy atom, donor atom, acceptor molecule, acceptor atom, score
      L1  H     7    27       P1  7948  1.00
      L1  H    10    28       P1  7948  0.88
      P1  H  7989  7998       L1    21  0.44

> <Gold.Chemscore.Hbond.Weighted>
-8.5051

> <Gold.Chemscore.Metal.Weighted>
-0.0000

> <Gold.Chemscore.Lipo.Weighted>
-7.3632

> <Gold.Chemscore.Internal_Hbond.Weighted>
0.0000

> <Gold.Chemscore.DEClash.Weighted>
0.0000

> <Gold.Chemscore.DEInternal.Weighted>
1.9588

> <Gold.Chemscore.Rot.Weighted>
4.4268

> <Gold.Chemscore.Internal.Correction.Weighted>
   9.000000E+99

> <Gold.Protein.RotatedTorsions>
[ 6907 6896 6895 6894 ] final  138.37 input  -60.11 | X-H torsion
[ 7974 7965 7964 7962 ] final -165.53 input  175.53 | X-H torsion
[ 8008 7997 7996 7995 ] final  -53.63 input   59.86 | X-H torsion
[ 10167 10162 10161 10158 ] final  155.10 input  -65.29 | X-H torsion
[ 10718 10713 10712 10709 ] final  -24.37 input   66.30 | X-H torsion
[ 10763 10752 10751 10750 ] final -162.54 input  -60.55 | X-H torsion
[ 11005 11000 10999 10996 ] final   59.86 input  -57.11 | X-H torsion

> <Gold.Protein.ActiveResidues>
 VAL166  LYS551  ARG553  GLY616  TRP617  ASP618  TYR619  PRO620  LYS621  CYS622 
 ASP623  PHE694  ASN695  SER759  ASP760  ASP761  ALA762  ILE779  LEU786  VAL792 
 PHE793  MET794  SER795  GLU796  ALA797  LYS798  CYS799  TRP800  GLU811  SER814 

> <Gold.Protein.RotatedAtoms>
  152.2674  133.5352  159.5418 H   0  0  0  0  0  0  0  0  0  0  0  0  # atno 6907 bound_to 6896
  150.7147  134.0745  159.3885 H   0  0  0  0  0  0  0  0  0  0  0  0  # atno 6908 bound_to 6896
  151.8661  135.0507  160.0525 H   0  0  0  0  0  0  0  0  0  0  0  0  # atno 6909 bound_to 6896
  144.7267  140.2800  143.6237 H   0  0  0  0  0  0  0  0  0  0  0  0  # atno 7974 bound_to 7965
  154.4139  140.1195  156.5184 H   0  0  0  0  0  0  0  0  0  0  0  0  # atno 8008 bound_to 7997
  155.6727  140.3496  155.4805 H   0  0  0  0  0  0  0  0  0  0  0  0  # atno 8009 bound_to 7997
  155.9619  140.1124  157.0878 H   0  0  0  0  0  0  0  0  0  0  0  0  # atno 8010 bound_to 7997
  139.4822  144.5129  151.7997 H   0  0  0  0  0  0  0  0  0  0  0  0  # atno 10167 bound_to 10162
  156.4786  130.4540  149.6825 H   0  0  0  0  0  0  0  0  0  0  0  0  # atno 10718 bound_to 10713
  154.7204  135.3024  154.9056 H   0  0  0  0  0  0  0  0  0  0  0  0  # atno 10763 bound_to 10752
  153.9929  135.6716  153.4759 H   0  0  0  0  0  0  0  0  0  0  0  0  # atno 10764 bound_to 10752
  153.0829  135.4999  154.8456 H   0  0  0  0  0  0  0  0  0  0  0  0  # atno 10765 bound_to 10752
  140.0273  134.6064  155.9555 H   0  0  0  0  0  0  0  0  0  0  0  0  # atno 11005 bound_to 11000
  145.7958  139.1945  143.2076 LP  0  0  0  0  0  0  0  0  0  0  0  0  # atno 17320 bound_to 7965
  146.0717  140.7861  142.9684 LP  0  0  0  0  0  0  0  0  0  0  0  0  # atno 17321 bound_to 7965
  140.4634  144.1690  150.5909 LP  0  0  0  0  0  0  0  0  0  0  0  0  # atno 17342 bound_to 10162
  140.4460  143.2506  151.9410 LP  0  0  0  0  0  0  0  0  0  0  0  0  # atno 17343 bound_to 10162
  156.3545  130.7449  151.2413 LP  0  0  0  0  0  0  0  0  0  0  0  0  # atno 17370 bound_to 10713
  157.7485  131.0368  150.4425 LP  0  0  0  0  0  0  0  0  0  0  0  0  # atno 17371 bound_to 10713
  141.1810  133.6546  156.5021 LP  0  0  0  0  0  0  0  0  0  0  0  0  # atno 17394 bound_to 11000
  140.4285  134.7123  157.4929 LP  0  0  0  0  0  0  0  0  0  0  0  0  # atno 17395 bound_to 11000

$$$$
