AV-unprocessed.smi:118|AV-procd|sdf|1131|dock7
  -GOLD-   2262018263D 1   1.00000     0.00000
 Structure written by MMmdl.
 41 44  0  0  0  0  0  0  0  0  1 V2000
  148.3716  142.4213  153.7308 O   0  0  0  0  0  0  0  0  0  0  0  0
  147.6111  141.6324  154.2932 C   0  0  0  0  0  0  0  0  0  0  0  0
  148.1013  140.2370  154.7118 C   0  0  0  0  0  0  0  0  0  0  0  0
  149.4217  140.2466  155.3796 N   0  0  0  0  0  0  0  0  0  0  0  0
  150.4603  139.4450  154.8438 C   0  0  0  0  0  0  0  0  0  0  0  0
  150.2737  138.7338  153.8555 O   0  0  0  0  0  0  0  0  0  0  0  0
  151.7434  139.5356  155.5310 C   0  0  0  0  0  0  0  0  0  0  0  0
  152.7907  138.8226  155.0830 F   0  0  0  0  0  0  0  0  0  0  0  0
  151.8987  140.3303  156.6096 C   0  0  0  0  0  0  0  0  0  0  0  0
  150.8726  141.0903  157.1358 N   0  0  0  0  0  0  0  0  0  0  0  0
  151.1524  141.9926  158.3154 C   0  0  2  0  0  0  0  0  0  0  0  0
  150.9620  143.4899  158.0070 C   0  0  0  0  0  0  0  0  0  0  0  0
  152.3277  144.0784  158.3213 C   0  0  0  0  0  0  0  0  0  0  0  0
  152.9418  143.0351  159.2481 C   0  0  0  0  0  0  0  0  0  0  0  0
  152.4758  141.8064  158.7130 O   0  0  0  0  0  0  0  0  0  0  0  0
  149.6074  141.0868  156.5039 C   0  0  0  0  0  0  0  0  0  0  0  0
  148.6908  141.8012  156.9134 O   0  0  0  0  0  0  0  0  0  0  0  0
  146.3184  141.8858  154.5642 N   0  0  0  0  0  0  0  0  0  0  0  0
  145.5749  143.0707  154.3064 C   0  0  0  0  0  0  0  0  0  0  0  0
  145.7143  143.8371  153.1206 C   0  0  0  0  0  0  0  0  0  0  0  0
  144.9620  145.0175  152.9287 C   0  0  0  0  0  0  0  0  0  0  0  0
  144.0627  145.4662  153.9171 C   0  0  0  0  0  0  0  0  0  0  0  0
  143.9339  144.7197  155.1020 C   0  0  0  0  0  0  0  0  0  0  0  0
  144.6850  143.5376  155.2988 C   0  0  0  0  0  0  0  0  0  0  0  0
  144.4393  142.9240  156.5262 N   0  0  0  0  0  0  0  0  0  0  0  0
  143.4044  143.8842  157.1129 S   0  0  0  0  0  0  0  0  0  0  0  0
  143.0957  145.0423  156.1642 N   0  0  0  0  0  0  0  0  0  0  0  0
  147.3466  139.7819  155.3552 H   0  0  0  0  0  0  0  0  0  0  0  0
  148.1127  139.5973  153.8279 H   0  0  0  0  0  0  0  0  0  0  0  0
  152.8717  140.3663  157.0775 H   0  0  0  0  0  0  0  0  0  0  0  0
  150.4882  141.6592  159.1140 H   0  0  0  0  0  0  0  0  0  0  0  0
  150.6461  143.6701  156.9790 H   0  0  0  0  0  0  0  0  0  0  0  0
  150.1994  143.8878  158.6771 H   0  0  0  0  0  0  0  0  0  0  0  0
  152.9205  144.1608  157.4101 H   0  0  0  0  0  0  0  0  0  0  0  0
  152.2702  145.0677  158.7758 H   0  0  0  0  0  0  0  0  0  0  0  0
  154.0310  143.0777  159.2687 H   0  0  0  0  0  0  0  0  0  0  0  0
  152.5715  143.1532  160.2677 H   0  0  0  0  0  0  0  0  0  0  0  0
  145.7847  141.1128  154.9344 H   0  0  0  0  0  0  0  0  0  0  0  0
  146.4065  143.5451  152.3460 H   0  0  0  0  0  0  0  0  0  0  0  0
  145.0813  145.5842  152.0172 H   0  0  0  0  0  0  0  0  0  0  0  0
  143.4892  146.3694  153.7685 H   0  0  0  0  0  0  0  0  0  0  0  0
  1  2  2  0  0  0  0
  2  3  1  0  0  0  0
  2 18  1  0  0  0  0
  3  4  1  0  0  0  0
  3 28  1  0  0  0  0
  3 29  1  0  0  0  0
  4 16  1  0  0  0  0
  4  5  1  0  0  0  0
  5  6  2  0  0  0  0
  5  7  1  0  0  0  0
  7  8  1  0  0  0  0
  7  9  2  0  0  0  0
  9 10  1  0  0  0  0
  9 30  1  0  0  0  0
 10 11  1  0  0  0  0
 10 16  1  0  0  0  0
 11 15  1  0  0  0  0
 11 12  1  0  0  0  0
 11 31  1  0  0  0  0
 12 13  1  0  0  0  0
 12 32  1  0  0  0  0
 12 33  1  0  0  0  0
 13 14  1  0  0  0  0
 13 34  1  0  0  0  0
 13 35  1  0  0  0  0
 14 15  1  0  0  0  0
 14 36  1  0  0  0  0
 14 37  1  0  0  0  0
 16 17  2  0  0  0  0
 18 19  1  0  0  0  0
 18 38  1  0  0  0  0
 19 24  1  0  0  0  0
 19 20  2  0  0  0  0
 20 21  1  0  0  0  0
 20 39  1  0  0  0  0
 21 22  2  0  0  0  0
 21 40  1  0  0  0  0
 22 23  1  0  0  0  0
 22 41  1  0  0  0  0
 23 27  1  0  0  0  0
 23 24  2  0  0  0  0
 24 25  1  0  0  0  0
 25 26  2  0  0  0  0
 26 27  2  0  0  0  0
M  END
> <s_m_source_file>
AV-unprocessed.smi

> <i_m_source_file_index>
118

> <i_lp_mmshare_version>
43012

> <i_f3d_flags>
0

> <s_epik_input>
TjE9Uz1OYyhjMTIpYyhbY0hdW2NIXVtjSF0yKVtOSF1DKD1PKVtDSDJdbjNjKD1PKWMoRilbY0hdbihjMz1PKVtDQEBIXTRbQ0gyXVtDSDJdW0NIMl1PNA==

> <s_epik_cmdline>
J2VwaWtfcHl0aG9uJywgJy1waCcsICc3LjAnLCAnLXRuJywgJzgnLCAnLW1hJywgJzIwMCcsICctbWV0YWxfYmluZGluZycsICctaW1hZScsICc8aW5maWxlLm1hZT4nLCAnLW9tYWUnLCAnPG91dGZpbGUubWFlPic=

> <r_lp_tautomer_probability>
1

> <r_epik_Ionization_Penalty>
1.81156e-06

> <r_epik_Ionization_Penalty_Charging>
3.88729e-08

> <r_epik_Ionization_Penalty_Neutral>
1.77269e-06

> <r_epik_State_Penalty>
-0

> <r_epik_Charging_Adjusted_Penalty>
3.88729e-08

> <i_epik_Tot_Q>
0

> <i_epik_Tot_abs_Q>
0

> <r_epik_Metal_State_Penalty>
-0

> <b_epik_Metal_Only>
0

> <s_epik_Chemistry_Notes>
This compound contains an acetal/aminal-like group ( X-CH(R)-Y where X, Y are N, S, or O) that may be acid/base labile, releasing an aldehyde.

> <s_lp_Force_Field>
OPLS_2005

> <r_lp_Energy>
47.7675

> <b_lp_Chiralities_Consistent>
1

> <s_lp_Variant>
AV-unprocessed.smi:118-1

> <Gold.Version>
5.8.1

> <Gold.Id.Protein>
6NUR|6NUR_protein|mol2

> <Gold.PLP.Fitness>
49.0371

> <Gold.PLP.PLP>
-48.9036

> <Gold.PLP.part.hbond>
-1.2587

> <Gold.PLP.part.metal>
0.0000

> <Gold.PLP.part.buried>
-4.4757

> <Gold.PLP.part.nonpolar>
-44.5087

> <Gold.PLP.part.repulsive>
1.9438

> <Gold.PLP.ligand.clash>
0.0000

> <Gold.PLP.ligand.torsion>
0.5515

> <Gold.PLP.Chemscore.Hbond>
0.4026

> <Gold.PLP.Chemscore.CHOScore>
0.0000

> <Gold.PLP.Chemscore.Metal>
0.0000

> <Gold.Chemscore.Hbonds>
donor molecule, donor type, donor heavy atom, donor atom, acceptor molecule, acceptor atom, score
      P1  H  8011  8017       L1     1  0.19
      P1  H  8022  8030       L1     1  0.18

> <Gold.PLP.Chemscore.Internal.Correction>
0.0286

> <Gold.Rescore>
     Score         DG    S(hbond)    S(metal)    S(lipo)     H(rot)  DE(clash)    DE(int)     intcor
      9.24     -14.40       0.71        0.00      95.18       1.80       1.73       3.43       ----

> <Gold.Chemscore.Fitness>
9.2377

> <Gold.Chemscore.DG>
-14.3991

> <Gold.Chemscore.ZeroCoef>
-5.4800

> <Gold.Chemscore.Hbond>
0.7143

> <Gold.Chemscore.Metal>
0.0000

> <Gold.Chemscore.Lipo>
95.1765

> <Gold.Chemscore.Internal_Hbond>
0.0000

> <Gold.Chemscore.DEClash>
1.7286

> <Gold.Chemscore.DEInternal>
3.4327

> <Gold.Chemscore.Rot>
1.7977

> <Gold.Chemscore.Internal.Correction>
   9.000000E+99

> <Gold.Chemscore.Hbonds>
donor molecule, donor type, donor heavy atom, donor atom, acceptor molecule, acceptor atom, score
      P1  H  8011  8017       L1     1  0.20
      P1  H  8022  8030       L1     1  0.20

> <Gold.Chemscore.Hbond.Weighted>
-2.3857

> <Gold.Chemscore.Metal.Weighted>
-0.0000

> <Gold.Chemscore.Lipo.Weighted>
-11.1357

> <Gold.Chemscore.Internal_Hbond.Weighted>
0.0000

> <Gold.Chemscore.DEClash.Weighted>
1.7286

> <Gold.Chemscore.DEInternal.Weighted>
3.4327

> <Gold.Chemscore.Rot.Weighted>
4.6022

> <Gold.Chemscore.Internal.Correction.Weighted>
   9.000000E+99

> <Gold.Protein.RotatedTorsions>
[ 6907 6896 6895 6894 ] final   26.91 input  -60.11 | X-H torsion
[ 7974 7965 7964 7962 ] final -143.74 input  175.53 | X-H torsion
[ 8008 7997 7996 7995 ] final  129.89 input   59.86 | X-H torsion
[ 10167 10162 10161 10158 ] final -172.00 input  -65.29 | X-H torsion
[ 10718 10713 10712 10709 ] final  -68.62 input   66.30 | X-H torsion
[ 10763 10752 10751 10750 ] final  -49.89 input  -60.55 | X-H torsion
[ 11005 11000 10999 10996 ] final   38.36 input  -57.11 | X-H torsion

> <Gold.Protein.ActiveResidues>
 VAL166  LYS551  ARG553  GLY616  TRP617  ASP618  TYR619  PRO620  LYS621  CYS622 
 ASP623  PHE694  ASN695  SER759  ASP760  ASP761  ALA762  ILE779  LEU786  VAL792 
 PHE793  MET794  SER795  GLU796  ALA797  LYS798  CYS799  TRP800  GLU811  SER814 

> <Gold.Protein.RotatedAtoms>
  151.9944  134.9962  160.0562 H   0  0  0  0  0  0  0  0  0  0  0  0  # atno 6907 bound_to 6896
  152.1578  133.4557  159.4854 H   0  0  0  0  0  0  0  0  0  0  0  0  # atno 6908 bound_to 6896
  150.6883  134.2027  159.4371 H   0  0  0  0  0  0  0  0  0  0  0  0  # atno 6909 bound_to 6896
  144.8347  140.5797  143.5491 H   0  0  0  0  0  0  0  0  0  0  0  0  # atno 7974 bound_to 7965
  156.2945  140.2609  156.2673 H   0  0  0  0  0  0  0  0  0  0  0  0  # atno 8008 bound_to 7997
  154.9730  140.0391  157.2261 H   0  0  0  0  0  0  0  0  0  0  0  0  # atno 8009 bound_to 7997
  154.7841  140.2800  155.6046 H   0  0  0  0  0  0  0  0  0  0  0  0  # atno 8010 bound_to 7997
  139.5770  144.1511  152.1463 H   0  0  0  0  0  0  0  0  0  0  0  0  # atno 10167 bound_to 10162
  156.0496  130.4298  150.2028 H   0  0  0  0  0  0  0  0  0  0  0  0  # atno 10718 bound_to 10713
  154.1014  135.6562  153.4869 H   0  0  0  0  0  0  0  0  0  0  0  0  # atno 10763 bound_to 10752
  153.0287  135.5226  154.7282 H   0  0  0  0  0  0  0  0  0  0  0  0  # atno 10764 bound_to 10752
  154.6435  135.2991  155.0043 H   0  0  0  0  0  0  0  0  0  0  0  0  # atno 10765 bound_to 10752
  140.2134  134.3727  155.8038 H   0  0  0  0  0  0  0  0  0  0  0  0  # atno 11005 bound_to 11000
  145.4819  139.1495  143.3757 LP  0  0  0  0  0  0  0  0  0  0  0  0  # atno 17320 bound_to 7965
  146.2647  140.4955  142.8839 LP  0  0  0  0  0  0  0  0  0  0  0  0  # atno 17321 bound_to 7965
  140.1056  144.5502  150.6959 LP  0  0  0  0  0  0  0  0  0  0  0  0  # atno 17342 bound_to 10162
  140.7051  143.2462  151.4749 LP  0  0  0  0  0  0  0  0  0  0  0  0  # atno 17343 bound_to 10162
  157.0113  130.9952  151.3365 LP  0  0  0  0  0  0  0  0  0  0  0  0  # atno 17370 bound_to 10713
  157.5408  130.8119  149.8027 LP  0  0  0  0  0  0  0  0  0  0  0  0  # atno 17371 bound_to 10713
  141.2225  133.7155  156.8456 LP  0  0  0  0  0  0  0  0  0  0  0  0  # atno 17394 bound_to 11000
  140.1926  134.8954  157.3078 LP  0  0  0  0  0  0  0  0  0  0  0  0  # atno 17395 bound_to 11000

$$$$
