AV-unprocessed.smi:1586|AV-procd|sdf|6373|dock5
  -GOLD-   22720 7 03D 1   1.00000     0.00000
 Structure written by MMmdl.
 47 48  0  0  0  0  0  0  0  0  2 V2000
  151.2981  143.1503  157.6093 C   0  0  0  0  0  0  0  0  0  0  0  0
  151.0829  141.7355  158.1661 C   0  0  0  0  0  0  0  0  0  0  0  0
  150.2028  140.9073  157.3041 N   0  3  0  0  0  0  0  0  0  0  0  0
  149.9437  139.5496  157.8468 C   0  0  0  0  0  0  0  0  0  0  0  0
  149.0072  138.7652  156.9037 C   0  0  0  0  0  0  0  0  0  0  0  0
  149.5870  138.6088  155.5619 N   0  0  0  0  0  0  0  0  0  0  0  0
  150.8006  137.7651  155.4800 C   0  0  2  0  0  0  0  0  0  0  0  0
  151.4725  137.9235  154.0956 C   0  0  0  0  0  0  0  0  0  0  0  0
  150.4878  136.2678  155.7542 C   0  0  0  0  0  0  0  0  0  0  0  0
  149.7632  135.6349  154.6560 N   0  0  0  0  0  0  0  0  0  0  0  0
  149.1694  134.4343  154.7287 C   0  0  0  0  0  0  0  0  0  0  0  0
  149.1876  133.7306  155.7398 O   0  0  0  0  0  0  0  0  0  0  0  0
  148.5653  134.1128  153.5722 N   0  0  0  0  0  0  0  0  0  0  0  0
  147.8340  132.9330  153.2806 C   0  0  0  0  0  0  0  0  0  0  0  0
  147.0038  132.8543  152.1312 C   0  0  0  0  0  0  0  0  0  0  0  0
  146.4884  131.5910  152.2095 C   0  0  0  0  0  0  0  0  0  0  0  0
  145.5431  130.8263  151.3477 C   0  0  0  0  0  0  0  0  0  0  0  0
  146.9644  130.9527  153.3128 O   0  0  0  0  0  0  0  0  0  0  0  0
  147.8278  131.8179  153.9950 N   0  0  0  0  0  0  0  0  0  0  0  0
  149.7494  139.9729  155.0358 C   0  0  0  0  0  0  0  0  0  0  0  0
  150.7002  140.8228  155.9085 C   0  0  0  0  0  0  0  0  0  0  0  0
  152.0248  143.6922  158.2149 H   0  0  0  0  0  0  0  0  0  0  0  0
  150.3787  143.7352  157.6121 H   0  0  0  0  0  0  0  0  0  0  0  0
  151.6776  143.1201  156.5877 H   0  0  0  0  0  0  0  0  0  0  0  0
  152.0586  141.2534  158.2412 H   0  0  0  0  0  0  0  0  0  0  0  0
  150.6805  141.7793  159.1792 H   0  0  0  0  0  0  0  0  0  0  0  0
  150.8822  139.0171  158.0057 H   0  0  0  0  0  0  0  0  0  0  0  0
  149.4644  139.6281  158.8218 H   0  0  0  0  0  0  0  0  0  0  0  0
  148.7341  137.8055  157.3375 H   0  0  0  0  0  0  0  0  0  0  0  0
  148.0613  139.3014  156.8132 H   0  0  0  0  0  0  0  0  0  0  0  0
  151.5147  138.0941  156.2328 H   0  0  0  0  0  0  0  0  0  0  0  0
  152.3067  137.2340  153.9681 H   0  0  0  0  0  0  0  0  0  0  0  0
  151.8934  138.9176  153.9509 H   0  0  0  0  0  0  0  0  0  0  0  0
  150.7659  137.7321  153.2874 H   0  0  0  0  0  0  0  0  0  0  0  0
  151.3906  135.6772  155.9043 H   0  0  0  0  0  0  0  0  0  0  0  0
  149.8950  136.1662  156.6638 H   0  0  0  0  0  0  0  0  0  0  0  0
  149.7039  136.1500  153.7894 H   0  0  0  0  0  0  0  0  0  0  0  0
  148.6272  134.7863  152.8232 H   0  0  0  0  0  0  0  0  0  0  0  0
  146.8139  133.6000  151.3737 H   0  0  0  0  0  0  0  0  0  0  0  0
  145.5338  131.2240  150.3327 H   0  0  0  0  0  0  0  0  0  0  0  0
  144.5290  130.8831  151.7434 H   0  0  0  0  0  0  0  0  0  0  0  0
  145.8278  129.7751  151.2950 H   0  0  0  0  0  0  0  0  0  0  0  0
  150.0872  139.9624  154.0013 H   0  0  0  0  0  0  0  0  0  0  0  0
  148.7694  140.4514  155.0035 H   0  0  0  0  0  0  0  0  0  0  0  0
  150.7593  141.8284  155.4907 H   0  0  0  0  0  0  0  0  0  0  0  0
  151.7153  140.4246  155.8931 H   0  0  0  0  0  0  0  0  0  0  0  0
  149.3107  141.3784  157.2567 H   0  0  0  0  0  0  0  0  0  0  0  0
  1  2  1  0  0  0  0
  1 22  1  0  0  0  0
  1 23  1  0  0  0  0
  1 24  1  0  0  0  0
  2  3  1  0  0  0  0
  2 25  1  0  0  0  0
  2 26  1  0  0  0  0
  3 21  1  0  0  0  0
  3  4  1  0  0  0  0
  3 47  1  0  0  0  0
  4  5  1  0  0  0  0
  4 27  1  0  0  0  0
  4 28  1  0  0  0  0
  5  6  1  0  0  0  0
  5 29  1  0  0  0  0
  5 30  1  0  0  0  0
  6  7  1  0  0  0  0
  6 20  1  0  0  0  0
  7  8  1  0  0  0  0
  7  9  1  0  0  0  0
  7 31  1  0  0  0  0
  8 32  1  0  0  0  0
  8 33  1  0  0  0  0
  8 34  1  0  0  0  0
  9 10  1  0  0  0  0
  9 35  1  0  0  0  0
  9 36  1  0  0  0  0
 10 11  1  0  0  0  0
 10 37  1  0  0  0  0
 11 12  2  0  0  0  0
 11 13  1  0  0  0  0
 13 14  1  0  0  0  0
 13 38  1  0  0  0  0
 14 19  2  0  0  0  0
 14 15  1  0  0  0  0
 15 16  2  0  0  0  0
 15 39  1  0  0  0  0
 16 17  1  0  0  0  0
 16 18  1  0  0  0  0
 17 40  1  0  0  0  0
 17 41  1  0  0  0  0
 17 42  1  0  0  0  0
 18 19  1  0  0  0  0
 20 21  1  0  0  0  0
 20 43  1  0  0  0  0
 20 44  1  0  0  0  0
 21 45  1  0  0  0  0
 21 46  1  0  0  0  0
M  CHG  1   3   1
M  END
> <s_m_source_file>
AV-unprocessed.smi

> <i_m_source_file_index>
1586

> <i_lp_mmshare_version>
43012

> <i_f3d_flags>
0

> <s_epik_input>
W0NIM11bQ0gyXU4xW0NIMl1bQ0gyXU4oW0NIMl1bQ0gyXTEpW0NASF0oW0NIM10pW0NIMl1bTkhdQyg9TylbTkhdYzJbY0hdYyhbQ0gzXSlvbjI=

> <s_epik_cmdline>
J2VwaWtfcHl0aG9uJywgJy1waCcsICc3LjAnLCAnLXRuJywgJzgnLCAnLW1hJywgJzIwMCcsICctbWV0YWxfYmluZGluZycsICctaW1hZScsICc8aW5maWxlLm1hZT4nLCAnLW9tYWUnLCAnPG91dGZpbGUubWFlPic=

> <r_epik_Ionization_Penalty>
0.0459786

> <r_epik_Ionization_Penalty_Charging>
0.0453654

> <r_epik_Ionization_Penalty_Neutral>
0.000613264

> <r_epik_State_Penalty>
0.163057

> <r_epik_Charging_Adjusted_Penalty>
0.208422

> <i_epik_Tot_Q>
1

> <i_epik_Tot_abs_Q>
1

> <r_epik_Metal_State_Penalty>
0.17399

> <b_epik_Metal_Only>
0

> <s_lp_Force_Field>
OPLS_2005

> <r_lp_Energy>
17.9393

> <b_lp_Chiralities_Consistent>
1

> <s_lp_Variant>
AV-unprocessed.smi:1586-1

> <Gold.Version>
5.8.1

> <Gold.Id.Protein>
6NUR|6NUR_protein|mol2

> <Gold.PLP.Fitness>
35.7566

> <Gold.PLP.PLP>
-30.4739

> <Gold.PLP.part.hbond>
-2.0000

> <Gold.PLP.part.metal>
0.0000

> <Gold.PLP.part.buried>
-4.8275

> <Gold.PLP.part.nonpolar>
-24.4541

> <Gold.PLP.part.repulsive>
0.3295

> <Gold.PLP.ligand.clash>
0.0000

> <Gold.PLP.ligand.torsion>
0.3294

> <Gold.PLP.Chemscore.Hbond>
1.9600

> <Gold.PLP.Chemscore.CHOScore>
0.0000

> <Gold.PLP.Chemscore.Metal>
0.0000

> <Gold.Chemscore.Hbonds>
donor molecule, donor type, donor heavy atom, donor atom, acceptor molecule, acceptor atom, score
      L1  H    10    37       P1  7948  0.94
      L1  H    13    38       P1  7948  0.95

> <Gold.PLP.Chemscore.Internal.Correction>
0.0616

> <Gold.Rescore>
     Score         DG    S(hbond)    S(metal)    S(lipo)     H(rot)  DE(clash)    DE(int)     intcor
     12.57     -14.22       1.52        0.00      70.01       1.76       0.15       1.50       ----

> <Gold.Chemscore.Fitness>
12.5740

> <Gold.Chemscore.DG>
-14.2198

> <Gold.Chemscore.ZeroCoef>
-5.4800

> <Gold.Chemscore.Hbond>
1.5161

> <Gold.Chemscore.Metal>
0.0000

> <Gold.Chemscore.Lipo>
70.0096

> <Gold.Chemscore.Internal_Hbond>
0.0000

> <Gold.Chemscore.DEClash>
0.1490

> <Gold.Chemscore.DEInternal>
1.4968

> <Gold.Chemscore.Rot>
1.7637

> <Gold.Chemscore.Internal.Correction>
   9.000000E+99

> <Gold.Chemscore.Hbonds>
donor molecule, donor type, donor heavy atom, donor atom, acceptor molecule, acceptor atom, score
      L1  H    10    37       P1  7948  0.30
      L1  H    13    38       P1  7948  0.22

> <Gold.Chemscore.Hbond.Weighted>
-5.0637

> <Gold.Chemscore.Metal.Weighted>
-0.0000

> <Gold.Chemscore.Lipo.Weighted>
-8.1911

> <Gold.Chemscore.Internal_Hbond.Weighted>
0.0000

> <Gold.Chemscore.DEClash.Weighted>
0.1490

> <Gold.Chemscore.DEInternal.Weighted>
1.4968

> <Gold.Chemscore.Rot.Weighted>
4.5150

> <Gold.Chemscore.Internal.Correction.Weighted>
   9.000000E+99

> <Gold.Protein.RotatedTorsions>
[ 6907 6896 6895 6894 ] final  112.31 input  -60.11 | X-H torsion
[ 7974 7965 7964 7962 ] final  -59.17 input  175.53 | X-H torsion
[ 8008 7997 7996 7995 ] final  -92.14 input   59.86 | X-H torsion
[ 10167 10162 10161 10158 ] final  -41.12 input  -65.29 | X-H torsion
[ 10718 10713 10712 10709 ] final  142.91 input   66.30 | X-H torsion
[ 10763 10752 10751 10750 ] final  -24.12 input  -60.55 | X-H torsion
[ 11005 11000 10999 10996 ] final  164.99 input  -57.11 | X-H torsion

> <Gold.Protein.ActiveResidues>
 VAL166  LYS551  ARG553  GLY616  TRP617  ASP618  TYR619  PRO620  LYS621  CYS622 
 ASP623  PHE694  ASN695  SER759  ASP760  ASP761  ALA762  ILE779  LEU786  VAL792 
 PHE793  MET794  SER795  GLU796  ALA797  LYS798  CYS799  TRP800  GLU811  SER814 

> <Gold.Protein.RotatedAtoms>
  152.4923  133.8534  159.7212 H   0  0  0  0  0  0  0  0  0  0  0  0  # atno 6907 bound_to 6896
  150.9065  133.7043  159.2872 H   0  0  0  0  0  0  0  0  0  0  0  0  # atno 6908 bound_to 6896
  151.4467  135.1030  159.9738 H   0  0  0  0  0  0  0  0  0  0  0  0  # atno 6909 bound_to 6896
  145.8306  140.8482  143.0085 H   0  0  0  0  0  0  0  0  0  0  0  0  # atno 7974 bound_to 7965
  154.7194  140.0512  157.0625 H   0  0  0  0  0  0  0  0  0  0  0  0  # atno 8008 bound_to 7997
  155.0447  140.3172  155.4693 H   0  0  0  0  0  0  0  0  0  0  0  0  # atno 8009 bound_to 7997
  156.2812  140.2126  156.5572 H   0  0  0  0  0  0  0  0  0  0  0  0  # atno 8010 bound_to 7997
  140.7013  143.3113  151.3022 H   0  0  0  0  0  0  0  0  0  0  0  0  # atno 10167 bound_to 10162
  157.3751  131.0984  151.0792 H   0  0  0  0  0  0  0  0  0  0  0  0  # atno 10718 bound_to 10713
  153.6787  135.6968  153.5124 H   0  0  0  0  0  0  0  0  0  0  0  0  # atno 10763 bound_to 10752
  153.2502  135.4277  155.0788 H   0  0  0  0  0  0  0  0  0  0  0  0  # atno 10764 bound_to 10752
  154.8406  135.3529  154.6330 H   0  0  0  0  0  0  0  0  0  0  0  0  # atno 10765 bound_to 10752
  140.2516  134.7973  157.3507 H   0  0  0  0  0  0  0  0  0  0  0  0  # atno 11005 bound_to 11000
  144.6740  140.0667  143.7474 LP  0  0  0  0  0  0  0  0  0  0  0  0  # atno 17320 bound_to 7965
  145.9575  139.2777  143.1175 LP  0  0  0  0  0  0  0  0  0  0  0  0  # atno 17321 bound_to 7965
  139.6536  144.0316  152.2644 LP  0  0  0  0  0  0  0  0  0  0  0  0  # atno 17342 bound_to 10162
  139.9861  144.6394  150.7857 LP  0  0  0  0  0  0  0  0  0  0  0  0  # atno 17343 bound_to 10162
  157.1882  130.6340  149.5695 LP  0  0  0  0  0  0  0  0  0  0  0  0  # atno 17370 bound_to 10713
  155.9763  130.4731  150.6522 LP  0  0  0  0  0  0  0  0  0  0  0  0  # atno 17371 bound_to 10713
  140.1553  134.4798  155.7932 LP  0  0  0  0  0  0  0  0  0  0  0  0  # atno 17394 bound_to 11000
  141.2201  133.6879  156.7449 LP  0  0  0  0  0  0  0  0  0  0  0  0  # atno 17395 bound_to 11000

$$$$
