AV-unprocessed.smi:847|AV-procd|sdf|3937|dock1
  -GOLD-   22720 1403D 1   1.00000     0.00000
 Structure written by MMmdl.
 46 47  0  0  0  0  0  0  0  0  1 V2000
  151.0383  131.9129  156.8669 C   0  0  0  0  0  0  0  0  0  0  0  0
  150.6565  132.2821  158.1803 O   0  0  0  0  0  0  0  0  0  0  0  0
  149.2790  132.6050  158.2746 C   0  0  0  0  0  0  0  0  0  0  0  0
  149.0773  134.0678  157.8686 C   0  0  0  0  0  0  0  0  0  0  0  0
  149.6378  134.2681  156.5745 O   0  0  0  0  0  0  0  0  0  0  0  0
  150.0277  135.5420  156.2156 C   0  0  0  0  0  0  0  0  0  0  0  0
  150.6282  135.7326  154.9549 C   0  0  0  0  0  0  0  0  0  0  0  0
  151.0295  137.0297  154.5832 C   0  0  0  0  0  0  0  0  0  0  0  0
  150.8228  138.0945  155.4834 C   0  0  0  0  0  0  0  0  0  0  0  0
  151.2416  139.5083  155.1042 C   0  0  0  0  0  0  0  0  0  0  0  0
  151.0433  140.4951  156.1601 N   0  0  0  0  0  0  0  0  0  0  0  0
  151.8922  140.7178  157.1779 C   0  0  0  0  0  0  0  0  0  0  0  0
  152.9474  140.0989  157.3126 O   0  0  0  0  0  0  0  0  0  0  0  0
  151.5091  141.7896  158.2209 C   0  0  2  0  0  0  0  0  0  0  0  0
  151.2221  143.1137  157.4938 C   0  0  0  0  0  0  0  0  0  0  0  0
  151.5751  144.1975  158.4944 C   0  0  0  0  0  0  0  0  0  0  0  0
  152.6585  143.5803  159.3770 C   0  0  0  0  0  0  0  0  0  0  0  0
  152.5237  142.1275  159.2418 N   0  0  0  0  0  0  0  0  0  0  0  0
  153.1866  141.2445  160.0282 C   0  0  0  0  0  0  0  0  0  0  0  0
  154.2189  141.7793  161.0238 C   0  0  0  0  0  0  0  0  0  0  0  0
  152.9909  140.0302  159.9843 O   0  0  0  0  0  0  0  0  0  0  0  0
  150.2070  137.8028  156.7209 C   0  0  0  0  0  0  0  0  0  0  0  0
  149.8192  136.5621  157.0848 N   0  0  0  0  0  0  0  0  0  0  0  0
  150.6124  141.4625  158.7504 H   0  0  0  0  0  0  0  0  0  0  0  0
  152.0985  131.6608  156.8507 H   0  0  0  0  0  0  0  0  0  0  0  0
  150.8760  132.7318  156.1647 H   0  0  0  0  0  0  0  0  0  0  0  0
  150.4795  131.0409  156.5236 H   0  0  0  0  0  0  0  0  0  0  0  0
  148.7123  131.9605  157.6009 H   0  0  0  0  0  0  0  0  0  0  0  0
  148.9046  132.4330  159.2851 H   0  0  0  0  0  0  0  0  0  0  0  0
  148.0154  134.3191  157.8854 H   0  0  0  0  0  0  0  0  0  0  0  0
  149.5864  134.7116  158.5876 H   0  0  0  0  0  0  0  0  0  0  0  0
  150.7784  134.8987  154.2853 H   0  0  0  0  0  0  0  0  0  0  0  0
  151.4910  137.2014  153.6219 H   0  0  0  0  0  0  0  0  0  0  0  0
  152.2861  139.5148  154.7878 H   0  0  0  0  0  0  0  0  0  0  0  0
  150.6556  139.8171  154.2386 H   0  0  0  0  0  0  0  0  0  0  0  0
  150.1999  141.0484  156.1166 H   0  0  0  0  0  0  0  0  0  0  0  0
  151.8625  143.2292  156.6169 H   0  0  0  0  0  0  0  0  0  0  0  0
  150.1884  143.1862  157.1539 H   0  0  0  0  0  0  0  0  0  0  0  0
  151.8920  145.1274  158.0212 H   0  0  0  0  0  0  0  0  0  0  0  0
  150.6979  144.4191  159.1036 H   0  0  0  0  0  0  0  0  0  0  0  0
  153.6462  143.8801  159.0235 H   0  0  0  0  0  0  0  0  0  0  0  0
  152.5502  143.9143  160.4099 H   0  0  0  0  0  0  0  0  0  0  0  0
  154.9575  142.4047  160.5219 H   0  0  0  0  0  0  0  0  0  0  0  0
  154.7509  140.9570  161.5036 H   0  0  0  0  0  0  0  0  0  0  0  0
  153.7343  142.3647  161.8055 H   0  0  0  0  0  0  0  0  0  0  0  0
  150.0146  138.5824  157.4432 H   0  0  0  0  0  0  0  0  0  0  0  0
  1  2  1  0  0  0  0
  1 25  1  0  0  0  0
  1 26  1  0  0  0  0
  1 27  1  0  0  0  0
  2  3  1  0  0  0  0
  3  4  1  0  0  0  0
  3 28  1  0  0  0  0
  3 29  1  0  0  0  0
  4  5  1  0  0  0  0
  4 30  1  0  0  0  0
  4 31  1  0  0  0  0
  5  6  1  0  0  0  0
  6 23  1  0  0  0  0
  6  7  2  0  0  0  0
  7  8  1  0  0  0  0
  7 32  1  0  0  0  0
  8  9  2  0  0  0  0
  8 33  1  0  0  0  0
  9 10  1  0  0  0  0
  9 22  1  0  0  0  0
 10 11  1  0  0  0  0
 10 34  1  0  0  0  0
 10 35  1  0  0  0  0
 11 12  1  0  0  0  0
 11 36  1  0  0  0  0
 12 13  2  0  0  0  0
 12 14  1  0  0  0  0
 14 24  1  0  0  0  0
 14 18  1  0  0  0  0
 14 15  1  0  0  0  0
 15 16  1  0  0  0  0
 15 37  1  0  0  0  0
 15 38  1  0  0  0  0
 16 17  1  0  0  0  0
 16 39  1  0  0  0  0
 16 40  1  0  0  0  0
 17 18  1  0  0  0  0
 17 41  1  0  0  0  0
 17 42  1  0  0  0  0
 18 19  1  0  0  0  0
 19 20  1  0  0  0  0
 19 21  2  0  0  0  0
 20 43  1  0  0  0  0
 20 44  1  0  0  0  0
 20 45  1  0  0  0  0
 22 23  2  0  0  0  0
 22 46  1  0  0  0  0
M  END
> <s_m_source_file>
AV-unprocessed.smi

> <i_m_source_file_index>
847

> <i_lp_mmshare_version>
43012

> <i_f3d_flags>
0

> <s_epik_input>
W0NIM11PW0NIMl1bQ0gyXU9jMVtjSF1bY0hdYyhbY0hdbjEpW0NIMl1bTkhdQyg9TylbQ0BASF0yW0NIMl1bQ0gyXVtDSDJdTjJDKD1PKVtDSDNd

> <s_epik_cmdline>
J2VwaWtfcHl0aG9uJywgJy1waCcsICc3LjAnLCAnLXRuJywgJzgnLCAnLW1hJywgJzIwMCcsICctbWV0YWxfYmluZGluZycsICctaW1hZScsICc8aW5maWxlLm1hZT4nLCAnLW9tYWUnLCAnPG91dGZpbGUubWFlPic=

> <r_lp_tautomer_probability>
1

> <r_epik_Ionization_Penalty>
6.04138e-05

> <r_epik_Ionization_Penalty_Charging>
0

> <r_epik_Ionization_Penalty_Neutral>
6.04138e-05

> <r_epik_State_Penalty>
-0

> <r_epik_Charging_Adjusted_Penalty>
0

> <i_epik_Tot_Q>
0

> <i_epik_Tot_abs_Q>
0

> <r_epik_Metal_State_Penalty>
-0

> <b_epik_Metal_Only>
0

> <s_lp_Force_Field>
OPLS_2005

> <r_lp_Energy>
14.576

> <b_lp_Chiralities_Consistent>
1

> <s_lp_Variant>
AV-unprocessed.smi:847-1

> <Gold.Version>
5.8.1

> <Gold.Id.Protein>
6NUR|6NUR_protein|mol2

> <Gold.PLP.Fitness>
40.7780

> <Gold.PLP.PLP>
-35.6507

> <Gold.PLP.part.hbond>
-2.0000

> <Gold.PLP.part.metal>
0.0000

> <Gold.PLP.part.buried>
-0.9531

> <Gold.PLP.part.nonpolar>
-32.9657

> <Gold.PLP.part.repulsive>
0.1180

> <Gold.PLP.ligand.clash>
0.0000

> <Gold.PLP.ligand.torsion>
0.5394

> <Gold.PLP.Chemscore.Hbond>
2.0000

> <Gold.PLP.Chemscore.CHOScore>
0.0000

> <Gold.PLP.Chemscore.Metal>
0.0000

> <Gold.Chemscore.Hbonds>
donor molecule, donor type, donor heavy atom, donor atom, acceptor molecule, acceptor atom, score
      P1  H  6896  6908       L1     2  1.00
      P1  H  7997  8009       L1    13  1.00

> <Gold.PLP.Chemscore.Internal.Correction>
0.2061

> <Gold.Rescore>
     Score         DG    S(hbond)    S(metal)    S(lipo)     H(rot)  DE(clash)    DE(int)     intcor
     12.55     -16.46       1.93        0.00      89.34       2.31       0.08       3.83       ----

> <Gold.Chemscore.Fitness>
12.5538

> <Gold.Chemscore.DG>
-16.4649

> <Gold.Chemscore.ZeroCoef>
-5.4800

> <Gold.Chemscore.Hbond>
1.9269

> <Gold.Chemscore.Metal>
0.0000

> <Gold.Chemscore.Lipo>
89.3419

> <Gold.Chemscore.Internal_Hbond>
0.0000

> <Gold.Chemscore.DEClash>
0.0796

> <Gold.Chemscore.DEInternal>
3.8315

> <Gold.Chemscore.Rot>
2.3062

> <Gold.Chemscore.Internal.Correction>
   9.000000E+99

> <Gold.Chemscore.Hbonds>
donor molecule, donor type, donor heavy atom, donor atom, acceptor molecule, acceptor atom, score
      P1  H  6896  6908       L1     2  0.39
      P1  H  7997  8009       L1    13  0.93

> <Gold.Chemscore.Hbond.Weighted>
-6.4357

> <Gold.Chemscore.Metal.Weighted>
-0.0000

> <Gold.Chemscore.Lipo.Weighted>
-10.4530

> <Gold.Chemscore.Internal_Hbond.Weighted>
0.0000

> <Gold.Chemscore.DEClash.Weighted>
0.0796

> <Gold.Chemscore.DEInternal.Weighted>
3.8315

> <Gold.Chemscore.Rot.Weighted>
5.9038

> <Gold.Chemscore.Internal.Correction.Weighted>
   9.000000E+99

> <Gold.Protein.RotatedTorsions>
[ 6907 6896 6895 6894 ] final   77.06 input  -60.11 | X-H torsion
[ 7974 7965 7964 7962 ] final   85.02 input  175.53 | X-H torsion
[ 8008 7997 7996 7995 ] final -176.74 input   59.86 | X-H torsion
[ 10167 10162 10161 10158 ] final   58.27 input  -65.29 | X-H torsion
[ 10718 10713 10712 10709 ] final  125.43 input   66.30 | X-H torsion
[ 10763 10752 10751 10750 ] final -166.81 input  -60.55 | X-H torsion
[ 11005 11000 10999 10996 ] final  -65.89 input  -57.11 | X-H torsion

> <Gold.Protein.ActiveResidues>
 VAL166  LYS551  ARG553  GLY616  TRP617  ASP618  TYR619  PRO620  LYS621  CYS622 
 ASP623  PHE694  ASN695  SER759  ASP760  ASP761  ALA762  ILE779  LEU786  VAL792 
 PHE793  MET794  SER795  GLU796  ALA797  LYS798  CYS799  TRP800  GLU811  SER814 

> <Gold.Protein.RotatedAtoms>
  152.5101  134.3874  159.9371 H   0  0  0  0  0  0  0  0  0  0  0  0  # atno 6907 bound_to 6896
  151.3833  133.3807  159.2720 H   0  0  0  0  0  0  0  0  0  0  0  0  # atno 6908 bound_to 6896
  150.9488  134.8910  159.7717 H   0  0  0  0  0  0  0  0  0  0  0  0  # atno 6909 bound_to 6896
  145.5910  139.2338  143.2299 H   0  0  0  0  0  0  0  0  0  0  0  0  # atno 7974 bound_to 7965
  155.9985  140.1215  157.0570 H   0  0  0  0  0  0  0  0  0  0  0  0  # atno 8008 bound_to 7997
  154.4234  140.1111  156.5732 H   0  0  0  0  0  0  0  0  0  0  0  0  # atno 8009 bound_to 7997
  155.6245  140.3472  155.4665 H   0  0  0  0  0  0  0  0  0  0  0  0  # atno 8010 bound_to 7997
  140.1890  144.4104  150.6580 H   0  0  0  0  0  0  0  0  0  0  0  0  # atno 10167 bound_to 10162
  157.5503  131.1094  150.8712 H   0  0  0  0  0  0  0  0  0  0  0  0  # atno 10718 bound_to 10713
  154.6795  135.2952  154.9632 H   0  0  0  0  0  0  0  0  0  0  0  0  # atno 10763 bound_to 10752
  154.0632  135.6628  153.4818 H   0  0  0  0  0  0  0  0  0  0  0  0  # atno 10764 bound_to 10752
  153.0538  135.5157  154.7831 H   0  0  0  0  0  0  0  0  0  0  0  0  # atno 10765 bound_to 10752
  141.1467  133.6689  156.6056 H   0  0  0  0  0  0  0  0  0  0  0  0  # atno 11005 bound_to 11000
  146.1647  140.6736  142.9261 LP  0  0  0  0  0  0  0  0  0  0  0  0  # atno 17320 bound_to 7965
  144.7351  140.4785  143.6909 LP  0  0  0  0  0  0  0  0  0  0  0  0  # atno 17321 bound_to 7965
  140.6468  143.2215  151.6167 LP  0  0  0  0  0  0  0  0  0  0  0  0  # atno 17342 bound_to 10162
  139.5264  144.3048  152.1043 LP  0  0  0  0  0  0  0  0  0  0  0  0  # atno 17343 bound_to 10162
  156.9239  130.5325  149.5279 LP  0  0  0  0  0  0  0  0  0  0  0  0  # atno 17370 bound_to 10713
  156.0571  130.5631  150.9115 LP  0  0  0  0  0  0  0  0  0  0  0  0  # atno 17371 bound_to 10713
  140.3654  134.7651  157.4563 LP  0  0  0  0  0  0  0  0  0  0  0  0  # atno 17394 bound_to 11000
  140.0752  134.5807  155.8599 LP  0  0  0  0  0  0  0  0  0  0  0  0  # atno 17395 bound_to 11000

$$$$
