AV-unprocessed.smi:1682|AV-procd|sdf|6744|dock7
  -GOLD-   22720 7493D 1   1.00000     0.00000
 Structure written by MMmdl.
 38 39  0  0  0  0  0  0  0  0  1 V2000
  151.7050  137.0008  159.1362 O   0  0  0  0  0  0  0  0  0  0  0  0
  151.1126  137.6593  158.2805 C   0  0  0  0  0  0  0  0  0  0  0  0
  149.8075  137.5069  158.0087 N   0  0  0  0  0  0  0  0  0  0  0  0
  148.9204  136.5595  158.6733 C   0  0  0  0  0  0  0  0  0  0  0  0
  149.1668  136.5215  160.1909 C   0  0  0  0  0  0  0  0  0  0  0  0
  147.9024  136.2133  160.9701 C   0  0  0  0  0  0  0  0  0  0  0  0
  147.2797  134.9514  160.8630 C   0  0  0  0  0  0  0  0  0  0  0  0
  146.1109  134.7141  161.6123 C   0  0  0  0  0  0  0  0  0  0  0  0
  145.6137  135.7420  162.4365 C   0  0  0  0  0  0  0  0  0  0  0  0
  146.3096  136.9668  162.4742 C   0  0  0  0  0  0  0  0  0  0  0  0
  147.4304  137.2049  161.7593 N   0  0  0  0  0  0  0  0  0  0  0  0
  151.8669  138.7140  157.4559 C   0  0  1  0  0  0  0  0  0  0  0  0
  151.8943  138.3476  155.9587 C   0  0  0  0  0  0  0  0  0  0  0  0
  151.0300  139.4112  155.3029 C   0  0  0  0  0  0  0  0  0  0  0  0
  150.7212  139.3764  154.1127 O   0  0  0  0  0  0  0  0  0  0  0  0
  150.6599  140.3431  156.1874 N   0  0  0  0  0  0  0  0  0  0  0  0
  149.7954  141.4930  155.9257 C   0  0  0  0  0  0  0  0  0  0  0  0
  148.4131  141.0813  155.3877 C   0  0  0  0  0  0  0  0  0  0  0  0
  148.4993  140.6039  154.1463 F   0  0  0  0  0  0  0  0  0  0  0  0
  147.9097  140.1291  156.1718 F   0  0  0  0  0  0  0  0  0  0  0  0
  147.5819  142.1235  155.3995 F   0  0  0  0  0  0  0  0  0  0  0  0
  151.1922  140.1019  157.5189 C   0  0  0  0  0  0  0  0  0  0  0  0
  149.3994  138.0879  157.2905 H   0  0  0  0  0  0  0  0  0  0  0  0
  147.8791  136.8089  158.4612 H   0  0  0  0  0  0  0  0  0  0  0  0
  149.0971  135.5737  158.2422 H   0  0  0  0  0  0  0  0  0  0  0  0
  149.9209  135.7701  160.4293 H   0  0  0  0  0  0  0  0  0  0  0  0
  149.5689  137.4766  160.5317 H   0  0  0  0  0  0  0  0  0  0  0  0
  147.6871  134.1815  160.2239 H   0  0  0  0  0  0  0  0  0  0  0  0
  145.6060  133.7610  161.5560 H   0  0  0  0  0  0  0  0  0  0  0  0
  144.7208  135.5957  163.0261 H   0  0  0  0  0  0  0  0  0  0  0  0
  145.9572  137.7766  163.0956 H   0  0  0  0  0  0  0  0  0  0  0  0
  152.8892  138.7929  157.8305 H   0  0  0  0  0  0  0  0  0  0  0  0
  152.9070  138.4053  155.5585 H   0  0  0  0  0  0  0  0  0  0  0  0
  151.5032  137.3519  155.7422 H   0  0  0  0  0  0  0  0  0  0  0  0
  149.6809  142.0777  156.8400 H   0  0  0  0  0  0  0  0  0  0  0  0
  150.2856  142.1511  155.2071 H   0  0  0  0  0  0  0  0  0  0  0  0
  150.3979  140.1560  158.2657 H   0  0  0  0  0  0  0  0  0  0  0  0
  151.9223  140.8748  157.7619 H   0  0  0  0  0  0  0  0  0  0  0  0
  1  2  2  0  0  0  0
  2  3  1  0  0  0  0
  2 12  1  0  0  0  0
  3  4  1  0  0  0  0
  3 23  1  0  0  0  0
  4  5  1  0  0  0  0
  4 24  1  0  0  0  0
  4 25  1  0  0  0  0
  5  6  1  0  0  0  0
  5 26  1  0  0  0  0
  5 27  1  0  0  0  0
  6 11  1  0  0  0  0
  6  7  2  0  0  0  0
  7  8  1  0  0  0  0
  7 28  1  0  0  0  0
  8  9  2  0  0  0  0
  8 29  1  0  0  0  0
  9 10  1  0  0  0  0
  9 30  1  0  0  0  0
 10 11  2  0  0  0  0
 10 31  1  0  0  0  0
 12 22  1  0  0  0  0
 12 13  1  0  0  0  0
 12 32  1  0  0  0  0
 13 14  1  0  0  0  0
 13 33  1  0  0  0  0
 13 34  1  0  0  0  0
 14 15  2  0  0  0  0
 14 16  1  0  0  0  0
 16 17  1  0  0  0  0
 16 22  1  0  0  0  0
 17 18  1  0  0  0  0
 17 35  1  0  0  0  0
 17 36  1  0  0  0  0
 18 19  1  0  0  0  0
 18 20  1  0  0  0  0
 18 21  1  0  0  0  0
 22 37  1  0  0  0  0
 22 38  1  0  0  0  0
M  END
> <s_m_source_file>
AV-unprocessed.smi

> <i_m_source_file_index>
1682

> <i_lp_mmshare_version>
43012

> <i_f3d_flags>
0

> <s_epik_input>
RkMoRikoRilbQ0gyXU4oW0NIMl0xKUMoPU8pW0NIMl1bQ0BIXTFDKD1PKVtOSF1bQ0gyXVtDSDJdYzJbY0hdW2NIXVtjSF1bY0hdbjI=

> <s_epik_cmdline>
J2VwaWtfcHl0aG9uJywgJy1waCcsICc3LjAnLCAnLXRuJywgJzgnLCAnLW1hJywgJzIwMCcsICctbWV0YWxfYmluZGluZycsICctaW1hZScsICc8aW5maWxlLm1hZT4nLCAnLW9tYWUnLCAnPG91dGZpbGUubWFlPic=

> <r_epik_Ionization_Penalty>
0.0252359

> <r_epik_Ionization_Penalty_Charging>
0

> <r_epik_Ionization_Penalty_Neutral>
0.0252359

> <r_epik_State_Penalty>
0.020532

> <r_epik_Charging_Adjusted_Penalty>
0.020532

> <i_epik_Tot_Q>
0

> <i_epik_Tot_abs_Q>
0

> <r_epik_Metal_State_Penalty>
0.0196899

> <b_epik_Metal_Only>
0

> <s_lp_Force_Field>
OPLS_2005

> <r_lp_Energy>
9.99714

> <b_lp_Chiralities_Consistent>
1

> <s_lp_Variant>
AV-unprocessed.smi:1682-2

> <Gold.Version>
5.8.1

> <Gold.Id.Protein>
6NUR|6NUR_protein|mol2

> <Gold.PLP.Fitness>
43.8352

> <Gold.PLP.PLP>
-33.5018

> <Gold.PLP.part.hbond>
-4.0000

> <Gold.PLP.part.metal>
0.0000

> <Gold.PLP.part.buried>
-1.4766

> <Gold.PLP.part.nonpolar>
-28.8463

> <Gold.PLP.part.repulsive>
0.2877

> <Gold.PLP.ligand.clash>
0.0000

> <Gold.PLP.ligand.torsion>
0.5036

> <Gold.PLP.Chemscore.Hbond>
3.7193

> <Gold.PLP.Chemscore.CHOScore>
0.0000

> <Gold.PLP.Chemscore.Metal>
0.0000

> <Gold.Chemscore.Hbonds>
donor molecule, donor type, donor heavy atom, donor atom, acceptor molecule, acceptor atom, score
      P1  H  6896  6909       L1     1  1.00
      P1  H  6931  6943       L1    11  0.93
      P1  H  6934  6947       L1    11  0.78
      P1  H  7989  7998       L1    15  1.00

> <Gold.PLP.Chemscore.Internal.Correction>
0.1828

> <Gold.Rescore>
     Score         DG    S(hbond)    S(metal)    S(lipo)     H(rot)  DE(clash)    DE(int)     intcor
     13.27     -17.32       2.90        0.00      64.11       2.09       0.70       3.35       ----

> <Gold.Chemscore.Fitness>
13.2715

> <Gold.Chemscore.DG>
-17.3229

> <Gold.Chemscore.ZeroCoef>
-5.4800

> <Gold.Chemscore.Hbond>
2.9006

> <Gold.Chemscore.Metal>
0.0000

> <Gold.Chemscore.Lipo>
64.1137

> <Gold.Chemscore.Internal_Hbond>
0.0000

> <Gold.Chemscore.DEClash>
0.7026

> <Gold.Chemscore.DEInternal>
3.3488

> <Gold.Chemscore.Rot>
2.0884

> <Gold.Chemscore.Internal.Correction>
   9.000000E+99

> <Gold.Chemscore.Hbonds>
donor molecule, donor type, donor heavy atom, donor atom, acceptor molecule, acceptor atom, score
      P1  H  6896  6909       L1     1  0.92
      P1  H  6931  6943       L1    11  0.23
      P1  H  6934  6947       L1    11  0.39
      P1  H  7989  7998       L1    15  0.30

> <Gold.Chemscore.Hbond.Weighted>
-9.6880

> <Gold.Chemscore.Metal.Weighted>
-0.0000

> <Gold.Chemscore.Lipo.Weighted>
-7.5013

> <Gold.Chemscore.Internal_Hbond.Weighted>
0.0000

> <Gold.Chemscore.DEClash.Weighted>
0.7026

> <Gold.Chemscore.DEInternal.Weighted>
3.3488

> <Gold.Chemscore.Rot.Weighted>
5.3464

> <Gold.Chemscore.Internal.Correction.Weighted>
   9.000000E+99

> <Gold.Protein.RotatedTorsions>
[ 6907 6896 6895 6894 ] final  117.18 input  -60.11 | X-H torsion
[ 7974 7965 7964 7962 ] final   97.30 input  175.53 | X-H torsion
[ 8008 7997 7996 7995 ] final   53.07 input   59.86 | X-H torsion
[ 10167 10162 10161 10158 ] final  -77.12 input  -65.29 | X-H torsion
[ 10718 10713 10712 10709 ] final  -59.41 input   66.30 | X-H torsion
[ 10763 10752 10751 10750 ] final  145.44 input  -60.55 | X-H torsion
[ 11005 11000 10999 10996 ] final  -30.97 input  -57.11 | X-H torsion

> <Gold.Protein.ActiveResidues>
 VAL166  LYS551  ARG553  GLY616  TRP617  ASP618  TYR619  PRO620  LYS621  CYS622 
 ASP623  PHE694  ASN695  SER759  ASP760  ASP761  ALA762  ILE779  LEU786  VAL792 
 PHE793  MET794  SER795  GLU796  ALA797  LYS798  CYS799  TRP800  GLU811  SER814 

> <Gold.Protein.RotatedAtoms>
  152.4629  133.7860  159.6875 H   0  0  0  0  0  0  0  0  0  0  0  0  # atno 6907 bound_to 6896
  150.8580  133.7676  159.3008 H   0  0  0  0  0  0  0  0  0  0  0  0  # atno 6908 bound_to 6896
  151.5250  135.1071  159.9940 H   0  0  0  0  0  0  0  0  0  0  0  0  # atno 6909 bound_to 6896
  145.4273  139.2314  143.3163 H   0  0  0  0  0  0  0  0  0  0  0  0  # atno 7974 bound_to 7965
  155.4623  140.3462  155.4314 H   0  0  0  0  0  0  0  0  0  0  0  0  # atno 8008 bound_to 7997
  156.1153  140.1472  156.9311 H   0  0  0  0  0  0  0  0  0  0  0  0  # atno 8009 bound_to 7997
  154.4785  140.0877  156.7298 H   0  0  0  0  0  0  0  0  0  0  0  0  # atno 8010 bound_to 7997
  140.4798  143.2405  151.8076 H   0  0  0  0  0  0  0  0  0  0  0  0  # atno 10167 bound_to 10162
  156.1064  130.4180  150.0711 H   0  0  0  0  0  0  0  0  0  0  0  0  # atno 10718 bound_to 10713
  154.0055  135.2919  155.3398 H   0  0  0  0  0  0  0  0  0  0  0  0  # atno 10763 bound_to 10752
  154.7134  135.5140  153.8704 H   0  0  0  0  0  0  0  0  0  0  0  0  # atno 10764 bound_to 10752
  153.0746  135.6659  154.0292 H   0  0  0  0  0  0  0  0  0  0  0  0  # atno 10765 bound_to 10752
  140.9428  133.7268  156.1102 H   0  0  0  0  0  0  0  0  0  0  0  0  # atno 11005 bound_to 11000
  146.2625  140.5005  142.8847 LP  0  0  0  0  0  0  0  0  0  0  0  0  # atno 17320 bound_to 7965
  144.8206  140.6543  143.6355 LP  0  0  0  0  0  0  0  0  0  0  0  0  # atno 17321 bound_to 7965
  139.4831  144.4787  151.9334 LP  0  0  0  0  0  0  0  0  0  0  0  0  # atno 17342 bound_to 10162
  140.3872  144.2661  150.5903 LP  0  0  0  0  0  0  0  0  0  0  0  0  # atno 17343 bound_to 10162
  156.8686  130.9516  151.3611 LP  0  0  0  0  0  0  0  0  0  0  0  0  # atno 17370 bound_to 10713
  157.6241  130.8677  149.9158 LP  0  0  0  0  0  0  0  0  0  0  0  0  # atno 17371 bound_to 10713
  140.7710  134.3832  157.5507 LP  0  0  0  0  0  0  0  0  0  0  0  0  # atno 17394 bound_to 11000
  139.8825  134.9022  156.2827 LP  0  0  0  0  0  0  0  0  0  0  0  0  # atno 17395 bound_to 11000

$$$$
