AV-unprocessed.smi:153|AV-procd|sdf|1254|dock1
  -GOLD-   2262018493D 1   1.00000     0.00000
 Structure written by MMmdl.
 60 63  0  0  0  0  0  0  0  0  2 V2000
  145.3259  137.0307  161.9209 C   0  0  0  0  0  0  0  0  0  0  0  0
  145.7144  135.6152  161.4779 C   0  0  2  0  0  0  0  0  0  0  0  0
  145.7478  134.7759  162.6253 O   0  0  0  0  0  0  0  0  0  0  0  0
  146.4982  133.6258  162.2885 C   0  0  0  0  0  0  0  0  0  0  0  0
  147.6865  134.2313  161.5573 C   0  0  0  0  0  0  0  0  0  0  0  0
  147.0886  135.4028  160.7719 C   0  0  1  0  0  0  0  0  0  0  0  0
  146.8281  134.9372  159.4598 O   0  0  0  0  0  0  0  0  0  0  0  0
  148.0999  136.5878  160.7276 C   0  0  0  0  0  0  0  0  0  0  0  0
  148.4090  137.1231  159.4061 N   0  0  0  0  0  0  0  0  0  0  0  0
  147.5271  137.7030  158.5242 C   0  0  0  0  0  0  0  0  0  0  0  0
  148.0523  138.1276  157.4094 N   0  0  0  0  0  0  0  0  0  0  0  0
  149.4115  137.8598  157.5358 C   0  0  0  0  0  0  0  0  0  0  0  0
  150.5623  138.0796  156.7143 C   0  0  0  0  0  0  0  0  0  0  0  0
  150.5495  138.6459  155.4722 N   0  0  0  0  0  0  0  0  0  0  0  0
  151.8033  139.0084  154.8214 C   0  0  0  0  0  0  0  0  0  0  0  0
  149.3464  138.5591  154.6400 C   0  0  0  0  0  0  0  0  0  0  0  0
  148.7117  139.9397  154.3741 C   0  0  1  0  0  0  0  0  0  0  0  0
  149.6237  140.7123  153.6184 O   0  0  0  0  0  0  0  0  0  0  0  0
  147.4149  139.8172  153.5490 C   0  0  0  0  0  0  0  0  0  0  0  0
  146.4276  140.8800  153.8697 N   0  3  0  0  0  0  0  0  0  0  0  0
  145.9238  140.7839  155.2604 C   0  0  0  0  0  0  0  0  0  0  0  0
  144.8593  141.8622  155.5233 C   0  0  0  0  0  0  0  0  0  0  0  0
  145.4076  143.1481  155.2617 O   0  0  0  0  0  0  0  0  0  0  0  0
  145.8155  143.2853  153.9064 C   0  0  0  0  0  0  0  0  0  0  0  0
  146.9124  142.2546  153.5894 C   0  0  0  0  0  0  0  0  0  0  0  0
  151.7603  137.6907  157.2278 N   0  0  0  0  0  0  0  0  0  0  0  0
  151.8432  137.1360  158.4389 C   0  0  0  0  0  0  0  0  0  0  0  0
  150.8630  136.8741  159.3019 N   0  0  0  0  0  0  0  0  0  0  0  0
  149.6507  137.2466  158.8018 C   0  0  0  0  0  0  0  0  0  0  0  0
  145.1637  137.6784  161.0611 H   0  0  0  0  0  0  0  0  0  0  0  0
  146.0805  137.4784  162.5671 H   0  0  0  0  0  0  0  0  0  0  0  0
  144.3908  137.0099  162.4808 H   0  0  0  0  0  0  0  0  0  0  0  0
  144.9097  135.2328  160.8460 H   0  0  0  0  0  0  0  0  0  0  0  0
  146.7894  133.0584  163.1726 H   0  0  0  0  0  0  0  0  0  0  0  0
  145.9155  132.9776  161.6318 H   0  0  0  0  0  0  0  0  0  0  0  0
  148.3942  134.5991  162.3017 H   0  0  0  0  0  0  0  0  0  0  0  0
  148.2172  133.5067  160.9378 H   0  0  0  0  0  0  0  0  0  0  0  0
  147.5844  134.4603  159.1535 H   0  0  0  0  0  0  0  0  0  0  0  0
  147.7596  137.4037  161.3658 H   0  0  0  0  0  0  0  0  0  0  0  0
  149.0473  136.2606  161.1586 H   0  0  0  0  0  0  0  0  0  0  0  0
  146.4715  137.8022  158.7301 H   0  0  0  0  0  0  0  0  0  0  0  0
  152.4045  139.6474  155.4689 H   0  0  0  0  0  0  0  0  0  0  0  0
  151.6214  139.5602  153.8990 H   0  0  0  0  0  0  0  0  0  0  0  0
  152.3793  138.1181  154.5676 H   0  0  0  0  0  0  0  0  0  0  0  0
  149.5180  138.0133  153.7112 H   0  0  0  0  0  0  0  0  0  0  0  0
  148.6334  137.9447  155.1905 H   0  0  0  0  0  0  0  0  0  0  0  0
  148.5117  140.4393  155.3213 H   0  0  0  0  0  0  0  0  0  0  0  0
  149.6233  140.3921  152.7284 H   0  0  0  0  0  0  0  0  0  0  0  0
  147.6722  139.8649  152.4893 H   0  0  0  0  0  0  0  0  0  0  0  0
  146.9513  138.8418  153.7052 H   0  0  0  0  0  0  0  0  0  0  0  0
  145.4925  139.7967  155.4319 H   0  0  0  0  0  0  0  0  0  0  0  0
  146.7542  140.8984  155.9593 H   0  0  0  0  0  0  0  0  0  0  0  0
  143.9754  141.6971  154.9050 H   0  0  0  0  0  0  0  0  0  0  0  0
  144.5328  141.8220  156.5627 H   0  0  0  0  0  0  0  0  0  0  0  0
  144.9592  143.1613  153.2410 H   0  0  0  0  0  0  0  0  0  0  0  0
  146.1940  144.2959  153.7521 H   0  0  0  0  0  0  0  0  0  0  0  0
  147.8001  142.4605  154.1898 H   0  0  0  0  0  0  0  0  0  0  0  0
  147.2032  142.3551  152.5447 H   0  0  0  0  0  0  0  0  0  0  0  0
  152.8367  136.8610  158.7613 H   0  0  0  0  0  0  0  0  0  0  0  0
  145.6320  140.7166  153.2684 H   0  0  0  0  0  0  0  0  0  0  0  0
  1  2  1  0  0  0  0
  1 30  1  0  0  0  0
  1 31  1  0  0  0  0
  1 32  1  0  0  0  0
  2  6  1  0  0  0  0
  2  3  1  0  0  0  0
  2 33  1  0  0  0  0
  3  4  1  0  0  0  0
  4  5  1  0  0  0  0
  4 34  1  0  0  0  0
  4 35  1  0  0  0  0
  5  6  1  0  0  0  0
  5 36  1  0  0  0  0
  5 37  1  0  0  0  0
  6  7  1  0  0  0  0
  6  8  1  0  0  0  0
  7 38  1  0  0  0  0
  8  9  1  0  0  0  0
  8 39  1  0  0  0  0
  8 40  1  0  0  0  0
  9 29  1  0  0  0  0
  9 10  1  0  0  0  0
 10 11  2  0  0  0  0
 10 41  1  0  0  0  0
 11 12  1  0  0  0  0
 12 29  2  0  0  0  0
 12 13  1  0  0  0  0
 13 14  1  0  0  0  0
 13 26  2  0  0  0  0
 14 15  1  0  0  0  0
 14 16  1  0  0  0  0
 15 42  1  0  0  0  0
 15 43  1  0  0  0  0
 15 44  1  0  0  0  0
 16 17  1  0  0  0  0
 16 45  1  0  0  0  0
 16 46  1  0  0  0  0
 17 18  1  0  0  0  0
 17 19  1  0  0  0  0
 17 47  1  0  0  0  0
 18 48  1  0  0  0  0
 19 20  1  0  0  0  0
 19 49  1  0  0  0  0
 19 50  1  0  0  0  0
 20 25  1  0  0  0  0
 20 21  1  0  0  0  0
 20 60  1  0  0  0  0
 21 22  1  0  0  0  0
 21 51  1  0  0  0  0
 21 52  1  0  0  0  0
 22 23  1  0  0  0  0
 22 53  1  0  0  0  0
 22 54  1  0  0  0  0
 23 24  1  0  0  0  0
 24 25  1  0  0  0  0
 24 55  1  0  0  0  0
 24 56  1  0  0  0  0
 25 57  1  0  0  0  0
 25 58  1  0  0  0  0
 26 27  1  0  0  0  0
 27 28  2  0  0  0  0
 27 59  1  0  0  0  0
 28 29  1  0  0  0  0
M  CHG  1  20   1
M  END
> <s_m_source_file>
AV-unprocessed.smi

> <i_m_source_file_index>
153

> <i_lp_mmshare_version>
43012

> <i_f3d_flags>
0

> <s_epik_input>
W0NIMl0xW0NIMl1PW0NAQEhdKFtDSDNdKVtDQEBdMShbT0hdKVtDSDJdbihbY0hdbjIpYyhjMjMpbltjSF1uYzNOKFtDSDNdKVtDSDJdW0NASF0oW09IXSlbQ0gyXU40W0NIMl1bQ0gyXU9bQ0gyXVtDSDJdNA==

> <s_epik_cmdline>
J2VwaWtfcHl0aG9uJywgJy1waCcsICc3LjAnLCAnLXRuJywgJzgnLCAnLW1hJywgJzIwMCcsICctbWV0YWxfYmluZGluZycsICctaW1hZScsICc8aW5maWxlLm1hZT4nLCAnLW9tYWUnLCAnPG91dGZpbGUubWFlPic=

> <r_lp_tautomer_probability>
1

> <r_epik_Ionization_Penalty>
0.403509

> <r_epik_Ionization_Penalty_Charging>
0.40072

> <r_epik_Ionization_Penalty_Neutral>
0.00278876

> <r_epik_State_Penalty>
0.400058

> <r_epik_Charging_Adjusted_Penalty>
0.800778

> <i_epik_Tot_Q>
1

> <i_epik_Tot_abs_Q>
1

> <r_epik_Metal_State_Penalty>
0.400321

> <b_epik_Metal_Only>
0

> <s_lp_Force_Field>
OPLS_2005

> <r_lp_Energy>
49.6176

> <b_lp_Chiralities_Consistent>
1

> <s_lp_Variant>
AV-unprocessed.smi:153-5

> <Gold.Version>
5.8.1

> <Gold.Id.Protein>
6NUR|6NUR_protein|mol2

> <Gold.PLP.Fitness>
52.2084

> <Gold.PLP.PLP>
-42.4719

> <Gold.PLP.part.hbond>
-4.8815

> <Gold.PLP.part.metal>
0.0000

> <Gold.PLP.part.buried>
-7.6462

> <Gold.PLP.part.nonpolar>
-31.1300

> <Gold.PLP.part.repulsive>
0.1919

> <Gold.PLP.ligand.clash>
0.0000

> <Gold.PLP.ligand.torsion>
1.8444

> <Gold.PLP.Chemscore.Hbond>
4.1529

> <Gold.PLP.Chemscore.CHOScore>
0.0000

> <Gold.PLP.Chemscore.Metal>
0.0000

> <Gold.Chemscore.Hbonds>
donor molecule, donor type, donor heavy atom, donor atom, acceptor molecule, acceptor atom, score
      L1  H    18    48       P1  7957  1.00
      L1  H    20    60       P1 10175  1.59
      P1  H  6896  6908       L1    28  1.00
      P1  H  7989  7998       L1    18  0.15

> <Gold.PLP.Chemscore.Internal.Correction>
0.9666

> <Gold.Rescore>
     Score         DG    S(hbond)    S(metal)    S(lipo)     H(rot)  DE(clash)    DE(int)     intcor
     11.30     -14.99       2.77        0.00      81.33       3.62       0.07       3.62       ----

> <Gold.Chemscore.Fitness>
11.3021

> <Gold.Chemscore.DG>
-14.9900

> <Gold.Chemscore.ZeroCoef>
-5.4800

> <Gold.Chemscore.Hbond>
2.7714

> <Gold.Chemscore.Metal>
0.0000

> <Gold.Chemscore.Lipo>
81.3330

> <Gold.Chemscore.Internal_Hbond>
0.0000

> <Gold.Chemscore.DEClash>
0.0650

> <Gold.Chemscore.DEInternal>
3.6229

> <Gold.Chemscore.Rot>
3.6182

> <Gold.Chemscore.Internal.Correction>
   9.000000E+99

> <Gold.Chemscore.Hbonds>
donor molecule, donor type, donor heavy atom, donor atom, acceptor molecule, acceptor atom, score
      L1  H    18    48       P1  7957  0.99
      L1  H    20    60       P1 10175  0.62
      P1  H  6896  6908       L1    28  0.54

> <Gold.Chemscore.Hbond.Weighted>
-9.2565

> <Gold.Chemscore.Metal.Weighted>
-0.0000

> <Gold.Chemscore.Lipo.Weighted>
-9.5160

> <Gold.Chemscore.Internal_Hbond.Weighted>
0.0000

> <Gold.Chemscore.DEClash.Weighted>
0.0650

> <Gold.Chemscore.DEInternal.Weighted>
3.6229

> <Gold.Chemscore.Rot.Weighted>
9.2625

> <Gold.Chemscore.Internal.Correction.Weighted>
   9.000000E+99

> <Gold.Protein.RotatedTorsions>
[ 6907 6896 6895 6894 ] final -156.08 input  -60.11 | X-H torsion
[ 7974 7965 7964 7962 ] final    3.31 input  175.53 | X-H torsion
[ 8008 7997 7996 7995 ] final   46.06 input   59.86 | X-H torsion
[ 10167 10162 10161 10158 ] final  -80.93 input  -65.29 | X-H torsion
[ 10718 10713 10712 10709 ] final  -19.05 input   66.30 | X-H torsion
[ 10763 10752 10751 10750 ] final  109.58 input  -60.55 | X-H torsion
[ 11005 11000 10999 10996 ] final  154.81 input  -57.11 | X-H torsion

> <Gold.Protein.ActiveResidues>
 VAL166  LYS551  ARG553  GLY616  TRP617  ASP618  TYR619  PRO620  LYS621  CYS622 
 ASP623  PHE694  ASN695  SER759  ASP760  ASP761  ALA762  ILE779  LEU786  VAL792 
 PHE793  MET794  SER795  GLU796  ALA797  LYS798  CYS799  TRP800  GLU811  SER814 

> <Gold.Protein.RotatedAtoms>
  151.2822  133.4204  159.2627 H   0  0  0  0  0  0  0  0  0  0  0  0  # atno 6907 bound_to 6896
  151.0351  134.9567  159.8142 H   0  0  0  0  0  0  0  0  0  0  0  0  # atno 6908 bound_to 6896
  152.5354  134.2781  159.9050 H   0  0  0  0  0  0  0  0  0  0  0  0  # atno 6909 bound_to 6896
  146.2445  140.0704  142.8363 H   0  0  0  0  0  0  0  0  0  0  0  0  # atno 7974 bound_to 7965
  155.3462  140.3411  155.4239 H   0  0  0  0  0  0  0  0  0  0  0  0  # atno 8008 bound_to 7997
  156.1787  140.1656  156.8349 H   0  0  0  0  0  0  0  0  0  0  0  0  # atno 8009 bound_to 7997
  154.5310  140.0745  156.8328 H   0  0  0  0  0  0  0  0  0  0  0  0  # atno 8010 bound_to 7997
  140.4458  143.2499  151.8560 H   0  0  0  0  0  0  0  0  0  0  0  0  # atno 10167 bound_to 10162
  156.5510  130.4702  149.6452 H   0  0  0  0  0  0  0  0  0  0  0  0  # atno 10718 bound_to 10713
  153.4368  135.3775  155.2204 H   0  0  0  0  0  0  0  0  0  0  0  0  # atno 10763 bound_to 10752
  154.8752  135.3853  154.4201 H   0  0  0  0  0  0  0  0  0  0  0  0  # atno 10764 bound_to 10752
  153.4741  135.7087  153.6039 H   0  0  0  0  0  0  0  0  0  0  0  0  # atno 10765 bound_to 10752
  140.1523  134.8666  157.2470 H   0  0  0  0  0  0  0  0  0  0  0  0  # atno 11005 bound_to 11000
  145.0821  140.9228  143.4819 LP  0  0  0  0  0  0  0  0  0  0  0  0  # atno 17320 bound_to 7965
  145.0860  139.2925  143.5759 LP  0  0  0  0  0  0  0  0  0  0  0  0  # atno 17321 bound_to 7965
  139.4793  144.5177  151.8845 LP  0  0  0  0  0  0  0  0  0  0  0  0  # atno 17342 bound_to 10162
  140.4265  144.2173  150.5887 LP  0  0  0  0  0  0  0  0  0  0  0  0  # atno 17343 bound_to 10162
  156.2884  130.7110  151.1953 LP  0  0  0  0  0  0  0  0  0  0  0  0  # atno 17370 bound_to 10713
  157.7387  131.0537  150.5276 LP  0  0  0  0  0  0  0  0  0  0  0  0  # atno 17371 bound_to 10713
  140.2590  134.3594  155.7414 LP  0  0  0  0  0  0  0  0  0  0  0  0  # atno 17394 bound_to 11000
  141.2200  133.7358  156.9050 LP  0  0  0  0  0  0  0  0  0  0  0  0  # atno 17395 bound_to 11000

$$$$
