#       Name:                AV-unprocessed.smi:2624
#       Creating user name   scv26
#       Creation time:       Fri Mar 27 14:24:28 2020


#       File generated by GOLD software.
#

@<TRIPOS>MOLECULE
AV-unprocessed.smi:2624
    45    46     1
SMALL
NO_CHARGES


@<TRIPOS>ATOM
      1 ****        -5.5241   3.6788  -0.4982 C.3            1 S1                 0.0000
      2 ****        -5.0986   2.3279  -0.4595 O.3            1 S1                 0.0000
      3 ****        -3.7017   2.1929  -0.6579 C.3            1 S1                 0.0000
      4 ****        -3.3357   0.7022  -0.6065 C.3            1 S1                 0.0000
      5 ****        -1.8926   0.4974  -0.7893 N.am           1 S1                 0.0000
      6 ****        -1.1094   0.4187   0.3781 C.2            1 S1                 0.0000
      7 ****         0.2230   0.2296   0.3376 C.2            1 S1                 0.0000
      8 ****         1.0101   0.1596   1.5927 C.2            1 S1                 0.0000
      9 ****         0.6214   0.7220   2.6178 O.2            1 S1                 0.0000
     10 ****         2.2743  -0.6372   1.5817 C.ar           1 S1                 0.0000
     11 ****         2.2567  -1.9397   1.0288 C.ar           1 S1                 0.0000
     12 ****         3.4205  -2.7332   1.0067 C.ar           1 S1                 0.0000
     13 ****         3.3714  -4.1253   0.4120 C.3            1 S1                 0.0000
     14 ****         4.6209  -2.2257   1.5396 C.ar           1 S1                 0.0000
     15 ****         4.6539  -0.9310   2.0888 C.ar           1 S1                 0.0000
     16 ****         3.4919  -0.1332   2.1142 C.ar           1 S1                 0.0000
     17 ****         3.5912   1.1257   2.6409 O.co2          1 S1                -1.0000
     18 ****         0.8476   0.1224  -0.9668 C.2            1 S1                 0.0000
     19 ****         0.1049   0.2082  -2.0882 C.2            1 S1                 0.0000
     20 ****         0.6995   0.1151  -3.3803 C.1            1 S1                 0.0000
     21 ****         1.2005   0.0339  -4.4207 N.1            1 S1                 0.0000
     22 ****        -1.3502   0.4092  -2.0416 C.2            1 S1                 0.0000
     23 ****        -2.0423   0.4969  -3.0574 O.2            1 S1                 0.0000
     24 ****        -6.6020   3.7276  -0.3447 H              1 S1                 0.0000
     25 ****        -5.3007   4.1352  -1.4634 H              1 S1                 0.0000
     26 ****        -5.0455   4.2660   0.2865 H              1 S1                 0.0000
     27 ****        -3.4210   2.6197  -1.6222 H              1 S1                 0.0000
     28 ****        -3.1606   2.7401   0.1159 H              1 S1                 0.0000
     29 ****        -3.6566   0.2817   0.3477 H              1 S1                 0.0000
     30 ****        -3.9023   0.1534  -1.3606 H              1 S1                 0.0000
     31 ****        -1.6648   0.5224   1.3000 H              1 S1                 0.0000
     32 ****         1.3403  -2.3445   0.6237 H              1 S1                 0.0000
     33 ****         4.3366  -4.6264   0.4914 H              1 S1                 0.0000
     34 ****         3.0985  -4.0751  -0.6422 H              1 S1                 0.0000
     35 ****         2.6290  -4.7320   0.9312 H              1 S1                 0.0000
     36 ****         5.5203  -2.8234   1.5288 H              1 S1                 0.0000
     37 ****         5.5809  -0.5475   2.4898 H              1 S1                 0.0000
     38 ****         1.9165  -0.0126  -1.0526 H              1 S1                 0.0000
     39 ****        -5.5751   1.8209  -1.1779 LP             1 S1                 0.0000
     40 ****        -5.3345   1.9428   0.4327 LP             1 S1                 0.0000
     41 ****        -0.2368   1.2354   2.6117 LP             1 S1                 0.0000
     42 ****         1.1640   0.6650   3.4558 LP             1 S1                 0.0000
     43 ****         1.6332  -0.0362  -5.3195 LP             1 S1                 0.0000
     44 ****        -3.0295   0.6365  -2.9794 LP             1 S1                 0.0000
     45 ****        -1.6169   0.4285  -3.9598 LP             1 S1                 0.0000
@<TRIPOS>BOND
    1    1    2 1     
    2    1   24 1     
    3    1   25 1     
    4    1   26 1     
    5    2    3 1     
    6    3    4 1     
    7    3   27 1     
    8    3   28 1     
    9    4    5 1     
   10    4   29 1     
   11    4   30 1     
   12    5   22 am    
   13    5    6 1     
   14    6    7 2     
   15    6   31 1     
   16    7    8 1     
   17    7   18 1     
   18    8    9 2     
   19    8   10 1     
   20   10   16 ar    
   21   10   11 ar    
   22   11   12 ar    
   23   11   32 1     
   24   12   13 1     
   25   12   14 ar    
   26   13   33 1     
   27   13   34 1     
   28   13   35 1     
   29   14   15 ar    
   30   14   36 1     
   31   15   16 ar    
   32   15   37 1     
   33   16   17 ar    
   34   18   19 2     
   35   18   38 1     
   36   19   20 1     
   37   19   22 1     
   38   20   21 3     
   39   22   23 2     
   40    2   39 1     
   41    2   40 1     
   42    9   41 1     
   43    9   42 1     
   44   21   43 1     
   45   23   44 1     
   46   23   45 1     
@<TRIPOS>SUBSTRUCTURE
      1 S1             1
@<TRIPOS>SET
LONE_PAIRS      STATIC     ATOMS    <user>   **** ""
8 39 40 41 42 17 43 44 45
ATOM$BLUE        STATIC     ATOMS    COLORGROUP SYSTEM
8 39 40 41 42 17 43 44 45
