#       Name:                AV-unprocessed.smi:69
#       Creating user name   scv26
#       Creation time:       Thu Mar 26 16:54:28 2020


#       File generated by GOLD software.
#

@<TRIPOS>MOLECULE
AV-unprocessed.smi:69
    43    45     1
SMALL
NO_CHARGES


@<TRIPOS>ATOM
      1 ****        -5.2259   0.7301   0.2266 N.pl3          1 S1                 0.0000
      2 ****        -3.9956   1.2427   0.0860 C.ar           1 S1                 0.0000
      3 ****        -3.8765   2.5267  -0.3272 N.ar           1 S1                 0.0000
      4 ****        -2.6595   3.0605  -0.4784 C.ar           1 S1                 0.0000
      5 ****        -1.4665   2.4936  -0.2758 N.ar           1 S1                 0.0000
      6 ****        -1.5926   1.2002   0.1426 C.ar           1 S1                 0.0000
      7 ****        -2.8143   0.5034   0.3470 C.ar           1 S1                 0.0000
      8 ****        -2.5524  -0.7927   0.7708 N.2            1 S1                 0.0000
      9 ****        -1.2475  -0.8537   0.8102 C.2            1 S1                 0.0000
     10 ****        -0.5910   0.3020   0.4386 N.pl3          1 S1                 0.0000
     11 ****         0.8809   0.5834   0.3645 C.3            1 S1                 0.0000
     12 ****         1.5574  -0.4085   1.0769 O.3            1 S1                 0.0000
     13 ****         2.1151  -1.3547   0.1723 C.3            1 S1                 0.0000
     14 ****         3.2353  -2.1716   0.8382 C.3            1 S1                 0.0000
     15 ****         2.6803  -3.2387   1.5771 O.3            1 S1                 0.0000
     16 ****         2.5473  -0.4694  -1.0034 C.3            1 S1                 0.0000
     17 ****         3.7813   0.1720  -0.7342 O.3            1 S1                 0.0000
     18 ****         1.4203   0.5532  -1.0879 C.3            1 S1                 0.0000
     19 ****         0.4684   0.1334  -2.0514 O.3            1 S1                 0.0000
     20 ****         1.0032   1.5476   0.8598 H              1 S1                 0.0000
     21 ****         1.3259  -2.0220  -0.1795 H              1 S1                 0.0000
     22 ****         2.6624  -1.0448  -1.9233 H              1 S1                 0.0000
     23 ****         1.7800   1.5446  -1.3676 H              1 S1                 0.0000
     24 ****        -5.3391  -0.2260   0.5318 H              1 S1                 0.0000
     25 ****        -6.0356   1.2986   0.0253 H              1 S1                 0.0000
     26 ****        -2.6383   4.0883  -0.8094 H              1 S1                 0.0000
     27 ****        -0.7313  -1.7529   1.1134 H              1 S1                 0.0000
     28 ****         3.8860  -2.6051   0.0783 H              1 S1                 0.0000
     29 ****         3.8554  -1.5482   1.4831 H              1 S1                 0.0000
     30 ****         3.3841  -3.7229   1.9812 H              1 S1                 0.0000
     31 ****         4.4558  -0.4871  -0.6731 H              1 S1                 0.0000
     32 ****        -0.2725   0.7193  -2.0115 H              1 S1                 0.0000
     33 ****        -4.6928   3.0720  -0.5180 LP             1 S1                 0.0000
     34 ****        -0.5917   2.9581  -0.4133 LP             1 S1                 0.0000
     35 ****        -3.2098  -1.5125   0.9940 LP             1 S1                 0.0000
     36 ****         0.9176  -0.8722   1.6899 LP             1 S1                 0.0000
     37 ****         2.2901   0.0094   1.6139 LP             1 S1                 0.0000
     38 ****         2.1650  -3.8397   0.9661 LP             1 S1                 0.0000
     39 ****         2.0702  -2.8786   2.2828 LP             1 S1                 0.0000
     40 ****         3.7197   0.6724   0.1294 LP             1 S1                 0.0000
     41 ****         3.9985   0.8090  -1.4738 LP             1 S1                 0.0000
     42 ****         0.1724  -0.8003  -1.8499 LP             1 S1                 0.0000
     43 ****         0.8752   0.1643  -2.9644 LP             1 S1                 0.0000
@<TRIPOS>BOND
    1    1    2 1     
    2    1   24 1     
    3    1   25 1     
    4    2    7 ar    
    5    2    3 ar    
    6    3    4 ar    
    7    4    5 ar    
    8    4   26 1     
    9    5    6 ar    
   10    6   10 1     
   11    6    7 ar    
   12    7    8 1     
   13    8    9 2     
   14    9   10 1     
   15    9   27 1     
   16   10   11 1     
   17   11   20 1     
   18   11   18 1     
   19   11   12 1     
   20   12   13 1     
   21   13   21 1     
   22   13   14 1     
   23   13   16 1     
   24   14   15 1     
   25   14   28 1     
   26   14   29 1     
   27   15   30 1     
   28   16   22 1     
   29   16   17 1     
   30   16   18 1     
   31   17   31 1     
   32   18   23 1     
   33   18   19 1     
   34   19   32 1     
   35    3   33 1     
   36    5   34 1     
   37    8   35 1     
   38   12   36 1     
   39   12   37 1     
   40   15   38 1     
   41   15   39 1     
   42   17   40 1     
   43   17   41 1     
   44   19   42 1     
   45   19   43 1     
@<TRIPOS>SUBSTRUCTURE
      1 S1             1
@<TRIPOS>SET
LONE_PAIRS      STATIC     ATOMS    <user>   **** ""
11 33 34 35 36 37 38 39 40 41 42 43
DONOR_HYDROGENS      STATIC     ATOMS    <user>   **** ""
5 24 25 30 31 32
ATOM$BLUE        STATIC     ATOMS    COLORGROUP SYSTEM
11 33 34 35 36 37 38 39 40 41 42 43
ATOM$RED        STATIC     ATOMS    COLORGROUP SYSTEM
5 24 25 30 31 32
