#       Name:                AV-unprocessed.smi:873
#       Creating user name   scv26
#       Creation time:       Fri Mar 27 01:50:21 2020


#       File generated by GOLD software.
#

@<TRIPOS>MOLECULE
AV-unprocessed.smi:873
    50    53     1
SMALL
NO_CHARGES


@<TRIPOS>ATOM
      1 ****         1.2904   1.2580  -0.2344 O.2            1 S1                 0.0000
      2 ****         0.8886   0.0984  -0.1443 C.2            1 S1                 0.0000
      3 ****         1.6715  -0.9935  -0.1191 N.am           1 S1                 0.0000
      4 ****         3.0908  -1.0624  -0.1191 C.ar           1 S1                 0.0000
      5 ****         3.7153  -2.2863  -0.4392 C.ar           1 S1                 0.0000
      6 ****         5.0579  -2.4279  -0.4380 N.ar           1 S1                 0.0000
      7 ****         5.7766  -1.3543  -0.0984 C.ar           1 S1                 0.0000
      8 ****         7.2659  -1.5031  -0.1295 C.3            1 S1                 0.0000
      9 ****         7.9525  -2.6210   0.6286 C.3            1 S1                 0.0000
     10 ****         8.0983  -1.2013   1.1000 C.3            1 S1                 0.0000
     11 ****         5.3022  -0.1471   0.2204 N.ar           1 S1                 0.0000
     12 ****         3.9601   0.0048   0.2180 C.ar           1 S1                 0.0000
     13 ****        -0.4088  -0.2354  -0.0792 N.am           1 S1                 0.0000
     14 ****        -1.5324   0.6986  -0.0946 C.3            1 S1                 0.0000
     15 ****        -2.4181   0.4780   1.1426 C.3            1 S1                 0.0000
     16 ****        -3.6631   1.3795   1.0984 C.3            1 S1                 0.0000
     17 ****        -4.4399   1.1558  -0.1465 N.4            1 S1                 1.0000
     18 ****        -5.7005   1.9295  -0.1619 C.3            1 S1                 0.0000
     19 ****        -6.8300   1.2640   0.5896 C.3            1 S1                 0.0000
     20 ****        -6.8192   1.2567  -0.9229 C.3            1 S1                 0.0000
     21 ****        -3.6189   1.3989  -1.3592 C.3            1 S1                 0.0000
     22 ****        -2.3679   0.5032  -1.3711 C.3            1 S1                 0.0000
     23 ****         1.1961  -1.8839  -0.1294 H              1 S1                 0.0000
     24 ****         3.1354  -3.1593  -0.7009 H              1 S1                 0.0000
     25 ****         7.6719  -1.2200  -1.0987 H              1 S1                 0.0000
     26 ****         7.3329  -3.2853   1.2279 H              1 S1                 0.0000
     27 ****         8.8166  -3.0868   0.1594 H              1 S1                 0.0000
     28 ****         9.0609  -0.7176   0.9479 H              1 S1                 0.0000
     29 ****         7.5743  -0.9208   2.0118 H              1 S1                 0.0000
     30 ****         3.6039   0.9808   0.5078 H              1 S1                 0.0000
     31 ****        -0.6366  -1.2168  -0.0122 H              1 S1                 0.0000
     32 ****        -1.1729   1.7291  -0.0739 H              1 S1                 0.0000
     33 ****        -2.7294  -0.5665   1.1968 H              1 S1                 0.0000
     34 ****        -1.8496   0.6794   2.0514 H              1 S1                 0.0000
     35 ****        -4.2921   1.1731   1.9651 H              1 S1                 0.0000
     36 ****        -3.3704   2.4289   1.1626 H              1 S1                 0.0000
     37 ****        -5.6033   3.0140  -0.1645 H              1 S1                 0.0000
     38 ****        -6.6277   0.3229   1.0981 H              1 S1                 0.0000
     39 ****        -7.5546   1.9104   1.0809 H              1 S1                 0.0000
     40 ****        -7.5390   1.8971  -1.4288 H              1 S1                 0.0000
     41 ****        -6.6100   0.3107  -1.4193 H              1 S1                 0.0000
     42 ****        -4.2160   1.2018  -2.2505 H              1 S1                 0.0000
     43 ****        -3.3287   2.4502  -1.3995 H              1 S1                 0.0000
     44 ****        -1.7638   0.7258  -2.2516 H              1 S1                 0.0000
     45 ****        -2.6715  -0.5411  -1.4605 H              1 S1                 0.0000
     46 ****        -4.6993   0.1797  -0.1587 H              1 S1                 0.0000
     47 ****         2.2711   1.4441  -0.2959 LP             1 S1                 0.0000
     48 ****         0.6363   2.0143  -0.2461 LP             1 S1                 0.0000
     49 ****         5.4935  -3.2949  -0.6798 LP             1 S1                 0.0000
     50 ****         5.9133   0.6103   0.4505 LP             1 S1                 0.0000
@<TRIPOS>BOND
    1    1    2 2     
    2    2    3 am    
    3    2   13 am    
    4    3    4 1     
    5    3   23 1     
    6    4   12 ar    
    7    4    5 ar    
    8    5    6 ar    
    9    5   24 1     
   10    6    7 ar    
   11    7    8 1     
   12    7   11 ar    
   13    8   10 1     
   14    8    9 1     
   15    8   25 1     
   16    9   10 1     
   17    9   26 1     
   18    9   27 1     
   19   10   28 1     
   20   10   29 1     
   21   11   12 ar    
   22   12   30 1     
   23   13   14 1     
   24   13   31 1     
   25   14   22 1     
   26   14   15 1     
   27   14   32 1     
   28   15   16 1     
   29   15   33 1     
   30   15   34 1     
   31   16   17 1     
   32   16   35 1     
   33   16   36 1     
   34   17   18 1     
   35   17   21 1     
   36   17   46 1     
   37   18   20 1     
   38   18   19 1     
   39   18   37 1     
   40   19   20 1     
   41   19   38 1     
   42   19   39 1     
   43   20   40 1     
   44   20   41 1     
   45   21   22 1     
   46   21   42 1     
   47   21   43 1     
   48   22   44 1     
   49   22   45 1     
   50    1   47 1     
   51    1   48 1     
   52    6   49 1     
   53   11   50 1     
@<TRIPOS>SUBSTRUCTURE
      1 S1             1
@<TRIPOS>SET
LONE_PAIRS      STATIC     ATOMS    <user>   **** ""
4 47 48 49 50
DONOR_HYDROGENS      STATIC     ATOMS    <user>   **** ""
3 23 31 46
ATOM$BLUE        STATIC     ATOMS    COLORGROUP SYSTEM
4 47 48 49 50
ATOM$RED        STATIC     ATOMS    COLORGROUP SYSTEM
3 23 31 46
