AV-unprocessed.smi:3329|AV-procd|sdf|12795|dock3
  -GOLD-   2272019153D 1   1.00000     0.00000
 Structure written by MMmdl.
 42 43  0  0  0  0  0  0  0  0  2 V2000
  151.2904  141.8297  157.9546 C   0  0  0  0  0  0  0  0  0  0  0  0
  150.7310  141.2655  156.6804 C   0  0  0  0  0  0  0  0  0  0  0  0
  151.3044  140.2671  155.8428 C   0  0  0  0  0  0  0  0  0  0  0  0
  150.5560  139.9901  154.7872 N   0  0  0  0  0  0  0  0  0  0  0  0
  149.4815  140.7968  154.9138 N   0  0  0  0  0  0  0  0  0  0  0  0
  148.4323  140.7652  153.9102 C   0  0  0  0  0  0  0  0  0  0  0  0
  147.7520  139.3891  153.8122 C   0  0  0  0  0  0  0  0  0  0  0  0
  147.8160  138.8538  152.4379 N   0  3  0  0  0  0  0  0  0  0  0  0
  146.4991  138.6645  151.7966 C   0  0  0  0  0  0  0  0  0  0  0  0
  145.6607  137.5965  152.5017 C   0  0  0  0  0  0  0  0  0  0  0  0
  146.1801  136.5546  152.9017 O   0  0  0  0  0  0  0  0  0  0  0  0
  144.3542  137.8730  152.6429 N   0  0  0  0  0  0  0  0  0  0  0  0
  143.3431  137.0181  153.2674 C   0  0  1  0  0  0  0  0  0  0  0  0
  143.4177  135.6598  152.5508 C   0  0  0  0  0  0  0  0  0  0  0  0
  143.6662  136.7989  154.6922 C   0  0  0  0  0  0  0  0  0  0  0  0
  143.9196  136.6243  155.8078 N   0  0  0  0  0  0  0  0  0  0  0  0
  141.9234  137.5715  153.1184 C   0  0  0  0  0  0  0  0  0  0  0  0
  141.2574  138.4474  154.1590 C   0  0  0  0  0  0  0  0  0  0  0  0
  140.7695  137.0352  153.9375 C   0  0  0  0  0  0  0  0  0  0  0  0
  149.5646  141.5828  156.0438 C   0  0  0  0  0  0  0  0  0  0  0  0
  152.1383  142.4876  157.7634 H   0  0  0  0  0  0  0  0  0  0  0  0
  151.6376  141.0431  158.6248 H   0  0  0  0  0  0  0  0  0  0  0  0
  150.5487  142.4119  158.5021 H   0  0  0  0  0  0  0  0  0  0  0  0
  152.2374  139.7383  155.9706 H   0  0  0  0  0  0  0  0  0  0  0  0
  147.6971  141.5358  154.1464 H   0  0  0  0  0  0  0  0  0  0  0  0
  148.8714  141.0354  152.9489 H   0  0  0  0  0  0  0  0  0  0  0  0
  148.2421  138.6891  154.4899 H   0  0  0  0  0  0  0  0  0  0  0  0
  146.7100  139.4586  154.1277 H   0  0  0  0  0  0  0  0  0  0  0  0
  148.3532  139.4953  151.8715 H   0  0  0  0  0  0  0  0  0  0  0  0
  145.9540  139.6095  151.8011 H   0  0  0  0  0  0  0  0  0  0  0  0
  146.6421  138.3713  150.7555 H   0  0  0  0  0  0  0  0  0  0  0  0
  144.0228  138.7544  152.2778 H   0  0  0  0  0  0  0  0  0  0  0  0
  142.7067  134.9498  152.9752 H   0  0  0  0  0  0  0  0  0  0  0  0
  144.4107  135.2174  152.6405 H   0  0  0  0  0  0  0  0  0  0  0  0
  143.1918  135.7548  151.4878 H   0  0  0  0  0  0  0  0  0  0  0  0
  141.6736  137.8101  152.0859 H   0  0  0  0  0  0  0  0  0  0  0  0
  141.7897  138.6524  155.0854 H   0  0  0  0  0  0  0  0  0  0  0  0
  140.6273  139.2583  153.7997 H   0  0  0  0  0  0  0  0  0  0  0  0
  139.8141  136.9075  153.4329 H   0  0  0  0  0  0  0  0  0  0  0  0
  140.9857  136.3034  154.7131 H   0  0  0  0  0  0  0  0  0  0  0  0
  148.7940  142.2942  156.3020 H   0  0  0  0  0  0  0  0  0  0  0  0
  148.2949  137.9647  152.4553 H   0  0  0  0  0  0  0  0  0  0  0  0
  1  2  1  0  0  0  0
  1 21  1  0  0  0  0
  1 22  1  0  0  0  0
  1 23  1  0  0  0  0
  2 20  2  0  0  0  0
  2  3  1  0  0  0  0
  3  4  2  0  0  0  0
  3 24  1  0  0  0  0
  4  5  1  0  0  0  0
  5  6  1  0  0  0  0
  5 20  1  0  0  0  0
  6  7  1  0  0  0  0
  6 25  1  0  0  0  0
  6 26  1  0  0  0  0
  7  8  1  0  0  0  0
  7 27  1  0  0  0  0
  7 28  1  0  0  0  0
  8  9  1  0  0  0  0
  8 29  1  0  0  0  0
  8 42  1  0  0  0  0
  9 10  1  0  0  0  0
  9 30  1  0  0  0  0
  9 31  1  0  0  0  0
 10 11  2  0  0  0  0
 10 12  1  0  0  0  0
 12 13  1  0  0  0  0
 12 32  1  0  0  0  0
 13 14  1  0  0  0  0
 13 15  1  0  0  0  0
 13 17  1  0  0  0  0
 14 33  1  0  0  0  0
 14 34  1  0  0  0  0
 14 35  1  0  0  0  0
 15 16  3  0  0  0  0
 17 19  1  0  0  0  0
 17 18  1  0  0  0  0
 17 36  1  0  0  0  0
 18 19  1  0  0  0  0
 18 37  1  0  0  0  0
 18 38  1  0  0  0  0
 19 39  1  0  0  0  0
 19 40  1  0  0  0  0
 20 41  1  0  0  0  0
M  CHG  1   8   1
M  END
> <s_m_source_file>
AV-unprocessed.smi

> <i_m_source_file_index>
3329

> <i_lp_mmshare_version>
43012

> <i_f3d_flags>
0

> <s_epik_input>
W0NIM11jMVtjSF1ubihbY0hdMSlbQ0gyXVtDSDJdW05IXVtDSDJdQyg9TylbTkhdW0NAQF0oW0NIM10pKEMjTilbQ0hdMltDSDJdW0NIMl0y

> <s_epik_cmdline>
J2VwaWtfcHl0aG9uJywgJy1waCcsICc3LjAnLCAnLXRuJywgJzgnLCAnLW1hJywgJzIwMCcsICctbWV0YWxfYmluZGluZycsICctaW1hZScsICc8aW5maWxlLm1hZT4nLCAnLW9tYWUnLCAnPG91dGZpbGUubWFlPic=

> <r_lp_tautomer_probability>
1

> <r_epik_Ionization_Penalty>
0.350291

> <r_epik_Ionization_Penalty_Charging>
0.350239

> <r_epik_Ionization_Penalty_Neutral>
5.12768e-05

> <r_epik_State_Penalty>
0.347656

> <r_epik_Charging_Adjusted_Penalty>
0.697895

> <i_epik_Tot_Q>
1

> <i_epik_Tot_abs_Q>
1

> <r_epik_Metal_State_Penalty>
0.371739

> <b_epik_Metal_Only>
0

> <s_lp_Force_Field>
OPLS_2005

> <r_lp_Energy>
10.54

> <b_lp_Chiralities_Consistent>
1

> <s_lp_Variant>
AV-unprocessed.smi:3329-1

> <Gold.Version>
5.8.1

> <Gold.Id.Protein>
6NUR|6NUR_protein|mol2

> <Gold.PLP.Fitness>
51.6813

> <Gold.PLP.PLP>
-36.3900

> <Gold.PLP.part.hbond>
-4.8325

> <Gold.PLP.part.metal>
0.0000

> <Gold.PLP.part.buried>
-2.8776

> <Gold.PLP.part.nonpolar>
-30.5084

> <Gold.PLP.part.repulsive>
0.6396

> <Gold.PLP.ligand.clash>
0.0000

> <Gold.PLP.ligand.torsion>
1.8475

> <Gold.PLP.Chemscore.Hbond>
4.7925

> <Gold.PLP.Chemscore.CHOScore>
0.9954

> <Gold.PLP.Chemscore.Metal>
0.0000

> <Gold.Chemscore.Hbonds>
donor molecule, donor type, donor heavy atom, donor atom, acceptor molecule, acceptor atom, score
      L1  H     8    29       P1  7957  0.96
      L1  H     8    42       P1  7948  2.00
      L1  H    12    32       P1 10175  1.00
      P1  H  7989  7998       L1     4  0.85
      L1  C    20    41       P1  8028  0.88

> <Gold.PLP.Chemscore.Internal.Correction>
1.6226

> <Gold.Rescore>
     Score         DG    S(hbond)    S(metal)    S(lipo)     H(rot)  DE(clash)    DE(int)     intcor
     14.52     -17.62       3.12        0.00      67.25       2.40       0.03       3.06       ----

> <Gold.Chemscore.Fitness>
14.5247

> <Gold.Chemscore.DG>
-17.6168

> <Gold.Chemscore.ZeroCoef>
-5.4800

> <Gold.Chemscore.Hbond>
3.1155

> <Gold.Chemscore.Metal>
0.0000

> <Gold.Chemscore.Lipo>
67.2474

> <Gold.Chemscore.Internal_Hbond>
0.0000

> <Gold.Chemscore.DEClash>
0.0344

> <Gold.Chemscore.DEInternal>
3.0578

> <Gold.Chemscore.Rot>
2.3972

> <Gold.Chemscore.Internal.Correction>
   9.000000E+99

> <Gold.Chemscore.Hbonds>
donor molecule, donor type, donor heavy atom, donor atom, acceptor molecule, acceptor atom, score
      L1  H     8    29       P1  7957  0.90
      L1  H     8    42       P1  7948  0.99
      L1  H    12    32       P1 10175  0.96
      P1  H  7989  7998       L1     4  0.07

> <Gold.Chemscore.Hbond.Weighted>
-10.4058

> <Gold.Chemscore.Metal.Weighted>
-0.0000

> <Gold.Chemscore.Lipo.Weighted>
-7.8679

> <Gold.Chemscore.Internal_Hbond.Weighted>
0.0000

> <Gold.Chemscore.DEClash.Weighted>
0.0344

> <Gold.Chemscore.DEInternal.Weighted>
3.0578

> <Gold.Chemscore.Rot.Weighted>
6.1369

> <Gold.Chemscore.Internal.Correction.Weighted>
   9.000000E+99

> <Gold.Protein.RotatedTorsions>
[ 6907 6896 6895 6894 ] final  -89.92 input  -60.11 | X-H torsion
[ 7974 7965 7964 7962 ] final -146.15 input  175.53 | X-H torsion
[ 8008 7997 7996 7995 ] final  106.04 input   59.86 | X-H torsion
[ 10167 10162 10161 10158 ] final  124.62 input  -65.29 | X-H torsion
[ 10718 10713 10712 10709 ] final  -97.42 input   66.30 | X-H torsion
[ 10763 10752 10751 10750 ] final  -16.98 input  -60.55 | X-H torsion
[ 11005 11000 10999 10996 ] final  -93.23 input  -57.11 | X-H torsion

> <Gold.Protein.ActiveResidues>
 VAL166  LYS551  ARG553  GLY616  TRP617  ASP618  TYR619  PRO620  LYS621  CYS622 
 ASP623  PHE694  ASN695  SER759  ASP760  ASP761  ALA762  ILE779  LEU786  VAL792 
 PHE793  MET794  SER795  GLU796  ALA797  LYS798  CYS799  TRP800  GLU811  SER814 

> <Gold.Protein.RotatedAtoms>
  150.6877  134.2512  159.4511 H   0  0  0  0  0  0  0  0  0  0  0  0  # atno 6907 bound_to 6896
  152.0449  134.9686  160.0583 H   0  0  0  0  0  0  0  0  0  0  0  0  # atno 6908 bound_to 6896
  152.1173  133.4299  159.4696 H   0  0  0  0  0  0  0  0  0  0  0  0  # atno 6909 bound_to 6896
  144.8179  140.5492  143.5598 H   0  0  0  0  0  0  0  0  0  0  0  0  # atno 7974 bound_to 7965
  156.1710  140.3120  155.8973 H   0  0  0  0  0  0  0  0  0  0  0  0  # atno 8008 bound_to 7997
  155.3587  140.0475  157.3063 H   0  0  0  0  0  0  0  0  0  0  0  0  # atno 8009 bound_to 7997
  154.5240  140.2208  155.8933 H   0  0  0  0  0  0  0  0  0  0  0  0  # atno 8010 bound_to 7997
  139.5731  144.6949  151.3725 H   0  0  0  0  0  0  0  0  0  0  0  0  # atno 10167 bound_to 10162
  156.0083  130.5194  150.6372 H   0  0  0  0  0  0  0  0  0  0  0  0  # atno 10718 bound_to 10713
  153.5669  135.7008  153.5522 H   0  0  0  0  0  0  0  0  0  0  0  0  # atno 10763 bound_to 10752
  153.3379  135.4029  155.1548 H   0  0  0  0  0  0  0  0  0  0  0  0  # atno 10764 bound_to 10752
  154.8639  135.3735  154.5189 H   0  0  0  0  0  0  0  0  0  0  0  0  # atno 10765 bound_to 10752
  141.1502  133.7873  157.0130 H   0  0  0  0  0  0  0  0  0  0  0  0  # atno 11005 bound_to 11000
  145.5173  139.1477  143.3572 LP  0  0  0  0  0  0  0  0  0  0  0  0  # atno 17320 bound_to 7965
  146.2483  140.5314  142.8904 LP  0  0  0  0  0  0  0  0  0  0  0  0  # atno 17321 bound_to 7965
  140.7015  143.7620  150.7411 LP  0  0  0  0  0  0  0  0  0  0  0  0  # atno 17342 bound_to 10162
  140.1132  143.4680  152.2358 LP  0  0  0  0  0  0  0  0  0  0  0  0  # atno 17343 bound_to 10162
  157.4159  131.0830  151.1177 LP  0  0  0  0  0  0  0  0  0  0  0  0  # atno 17370 bound_to 10713
  157.1794  130.6303  149.5667 LP  0  0  0  0  0  0  0  0  0  0  0  0  # atno 17371 bound_to 10713
  140.0865  134.9617  157.1708 LP  0  0  0  0  0  0  0  0  0  0  0  0  # atno 17394 bound_to 11000
  140.3504  134.2605  155.7199 LP  0  0  0  0  0  0  0  0  0  0  0  0  # atno 17395 bound_to 11000

$$$$
