AV-unprocessed.smi:1622|AV-procd|sdf|6498|dock9
  -GOLD-   22720 7163D 1   1.00000     0.00000
 Structure written by MMmdl.
 41 42  0  0  0  0  0  0  0  0  2 V2000
  149.8810  131.0394  154.5594 C   0  0  0  0  0  0  0  0  0  0  0  0
  149.1995  132.0097  153.5827 C   0  0  0  0  0  0  0  0  0  0  0  0
  148.5712  133.2621  154.2522 C   0  0  1  0  0  0  0  0  0  0  0  0
  149.6351  134.1420  154.9675 C   0  0  0  0  0  0  0  0  0  0  0  0
  149.0609  135.0464  155.9632 N   0  0  0  0  0  0  0  0  0  0  0  0
  148.9926  134.8140  157.2817 C   0  0  0  0  0  0  0  0  0  0  0  0
  149.4246  133.7925  157.8139 O   0  0  0  0  0  0  0  0  0  0  0  0
  148.4048  135.8359  157.9241 N   0  0  0  0  0  0  0  0  0  0  0  0
  148.1443  135.9583  159.3118 C   0  0  0  0  0  0  0  0  0  0  0  0
  148.1964  137.1776  159.8550 N   0  0  0  0  0  0  0  0  0  0  0  0
  147.9167  137.1515  161.2148 N   0  0  0  0  0  0  0  0  0  0  0  0
  147.6623  135.9143  161.6599 C   0  0  0  0  0  0  0  0  0  0  0  0
  147.3266  135.6218  163.0822 C   0  0  0  0  0  0  0  0  0  0  0  0
  147.7461  134.6564  160.4330 S   0  0  0  0  0  0  0  0  0  0  0  0
  147.7814  134.0733  153.2757 N   0  3  0  0  0  0  0  0  0  0  0  0
  146.9828  133.3161  152.2869 C   0  0  0  0  0  0  0  0  0  0  0  0
  145.9465  134.3082  151.7728 C   0  0  0  0  0  0  0  0  0  0  0  0
  145.5970  135.1169  153.0161 C   0  0  0  0  0  0  0  0  0  0  0  0
  146.8619  135.0694  153.8842 C   0  0  0  0  0  0  0  0  0  0  0  0
  150.1963  130.1340  154.0404 H   0  0  0  0  0  0  0  0  0  0  0  0
  149.2013  130.7410  155.3580 H   0  0  0  0  0  0  0  0  0  0  0  0
  150.7707  131.4701  155.0160 H   0  0  0  0  0  0  0  0  0  0  0  0
  149.9055  132.3068  152.8070 H   0  0  0  0  0  0  0  0  0  0  0  0
  148.4292  131.4301  153.0758 H   0  0  0  0  0  0  0  0  0  0  0  0
  147.8733  132.9030  155.0104 H   0  0  0  0  0  0  0  0  0  0  0  0
  150.3429  133.5040  155.4963 H   0  0  0  0  0  0  0  0  0  0  0  0
  150.2492  134.6890  154.2525 H   0  0  0  0  0  0  0  0  0  0  0  0
  148.6660  135.9090  155.6177 H   0  0  0  0  0  0  0  0  0  0  0  0
  148.1018  136.6148  157.3580 H   0  0  0  0  0  0  0  0  0  0  0  0
  147.6883  136.4183  163.7332 H   0  0  0  0  0  0  0  0  0  0  0  0
  147.7874  134.6835  163.3911 H   0  0  0  0  0  0  0  0  0  0  0  0
  146.2461  135.5367  163.1985 H   0  0  0  0  0  0  0  0  0  0  0  0
  147.5980  132.9227  151.4772 H   0  0  0  0  0  0  0  0  0  0  0  0
  146.4826  132.4798  152.7784 H   0  0  0  0  0  0  0  0  0  0  0  0
  146.3971  134.9586  151.0217 H   0  0  0  0  0  0  0  0  0  0  0  0
  145.0800  133.8228  151.3226 H   0  0  0  0  0  0  0  0  0  0  0  0
  145.2917  136.1361  152.7756 H   0  0  0  0  0  0  0  0  0  0  0  0
  144.7705  134.6399  153.5450 H   0  0  0  0  0  0  0  0  0  0  0  0
  146.5909  134.7961  154.9050 H   0  0  0  0  0  0  0  0  0  0  0  0
  147.3556  136.0410  153.9202 H   0  0  0  0  0  0  0  0  0  0  0  0
  148.4473  134.6056  152.7339 H   0  0  0  0  0  0  0  0  0  0  0  0
  1  2  1  0  0  0  0
  1 20  1  0  0  0  0
  1 21  1  0  0  0  0
  1 22  1  0  0  0  0
  2  3  1  0  0  0  0
  2 23  1  0  0  0  0
  2 24  1  0  0  0  0
  3  4  1  0  0  0  0
  3 15  1  0  0  0  0
  3 25  1  0  0  0  0
  4  5  1  0  0  0  0
  4 26  1  0  0  0  0
  4 27  1  0  0  0  0
  5  6  1  0  0  0  0
  5 28  1  0  0  0  0
  6  7  2  0  0  0  0
  6  8  1  0  0  0  0
  8  9  1  0  0  0  0
  8 29  1  0  0  0  0
  9 14  1  0  0  0  0
  9 10  2  0  0  0  0
 10 11  1  0  0  0  0
 11 12  2  0  0  0  0
 12 13  1  0  0  0  0
 12 14  1  0  0  0  0
 13 30  1  0  0  0  0
 13 31  1  0  0  0  0
 13 32  1  0  0  0  0
 15 19  1  0  0  0  0
 15 16  1  0  0  0  0
 15 41  1  0  0  0  0
 16 17  1  0  0  0  0
 16 33  1  0  0  0  0
 16 34  1  0  0  0  0
 17 18  1  0  0  0  0
 17 35  1  0  0  0  0
 17 36  1  0  0  0  0
 18 19  1  0  0  0  0
 18 37  1  0  0  0  0
 18 38  1  0  0  0  0
 19 39  1  0  0  0  0
 19 40  1  0  0  0  0
M  CHG  1  15   1
M  END
> <s_m_source_file>
AV-unprocessed.smi

> <i_m_source_file_index>
1622

> <i_lp_mmshare_version>
43012

> <i_f3d_flags>
0

> <s_epik_input>
W0NIMl0xW0NIMl1bQ0gyXVtDSDJdTjFbQ0BIXShbQ0gyXVtDSDNdKVtDSDJdW05IXUMoPU8pW05IXWMybm5jKHMyKVtDSDNd

> <s_epik_cmdline>
J2VwaWtfcHl0aG9uJywgJy1waCcsICc3LjAnLCAnLXRuJywgJzgnLCAnLW1hJywgJzIwMCcsICctbWV0YWxfYmluZGluZycsICctaW1hZScsICc8aW5maWxlLm1hZT4nLCAnLW9tYWUnLCAnPG91dGZpbGUubWFlPic=

> <r_lp_tautomer_probability>
1

> <r_epik_Ionization_Penalty>
0.00164835

> <r_epik_Ionization_Penalty_Charging>
0.00115997

> <r_epik_Ionization_Penalty_Neutral>
0.00048838

> <r_epik_State_Penalty>
-0

> <r_epik_Charging_Adjusted_Penalty>
0.00115997

> <i_epik_Tot_Q>
1

> <i_epik_Tot_abs_Q>
1

> <r_epik_Metal_State_Penalty>
0.216651

> <b_epik_Metal_Only>
0

> <s_lp_Force_Field>
OPLS_2005

> <r_lp_Energy>
37.4677

> <b_lp_Chiralities_Consistent>
1

> <s_lp_Variant>
AV-unprocessed.smi:1622-2

> <Gold.Version>
5.8.1

> <Gold.Id.Protein>
6NUR|6NUR_protein|mol2

> <Gold.PLP.Fitness>
42.4643

> <Gold.PLP.PLP>
-31.3452

> <Gold.PLP.part.hbond>
-5.5267

> <Gold.PLP.part.metal>
0.0000

> <Gold.PLP.part.buried>
-2.6085

> <Gold.PLP.part.nonpolar>
-23.1215

> <Gold.PLP.part.repulsive>
0.0615

> <Gold.PLP.ligand.clash>
0.0000

> <Gold.PLP.ligand.torsion>
0.7799

> <Gold.PLP.Chemscore.Hbond>
4.1872

> <Gold.PLP.Chemscore.CHOScore>
0.0000

> <Gold.PLP.Chemscore.Metal>
0.0000

> <Gold.Chemscore.Hbonds>
donor molecule, donor type, donor heavy atom, donor atom, acceptor molecule, acceptor atom, score
      L1  H    15    41       P1  7948  1.90
      P1  H  6896  6908       L1     7  0.93
      P1  H  6931  6943       L1    11  1.00
      P1  H  6934  6947       L1    11  0.23

> <Gold.PLP.Chemscore.Internal.Correction>
0.1174

> <Gold.Rescore>
     Score         DG    S(hbond)    S(metal)    S(lipo)     H(rot)  DE(clash)    DE(int)     intcor
     13.32     -15.39       2.17        0.00      61.47       1.77       0.38       1.69       ----

> <Gold.Chemscore.Fitness>
13.3160

> <Gold.Chemscore.DG>
-15.3915

> <Gold.Chemscore.ZeroCoef>
-5.4800

> <Gold.Chemscore.Hbond>
2.1738

> <Gold.Chemscore.Metal>
0.0000

> <Gold.Chemscore.Lipo>
61.4691

> <Gold.Chemscore.Internal_Hbond>
0.0000

> <Gold.Chemscore.DEClash>
0.3809

> <Gold.Chemscore.DEInternal>
1.6945

> <Gold.Chemscore.Rot>
1.7738

> <Gold.Chemscore.Internal.Correction>
   9.000000E+99

> <Gold.Chemscore.Hbonds>
donor molecule, donor type, donor heavy atom, donor atom, acceptor molecule, acceptor atom, score
      L1  H    15    41       P1  7948  0.21
      P1  H  6896  6908       L1     7  0.84
      P1  H  6931  6943       L1    11  0.43

> <Gold.Chemscore.Hbond.Weighted>
-7.2606

> <Gold.Chemscore.Metal.Weighted>
-0.0000

> <Gold.Chemscore.Lipo.Weighted>
-7.1919

> <Gold.Chemscore.Internal_Hbond.Weighted>
0.0000

> <Gold.Chemscore.DEClash.Weighted>
0.3809

> <Gold.Chemscore.DEInternal.Weighted>
1.6945

> <Gold.Chemscore.Rot.Weighted>
4.5411

> <Gold.Chemscore.Internal.Correction.Weighted>
   9.000000E+99

> <Gold.Protein.RotatedTorsions>
[ 6907 6896 6895 6894 ] final  107.79 input  -60.11 | X-H torsion
[ 7974 7965 7964 7962 ] final -179.82 input  175.53 | X-H torsion
[ 8008 7997 7996 7995 ] final  116.38 input   59.86 | X-H torsion
[ 10167 10162 10161 10158 ] final   91.88 input  -65.29 | X-H torsion
[ 10718 10713 10712 10709 ] final -120.78 input   66.30 | X-H torsion
[ 10763 10752 10751 10750 ] final -115.61 input  -60.55 | X-H torsion
[ 11005 11000 10999 10996 ] final  -12.64 input  -57.11 | X-H torsion

> <Gold.Protein.ActiveResidues>
 VAL166  LYS551  ARG553  GLY616  TRP617  ASP618  TYR619  PRO620  LYS621  CYS622 
 ASP623  PHE694  ASN695  SER759  ASP760  ASP761  ALA762  ILE779  LEU786  VAL792 
 PHE793  MET794  SER795  GLU796  ALA797  LYS798  CYS799  TRP800  GLU811  SER814 

> <Gold.Protein.RotatedAtoms>
  152.5140  133.9183  159.7521 H   0  0  0  0  0  0  0  0  0  0  0  0  # atno 6907 bound_to 6896
  150.9561  133.6488  159.2770 H   0  0  0  0  0  0  0  0  0  0  0  0  # atno 6908 bound_to 6896
  151.3749  135.0934  159.9530 H   0  0  0  0  0  0  0  0  0  0  0  0  # atno 6909 bound_to 6896
  144.7139  140.0660  143.6431 H   0  0  0  0  0  0  0  0  0  0  0  0  # atno 7974 bound_to 7965
  156.2436  140.2919  156.0514 H   0  0  0  0  0  0  0  0  0  0  0  0  # atno 8008 bound_to 7997
  155.1877  140.0406  157.2911 H   0  0  0  0  0  0  0  0  0  0  0  0  # atno 8009 bound_to 7997
  154.6216  140.2477  155.7549 H   0  0  0  0  0  0  0  0  0  0  0  0  # atno 8010 bound_to 7997
  139.8331  144.6677  150.9375 H   0  0  0  0  0  0  0  0  0  0  0  0  # atno 10167 bound_to 10162
  156.1285  130.6377  150.9582 H   0  0  0  0  0  0  0  0  0  0  0  0  # atno 10718 bound_to 10713
  154.8488  135.4375  154.1690 H   0  0  0  0  0  0  0  0  0  0  0  0  # atno 10763 bound_to 10752
  153.2808  135.6953  153.7394 H   0  0  0  0  0  0  0  0  0  0  0  0  # atno 10764 bound_to 10752
  153.6598  135.3437  155.3099 H   0  0  0  0  0  0  0  0  0  0  0  0  # atno 10765 bound_to 10752
  140.7678  133.8463  155.9180 H   0  0  0  0  0  0  0  0  0  0  0  0  # atno 11005 bound_to 11000
  145.9824  139.2951  143.1034 LP  0  0  0  0  0  0  0  0  0  0  0  0  # atno 17320 bound_to 7965
  145.8996  140.9251  143.0510 LP  0  0  0  0  0  0  0  0  0  0  0  0  # atno 17321 bound_to 7965
  140.7805  143.3982  151.1194 LP  0  0  0  0  0  0  0  0  0  0  0  0  # atno 17342 bound_to 10162
  139.7634  143.8602  152.3105 LP  0  0  0  0  0  0  0  0  0  0  0  0  # atno 17343 bound_to 10162
  157.6464  131.0903  150.8143 LP  0  0  0  0  0  0  0  0  0  0  0  0  # atno 17370 bound_to 10713
  156.8231  130.4990  149.5340 LP  0  0  0  0  0  0  0  0  0  0  0  0  # atno 17371 bound_to 10713
  140.9603  134.1665  157.4659 LP  0  0  0  0  0  0  0  0  0  0  0  0  # atno 17394 bound_to 11000
  139.8760  134.9942  156.5682 LP  0  0  0  0  0  0  0  0  0  0  0  0  # atno 17395 bound_to 11000

$$$$
