AV-unprocessed.smi:203|AV-procd|sdf|1584|dock5
  -GOLD-   2262019473D 1   1.00000     0.00000
 Structure written by MMmdl.
 57 61  0  0  0  0  0  0  0  0  1 V2000
  152.5709  136.7725  160.2320 O   0  0  0  0  0  0  0  0  0  0  0  0
  152.9900  137.8721  159.8788 C   0  0  0  0  0  0  0  0  0  0  0  0
  152.4706  138.6141  158.6599 C   0  0  0  0  0  0  0  0  0  0  0  0
  153.1316  140.0020  158.7686 C   0  0  1  0  0  0  0  0  0  0  0  0
  152.1254  141.1644  159.0448 C   0  0  1  0  0  0  0  0  0  0  0  0
  152.7728  142.3550  159.7998 C   0  0  0  0  0  0  0  0  0  0  0  0
  151.7581  143.4748  160.0674 C   0  0  0  0  0  0  0  0  0  0  0  0
  151.1165  143.9250  158.7505 C   0  0  0  0  0  0  0  0  0  0  0  0
  150.4836  142.7289  158.0272 C   0  0  0  0  0  0  0  0  0  0  0  0
  151.4552  141.6547  157.8263 N   0  0  0  0  0  0  0  0  0  0  0  0
  150.9536  140.7144  156.9951 C   0  0  0  0  0  0  0  0  0  0  0  0
  151.4124  140.7081  155.7198 N   0  0  0  0  0  0  0  0  0  0  0  0
  150.9818  139.7784  154.8617 C   0  0  0  0  0  0  0  0  0  0  0  0
  150.1186  138.7822  155.0733 N   0  0  0  0  0  0  0  0  0  0  0  0
  149.6505  138.7942  156.3544 C   0  0  0  0  0  0  0  0  0  0  0  0
  150.0005  139.7266  157.3699 C   0  0  0  0  0  0  0  0  0  0  0  0
  149.3137  139.4343  158.5418 N   0  0  0  0  0  0  0  0  0  0  0  0
  148.6139  138.3747  158.2427 C   0  0  0  0  0  0  0  0  0  0  0  0
  148.7793  137.9055  156.9591 N   0  0  0  0  0  0  0  0  0  0  0  0
  148.1559  136.7308  156.3767 C   0  0  0  0  0  0  0  0  0  0  0  0
  149.1723  135.7177  155.7984 C   0  0  2  0  0  0  0  0  0  0  0  0
  149.8081  136.3070  154.6830 O   0  0  0  0  0  0  0  0  0  0  0  0
  148.6304  134.3274  155.3854 C   0  0  2  0  0  0  0  0  0  0  0  0
  149.6676  133.2658  155.0122 C   0  0  0  0  0  0  0  0  0  0  0  0
  148.8290  132.3082  154.1956 C   0  0  0  0  0  0  0  0  0  0  0  0
  147.9069  133.2587  153.4362 C   0  0  0  0  0  0  0  0  0  0  0  0
  147.7439  134.4025  154.2712 O   0  0  0  0  0  0  0  0  0  0  0  0
  154.2248  139.8440  159.8489 C   0  0  0  0  0  0  0  0  0  0  0  0
  153.9456  138.5721  160.4858 N   0  0  0  0  0  0  0  0  0  0  0  0
  152.7996  138.0919  157.7610 H   0  0  0  0  0  0  0  0  0  0  0  0
  151.3814  138.6516  158.6446 H   0  0  0  0  0  0  0  0  0  0  0  0
  153.6252  140.1784  157.8131 H   0  0  0  0  0  0  0  0  0  0  0  0
  151.3462  140.7674  159.6961 H   0  0  0  0  0  0  0  0  0  0  0  0
  153.1947  142.0302  160.7501 H   0  0  0  0  0  0  0  0  0  0  0  0
  153.6023  142.7646  159.2233 H   0  0  0  0  0  0  0  0  0  0  0  0
  150.9874  143.1196  160.7526 H   0  0  0  0  0  0  0  0  0  0  0  0
  152.2479  144.3180  160.5550 H   0  0  0  0  0  0  0  0  0  0  0  0
  150.3620  144.6886  158.9410 H   0  0  0  0  0  0  0  0  0  0  0  0
  151.8712  144.3839  158.1106 H   0  0  0  0  0  0  0  0  0  0  0  0
  149.6418  142.3501  158.6090 H   0  0  0  0  0  0  0  0  0  0  0  0
  150.0839  143.0559  157.0659 H   0  0  0  0  0  0  0  0  0  0  0  0
  151.3946  139.8356  153.8655 H   0  0  0  0  0  0  0  0  0  0  0  0
  147.9704  137.8914  158.9633 H   0  0  0  0  0  0  0  0  0  0  0  0
  147.5396  136.2554  157.1410 H   0  0  0  0  0  0  0  0  0  0  0  0
  147.4716  137.0625  155.5952 H   0  0  0  0  0  0  0  0  0  0  0  0
  149.9544  135.5563  156.5405 H   0  0  0  0  0  0  0  0  0  0  0  0
  149.2299  136.2408  153.9386 H   0  0  0  0  0  0  0  0  0  0  0  0
  148.0264  133.9343  156.2054 H   0  0  0  0  0  0  0  0  0  0  0  0
  150.4605  133.6776  154.3896 H   0  0  0  0  0  0  0  0  0  0  0  0
  150.1266  132.7963  155.8825 H   0  0  0  0  0  0  0  0  0  0  0  0
  149.4199  131.6718  153.5368 H   0  0  0  0  0  0  0  0  0  0  0  0
  148.2443  131.6671  154.8568 H   0  0  0  0  0  0  0  0  0  0  0  0
  148.3723  133.5743  152.5022 H   0  0  0  0  0  0  0  0  0  0  0  0
  146.9468  132.8024  153.1950 H   0  0  0  0  0  0  0  0  0  0  0  0
  155.2156  139.8048  159.3944 H   0  0  0  0  0  0  0  0  0  0  0  0
  154.2309  140.6530  160.5794 H   0  0  0  0  0  0  0  0  0  0  0  0
  154.4308  138.2629  161.3157 H   0  0  0  0  0  0  0  0  0  0  0  0
  1  2  2  0  0  0  0
  2 29  1  0  0  0  0
  2  3  1  0  0  0  0
  3  4  1  0  0  0  0
  3 30  1  0  0  0  0
  3 31  1  0  0  0  0
  4  5  1  0  0  0  0
  4 28  1  0  0  0  0
  4 32  1  0  0  0  0
  5 10  1  0  0  0  0
  5  6  1  0  0  0  0
  5 33  1  0  0  0  0
  6  7  1  0  0  0  0
  6 34  1  0  0  0  0
  6 35  1  0  0  0  0
  7  8  1  0  0  0  0
  7 36  1  0  0  0  0
  7 37  1  0  0  0  0
  8  9  1  0  0  0  0
  8 38  1  0  0  0  0
  8 39  1  0  0  0  0
  9 10  1  0  0  0  0
  9 40  1  0  0  0  0
  9 41  1  0  0  0  0
 10 11  1  0  0  0  0
 11 16  1  0  0  0  0
 11 12  2  0  0  0  0
 12 13  1  0  0  0  0
 13 14  2  0  0  0  0
 13 42  1  0  0  0  0
 14 15  1  0  0  0  0
 15 19  1  0  0  0  0
 15 16  2  0  0  0  0
 16 17  1  0  0  0  0
 17 18  2  0  0  0  0
 18 19  1  0  0  0  0
 18 43  1  0  0  0  0
 19 20  1  0  0  0  0
 20 21  1  0  0  0  0
 20 44  1  0  0  0  0
 20 45  1  0  0  0  0
 21 22  1  0  0  0  0
 21 23  1  0  0  0  0
 21 46  1  0  0  0  0
 22 47  1  0  0  0  0
 23 27  1  0  0  0  0
 23 24  1  0  0  0  0
 23 48  1  0  0  0  0
 24 25  1  0  0  0  0
 24 49  1  0  0  0  0
 24 50  1  0  0  0  0
 25 26  1  0  0  0  0
 25 51  1  0  0  0  0
 25 52  1  0  0  0  0
 26 27  1  0  0  0  0
 26 53  1  0  0  0  0
 26 54  1  0  0  0  0
 28 29  1  0  0  0  0
 28 55  1  0  0  0  0
 28 56  1  0  0  0  0
 29 57  1  0  0  0  0
M  END
> <s_m_source_file>
AV-unprocessed.smi

> <i_m_source_file_index>
203

> <i_lp_mmshare_version>
43012

> <i_f3d_flags>
0

> <s_epik_input>
Tz1DMVtDSDJdW0NASF0oW0NIMl1bTkhdMSlbQ0BASF0yW0NIMl1bQ0gyXVtDSDJdW0NIMl1OMmMobltjSF1uMyljKGMzNCluW2NIXW40W0NIMl1bQ0BIXShbT0hdKVtDQEBIXTVbQ0gyXVtDSDJdW0NIMl1PNQ==

> <s_epik_cmdline>
J2VwaWtfcHl0aG9uJywgJy1waCcsICc3LjAnLCAnLXRuJywgJzgnLCAnLW1hJywgJzIwMCcsICctbWV0YWxfYmluZGluZycsICctaW1hZScsICc8aW5maWxlLm1hZT4nLCAnLW9tYWUnLCAnPG91dGZpbGUubWFlPic=

> <r_lp_tautomer_probability>
1

> <r_epik_Ionization_Penalty>
0.00175146

> <r_epik_Ionization_Penalty_Charging>
0

> <r_epik_Ionization_Penalty_Neutral>
0.00175146

> <r_epik_State_Penalty>
0.00109045

> <r_epik_Charging_Adjusted_Penalty>
0.00109045

> <i_epik_Tot_Q>
0

> <i_epik_Tot_abs_Q>
0

> <r_epik_Metal_State_Penalty>
-0

> <b_epik_Metal_Only>
0

> <s_lp_Force_Field>
OPLS_2005

> <r_lp_Energy>
54.964

> <b_lp_Chiralities_Consistent>
1

> <s_lp_Variant>
AV-unprocessed.smi:203-3

> <Gold.Version>
5.8.1

> <Gold.Id.Protein>
6NUR|6NUR_protein|mol2

> <Gold.PLP.Fitness>
42.8284

> <Gold.PLP.PLP>
-38.2702

> <Gold.PLP.part.hbond>
-3.4178

> <Gold.PLP.part.metal>
0.0000

> <Gold.PLP.part.buried>
-2.6602

> <Gold.PLP.part.nonpolar>
-32.7019

> <Gold.PLP.part.repulsive>
0.3379

> <Gold.PLP.ligand.clash>
0.0000

> <Gold.PLP.ligand.torsion>
0.8868

> <Gold.PLP.Chemscore.Hbond>
2.0000

> <Gold.PLP.Chemscore.CHOScore>
0.0000

> <Gold.PLP.Chemscore.Metal>
0.0000

> <Gold.Chemscore.Hbonds>
donor molecule, donor type, donor heavy atom, donor atom, acceptor molecule, acceptor atom, score
      L1  H    22    47       P1  7948  0.86
      P1  H  6896  6908       L1     1  1.00

> <Gold.PLP.Chemscore.Internal.Correction>
0.3317

> <Gold.Rescore>
     Score         DG    S(hbond)    S(metal)    S(lipo)     H(rot)  DE(clash)    DE(int)     intcor
     13.00     -15.26       1.80        0.00      91.72       2.72       1.18       1.08       ----

> <Gold.Chemscore.Fitness>
13.0001

> <Gold.Chemscore.DG>
-15.2606

> <Gold.Chemscore.ZeroCoef>
-5.4800

> <Gold.Chemscore.Hbond>
1.7980

> <Gold.Chemscore.Metal>
0.0000

> <Gold.Chemscore.Lipo>
91.7191

> <Gold.Chemscore.Internal_Hbond>
0.0000

> <Gold.Chemscore.DEClash>
1.1827

> <Gold.Chemscore.DEInternal>
1.0778

> <Gold.Chemscore.Rot>
2.7171

> <Gold.Chemscore.Internal.Correction>
   9.000000E+99

> <Gold.Chemscore.Hbonds>
donor molecule, donor type, donor heavy atom, donor atom, acceptor molecule, acceptor atom, score
      L1  H    22    47       P1  7948  0.74
      P1  H  6896  6908       L1     1  1.00

> <Gold.Chemscore.Hbond.Weighted>
-6.0052

> <Gold.Chemscore.Metal.Weighted>
-0.0000

> <Gold.Chemscore.Lipo.Weighted>
-10.7311

> <Gold.Chemscore.Internal_Hbond.Weighted>
0.0000

> <Gold.Chemscore.DEClash.Weighted>
1.1827

> <Gold.Chemscore.DEInternal.Weighted>
1.0778

> <Gold.Chemscore.Rot.Weighted>
6.9557

> <Gold.Chemscore.Internal.Correction.Weighted>
   9.000000E+99

> <Gold.Protein.RotatedTorsions>
[ 6907 6896 6895 6894 ] final -101.80 input  -60.11 | X-H torsion
[ 7974 7965 7964 7962 ] final  167.31 input  175.53 | X-H torsion
[ 8008 7997 7996 7995 ] final  157.02 input   59.86 | X-H torsion
[ 10167 10162 10161 10158 ] final  153.18 input  -65.29 | X-H torsion
[ 10718 10713 10712 10709 ] final  156.31 input   66.30 | X-H torsion
[ 10763 10752 10751 10750 ] final   82.42 input  -60.55 | X-H torsion
[ 11005 11000 10999 10996 ] final  158.44 input  -57.11 | X-H torsion

> <Gold.Protein.ActiveResidues>
 VAL166  LYS551  ARG553  GLY616  TRP617  ASP618  TYR619  PRO620  LYS621  CYS622 
 ASP623  PHE694  ASN695  SER759  ASP760  ASP761  ALA762  ILE779  LEU786  VAL792 
 PHE793  MET794  SER795  GLU796  ALA797  LYS798  CYS799  TRP800  GLU811  SER814 

> <Gold.Protein.RotatedAtoms>
  150.7169  134.0679  159.3853 H   0  0  0  0  0  0  0  0  0  0  0  0  # atno 6907 bound_to 6896
  151.8661  135.0504  160.0484 H   0  0  0  0  0  0  0  0  0  0  0  0  # atno 6908 bound_to 6896
  152.2680  133.5320  159.5458 H   0  0  0  0  0  0  0  0  0  0  0  0  # atno 6909 bound_to 6896
  144.7429  139.8743  143.6391 H   0  0  0  0  0  0  0  0  0  0  0  0  # atno 7974 bound_to 7965
  156.2388  140.1896  156.7045 H   0  0  0  0  0  0  0  0  0  0  0  0  # atno 8008 bound_to 7997
  154.6158  140.0615  156.9579 H   0  0  0  0  0  0  0  0  0  0  0  0  # atno 8009 bound_to 7997
  155.1942  140.3287  155.4356 H   0  0  0  0  0  0  0  0  0  0  0  0  # atno 8010 bound_to 7997
  139.4828  144.5295  151.7746 H   0  0  0  0  0  0  0  0  0  0  0  0  # atno 10167 bound_to 10162
  157.2066  131.0688  151.1994 H   0  0  0  0  0  0  0  0  0  0  0  0  # atno 10718 bound_to 10713
  153.1201  135.4729  154.9182 H   0  0  0  0  0  0  0  0  0  0  0  0  # atno 10763 bound_to 10752
  154.7567  135.3120  154.8458 H   0  0  0  0  0  0  0  0  0  0  0  0  # atno 10764 bound_to 10752
  153.9025  135.6873  153.4808 H   0  0  0  0  0  0  0  0  0  0  0  0  # atno 10765 bound_to 10752
  140.1866  134.8438  157.2864 H   0  0  0  0  0  0  0  0  0  0  0  0  # atno 11005 bound_to 11000
  146.1258  139.4283  143.0200 LP  0  0  0  0  0  0  0  0  0  0  0  0  # atno 17320 bound_to 7965
  145.7237  141.0066  143.1388 LP  0  0  0  0  0  0  0  0  0  0  0  0  # atno 17321 bound_to 7965
  140.4819  144.1437  150.5934 LP  0  0  0  0  0  0  0  0  0  0  0  0  # atno 17342 bound_to 10162
  140.4268  143.2586  151.9646 LP  0  0  0  0  0  0  0  0  0  0  0  0  # atno 17343 bound_to 10162
  157.3714  130.7183  149.6567 LP  0  0  0  0  0  0  0  0  0  0  0  0  # atno 17370 bound_to 10713
  155.9695  130.4198  150.4391 LP  0  0  0  0  0  0  0  0  0  0  0  0  # atno 17371 bound_to 10713
  140.2207  134.4026  155.7567 LP  0  0  0  0  0  0  0  0  0  0  0  0  # atno 17394 bound_to 11000
  141.2225  133.7164  156.8486 LP  0  0  0  0  0  0  0  0  0  0  0  0  # atno 17395 bound_to 11000

$$$$
