AV-unprocessed.smi:169|AV-procd|sdf|1405|dock6
  -GOLD-   2262019153D 1   1.00000     0.00000
 Structure written by MMmdl.
 56 60  0  0  0  0  0  0  0  0  2 V2000
  151.6752  142.1441  158.3952 C   0  0  0  0  0  0  0  0  0  0  0  0
  150.8143  142.9469  157.4035 C   0  0  0  0  0  0  0  0  0  0  0  0
  149.8179  142.1249  156.6674 N   0  3  1  0  0  0  0  0  0  0  0  0
  150.4349  141.0768  155.8156 C   0  0  0  0  0  0  0  0  0  0  0  0
  149.6865  140.8733  154.4831 C   0  0  0  0  0  0  0  0  0  0  0  0
  148.1494  140.7392  154.5719 C   0  0  2  0  0  0  0  0  0  0  0  0
  147.4135  142.0955  154.5523 C   0  0  0  0  0  0  0  0  0  0  0  0
  146.8188  142.2608  155.9547 C   0  0  0  0  0  0  0  0  0  0  0  0
  147.4655  141.1443  156.7805 C   0  0  2  0  0  0  0  0  0  0  0  0
  148.7279  141.6091  157.5420 C   0  0  0  0  0  0  0  0  0  0  0  0
  147.7385  140.0843  155.8139 N   0  0  0  0  0  0  0  0  0  0  0  0
  146.8322  139.0725  155.7986 C   0  0  0  0  0  0  0  0  0  0  0  0
  146.4029  138.5046  156.9567 N   0  0  0  0  0  0  0  0  0  0  0  0
  145.5188  137.5029  156.9297 C   0  0  0  0  0  0  0  0  0  0  0  0
  144.9478  136.9232  155.8724 N   0  0  0  0  0  0  0  0  0  0  0  0
  145.3765  137.4852  154.7067 C   0  0  0  0  0  0  0  0  0  0  0  0
  146.3056  138.5560  154.5823 C   0  0  0  0  0  0  0  0  0  0  0  0
  146.4905  138.8723  153.2418 N   0  0  0  0  0  0  0  0  0  0  0  0
  145.7165  138.0331  152.6093 C   0  0  0  0  0  0  0  0  0  0  0  0
  145.0205  137.1550  153.4106 N   0  0  0  0  0  0  0  0  0  0  0  0
  144.0988  136.1202  152.9663 C   0  0  0  0  0  0  0  0  0  0  0  0
  144.7850  134.8973  152.3220 C   0  0  0  0  0  0  0  0  0  0  0  0
  145.7158  135.3296  151.1750 C   0  0  0  0  0  0  0  0  0  0  0  0
  144.9864  135.8476  150.0807 O   0  0  0  0  0  0  0  0  0  0  0  0
  145.4120  133.8880  153.2949 C   0  0  0  0  0  0  0  0  0  0  0  0
  144.7388  132.7788  152.6637 O   0  0  0  0  0  0  0  0  0  0  0  0
  143.8666  133.7125  151.9923 C   0  0  0  0  0  0  0  0  0  0  0  0
  152.4014  142.7954  158.8818 H   0  0  0  0  0  0  0  0  0  0  0  0
  152.2328  141.3504  157.8980 H   0  0  0  0  0  0  0  0  0  0  0  0
  151.0718  141.6904  159.1812 H   0  0  0  0  0  0  0  0  0  0  0  0
  150.2932  143.7443  157.9347 H   0  0  0  0  0  0  0  0  0  0  0  0
  151.4603  143.4465  156.6805 H   0  0  0  0  0  0  0  0  0  0  0  0
  151.4646  141.3454  155.5745 H   0  0  0  0  0  0  0  0  0  0  0  0
  150.4975  140.1383  156.3692 H   0  0  0  0  0  0  0  0  0  0  0  0
  149.9442  141.6717  153.7862 H   0  0  0  0  0  0  0  0  0  0  0  0
  150.0820  139.9641  154.0286 H   0  0  0  0  0  0  0  0  0  0  0  0
  147.8401  140.1761  153.6911 H   0  0  0  0  0  0  0  0  0  0  0  0
  148.0826  142.9214  154.3095 H   0  0  0  0  0  0  0  0  0  0  0  0
  146.6189  142.0955  153.8050 H   0  0  0  0  0  0  0  0  0  0  0  0
  146.9841  143.2547  156.3719 H   0  0  0  0  0  0  0  0  0  0  0  0
  145.7406  142.1010  155.9093 H   0  0  0  0  0  0  0  0  0  0  0  0
  146.7413  140.8139  157.5267 H   0  0  0  0  0  0  0  0  0  0  0  0
  149.1039  140.7883  158.1542 H   0  0  0  0  0  0  0  0  0  0  0  0
  148.4312  142.3935  158.2394 H   0  0  0  0  0  0  0  0  0  0  0  0
  145.2275  137.1089  157.8924 H   0  0  0  0  0  0  0  0  0  0  0  0
  145.6371  138.0246  151.5317 H   0  0  0  0  0  0  0  0  0  0  0  0
  143.5022  135.8148  153.8270 H   0  0  0  0  0  0  0  0  0  0  0  0
  143.3917  136.5713  152.2693 H   0  0  0  0  0  0  0  0  0  0  0  0
  146.4447  136.0703  151.5041 H   0  0  0  0  0  0  0  0  0  0  0  0
  146.2959  134.4795  150.8140 H   0  0  0  0  0  0  0  0  0  0  0  0
  144.7359  136.7367  150.2815 H   0  0  0  0  0  0  0  0  0  0  0  0
  146.4982  133.8186  153.2266 H   0  0  0  0  0  0  0  0  0  0  0  0
  145.0945  134.0061  154.3316 H   0  0  0  0  0  0  0  0  0  0  0  0
  142.8862  133.7654  152.4688 H   0  0  0  0  0  0  0  0  0  0  0  0
  143.7698  133.5052  150.9260 H   0  0  0  0  0  0  0  0  0  0  0  0
  149.3771  142.7719  156.0291 H   0  0  0  0  0  0  0  0  0  0  0  0
  1  2  1  0  0  0  0
  1 28  1  0  0  0  0
  1 29  1  0  0  0  0
  1 30  1  0  0  0  0
  2  3  1  0  0  0  0
  2 31  1  0  0  0  0
  2 32  1  0  0  0  0
  3 10  1  0  0  0  0
  3  4  1  0  0  0  0
  3 56  1  0  0  0  0
  4  5  1  0  0  0  0
  4 33  1  0  0  0  0
  4 34  1  0  0  0  0
  5  6  1  0  0  0  0
  5 35  1  0  0  0  0
  5 36  1  0  0  0  0
  6 11  1  0  0  0  0
  6  7  1  0  0  0  0
  6 37  1  0  0  0  0
  7  8  1  0  0  0  0
  7 38  1  0  0  0  0
  7 39  1  0  0  0  0
  8  9  1  0  0  0  0
  8 40  1  0  0  0  0
  8 41  1  0  0  0  0
  9 10  1  0  0  0  0
  9 11  1  0  0  0  0
  9 42  1  0  0  0  0
 10 43  1  0  0  0  0
 10 44  1  0  0  0  0
 11 12  1  0  0  0  0
 12 17  1  0  0  0  0
 12 13  2  0  0  0  0
 13 14  1  0  0  0  0
 14 15  2  0  0  0  0
 14 45  1  0  0  0  0
 15 16  1  0  0  0  0
 16 20  1  0  0  0  0
 16 17  2  0  0  0  0
 17 18  1  0  0  0  0
 18 19  2  0  0  0  0
 19 20  1  0  0  0  0
 19 46  1  0  0  0  0
 20 21  1  0  0  0  0
 21 22  1  0  0  0  0
 21 47  1  0  0  0  0
 21 48  1  0  0  0  0
 22 27  1  0  0  0  0
 22 23  1  0  0  0  0
 22 25  1  0  0  0  0
 23 24  1  0  0  0  0
 23 49  1  0  0  0  0
 23 50  1  0  0  0  0
 24 51  1  0  0  0  0
 25 26  1  0  0  0  0
 25 52  1  0  0  0  0
 25 53  1  0  0  0  0
 26 27  1  0  0  0  0
 27 54  1  0  0  0  0
 27 55  1  0  0  0  0
M  CHG  1   3   1
M  END
> <s_m_source_file>
AV-unprocessed.smi

> <i_m_source_file_index>
169

> <i_lp_mmshare_version>
43012

> <i_f3d_flags>
0

> <s_epik_input>
W0NASF0xMltDSDJdW0NIMl1OKFtDSDJdW0NIM10pW0NIMl1bQ0BIXShbQ0gyXVtDSDJdMSlOMmMobltjSF1uMyljKGMzNCluW2NIXW40W0NIMl1DNShbQ0gyXVtPSF0pW0NIMl1PW0NIMl01

> <s_epik_cmdline>
J2VwaWtfcHl0aG9uJywgJy1waCcsICc3LjAnLCAnLXRuJywgJzgnLCAnLW1hJywgJzIwMCcsICctbWV0YWxfYmluZGluZycsICctaW1hZScsICc8aW5maWxlLm1hZT4nLCAnLW9tYWUnLCAnPG91dGZpbGUubWFlPic=

> <r_lp_tautomer_probability>
1

> <r_epik_Ionization_Penalty>
0.00274162

> <r_epik_Ionization_Penalty_Charging>
0.00243722

> <r_epik_Ionization_Penalty_Neutral>
0.000304399

> <r_epik_State_Penalty>
-0

> <r_epik_Charging_Adjusted_Penalty>
0.00243722

> <i_epik_Tot_Q>
1

> <i_epik_Tot_abs_Q>
1

> <r_epik_Metal_State_Penalty>
-0

> <b_epik_Metal_Only>
0

> <s_lp_Force_Field>
OPLS_2005

> <r_lp_Energy>
77.4951

> <b_lp_Chiralities_Consistent>
1

> <s_lp_Variant>
AV-unprocessed.smi:169-8

> <Gold.Version>
5.8.1

> <Gold.Id.Protein>
6NUR|6NUR_protein|mol2

> <Gold.PLP.Fitness>
42.0017

> <Gold.PLP.PLP>
-30.6395

> <Gold.PLP.part.hbond>
-3.0000

> <Gold.PLP.part.metal>
0.0000

> <Gold.PLP.part.buried>
-0.7956

> <Gold.PLP.part.nonpolar>
-25.9174

> <Gold.PLP.part.repulsive>
0.3909

> <Gold.PLP.ligand.clash>
0.0000

> <Gold.PLP.ligand.torsion>
0.5806

> <Gold.PLP.Chemscore.Hbond>
3.0000

> <Gold.PLP.Chemscore.CHOScore>
1.0000

> <Gold.PLP.Chemscore.Metal>
0.0000

> <Gold.Chemscore.Hbonds>
donor molecule, donor type, donor heavy atom, donor atom, acceptor molecule, acceptor atom, score
      L1  H     3    56       P1  8028  1.81
      L1  H    24    51       P1 10171  0.86
      L1  C    19    46       P1 10171  1.00

> <Gold.PLP.Chemscore.Internal.Correction>
0.5235

> <Gold.Rescore>
     Score         DG    S(hbond)    S(metal)    S(lipo)     H(rot)  DE(clash)    DE(int)     intcor
     11.40     -13.52       1.84        0.00      73.44       2.62       0.20       1.92       ----

> <Gold.Chemscore.Fitness>
11.4035

> <Gold.Chemscore.DG>
-13.5209

> <Gold.Chemscore.ZeroCoef>
-5.4800

> <Gold.Chemscore.Hbond>
1.8437

> <Gold.Chemscore.Metal>
0.0000

> <Gold.Chemscore.Lipo>
73.4448

> <Gold.Chemscore.Internal_Hbond>
0.0000

> <Gold.Chemscore.DEClash>
0.1973

> <Gold.Chemscore.DEInternal>
1.9201

> <Gold.Chemscore.Rot>
2.6212

> <Gold.Chemscore.Internal.Correction>
   9.000000E+99

> <Gold.Chemscore.Hbonds>
donor molecule, donor type, donor heavy atom, donor atom, acceptor molecule, acceptor atom, score
      L1  H     3    56       P1  8028  0.82
      L1  H    24    51       P1 10171  0.81

> <Gold.Chemscore.Hbond.Weighted>
-6.1581

> <Gold.Chemscore.Metal.Weighted>
-0.0000

> <Gold.Chemscore.Lipo.Weighted>
-8.5930

> <Gold.Chemscore.Internal_Hbond.Weighted>
0.0000

> <Gold.Chemscore.DEClash.Weighted>
0.1973

> <Gold.Chemscore.DEInternal.Weighted>
1.9201

> <Gold.Chemscore.Rot.Weighted>
6.7102

> <Gold.Chemscore.Internal.Correction.Weighted>
   9.000000E+99

> <Gold.Protein.RotatedTorsions>
[ 6907 6896 6895 6894 ] final -176.57 input  -60.11 | X-H torsion
[ 7974 7965 7964 7962 ] final   -5.39 input  175.53 | X-H torsion
[ 8008 7997 7996 7995 ] final -156.68 input   59.86 | X-H torsion
[ 10167 10162 10161 10158 ] final -132.30 input  -65.29 | X-H torsion
[ 10718 10713 10712 10709 ] final   67.78 input   66.30 | X-H torsion
[ 10763 10752 10751 10750 ] final  110.47 input  -60.55 | X-H torsion
[ 11005 11000 10999 10996 ] final  -62.39 input  -57.11 | X-H torsion

> <Gold.Protein.ActiveResidues>
 VAL166  LYS551  ARG553  GLY616  TRP617  ASP618  TYR619  PRO620  LYS621  CYS622 
 ASP623  PHE694  ASN695  SER759  ASP760  ASP761  ALA762  ILE779  LEU786  VAL792 
 PHE793  MET794  SER795  GLU796  ALA797  LYS798  CYS799  TRP800  GLU811  SER814 

> <Gold.Protein.RotatedAtoms>
  151.6069  133.3351  159.3058 H   0  0  0  0  0  0  0  0  0  0  0  0  # atno 6907 bound_to 6896
  150.8177  134.7372  159.6756 H   0  0  0  0  0  0  0  0  0  0  0  0  # atno 6908 bound_to 6896
  152.4272  134.5851  160.0010 H   0  0  0  0  0  0  0  0  0  0  0  0  # atno 6909 bound_to 6896
  146.2353  140.2014  142.8334 H   0  0  0  0  0  0  0  0  0  0  0  0  # atno 7974 bound_to 7965
  155.7209  140.0790  157.2331 H   0  0  0  0  0  0  0  0  0  0  0  0  # atno 8008 bound_to 7997
  154.4045  140.1613  156.2455 H   0  0  0  0  0  0  0  0  0  0  0  0  # atno 8009 bound_to 7997
  155.9198  140.3398  155.6166 H   0  0  0  0  0  0  0  0  0  0  0  0  # atno 8010 bound_to 7997
  139.9100  143.6505  152.2577 H   0  0  0  0  0  0  0  0  0  0  0  0  # atno 10167 bound_to 10162
  157.6250  130.9339  150.0288 H   0  0  0  0  0  0  0  0  0  0  0  0  # atno 10718 bound_to 10713
  153.4494  135.3747  155.2275 H   0  0  0  0  0  0  0  0  0  0  0  0  # atno 10763 bound_to 10752
  154.8756  135.3882  154.4056 H   0  0  0  0  0  0  0  0  0  0  0  0  # atno 10764 bound_to 10752
  153.4613  135.7086  153.6112 H   0  0  0  0  0  0  0  0  0  0  0  0  # atno 10765 bound_to 10752
  141.1358  133.6639  156.5520 H   0  0  0  0  0  0  0  0  0  0  0  0  # atno 11005 bound_to 11000
  144.9779  140.8431  143.5415 LP  0  0  0  0  0  0  0  0  0  0  0  0  # atno 17320 bound_to 7965
  145.2004  139.2255  143.5196 LP  0  0  0  0  0  0  0  0  0  0  0  0  # atno 17321 bound_to 7965
  139.6951  144.7642  151.1371 LP  0  0  0  0  0  0  0  0  0  0  0  0  # atno 17342 bound_to 10162
  140.7687  143.5535  150.9178 LP  0  0  0  0  0  0  0  0  0  0  0  0  # atno 17343 bound_to 10162
  156.1417  130.3642  149.9572 LP  0  0  0  0  0  0  0  0  0  0  0  0  # atno 17370 bound_to 10713
  156.7611  130.9151  151.3641 LP  0  0  0  0  0  0  0  0  0  0  0  0  # atno 17371 bound_to 10713
  140.4056  134.7318  157.4806 LP  0  0  0  0  0  0  0  0  0  0  0  0  # atno 17394 bound_to 11000
  140.0464  134.6193  155.8915 LP  0  0  0  0  0  0  0  0  0  0  0  0  # atno 17395 bound_to 11000

$$$$
