AV-unprocessed.smi:120|AV-procd|sdf|1138|dock1
  -GOLD-   2262018263D 1   1.00000     0.00000
 Structure written by MMmdl.
 45 48  0  0  0  0  0  0  0  0  1 V2000
  149.5390  130.6893  157.8128 C   0  0  0  0  0  0  0  0  0  0  0  0
  149.0982  130.7851  156.4661 O   0  0  0  0  0  0  0  0  0  0  0  0
  149.3176  131.9676  155.7920 C   0  0  0  0  0  0  0  0  0  0  0  0
  148.8702  132.0343  154.4587 C   0  0  0  0  0  0  0  0  0  0  0  0
  149.0507  133.2054  153.7029 C   0  0  0  0  0  0  0  0  0  0  0  0
  149.6830  134.3231  154.2765 C   0  0  0  0  0  0  0  0  0  0  0  0
  150.1480  134.2901  155.6116 C   0  0  0  0  0  0  0  0  0  0  0  0
  150.8158  135.4648  156.2149 C   0  0  0  0  0  0  0  0  0  0  0  0
  150.7796  135.6954  157.5213 N   0  0  0  0  0  0  0  0  0  0  0  0
  151.5274  136.8754  157.6506 O   0  0  0  0  0  0  0  0  0  0  0  0
  151.9206  137.2088  156.3955 C   0  0  0  0  0  0  0  0  0  0  0  0
  152.7521  138.4410  156.2074 C   0  0  0  0  0  0  0  0  0  0  0  0
  151.9519  139.6405  156.3943 N   0  0  0  0  0  0  0  0  0  0  0  0
  151.0263  139.9943  155.3812 C   0  0  0  0  0  0  0  0  0  0  0  0
  150.8702  139.3140  154.3659 O   0  0  0  0  0  0  0  0  0  0  0  0
  150.2921  141.2285  155.6380 C   0  0  0  0  0  0  0  0  0  0  0  0
  149.3755  141.6521  154.7512 F   0  0  0  0  0  0  0  0  0  0  0  0
  150.5168  141.9564  156.7534 C   0  0  0  0  0  0  0  0  0  0  0  0
  151.4453  141.5960  157.7167 N   0  0  0  0  0  0  0  0  0  0  0  0
  151.6893  142.4353  158.9528 C   0  0  1  0  0  0  0  0  0  0  0  0
  152.4556  143.7216  158.5911 C   0  0  0  0  0  0  0  0  0  0  0  0
  151.6169  144.8032  159.2419 C   0  0  0  0  0  0  0  0  0  0  0  0
  150.2244  144.1925  159.1922 C   0  0  0  0  0  0  0  0  0  0  0  0
  150.4670  142.8282  159.5100 O   0  0  0  0  0  0  0  0  0  0  0  0
  152.1938  140.4101  157.5561 C   0  0  0  0  0  0  0  0  0  0  0  0
  153.0321  140.0737  158.3961 O   0  0  0  0  0  0  0  0  0  0  0  0
  151.5006  136.3629  155.4557 N   0  0  0  0  0  0  0  0  0  0  0  0
  149.9561  133.1011  156.3562 C   0  0  0  0  0  0  0  0  0  0  0  0
  149.2888  129.7030  158.2034 H   0  0  0  0  0  0  0  0  0  0  0  0
  149.0484  131.4285  158.4473 H   0  0  0  0  0  0  0  0  0  0  0  0
  150.6207  130.8085  157.8875 H   0  0  0  0  0  0  0  0  0  0  0  0
  148.3828  131.1801  154.0119 H   0  0  0  0  0  0  0  0  0  0  0  0
  148.7036  133.2474  152.6810 H   0  0  0  0  0  0  0  0  0  0  0  0
  149.8125  135.2108  153.6747 H   0  0  0  0  0  0  0  0  0  0  0  0
  153.5914  138.4505  156.9033 H   0  0  0  0  0  0  0  0  0  0  0  0
  153.1842  138.4784  155.2055 H   0  0  0  0  0  0  0  0  0  0  0  0
  149.9356  142.8569  156.8790 H   0  0  0  0  0  0  0  0  0  0  0  0
  152.2131  141.7847  159.6557 H   0  0  0  0  0  0  0  0  0  0  0  0
  153.4797  143.6863  158.9637 H   0  0  0  0  0  0  0  0  0  0  0  0
  152.4762  143.8573  157.5085 H   0  0  0  0  0  0  0  0  0  0  0  0
  151.9255  144.9459  160.2783 H   0  0  0  0  0  0  0  0  0  0  0  0
  151.6819  145.7629  158.7286 H   0  0  0  0  0  0  0  0  0  0  0  0
  149.5349  144.6531  159.8995 H   0  0  0  0  0  0  0  0  0  0  0  0
  149.7995  144.2764  158.1910 H   0  0  0  0  0  0  0  0  0  0  0  0
  150.3044  133.0751  157.3771 H   0  0  0  0  0  0  0  0  0  0  0  0
  1  2  1  0  0  0  0
  1 29  1  0  0  0  0
  1 30  1  0  0  0  0
  1 31  1  0  0  0  0
  2  3  1  0  0  0  0
  3 28  1  0  0  0  0
  3  4  2  0  0  0  0
  4  5  1  0  0  0  0
  4 32  1  0  0  0  0
  5  6  2  0  0  0  0
  5 33  1  0  0  0  0
  6  7  1  0  0  0  0
  6 34  1  0  0  0  0
  7  8  1  0  0  0  0
  7 28  2  0  0  0  0
  8 27  1  0  0  0  0
  8  9  2  0  0  0  0
  9 10  1  0  0  0  0
 10 11  1  0  0  0  0
 11 12  1  0  0  0  0
 11 27  2  0  0  0  0
 12 13  1  0  0  0  0
 12 35  1  0  0  0  0
 12 36  1  0  0  0  0
 13 25  1  0  0  0  0
 13 14  1  0  0  0  0
 14 15  2  0  0  0  0
 14 16  1  0  0  0  0
 16 17  1  0  0  0  0
 16 18  2  0  0  0  0
 18 19  1  0  0  0  0
 18 37  1  0  0  0  0
 19 20  1  0  0  0  0
 19 25  1  0  0  0  0
 20 24  1  0  0  0  0
 20 21  1  0  0  0  0
 20 38  1  0  0  0  0
 21 22  1  0  0  0  0
 21 39  1  0  0  0  0
 21 40  1  0  0  0  0
 22 23  1  0  0  0  0
 22 41  1  0  0  0  0
 22 42  1  0  0  0  0
 23 24  1  0  0  0  0
 23 43  1  0  0  0  0
 23 44  1  0  0  0  0
 25 26  2  0  0  0  0
 28 45  1  0  0  0  0
M  END
> <s_m_source_file>
AV-unprocessed.smi

> <i_m_source_file_index>
120

> <i_lp_mmshare_version>
43012

> <i_f3d_flags>
0

> <s_epik_input>
W0NIM11PYzFbY0hdW2NIXVtjSF1jKFtjSF0xKS1jMm5vYyhuMilbQ0gyXW4zYyg9TyljKEYpW2NIXW4oYzM9TylbQ0BASF00W0NIMl1bQ0gyXVtDSDJdTzQ=

> <s_epik_cmdline>
J2VwaWtfcHl0aG9uJywgJy1waCcsICc3LjAnLCAnLXRuJywgJzgnLCAnLW1hJywgJzIwMCcsICctbWV0YWxfYmluZGluZycsICctaW1hZScsICc8aW5maWxlLm1hZT4nLCAnLW9tYWUnLCAnPG91dGZpbGUubWFlPic=

> <r_lp_tautomer_probability>
1

> <r_epik_Ionization_Penalty>
4.93314e-09

> <r_epik_Ionization_Penalty_Charging>
4.92654e-09

> <r_epik_Ionization_Penalty_Neutral>
6.60436e-12

> <r_epik_State_Penalty>
-0

> <r_epik_Charging_Adjusted_Penalty>
4.92654e-09

> <i_epik_Tot_Q>
0

> <i_epik_Tot_abs_Q>
0

> <r_epik_Metal_State_Penalty>
-0

> <b_epik_Metal_Only>
0

> <s_epik_Chemistry_Notes>
This compound contains an acetal/aminal-like group ( X-CH(R)-Y where X, Y are N, S, or O) that may be acid/base labile, releasing an aldehyde.

> <s_lp_Force_Field>
OPLS_2005

> <r_lp_Energy>
36.9113

> <b_lp_Chiralities_Consistent>
1

> <s_lp_Variant>
AV-unprocessed.smi:120-2

> <Gold.Version>
5.8.1

> <Gold.Id.Protein>
6NUR|6NUR_protein|mol2

> <Gold.PLP.Fitness>
58.3691

> <Gold.PLP.PLP>
-50.0590

> <Gold.PLP.part.hbond>
-5.0000

> <Gold.PLP.part.metal>
0.0000

> <Gold.PLP.part.buried>
-3.9753

> <Gold.PLP.part.nonpolar>
-42.0338

> <Gold.PLP.part.repulsive>
0.2504

> <Gold.PLP.ligand.clash>
0.0000

> <Gold.PLP.ligand.torsion>
0.9197

> <Gold.PLP.Chemscore.Hbond>
2.3464

> <Gold.PLP.Chemscore.CHOScore>
1.0000

> <Gold.PLP.Chemscore.Metal>
0.0000

> <Gold.Chemscore.Hbonds>
donor molecule, donor type, donor heavy atom, donor atom, acceptor molecule, acceptor atom, score
      P1  H  6896  6907       L1     9  0.16
      P1  H  7989  7998       L1    15  0.20
      P1  H  7997  8008       L1    26  0.73
      P1  H 10752 10765       L1    27  1.00
      L1  C    18    37       P1  8028  1.00

> <Gold.PLP.Chemscore.Internal.Correction>
0.1102

> <Gold.Rescore>
     Score         DG    S(hbond)    S(metal)    S(lipo)     H(rot)  DE(clash)    DE(int)     intcor
     14.60     -15.61       1.55        0.00      85.80       1.99       0.04       0.97       ----

> <Gold.Chemscore.Fitness>
14.6022

> <Gold.Chemscore.DG>
-15.6108

> <Gold.Chemscore.ZeroCoef>
-5.4800

> <Gold.Chemscore.Hbond>
1.5513

> <Gold.Chemscore.Metal>
0.0000

> <Gold.Chemscore.Lipo>
85.7997

> <Gold.Chemscore.Internal_Hbond>
0.0000

> <Gold.Chemscore.DEClash>
0.0409

> <Gold.Chemscore.DEInternal>
0.9677

> <Gold.Chemscore.Rot>
1.9879

> <Gold.Chemscore.Internal.Correction>
   9.000000E+99

> <Gold.Chemscore.Hbonds>
donor molecule, donor type, donor heavy atom, donor atom, acceptor molecule, acceptor atom, score
      P1  H  6896  6907       L1     9  0.08
      P1  H  7997  8008       L1    26  0.16
      P1  H 10752 10765       L1    27  0.42

> <Gold.Chemscore.Hbond.Weighted>
-5.1812

> <Gold.Chemscore.Metal.Weighted>
-0.0000

> <Gold.Chemscore.Lipo.Weighted>
-10.0386

> <Gold.Chemscore.Internal_Hbond.Weighted>
0.0000

> <Gold.Chemscore.DEClash.Weighted>
0.0409

> <Gold.Chemscore.DEInternal.Weighted>
0.9677

> <Gold.Chemscore.Rot.Weighted>
5.0890

> <Gold.Chemscore.Internal.Correction.Weighted>
   9.000000E+99

> <Gold.Protein.RotatedTorsions>
[ 6907 6896 6895 6894 ] final  -58.90 input  -60.11 | X-H torsion
[ 7974 7965 7964 7962 ] final  124.99 input  175.53 | X-H torsion
[ 8008 7997 7996 7995 ] final  -97.40 input   59.86 | X-H torsion
[ 10167 10162 10161 10158 ] final  -23.63 input  -65.29 | X-H torsion
[ 10718 10713 10712 10709 ] final -164.99 input   66.30 | X-H torsion
[ 10763 10752 10751 10750 ] final -170.31 input  -60.55 | X-H torsion
[ 11005 11000 10999 10996 ] final -156.43 input  -57.11 | X-H torsion

> <Gold.Protein.ActiveResidues>
 VAL166  LYS551  ARG553  GLY616  TRP617  ASP618  TYR619  PRO620  LYS621  CYS622 
 ASP623  PHE694  ASN695  SER759  ASP760  ASP761  ALA762  ILE779  LEU786  VAL792 
 PHE793  MET794  SER795  GLU796  ALA797  LYS798  CYS799  TRP800  GLU811  SER814 

> <Gold.Protein.RotatedAtoms>
  150.7971  134.7039  159.6565 H   0  0  0  0  0  0  0  0  0  0  0  0  # atno 6907 bound_to 6896
  152.4085  134.6162  160.0048 H   0  0  0  0  0  0  0  0  0  0  0  0  # atno 6908 bound_to 6896
  151.6413  133.3289  159.3167 H   0  0  0  0  0  0  0  0  0  0  0  0  # atno 6909 bound_to 6896
  145.0781  139.3678  143.4923 H   0  0  0  0  0  0  0  0  0  0  0  0  # atno 7974 bound_to 7965
  154.7872  140.0463  157.1173 H   0  0  0  0  0  0  0  0  0  0  0  0  # atno 8008 bound_to 7997
  154.9634  140.3080  155.5001 H   0  0  0  0  0  0  0  0  0  0  0  0  # atno 8009 bound_to 7997
  156.2945  140.2266  156.4721 H   0  0  0  0  0  0  0  0  0  0  0  0  # atno 8010 bound_to 7997
  140.7288  143.4425  151.0635 H   0  0  0  0  0  0  0  0  0  0  0  0  # atno 10167 bound_to 10162
  156.6470  130.8992  151.3006 H   0  0  0  0  0  0  0  0  0  0  0  0  # atno 10718 bound_to 10713
  154.6428  135.2901  155.0082 H   0  0  0  0  0  0  0  0  0  0  0  0  # atno 10763 bound_to 10752
  154.1203  135.6549  153.4905 H   0  0  0  0  0  0  0  0  0  0  0  0  # atno 10764 bound_to 10752
  153.0335  135.5286  154.7303 H   0  0  0  0  0  0  0  0  0  0  0  0  # atno 10765 bound_to 10752
  140.6756  134.4200  157.5229 H   0  0  0  0  0  0  0  0  0  0  0  0  # atno 11005 bound_to 11000
  146.3530  140.0559  142.8632 LP  0  0  0  0  0  0  0  0  0  0  0  0  # atno 17320 bound_to 7965
  145.1211  140.9463  143.4600 LP  0  0  0  0  0  0  0  0  0  0  0  0  # atno 17321 bound_to 7965
  139.8094  143.7972  152.3170 LP  0  0  0  0  0  0  0  0  0  0  0  0  # atno 17342 bound_to 10162
  139.8016  144.7371  150.9816 LP  0  0  0  0  0  0  0  0  0  0  0  0  # atno 17343 bound_to 10162
  157.7153  130.9489  150.1233 LP  0  0  0  0  0  0  0  0  0  0  0  0  # atno 17370 bound_to 10713
  156.2114  130.3667  149.8666 LP  0  0  0  0  0  0  0  0  0  0  0  0  # atno 17371 bound_to 10713
  139.8967  134.8652  156.2073 LP  0  0  0  0  0  0  0  0  0  0  0  0  # atno 17394 bound_to 11000
  141.0358  133.6964  156.1509 LP  0  0  0  0  0  0  0  0  0  0  0  0  # atno 17395 bound_to 11000

$$$$
