AV-unprocessed.smi:258|AV-procd|sdf|1967|dock6
  -GOLD-   2262021123D 1   1.00000     0.00000
 Structure written by MMmdl.
 57 60  0  0  0  0  0  0  0  0  1 V2000
  156.4887  139.8829  165.0365 O   0  0  0  0  0  0  0  0  0  0  0  0
  156.0189  139.3825  163.8027 C   0  0  0  0  0  0  0  0  0  0  0  0
  155.3328  140.4977  163.0042 C   0  0  0  0  0  0  0  0  0  0  0  0
  154.8876  139.9690  161.7633 O   0  0  0  0  0  0  0  0  0  0  0  0
  154.3172  140.9269  160.8813 C   0  0  2  0  0  0  0  0  0  0  0  0
  153.4063  141.9133  161.6388 C   0  0  0  0  0  0  0  0  0  0  0  0
  152.6917  142.8422  160.6463 C   0  0  0  0  0  0  0  0  0  0  0  0
  151.9162  142.0365  159.5918 C   0  0  0  0  0  0  0  0  0  0  0  0
  152.7859  141.0575  158.9368 N   0  0  0  0  0  0  0  0  0  0  0  0
  152.3562  140.5898  157.7353 C   0  0  0  0  0  0  0  0  0  0  0  0
  153.0826  139.5955  157.1605 N   0  0  0  0  0  0  0  0  0  0  0  0
  152.7171  139.0781  155.9849 C   0  0  0  0  0  0  0  0  0  0  0  0
  151.6740  139.4017  155.2202 N   0  0  0  0  0  0  0  0  0  0  0  0
  150.9388  140.4014  155.7845 C   0  0  0  0  0  0  0  0  0  0  0  0
  151.2035  141.0486  157.0269 C   0  0  0  0  0  0  0  0  0  0  0  0
  150.2375  142.0247  157.2539 N   0  0  0  0  0  0  0  0  0  0  0  0
  149.4476  141.9505  156.2188 C   0  0  0  0  0  0  0  0  0  0  0  0
  149.7905  140.9963  155.2905 N   0  0  0  0  0  0  0  0  0  0  0  0
  149.0860  140.7032  154.0541 C   0  0  0  0  0  0  0  0  0  0  0  0
  147.7268  139.9966  154.2804 C   0  0  1  0  0  0  0  0  0  0  0  0
  147.0870  139.6031  152.9281 C   0  0  0  0  0  0  0  0  0  0  0  0
  147.9498  138.7548  152.1992 O   0  0  0  0  0  0  0  0  0  0  0  0
  147.8299  138.8156  155.2864 C   0  0  2  0  0  0  0  0  0  0  0  0
  148.1904  139.1891  156.7209 C   0  0  0  0  0  0  0  0  0  0  0  0
  148.8963  137.9356  157.2168 C   0  0  0  0  0  0  0  0  0  0  0  0
  149.6591  137.5440  156.0880 O   0  0  0  0  0  0  0  0  0  0  0  0
  148.8582  137.7280  154.9259 C   0  0  0  0  0  0  0  0  0  0  0  0
  153.5042  140.1504  159.8305 C   0  0  0  0  0  0  0  0  0  0  0  0
  155.9826  140.6485  165.2624 H   0  0  0  0  0  0  0  0  0  0  0  0
  156.8813  139.0101  163.2493 H   0  0  0  0  0  0  0  0  0  0  0  0
  155.3482  138.5375  163.9625 H   0  0  0  0  0  0  0  0  0  0  0  0
  154.5205  140.9433  163.5790 H   0  0  0  0  0  0  0  0  0  0  0  0
  156.0589  141.2871  162.8051 H   0  0  0  0  0  0  0  0  0  0  0  0
  155.1075  141.4756  160.3651 H   0  0  0  0  0  0  0  0  0  0  0  0
  152.6686  141.3612  162.2224 H   0  0  0  0  0  0  0  0  0  0  0  0
  153.9798  142.5121  162.3456 H   0  0  0  0  0  0  0  0  0  0  0  0
  152.0132  143.5092  161.1787 H   0  0  0  0  0  0  0  0  0  0  0  0
  153.4257  143.4778  160.1495 H   0  0  0  0  0  0  0  0  0  0  0  0
  151.0894  141.5051  160.0646 H   0  0  0  0  0  0  0  0  0  0  0  0
  151.4738  142.7272  158.8737 H   0  0  0  0  0  0  0  0  0  0  0  0
  153.3506  138.2911  155.6031 H   0  0  0  0  0  0  0  0  0  0  0  0
  148.5851  142.5910  156.1045 H   0  0  0  0  0  0  0  0  0  0  0  0
  148.9421  141.6474  153.5279 H   0  0  0  0  0  0  0  0  0  0  0  0
  149.7280  140.0937  153.4173 H   0  0  0  0  0  0  0  0  0  0  0  0
  147.0603  140.7251  154.7456 H   0  0  0  0  0  0  0  0  0  0  0  0
  146.1366  139.0905  153.0752 H   0  0  0  0  0  0  0  0  0  0  0  0
  146.8840  140.4761  152.3094 H   0  0  0  0  0  0  0  0  0  0  0  0
  148.4708  139.2854  151.6158 H   0  0  0  0  0  0  0  0  0  0  0  0
  146.8675  138.3039  155.3213 H   0  0  0  0  0  0  0  0  0  0  0  0
  148.8860  140.0263  156.7575 H   0  0  0  0  0  0  0  0  0  0  0  0
  147.3214  139.4489  157.3256 H   0  0  0  0  0  0  0  0  0  0  0  0
  149.5274  138.1215  158.0861 H   0  0  0  0  0  0  0  0  0  0  0  0
  148.1784  137.1531  157.4681 H   0  0  0  0  0  0  0  0  0  0  0  0
  148.3518  136.7921  154.6861 H   0  0  0  0  0  0  0  0  0  0  0  0
  149.4865  137.9827  154.0730 H   0  0  0  0  0  0  0  0  0  0  0  0
  154.1805  139.5153  159.2568 H   0  0  0  0  0  0  0  0  0  0  0  0
  152.7850  139.4981  160.3274 H   0  0  0  0  0  0  0  0  0  0  0  0
  1  2  1  0  0  0  0
  1 29  1  0  0  0  0
  2  3  1  0  0  0  0
  2 30  1  0  0  0  0
  2 31  1  0  0  0  0
  3  4  1  0  0  0  0
  3 32  1  0  0  0  0
  3 33  1  0  0  0  0
  4  5  1  0  0  0  0
  5 28  1  0  0  0  0
  5  6  1  0  0  0  0
  5 34  1  0  0  0  0
  6  7  1  0  0  0  0
  6 35  1  0  0  0  0
  6 36  1  0  0  0  0
  7  8  1  0  0  0  0
  7 37  1  0  0  0  0
  7 38  1  0  0  0  0
  8  9  1  0  0  0  0
  8 39  1  0  0  0  0
  8 40  1  0  0  0  0
  9 10  1  0  0  0  0
  9 28  1  0  0  0  0
 10 15  1  0  0  0  0
 10 11  2  0  0  0  0
 11 12  1  0  0  0  0
 12 13  2  0  0  0  0
 12 41  1  0  0  0  0
 13 14  1  0  0  0  0
 14 18  1  0  0  0  0
 14 15  2  0  0  0  0
 15 16  1  0  0  0  0
 16 17  2  0  0  0  0
 17 18  1  0  0  0  0
 17 42  1  0  0  0  0
 18 19  1  0  0  0  0
 19 20  1  0  0  0  0
 19 43  1  0  0  0  0
 19 44  1  0  0  0  0
 20 21  1  0  0  0  0
 20 23  1  0  0  0  0
 20 45  1  0  0  0  0
 21 22  1  0  0  0  0
 21 46  1  0  0  0  0
 21 47  1  0  0  0  0
 22 48  1  0  0  0  0
 23 27  1  0  0  0  0
 23 24  1  0  0  0  0
 23 49  1  0  0  0  0
 24 25  1  0  0  0  0
 24 50  1  0  0  0  0
 24 51  1  0  0  0  0
 25 26  1  0  0  0  0
 25 52  1  0  0  0  0
 25 53  1  0  0  0  0
 26 27  1  0  0  0  0
 27 54  1  0  0  0  0
 27 55  1  0  0  0  0
 28 56  1  0  0  0  0
 28 57  1  0  0  0  0
M  END
> <s_m_source_file>
AV-unprocessed.smi

> <i_m_source_file_index>
258

> <i_lp_mmshare_version>
43012

> <i_f3d_flags>
0

> <s_epik_input>
W09IXVtDSDJdW0NIMl1PW0NAQEhdMVtDSDJdW0NIMl1bQ0gyXU4oW0NIMl0xKWMobltjSF1uMiljKGMyMyluW2NIXW4zW0NIMl1bQ0BIXShbQ0gyXVtPSF0pW0NAQEhdNFtDSDJdW0NIMl1PW0NIMl00

> <s_epik_cmdline>
J2VwaWtfcHl0aG9uJywgJy1waCcsICc3LjAnLCAnLXRuJywgJzgnLCAnLW1hJywgJzIwMCcsICctbWV0YWxfYmluZGluZycsICctaW1hZScsICc8aW5maWxlLm1hZT4nLCAnLW9tYWUnLCAnPG91dGZpbGUubWFlPic=

> <r_lp_tautomer_probability>
1

> <r_epik_Ionization_Penalty>
0.00349036

> <r_epik_Ionization_Penalty_Charging>
0

> <r_epik_Ionization_Penalty_Neutral>
0.00349036

> <r_epik_State_Penalty>
0.00229798

> <r_epik_Charging_Adjusted_Penalty>
0.00229798

> <i_epik_Tot_Q>
0

> <i_epik_Tot_abs_Q>
0

> <r_epik_Metal_State_Penalty>
-0

> <b_epik_Metal_Only>
0

> <s_lp_Force_Field>
OPLS_2005

> <r_lp_Energy>
47.4534

> <b_lp_Chiralities_Consistent>
1

> <s_lp_Variant>
AV-unprocessed.smi:258-3

> <Gold.Version>
5.8.1

> <Gold.Id.Protein>
6NUR|6NUR_protein|mol2

> <Gold.PLP.Fitness>
50.8531

> <Gold.PLP.PLP>
-42.6321

> <Gold.PLP.part.hbond>
-3.0000

> <Gold.PLP.part.metal>
0.0000

> <Gold.PLP.part.buried>
-0.9435

> <Gold.PLP.part.nonpolar>
-38.6231

> <Gold.PLP.part.repulsive>
0.1393

> <Gold.PLP.ligand.clash>
0.0000

> <Gold.PLP.ligand.torsion>
0.6094

> <Gold.PLP.Chemscore.Hbond>
2.0000

> <Gold.PLP.Chemscore.CHOScore>
0.9616

> <Gold.PLP.Chemscore.Metal>
0.0000

> <Gold.Chemscore.Hbonds>
donor molecule, donor type, donor heavy atom, donor atom, acceptor molecule, acceptor atom, score
      L1  H    22    48       P1  7957  0.68
      P1  H  7989  7998       L1    13  0.02
      P1  H  7997  8008       L1    11  1.00
      L1  C    17    42       P1  8028  0.80

> <Gold.PLP.Chemscore.Internal.Correction>
0.5549

> <Gold.Rescore>
     Score         DG    S(hbond)    S(metal)    S(lipo)     H(rot)  DE(clash)    DE(int)     intcor
      3.61     -10.85       1.32        0.00      94.39       3.94       1.78       5.45       ----

> <Gold.Chemscore.Fitness>
3.6105

> <Gold.Chemscore.DG>
-10.8485

> <Gold.Chemscore.ZeroCoef>
-5.4800

> <Gold.Chemscore.Hbond>
1.3174

> <Gold.Chemscore.Metal>
0.0000

> <Gold.Chemscore.Lipo>
94.3885

> <Gold.Chemscore.Internal_Hbond>
0.0000

> <Gold.Chemscore.DEClash>
1.7841

> <Gold.Chemscore.DEInternal>
5.4539

> <Gold.Chemscore.Rot>
3.9356

> <Gold.Chemscore.Internal.Correction>
   9.000000E+99

> <Gold.Chemscore.Hbonds>
donor molecule, donor type, donor heavy atom, donor atom, acceptor molecule, acceptor atom, score
      L1  H    22    48       P1  7957  0.66
      P1  H  7997  8008       L1    11  0.36

> <Gold.Chemscore.Hbond.Weighted>
-4.4001

> <Gold.Chemscore.Metal.Weighted>
-0.0000

> <Gold.Chemscore.Lipo.Weighted>
-11.0435

> <Gold.Chemscore.Internal_Hbond.Weighted>
0.0000

> <Gold.Chemscore.DEClash.Weighted>
1.7841

> <Gold.Chemscore.DEInternal.Weighted>
5.4539

> <Gold.Chemscore.Rot.Weighted>
10.0751

> <Gold.Chemscore.Internal.Correction.Weighted>
   9.000000E+99

> <Gold.Protein.RotatedTorsions>
[ 6907 6896 6895 6894 ] final  -34.81 input  -60.11 | X-H torsion
[ 7974 7965 7964 7962 ] final -169.01 input  175.53 | X-H torsion
[ 8008 7997 7996 7995 ] final  -82.00 input   59.86 | X-H torsion
[ 10167 10162 10161 10158 ] final -164.19 input  -65.29 | X-H torsion
[ 10718 10713 10712 10709 ] final   17.95 input   66.30 | X-H torsion
[ 10763 10752 10751 10750 ] final   59.09 input  -60.55 | X-H torsion
[ 11005 11000 10999 10996 ] final -122.70 input  -57.11 | X-H torsion

> <Gold.Protein.ActiveResidues>
 VAL166  LYS551  ARG553  GLY616  TRP617  ASP618  TYR619  PRO620  LYS621  CYS622 
 ASP623  PHE694  ASN695  SER759  ASP760  ASP761  ALA762  ILE779  LEU786  VAL792 
 PHE793  MET794  SER795  GLU796  ALA797  LYS798  CYS799  TRP800  GLU811  SER814 

> <Gold.Protein.RotatedAtoms>
  151.0479  134.9652  159.8195 H   0  0  0  0  0  0  0  0  0  0  0  0  # atno 6907 bound_to 6896
  152.5375  134.2575  159.8932 H   0  0  0  0  0  0  0  0  0  0  0  0  # atno 6908 bound_to 6896
  151.2589  133.4269  159.2649 H   0  0  0  0  0  0  0  0  0  0  0  0  # atno 6909 bound_to 6896
  144.7193  140.2285  143.6307 H   0  0  0  0  0  0  0  0  0  0  0  0  # atno 7974 bound_to 7965
  154.6041  140.0639  156.9408 H   0  0  0  0  0  0  0  0  0  0  0  0  # atno 8008 bound_to 7997
  155.2083  140.3320  155.4314 H   0  0  0  0  0  0  0  0  0  0  0  0  # atno 8009 bound_to 7997
  156.2336  140.1852  156.7161 H   0  0  0  0  0  0  0  0  0  0  0  0  # atno 8010 bound_to 7997
  139.6268  144.0516  152.1982 H   0  0  0  0  0  0  0  0  0  0  0  0  # atno 10167 bound_to 10162
  157.0894  130.6421  149.5845 H   0  0  0  0  0  0  0  0  0  0  0  0  # atno 10718 bound_to 10713
  152.9886  135.5583  154.5658 H   0  0  0  0  0  0  0  0  0  0  0  0  # atno 10763 bound_to 10752
  154.5068  135.2800  155.1378 H   0  0  0  0  0  0  0  0  0  0  0  0  # atno 10764 bound_to 10752
  154.2786  135.6349  153.5391 H   0  0  0  0  0  0  0  0  0  0  0  0  # atno 10765 bound_to 10752
  140.9975  134.0450  157.3578 H   0  0  0  0  0  0  0  0  0  0  0  0  # atno 11005 bound_to 11000
  145.8433  139.2140  143.1815 LP  0  0  0  0  0  0  0  0  0  0  0  0  # atno 17320 bound_to 7965
  146.0327  140.8242  142.9868 LP  0  0  0  0  0  0  0  0  0  0  0  0  # atno 17321 bound_to 7965
  140.0172  144.6180  150.7597 LP  0  0  0  0  0  0  0  0  0  0  0  0  # atno 17342 bound_to 10162
  140.7416  143.2820  151.3572 LP  0  0  0  0  0  0  0  0  0  0  0  0  # atno 17343 bound_to 10162
  155.9902  130.4952  150.7246 LP  0  0  0  0  0  0  0  0  0  0  0  0  # atno 17370 bound_to 10713
  157.4733  131.0895  151.0618 LP  0  0  0  0  0  0  0  0  0  0  0  0  # atno 17371 bound_to 10713
  139.9022  135.0168  156.7322 LP  0  0  0  0  0  0  0  0  0  0  0  0  # atno 17394 bound_to 11000
  140.6942  133.9363  155.7984 LP  0  0  0  0  0  0  0  0  0  0  0  0  # atno 17395 bound_to 11000

$$$$
