AV-unprocessed.smi:1701|AV-procd|sdf|6835|dock1
  -GOLD-   22720 8 13D 1   1.00000     0.00000
 Structure written by MMmdl.
 54 56  0  0  0  0  0  0  0  0  2 V2000
  151.3979  143.8840  157.2701 C   0  0  0  0  0  0  0  0  0  0  0  0
  151.1720  142.6350  156.4063 C   0  0  0  0  0  0  0  0  0  0  0  0
  151.0194  141.4113  157.1934 N   0  0  0  0  0  0  0  0  0  0  0  0
  151.2561  141.4615  158.6384 C   0  0  0  0  0  0  0  0  0  0  0  0
  152.7108  141.7995  158.9995 C   0  0  0  0  0  0  0  0  0  0  0  0
  150.4970  140.2331  156.6030 C   0  0  0  0  0  0  0  0  0  0  0  0
  150.1536  139.0962  157.3779 C   0  0  0  0  0  0  0  0  0  0  0  0
  149.6356  137.9523  156.7411 C   0  0  0  0  0  0  0  0  0  0  0  0
  149.4758  137.9621  155.3370 C   0  0  0  0  0  0  0  0  0  0  0  0
  148.9477  136.8828  154.5796 N   0  0  0  0  0  0  0  0  0  0  0  0
  148.1517  135.8753  154.9884 C   0  0  0  0  0  0  0  0  0  0  0  0
  147.7461  135.7234  156.1380 O   0  0  0  0  0  0  0  0  0  0  0  0
  147.8445  134.9912  154.0219 N   0  0  0  0  0  0  0  0  0  0  0  0
  147.0099  133.7916  154.1255 C   0  0  2  0  0  0  0  0  0  0  0  0
  147.7510  132.5160  153.7450 C   0  0  0  0  0  0  0  0  0  0  0  0
  146.6179  131.5250  153.4614 C   0  0  0  0  0  0  0  0  0  0  0  0
  145.4425  132.3262  153.0406 N   0  3  2  0  0  0  0  0  0  0  0  0
  144.8866  131.9360  151.7172 C   0  0  0  0  0  0  0  0  0  0  0  0
  143.9517  133.0255  151.1719 C   0  0  0  0  0  0  0  0  0  0  0  0
  144.7022  134.3518  150.9472 C   0  0  0  0  0  0  0  0  0  0  0  0
  145.9639  134.4715  151.8234 C   0  0  0  0  0  0  0  0  0  0  0  0
  145.7824  133.7699  153.1918 C   0  0  2  0  0  0  0  0  0  0  0  0
  149.8304  139.1389  154.6508 C   0  0  0  0  0  0  0  0  0  0  0  0
  150.3280  140.2356  155.2575 N   0  0  0  0  0  0  0  0  0  0  0  0
  151.4530  144.7755  156.6456 H   0  0  0  0  0  0  0  0  0  0  0  0
  152.3321  143.8207  157.8265 H   0  0  0  0  0  0  0  0  0  0  0  0
  150.5888  144.0312  157.9857 H   0  0  0  0  0  0  0  0  0  0  0  0
  150.3147  142.7729  155.7482 H   0  0  0  0  0  0  0  0  0  0  0  0
  152.0228  142.5122  155.7353 H   0  0  0  0  0  0  0  0  0  0  0  0
  150.5764  142.1747  159.1058 H   0  0  0  0  0  0  0  0  0  0  0  0
  151.0023  140.4938  159.0716 H   0  0  0  0  0  0  0  0  0  0  0  0
  152.8398  141.8236  160.0815 H   0  0  0  0  0  0  0  0  0  0  0  0
  153.0038  142.7755  158.6128 H   0  0  0  0  0  0  0  0  0  0  0  0
  153.4069  141.0615  158.6035 H   0  0  0  0  0  0  0  0  0  0  0  0
  150.2793  139.0702  158.4490 H   0  0  0  0  0  0  0  0  0  0  0  0
  149.3619  137.1011  157.3447 H   0  0  0  0  0  0  0  0  0  0  0  0
  149.2619  136.8368  153.6220 H   0  0  0  0  0  0  0  0  0  0  0  0
  148.2585  135.1603  153.1161 H   0  0  0  0  0  0  0  0  0  0  0  0
  146.6734  133.6769  155.1580 H   0  0  0  0  0  0  0  0  0  0  0  0
  148.3369  132.6746  152.8382 H   0  0  0  0  0  0  0  0  0  0  0  0
  148.4285  132.1691  154.5258 H   0  0  0  0  0  0  0  0  0  0  0  0
  146.9149  130.7769  152.7249 H   0  0  0  0  0  0  0  0  0  0  0  0
  146.3497  130.9919  154.3741 H   0  0  0  0  0  0  0  0  0  0  0  0
  145.6949  131.7680  151.0032 H   0  0  0  0  0  0  0  0  0  0  0  0
  144.3553  130.9894  151.8205 H   0  0  0  0  0  0  0  0  0  0  0  0
  143.4846  132.6997  150.2419 H   0  0  0  0  0  0  0  0  0  0  0  0
  143.1386  133.1819  151.8821 H   0  0  0  0  0  0  0  0  0  0  0  0
  144.9898  134.4466  149.8995 H   0  0  0  0  0  0  0  0  0  0  0  0
  144.0247  135.1817  151.1514 H   0  0  0  0  0  0  0  0  0  0  0  0
  146.8110  134.0258  151.3001 H   0  0  0  0  0  0  0  0  0  0  0  0
  146.2073  135.5267  151.9489 H   0  0  0  0  0  0  0  0  0  0  0  0
  144.9469  134.2554  153.6983 H   0  0  0  0  0  0  0  0  0  0  0  0
  149.7167  139.2041  153.5783 H   0  0  0  0  0  0  0  0  0  0  0  0
  144.7190  132.1426  153.7211 H   0  0  0  0  0  0  0  0  0  0  0  0
  1  2  1  0  0  0  0
  1 25  1  0  0  0  0
  1 26  1  0  0  0  0
  1 27  1  0  0  0  0
  2  3  1  0  0  0  0
  2 28  1  0  0  0  0
  2 29  1  0  0  0  0
  3  4  1  0  0  0  0
  3  6  1  0  0  0  0
  4  5  1  0  0  0  0
  4 30  1  0  0  0  0
  4 31  1  0  0  0  0
  5 32  1  0  0  0  0
  5 33  1  0  0  0  0
  5 34  1  0  0  0  0
  6 24  1  0  0  0  0
  6  7  2  0  0  0  0
  7  8  1  0  0  0  0
  7 35  1  0  0  0  0
  8  9  2  0  0  0  0
  8 36  1  0  0  0  0
  9 10  1  0  0  0  0
  9 23  1  0  0  0  0
 10 11  1  0  0  0  0
 10 37  1  0  0  0  0
 11 12  2  0  0  0  0
 11 13  1  0  0  0  0
 13 14  1  0  0  0  0
 13 38  1  0  0  0  0
 14 22  1  0  0  0  0
 14 15  1  0  0  0  0
 14 39  1  0  0  0  0
 15 16  1  0  0  0  0
 15 40  1  0  0  0  0
 15 41  1  0  0  0  0
 16 17  1  0  0  0  0
 16 42  1  0  0  0  0
 16 43  1  0  0  0  0
 17 22  1  0  0  0  0
 17 18  1  0  0  0  0
 17 54  1  0  0  0  0
 18 19  1  0  0  0  0
 18 44  1  0  0  0  0
 18 45  1  0  0  0  0
 19 20  1  0  0  0  0
 19 46  1  0  0  0  0
 19 47  1  0  0  0  0
 20 21  1  0  0  0  0
 20 48  1  0  0  0  0
 20 49  1  0  0  0  0
 21 22  1  0  0  0  0
 21 50  1  0  0  0  0
 21 51  1  0  0  0  0
 22 52  1  0  0  0  0
 23 24  2  0  0  0  0
 23 53  1  0  0  0  0
M  CHG  1  17   1
M  END
> <s_m_source_file>
AV-unprocessed.smi

> <i_m_source_file_index>
1701

> <i_lp_mmshare_version>
43012

> <i_f3d_flags>
0

> <s_epik_input>
W0NIM11bQ0gyXU4oW0NIMl1bQ0gzXSljMVtjSF1bY0hdYyhbY0hdbjEpW05IXUMoPU8pW05IXVtDQEhdKFtDSDJdW0NIMl0yKVtDQEBIXShOMjMpW0NIMl1bQ0gyXVtDSDJdW0NIMl0z

> <s_epik_cmdline>
J2VwaWtfcHl0aG9uJywgJy1waCcsICc3LjAnLCAnLXRuJywgJzgnLCAnLW1hJywgJzIwMCcsICctbWV0YWxfYmluZGluZycsICctaW1hZScsICc8aW5maWxlLm1hZT4nLCAnLW9tYWUnLCAnPG91dGZpbGUubWFlPic=

> <r_lp_tautomer_probability>
1

> <r_epik_Ionization_Penalty>
0.56662

> <r_epik_Ionization_Penalty_Charging>
0.000974069

> <r_epik_Ionization_Penalty_Neutral>
0.565646

> <r_epik_State_Penalty>
2.0247

> <r_epik_Charging_Adjusted_Penalty>
2.02568

> <i_epik_Tot_Q>
1

> <i_epik_Tot_abs_Q>
1

> <r_epik_Metal_State_Penalty>
1.51504

> <b_epik_Metal_Only>
0

> <s_lp_Force_Field>
OPLS_2005

> <r_lp_Energy>
59.1107

> <b_lp_Chiralities_Consistent>
1

> <s_lp_Variant>
AV-unprocessed.smi:1701-15

> <Gold.Version>
5.8.1

> <Gold.Id.Protein>
6NUR|6NUR_protein|mol2

> <Gold.PLP.Fitness>
45.3828

> <Gold.PLP.PLP>
-32.0212

> <Gold.PLP.part.hbond>
-3.0352

> <Gold.PLP.part.metal>
0.0000

> <Gold.PLP.part.buried>
-5.6587

> <Gold.PLP.part.nonpolar>
-23.8240

> <Gold.PLP.part.repulsive>
0.0803

> <Gold.PLP.ligand.clash>
0.0000

> <Gold.PLP.ligand.torsion>
0.2741

> <Gold.PLP.Chemscore.Hbond>
3.6209

> <Gold.PLP.Chemscore.CHOScore>
0.9878

> <Gold.PLP.Chemscore.Metal>
0.0000

> <Gold.Chemscore.Hbonds>
donor molecule, donor type, donor heavy atom, donor atom, acceptor molecule, acceptor atom, score
      L1  H    10    37       P1  7948  0.99
      L1  H    13    38       P1  7948  1.00
      L1  H    17    54       P1 10957  0.39
      P1  H  7989  7998       L1    24  0.28
      L1  C    23    53       P1  7957  0.94

> <Gold.PLP.Chemscore.Internal.Correction>
0.0837

> <Gold.Rescore>
     Score         DG    S(hbond)    S(metal)    S(lipo)     H(rot)  DE(clash)    DE(int)     intcor
     18.58     -20.44       2.34        0.00      89.20       1.28       0.47       1.40       ----

> <Gold.Chemscore.Fitness>
18.5805

> <Gold.Chemscore.DG>
-20.4442

> <Gold.Chemscore.ZeroCoef>
-5.4800

> <Gold.Chemscore.Hbond>
2.3396

> <Gold.Chemscore.Metal>
0.0000

> <Gold.Chemscore.Lipo>
89.1992

> <Gold.Chemscore.Internal_Hbond>
0.0000

> <Gold.Chemscore.DEClash>
0.4655

> <Gold.Chemscore.DEInternal>
1.3982

> <Gold.Chemscore.Rot>
1.2838

> <Gold.Chemscore.Internal.Correction>
   9.000000E+99

> <Gold.Chemscore.Hbonds>
donor molecule, donor type, donor heavy atom, donor atom, acceptor molecule, acceptor atom, score
      L1  H    10    37       P1  7948  0.91
      L1  H    13    38       P1  7948  0.93
      L1  H    17    54       P1 10957  0.02
      P1  H  7989  7998       L1    24  0.03

> <Gold.Chemscore.Hbond.Weighted>
-7.8144

> <Gold.Chemscore.Metal.Weighted>
-0.0000

> <Gold.Chemscore.Lipo.Weighted>
-10.4363

> <Gold.Chemscore.Internal_Hbond.Weighted>
0.0000

> <Gold.Chemscore.DEClash.Weighted>
0.4655

> <Gold.Chemscore.DEInternal.Weighted>
1.3982

> <Gold.Chemscore.Rot.Weighted>
3.2865

> <Gold.Chemscore.Internal.Correction.Weighted>
   9.000000E+99

> <Gold.Protein.RotatedTorsions>
[ 6907 6896 6895 6894 ] final  -49.68 input  -60.11 | X-H torsion
[ 7974 7965 7964 7962 ] final   34.48 input  175.53 | X-H torsion
[ 8008 7997 7996 7995 ] final   65.13 input   59.86 | X-H torsion
[ 10167 10162 10161 10158 ] final   37.15 input  -65.29 | X-H torsion
[ 10718 10713 10712 10709 ] final  -87.52 input   66.30 | X-H torsion
[ 10763 10752 10751 10750 ] final  162.23 input  -60.55 | X-H torsion
[ 11005 11000 10999 10996 ] final   -6.72 input  -57.11 | X-H torsion

> <Gold.Protein.ActiveResidues>
 VAL166  LYS551  ARG553  GLY616  TRP617  ASP618  TYR619  PRO620  LYS621  CYS622 
 ASP623  PHE694  ASN695  SER759  ASP760  ASP761  ALA762  ILE779  LEU786  VAL792 
 PHE793  MET794  SER795  GLU796  ALA797  LYS798  CYS799  TRP800  GLU811  SER814 

> <Gold.Protein.RotatedAtoms>
  150.8781  134.8168  159.7204 H   0  0  0  0  0  0  0  0  0  0  0  0  # atno 6907 bound_to 6896
  152.4760  134.4839  159.9684 H   0  0  0  0  0  0  0  0  0  0  0  0  # atno 6908 bound_to 6896
  151.4917  133.3485  159.2890 H   0  0  0  0  0  0  0  0  0  0  0  0  # atno 6909 bound_to 6896
  146.1350  139.6264  142.9201 H   0  0  0  0  0  0  0  0  0  0  0  0  # atno 7974 bound_to 7965
  155.6569  140.3497  155.4768 H   0  0  0  0  0  0  0  0  0  0  0  0  # atno 8008 bound_to 7997
  155.9801  140.1173  157.0757 H   0  0  0  0  0  0  0  0  0  0  0  0  # atno 8009 bound_to 7997
  154.4189  140.1140  156.5409 H   0  0  0  0  0  0  0  0  0  0  0  0  # atno 8010 bound_to 7997
  140.4060  144.1658  150.6136 H   0  0  0  0  0  0  0  0  0  0  0  0  # atno 10167 bound_to 10162
  155.9985  130.4803  150.4879 H   0  0  0  0  0  0  0  0  0  0  0  0  # atno 10718 bound_to 10713
  154.2752  135.2764  155.2721 H   0  0  0  0  0  0  0  0  0  0  0  0  # atno 10763 bound_to 10752
  154.5267  135.5741  153.6728 H   0  0  0  0  0  0  0  0  0  0  0  0  # atno 10764 bound_to 10752
  152.9938  135.6217  154.2908 H   0  0  0  0  0  0  0  0  0  0  0  0  # atno 10765 bound_to 10752
  140.7050  133.8957  155.8710 H   0  0  0  0  0  0  0  0  0  0  0  0  # atno 11005 bound_to 11000
  145.5176  141.0433  143.2453 LP  0  0  0  0  0  0  0  0  0  0  0  0  # atno 17320 bound_to 7965
  144.7730  139.6692  143.7187 LP  0  0  0  0  0  0  0  0  0  0  0  0  # atno 17321 bound_to 7965
  140.4689  143.2420  151.9117 LP  0  0  0  0  0  0  0  0  0  0  0  0  # atno 17342 bound_to 10162
  139.4783  144.5390  151.8555 LP  0  0  0  0  0  0  0  0  0  0  0  0  # atno 17343 bound_to 10162
  157.2878  131.0620  151.2155 LP  0  0  0  0  0  0  0  0  0  0  0  0  # atno 17370 bound_to 10713
  157.3178  130.6922  149.6252 LP  0  0  0  0  0  0  0  0  0  0  0  0  # atno 17371 bound_to 10713
  141.0132  134.0991  157.4199 LP  0  0  0  0  0  0  0  0  0  0  0  0  # atno 17394 bound_to 11000
  139.8886  135.0099  156.6633 LP  0  0  0  0  0  0  0  0  0  0  0  0  # atno 17395 bound_to 11000

$$$$
