AV-unprocessed.smi:1120|AV-procd|sdf|4818|dock8
  -GOLD-   22720 3373D 1   1.00000     0.00000
 Structure written by MMmdl.
 48 49  0  0  0  0  0  0  0  0  1 V2000
  152.0702  144.3817  159.5312 C   0  0  0  0  0  0  0  0  0  0  0  0
  151.6704  142.9904  159.0197 C   0  0  2  0  0  0  0  0  0  0  0  0
  152.7710  141.9491  159.2993 C   0  0  0  0  0  0  0  0  0  0  0  0
  152.3725  140.5556  158.7879 C   0  0  0  0  0  0  0  0  0  0  0  0
  152.0257  140.5828  157.2887 C   0  0  1  0  0  0  0  0  0  0  0  0
  151.5874  139.2488  156.8700 N   0  0  0  0  0  0  0  0  0  0  0  0
  151.9112  138.7125  155.2600 S   0  0  0  0  0  0  0  0  0  0  0  0
  152.9460  139.5932  154.6956 O   0  0  0  0  0  0  0  0  0  0  0  0
  152.1315  137.2594  155.3201 O   0  0  0  0  0  0  0  0  0  0  0  0
  150.2991  139.0185  154.4115 C   0  0  0  0  0  0  0  0  0  0  0  0
  149.1667  138.3144  155.1580 C   0  0  0  0  0  0  0  0  0  0  0  0
  148.8909  138.6507  156.3091 O   0  0  0  0  0  0  0  0  0  0  0  0
  148.5170  137.3451  154.4948 N   0  0  0  0  0  0  0  0  0  0  0  0
  147.3969  136.5756  155.0244 C   0  0  0  0  0  0  0  0  0  0  0  0
  147.6597  135.0621  154.9505 C   0  0  0  0  0  0  0  0  0  0  0  0
  147.0330  134.4295  153.7220 C   0  0  0  0  0  0  0  0  0  0  0  0
  146.0222  135.1010  153.0013 C   0  0  0  0  0  0  0  0  0  0  0  0
  145.4693  134.4664  151.8719 C   0  0  0  0  0  0  0  0  0  0  0  0
  145.9446  133.1917  151.5090 C   0  0  0  0  0  0  0  0  0  0  0  0
  146.9558  132.6050  152.2954 C   0  0  0  0  0  0  0  0  0  0  0  0
  147.4924  133.2045  153.3804 N   0  0  0  0  0  0  0  0  0  0  0  0
  150.9301  141.6270  156.9993 C   0  0  0  0  0  0  0  0  0  0  0  0
  151.3295  143.0180  157.5174 C   0  0  0  0  0  0  0  0  0  0  0  0
  152.9690  144.7447  159.0318 H   0  0  0  0  0  0  0  0  0  0  0  0
  152.2687  144.3639  160.6031 H   0  0  0  0  0  0  0  0  0  0  0  0
  151.2758  145.1076  159.3559 H   0  0  0  0  0  0  0  0  0  0  0  0
  150.7738  142.6865  159.5621 H   0  0  0  0  0  0  0  0  0  0  0  0
  153.7021  142.2582  158.8222 H   0  0  0  0  0  0  0  0  0  0  0  0
  152.9746  141.8995  160.3695 H   0  0  0  0  0  0  0  0  0  0  0  0
  153.1858  139.8520  158.9704 H   0  0  0  0  0  0  0  0  0  0  0  0
  151.5168  140.1936  159.3600 H   0  0  0  0  0  0  0  0  0  0  0  0
  152.9260  140.8452  156.7317 H   0  0  0  0  0  0  0  0  0  0  0  0
  150.6136  139.0819  157.1238 H   0  0  0  0  0  0  0  0  0  0  0  0
  150.1253  140.0945  154.3857 H   0  0  0  0  0  0  0  0  0  0  0  0
  150.3680  138.6661  153.3822 H   0  0  0  0  0  0  0  0  0  0  0  0
  148.8069  137.1366  153.5504 H   0  0  0  0  0  0  0  0  0  0  0  0
  147.1879  136.8803  156.0512 H   0  0  0  0  0  0  0  0  0  0  0  0
  146.5109  136.8259  154.4405 H   0  0  0  0  0  0  0  0  0  0  0  0
  148.7334  134.8699  154.9443 H   0  0  0  0  0  0  0  0  0  0  0  0
  147.2657  134.5657  155.8386 H   0  0  0  0  0  0  0  0  0  0  0  0
  145.6760  136.0781  153.3051 H   0  0  0  0  0  0  0  0  0  0  0  0
  144.6944  134.9488  151.2949 H   0  0  0  0  0  0  0  0  0  0  0  0
  145.5439  132.6753  150.6495 H   0  0  0  0  0  0  0  0  0  0  0  0
  147.3439  131.6284  152.0470 H   0  0  0  0  0  0  0  0  0  0  0  0
  150.7354  141.6871  155.9285 H   0  0  0  0  0  0  0  0  0  0  0  0
  149.9933  141.3214  157.4677 H   0  0  0  0  0  0  0  0  0  0  0  0
  150.5179  143.7221  157.3316 H   0  0  0  0  0  0  0  0  0  0  0  0
  152.1882  143.3815  156.9512 H   0  0  0  0  0  0  0  0  0  0  0  0
  1  2  1  0  0  0  0
  1 24  1  0  0  0  0
  1 25  1  0  0  0  0
  1 26  1  0  0  0  0
  2 23  1  0  0  0  0
  2  3  1  0  0  0  0
  2 27  1  0  0  0  0
  3  4  1  0  0  0  0
  3 28  1  0  0  0  0
  3 29  1  0  0  0  0
  4  5  1  0  0  0  0
  4 30  1  0  0  0  0
  4 31  1  0  0  0  0
  5  6  1  0  0  0  0
  5 22  1  0  0  0  0
  5 32  1  0  0  0  0
  6  7  1  0  0  0  0
  6 33  1  0  0  0  0
  7  8  2  0  0  0  0
  7  9  2  0  0  0  0
  7 10  1  0  0  0  0
 10 11  1  0  0  0  0
 10 34  1  0  0  0  0
 10 35  1  0  0  0  0
 11 12  2  0  0  0  0
 11 13  1  0  0  0  0
 13 14  1  0  0  0  0
 13 36  1  0  0  0  0
 14 15  1  0  0  0  0
 14 37  1  0  0  0  0
 14 38  1  0  0  0  0
 15 16  1  0  0  0  0
 15 39  1  0  0  0  0
 15 40  1  0  0  0  0
 16 21  1  0  0  0  0
 16 17  2  0  0  0  0
 17 18  1  0  0  0  0
 17 41  1  0  0  0  0
 18 19  2  0  0  0  0
 18 42  1  0  0  0  0
 19 20  1  0  0  0  0
 19 43  1  0  0  0  0
 20 21  2  0  0  0  0
 20 44  1  0  0  0  0
 22 23  1  0  0  0  0
 22 45  1  0  0  0  0
 22 46  1  0  0  0  0
 23 47  1  0  0  0  0
 23 48  1  0  0  0  0
M  END
> <s_m_source_file>
AV-unprocessed.smi

> <i_m_source_file_index>
1120

> <i_lp_mmshare_version>
43012

> <i_f3d_flags>
0

> <s_epik_input>
W0NIM11bQ0BASF0xW0NIMl1bQ0gyXVtDQEhdKFtDSDJdW0NIMl0xKVtOSF1TKD1PKSg9TylbQ0gyXUMoPU8pW05IXVtDSDJdW0NIMl1jMltjSF1bY0hdW2NIXVtjSF1uMg==

> <s_epik_cmdline>
J2VwaWtfcHl0aG9uJywgJy1waCcsICc3LjAnLCAnLXRuJywgJzgnLCAnLW1hJywgJzIwMCcsICctbWV0YWxfYmluZGluZycsICctaW1hZScsICc8aW5maWxlLm1hZT4nLCAnLW9tYWUnLCAnPG91dGZpbGUubWFlPic=

> <r_epik_Ionization_Penalty>
0.0216068

> <r_epik_Ionization_Penalty_Charging>
0

> <r_epik_Ionization_Penalty_Neutral>
0.0216068

> <r_epik_State_Penalty>
0.01735

> <r_epik_Charging_Adjusted_Penalty>
0.01735

> <i_epik_Tot_Q>
0

> <i_epik_Tot_abs_Q>
0

> <r_epik_Metal_State_Penalty>
0.0535325

> <b_epik_Metal_Only>
0

> <s_lp_Force_Field>
OPLS_2005

> <r_lp_Energy>
6.02559

> <b_lp_Chiralities_Consistent>
1

> <s_lp_Variant>
AV-unprocessed.smi:1120-1

> <Gold.Version>
5.8.1

> <Gold.Id.Protein>
6NUR|6NUR_protein|mol2

> <Gold.PLP.Fitness>
48.5501

> <Gold.PLP.PLP>
-38.8005

> <Gold.PLP.part.hbond>
-4.0000

> <Gold.PLP.part.metal>
0.0000

> <Gold.PLP.part.buried>
-3.6929

> <Gold.PLP.part.nonpolar>
-31.3971

> <Gold.PLP.part.repulsive>
0.2208

> <Gold.PLP.ligand.clash>
0.0000

> <Gold.PLP.ligand.torsion>
1.4072

> <Gold.PLP.Chemscore.Hbond>
3.1170

> <Gold.PLP.Chemscore.CHOScore>
0.9713

> <Gold.PLP.Chemscore.Metal>
0.0000

> <Gold.Chemscore.Hbonds>
donor molecule, donor type, donor heavy atom, donor atom, acceptor molecule, acceptor atom, score
      L1  H    13    36       P1  7948  1.00
      P1  H  7989  7998       L1     8  0.28
      P1  H  7997  8010       L1     8  0.99
      P1  H 10752 10765       L1     9  0.85
      L1  C    20    44       P1 10747  1.00

> <Gold.PLP.Chemscore.Internal.Correction>
0.2991

> <Gold.Rescore>
     Score         DG    S(hbond)    S(metal)    S(lipo)     H(rot)  DE(clash)    DE(int)     intcor
     17.94     -20.75       2.83        0.00      96.11       2.12       0.08       2.73       ----

> <Gold.Chemscore.Fitness>
17.9352

> <Gold.Chemscore.DG>
-20.7492

> <Gold.Chemscore.ZeroCoef>
-5.4800

> <Gold.Chemscore.Hbond>
2.8309

> <Gold.Chemscore.Metal>
0.0000

> <Gold.Chemscore.Lipo>
96.1068

> <Gold.Chemscore.Internal_Hbond>
0.0000

> <Gold.Chemscore.DEClash>
0.0824

> <Gold.Chemscore.DEInternal>
2.7316

> <Gold.Chemscore.Rot>
2.1213

> <Gold.Chemscore.Internal.Correction>
   9.000000E+99

> <Gold.Chemscore.Hbonds>
donor molecule, donor type, donor heavy atom, donor atom, acceptor molecule, acceptor atom, score
      L1  H    13    36       P1  7948  0.99
      P1  H  7989  7998       L1     8  0.06
      P1  H  7997  8010       L1     8  0.86
      P1  H 10752 10765       L1     9  0.83

> <Gold.Chemscore.Hbond.Weighted>
-9.4553

> <Gold.Chemscore.Metal.Weighted>
-0.0000

> <Gold.Chemscore.Lipo.Weighted>
-11.2445

> <Gold.Chemscore.Internal_Hbond.Weighted>
0.0000

> <Gold.Chemscore.DEClash.Weighted>
0.0824

> <Gold.Chemscore.DEInternal.Weighted>
2.7316

> <Gold.Chemscore.Rot.Weighted>
5.4305

> <Gold.Chemscore.Internal.Correction.Weighted>
   9.000000E+99

> <Gold.Protein.RotatedTorsions>
[ 6907 6896 6895 6894 ] final   21.64 input  -60.11 | X-H torsion
[ 7974 7965 7964 7962 ] final  149.13 input  175.53 | X-H torsion
[ 8008 7997 7996 7995 ] final   96.84 input   59.86 | X-H torsion
[ 10167 10162 10161 10158 ] final -113.82 input  -65.29 | X-H torsion
[ 10718 10713 10712 10709 ] final   93.47 input   66.30 | X-H torsion
[ 10763 10752 10751 10750 ] final -177.02 input  -60.55 | X-H torsion
[ 11005 11000 10999 10996 ] final   56.51 input  -57.11 | X-H torsion

> <Gold.Protein.ActiveResidues>
 VAL166  LYS551  ARG553  GLY616  TRP617  ASP618  TYR619  PRO620  LYS621  CYS622 
 ASP623  PHE694  ASN695  SER759  ASP760  ASP761  ALA762  ILE779  LEU786  VAL792 
 PHE793  MET794  SER795  GLU796  ALA797  LYS798  CYS799  TRP800  GLU811  SER814 

> <Gold.Protein.RotatedAtoms>
  151.9149  135.0323  160.0517 H   0  0  0  0  0  0  0  0  0  0  0  0  # atno 6907 bound_to 6896
  152.2248  133.5007  159.5191 H   0  0  0  0  0  0  0  0  0  0  0  0  # atno 6908 bound_to 6896
  150.7009  134.1211  159.4077 H   0  0  0  0  0  0  0  0  0  0  0  0  # atno 6909 bound_to 6896
  144.8461  139.6241  143.5995 H   0  0  0  0  0  0  0  0  0  0  0  0  # atno 7974 bound_to 7965
  156.0839  140.3267  155.7729 H   0  0  0  0  0  0  0  0  0  0  0  0  # atno 8008 bound_to 7997
  155.5107  140.0577  157.2941 H   0  0  0  0  0  0  0  0  0  0  0  0  # atno 8009 bound_to 7997
  154.4598  140.1961  156.0293 H   0  0  0  0  0  0  0  0  0  0  0  0  # atno 8010 bound_to 7997
  140.1077  143.4556  152.1772 H   0  0  0  0  0  0  0  0  0  0  0  0  # atno 10167 bound_to 10162
  157.6954  131.0479  150.4039 H   0  0  0  0  0  0  0  0  0  0  0  0  # atno 10718 bound_to 10713
  154.5652  135.2823  155.0880 H   0  0  0  0  0  0  0  0  0  0  0  0  # atno 10763 bound_to 10752
  154.2274  135.6380  153.5168 H   0  0  0  0  0  0  0  0  0  0  0  0  # atno 10764 bound_to 10752
  153.0041  135.5529  154.6259 H   0  0  0  0  0  0  0  0  0  0  0  0  # atno 10765 bound_to 10752
  140.0524  134.5718  155.9248 H   0  0  0  0  0  0  0  0  0  0  0  0  # atno 11005 bound_to 11000
  146.2745  139.6719  142.9272 LP  0  0  0  0  0  0  0  0  0  0  0  0  # atno 17320 bound_to 7965
  145.4594  141.0432  143.2760 LP  0  0  0  0  0  0  0  0  0  0  0  0  # atno 17321 bound_to 7965
  139.5636  144.7421  151.4084 LP  0  0  0  0  0  0  0  0  0  0  0  0  # atno 17342 bound_to 10162
  140.6943  143.7787  150.7302 LP  0  0  0  0  0  0  0  0  0  0  0  0  # atno 17343 bound_to 10162
  156.4430  130.3995  149.6685 LP  0  0  0  0  0  0  0  0  0  0  0  0  # atno 17370 bound_to 10713
  156.3862  130.7604  151.2601 LP  0  0  0  0  0  0  0  0  0  0  0  0  # atno 17371 bound_to 10713
  141.1936  133.6579  156.5557 LP  0  0  0  0  0  0  0  0  0  0  0  0  # atno 17394 bound_to 11000
  140.3897  134.7451  157.4713 LP  0  0  0  0  0  0  0  0  0  0  0  0  # atno 17395 bound_to 11000

$$$$
