AV-unprocessed.smi:2562|AV-procd|sdf|10048|dock5
  -GOLD-   2272014 93D 1   1.00000     0.00000
 Structure written by MMmdl.
 30 31  0  0  0  0  0  0  0  0  1 V2000
  151.9463  145.6045  160.0118 C   0  0  0  0  0  0  0  0  0  0  0  0
  151.9160  144.4156  160.9786 C   0  0  0  0  0  0  0  0  0  0  0  0
  152.4418  143.1218  160.3403 C   0  0  0  0  0  0  0  0  0  0  0  0
  151.7552  142.8099  159.0518 C   0  0  0  0  0  0  0  0  0  0  0  0
  150.7378  143.5505  158.6156 N   0  0  0  0  0  0  0  0  0  0  0  0
  150.4560  142.9677  157.4317 N   0  0  0  0  0  0  0  0  0  0  0  0
  151.2957  141.9489  157.2264 C   0  0  0  0  0  0  0  0  0  0  0  0
  151.2729  141.1147  155.9835 C   0  0  2  0  0  0  0  0  0  0  0  0
  149.9304  141.2211  155.2332 C   0  0  0  0  0  0  0  0  0  0  0  0
  149.9233  140.3278  154.0755 N   0  0  0  0  0  0  0  0  0  0  0  0
  150.2320  138.9527  154.4648 C   0  0  0  0  0  0  0  0  0  0  0  0
  151.5639  138.9012  155.2342 C   0  0  0  0  0  0  0  0  0  0  0  0
  151.4924  139.7587  156.3682 O   0  0  0  0  0  0  0  0  0  0  0  0
  152.1648  141.8039  158.2216 N   0  0  0  0  0  0  0  0  0  0  0  0
  149.7172  143.2851  156.8205 H   0  0  0  0  0  0  0  0  0  0  0  0
  151.5659  146.5059  160.4926 H   0  0  0  0  0  0  0  0  0  0  0  0
  151.3318  145.4120  159.1321 H   0  0  0  0  0  0  0  0  0  0  0  0
  152.9622  145.8107  159.6740 H   0  0  0  0  0  0  0  0  0  0  0  0
  152.5105  144.6565  161.8606 H   0  0  0  0  0  0  0  0  0  0  0  0
  150.8941  144.2614  161.3275 H   0  0  0  0  0  0  0  0  0  0  0  0
  153.5141  143.2050  160.1581 H   0  0  0  0  0  0  0  0  0  0  0  0
  152.3092  142.2844  161.0269 H   0  0  0  0  0  0  0  0  0  0  0  0
  152.0906  141.4454  155.3401 H   0  0  0  0  0  0  0  0  0  0  0  0
  149.1110  140.9613  155.9049 H   0  0  0  0  0  0  0  0  0  0  0  0
  149.7590  142.2491  154.9130 H   0  0  0  0  0  0  0  0  0  0  0  0
  149.0129  140.3586  153.6275 H   0  0  0  0  0  0  0  0  0  0  0  0
  149.4323  138.5553  155.0908 H   0  0  0  0  0  0  0  0  0  0  0  0
  150.2840  138.3159  153.5815 H   0  0  0  0  0  0  0  0  0  0  0  0
  151.7623  137.8843  155.5728 H   0  0  0  0  0  0  0  0  0  0  0  0
  152.3977  139.1913  154.5928 H   0  0  0  0  0  0  0  0  0  0  0  0
  1  2  1  0  0  0  0
  1 16  1  0  0  0  0
  1 17  1  0  0  0  0
  1 18  1  0  0  0  0
  2  3  1  0  0  0  0
  2 19  1  0  0  0  0
  2 20  1  0  0  0  0
  3  4  1  0  0  0  0
  3 21  1  0  0  0  0
  3 22  1  0  0  0  0
  4 14  1  0  0  0  0
  4  5  2  0  0  0  0
  5  6  1  0  0  0  0
  6 15  1  0  0  0  0
  6  7  1  0  0  0  0
  7  8  1  0  0  0  0
  7 14  2  0  0  0  0
  8 13  1  0  0  0  0
  8  9  1  0  0  0  0
  8 23  1  0  0  0  0
  9 10  1  0  0  0  0
  9 24  1  0  0  0  0
  9 25  1  0  0  0  0
 10 11  1  0  0  0  0
 10 26  1  0  0  0  0
 11 12  1  0  0  0  0
 11 27  1  0  0  0  0
 11 28  1  0  0  0  0
 12 13  1  0  0  0  0
 12 29  1  0  0  0  0
 12 30  1  0  0  0  0
M  END
> <s_m_source_file>
AV-unprocessed.smi

> <i_m_source_file_index>
2562

> <i_lp_mmshare_version>
43012

> <i_f3d_flags>
0

> <s_epik_input>
W0NIM11bQ0gyXVtDSDJdYzFuW25IXWMobjEpW0NAQEhdMltDSDJdW05IXVtDSDJdW0NIMl1PMg==

> <s_epik_cmdline>
J2VwaWtfcHl0aG9uJywgJy1waCcsICc3LjAnLCAnLXRuJywgJzgnLCAnLW1hJywgJzIwMCcsICctbWV0YWxfYmluZGluZycsICctaW1hZScsICc8aW5maWxlLm1hZT4nLCAnLW9tYWUnLCAnPG91dGZpbGUubWFlPic=

> <r_lp_tautomer_probability>
0.948284

> <r_epik_Ionization_Penalty>
0.982917

> <r_epik_Ionization_Penalty_Charging>
0

> <r_epik_Ionization_Penalty_Neutral>
0.982917

> <r_epik_State_Penalty>
1.68334

> <r_epik_Charging_Adjusted_Penalty>
1.68334

> <i_epik_Tot_Q>
0

> <i_epik_Tot_abs_Q>
0

> <r_epik_Metal_State_Penalty>
1.80323

> <b_epik_Metal_Only>
0

> <s_lp_Force_Field>
OPLS_2005

> <r_lp_Energy>
10.5925

> <b_lp_Chiralities_Consistent>
1

> <s_lp_Variant>
AV-unprocessed.smi:2562-7

> <Gold.Version>
5.8.1

> <Gold.Id.Protein>
6NUR|6NUR_protein|mol2

> <Gold.PLP.Fitness>
36.4746

> <Gold.PLP.PLP>
-32.8443

> <Gold.PLP.part.hbond>
-3.0000

> <Gold.PLP.part.metal>
0.0000

> <Gold.PLP.part.buried>
-4.5560

> <Gold.PLP.part.nonpolar>
-24.3642

> <Gold.PLP.part.repulsive>
0.1395

> <Gold.PLP.ligand.clash>
0.0000

> <Gold.PLP.ligand.torsion>
0.5791

> <Gold.PLP.Chemscore.Hbond>
1.5920

> <Gold.PLP.Chemscore.CHOScore>
0.0000

> <Gold.PLP.Chemscore.Metal>
0.0000

> <Gold.Chemscore.Hbonds>
donor molecule, donor type, donor heavy atom, donor atom, acceptor molecule, acceptor atom, score
      L1  H     6    15       P1  8028  0.99
      P1  H  7989  7998       L1    10  0.56

> <Gold.PLP.Chemscore.Internal.Correction>
0.0125

> <Gold.Rescore>
     Score         DG    S(hbond)    S(metal)    S(lipo)     H(rot)  DE(clash)    DE(int)     intcor
     10.73     -12.73       1.02        0.00      65.27       1.48       0.00       2.00       ----

> <Gold.Chemscore.Fitness>
10.7267

> <Gold.Chemscore.DG>
-12.7308

> <Gold.Chemscore.ZeroCoef>
-5.4800

> <Gold.Chemscore.Hbond>
1.0165

> <Gold.Chemscore.Metal>
0.0000

> <Gold.Chemscore.Lipo>
65.2687

> <Gold.Chemscore.Internal_Hbond>
0.0000

> <Gold.Chemscore.DEClash>
0.0015

> <Gold.Chemscore.DEInternal>
2.0027

> <Gold.Chemscore.Rot>
1.4769

> <Gold.Chemscore.Internal.Correction>
   9.000000E+99

> <Gold.Chemscore.Hbonds>
donor molecule, donor type, donor heavy atom, donor atom, acceptor molecule, acceptor atom, score
      L1  H     6    15       P1  8028  0.89
      P1  H  7989  7998       L1    10  0.01

> <Gold.Chemscore.Hbond.Weighted>
-3.3952

> <Gold.Chemscore.Metal.Weighted>
-0.0000

> <Gold.Chemscore.Lipo.Weighted>
-7.6364

> <Gold.Chemscore.Internal_Hbond.Weighted>
0.0000

> <Gold.Chemscore.DEClash.Weighted>
0.0015

> <Gold.Chemscore.DEInternal.Weighted>
2.0027

> <Gold.Chemscore.Rot.Weighted>
3.7808

> <Gold.Chemscore.Internal.Correction.Weighted>
   9.000000E+99

> <Gold.Protein.RotatedTorsions>
[ 6907 6896 6895 6894 ] final   79.38 input  -60.11 | X-H torsion
[ 7974 7965 7964 7962 ] final    3.94 input  175.53 | X-H torsion
[ 8008 7997 7996 7995 ] final  166.08 input   59.86 | X-H torsion
[ 10167 10162 10161 10158 ] final  111.96 input  -65.29 | X-H torsion
[ 10718 10713 10712 10709 ] final   -3.90 input   66.30 | X-H torsion
[ 10763 10752 10751 10750 ] final    8.73 input  -60.55 | X-H torsion
[ 11005 11000 10999 10996 ] final   99.57 input  -57.11 | X-H torsion

> <Gold.Protein.ActiveResidues>
 VAL166  LYS551  ARG553  GLY616  TRP617  ASP618  TYR619  PRO620  LYS621  CYS622 
 ASP623  PHE694  ASN695  SER759  ASP760  ASP761  ALA762  ILE779  LEU786  VAL792 
 PHE793  MET794  SER795  GLU796  ALA797  LYS798  CYS799  TRP800  GLU811  SER814 

> <Gold.Protein.RotatedAtoms>
  152.5196  134.3520  159.9254 H   0  0  0  0  0  0  0  0  0  0  0  0  # atno 6907 bound_to 6896
  151.3471  133.3933  159.2684 H   0  0  0  0  0  0  0  0  0  0  0  0  # atno 6908 bound_to 6896
  150.9757  134.9140  159.7872 H   0  0  0  0  0  0  0  0  0  0  0  0  # atno 6909 bound_to 6896
  146.2445  140.0609  142.8368 H   0  0  0  0  0  0  0  0  0  0  0  0  # atno 7974 bound_to 7965
  156.1748  140.1653  156.8382 H   0  0  0  0  0  0  0  0  0  0  0  0  # atno 8008 bound_to 7997
  154.5295  140.0760  156.8353 H   0  0  0  0  0  0  0  0  0  0  0  0  # atno 8009 bound_to 7997
  155.3436  140.3386  155.4241 H   0  0  0  0  0  0  0  0  0  0  0  0  # atno 8010 bound_to 7997
  139.6572  144.7129  151.1935 H   0  0  0  0  0  0  0  0  0  0  0  0  # atno 10167 bound_to 10162
  156.7693  130.5295  149.5770 H   0  0  0  0  0  0  0  0  0  0  0  0  # atno 10718 bound_to 10713
  153.2218  135.6882  153.7991 H   0  0  0  0  0  0  0  0  0  0  0  0  # atno 10763 bound_to 10752
  153.7187  135.3271  155.3263 H   0  0  0  0  0  0  0  0  0  0  0  0  # atno 10764 bound_to 10752
  154.8273  135.4608  154.1069 H   0  0  0  0  0  0  0  0  0  0  0  0  # atno 10765 bound_to 10752
  139.8771  134.9101  156.4625 H   0  0  0  0  0  0  0  0  0  0  0  0  # atno 11005 bound_to 11000
  145.0901  140.9278  143.4774 LP  0  0  0  0  0  0  0  0  0  0  0  0  # atno 17320 bound_to 7965
  145.0780  139.2981  143.5798 LP  0  0  0  0  0  0  0  0  0  0  0  0  # atno 17321 bound_to 7965
  140.7564  143.6053  150.8659 LP  0  0  0  0  0  0  0  0  0  0  0  0  # atno 17342 bound_to 10162
  139.9707  143.6060  152.2974 LP  0  0  0  0  0  0  0  0  0  0  0  0  # atno 17343 bound_to 10162
  156.1288  130.6163  151.0303 LP  0  0  0  0  0  0  0  0  0  0  0  0  # atno 17370 bound_to 10713
  157.6698  131.0864  150.7639 LP  0  0  0  0  0  0  0  0  0  0  0  0  # atno 17371 bound_to 10713
  140.8854  133.7887  155.9512 LP  0  0  0  0  0  0  0  0  0  0  0  0  # atno 17394 bound_to 11000
  140.8810  134.2611  157.5144 LP  0  0  0  0  0  0  0  0  0  0  0  0  # atno 17395 bound_to 11000

$$$$
