AV-unprocessed.smi:2151|AV-procd|sdf|8760|dock9
  -GOLD-   2272011533D 1   1.00000     0.00000
 Structure written by MMmdl.
 39 40  0  0  0  0  0  0  0  0  1 V2000
  150.1644  138.6638  154.6795 C   0  0  0  0  0  0  0  0  0  0  0  0
  150.0356  139.9039  155.5762 C   0  0  2  0  0  0  0  0  0  0  0  0
  150.6233  139.6067  156.8813 N   0  0  0  0  0  0  0  0  0  0  0  0
  151.9268  139.6768  157.1935 C   0  0  0  0  0  0  0  0  0  0  0  0
  152.8042  139.9756  156.3824 O   0  0  0  0  0  0  0  0  0  0  0  0
  152.2852  139.3489  158.6498 C   0  0  0  0  0  0  0  0  0  0  0  0
  152.8350  140.5012  159.3835 N   0  0  0  0  0  0  0  0  0  0  0  0
  152.2413  141.7563  159.1461 C   0  0  0  0  0  0  0  0  0  0  0  0
  152.6552  142.8885  159.7470 C   0  0  0  0  0  0  0  0  0  0  0  0
  151.9510  144.2176  159.5215 C   0  0  0  0  0  0  0  0  0  0  0  0
  152.5162  145.1881  160.2399 F   0  0  0  0  0  0  0  0  0  0  0  0
  152.0250  144.5568  158.2353 F   0  0  0  0  0  0  0  0  0  0  0  0
  150.6624  144.1438  159.8576 F   0  0  0  0  0  0  0  0  0  0  0  0
  153.7451  142.7549  160.6936 C   0  0  0  0  0  0  0  0  0  0  0  0
  154.3147  141.5594  160.9430 C   0  0  0  0  0  0  0  0  0  0  0  0
  153.8621  140.3394  160.2709 C   0  0  0  0  0  0  0  0  0  0  0  0
  154.3725  139.2407  160.4928 O   0  0  0  0  0  0  0  0  0  0  0  0
  148.5657  140.3443  155.7381 C   0  0  1  0  0  0  0  0  0  0  0  0
  148.3375  141.5025  156.7129 C   0  0  0  0  0  0  0  0  0  0  0  0
  147.0234  142.0615  156.2191 C   0  0  0  0  0  0  0  0  0  0  0  0
  147.1803  141.9299  154.7075 C   0  0  0  0  0  0  0  0  0  0  0  0
  148.0429  140.8144  154.4970 O   0  0  0  0  0  0  0  0  0  0  0  0
  149.7651  138.8552  153.6833 H   0  0  0  0  0  0  0  0  0  0  0  0
  149.6234  137.8132  155.0960 H   0  0  0  0  0  0  0  0  0  0  0  0
  151.2082  138.3710  154.5621 H   0  0  0  0  0  0  0  0  0  0  0  0
  150.5865  140.7147  155.0963 H   0  0  0  0  0  0  0  0  0  0  0  0
  149.9797  139.3480  157.6150 H   0  0  0  0  0  0  0  0  0  0  0  0
  151.4021  138.9670  159.1659 H   0  0  0  0  0  0  0  0  0  0  0  0
  152.9942  138.5199  158.6460 H   0  0  0  0  0  0  0  0  0  0  0  0
  151.4146  141.7380  158.4508 H   0  0  0  0  0  0  0  0  0  0  0  0
  154.1137  143.6288  161.2101 H   0  0  0  0  0  0  0  0  0  0  0  0
  155.1256  141.4975  161.6542 H   0  0  0  0  0  0  0  0  0  0  0  0
  147.9546  139.4965  156.0529 H   0  0  0  0  0  0  0  0  0  0  0  0
  148.3015  141.1837  157.7552 H   0  0  0  0  0  0  0  0  0  0  0  0
  149.1226  142.2531  156.6110 H   0  0  0  0  0  0  0  0  0  0  0  0
  146.1979  141.4395  156.5679 H   0  0  0  0  0  0  0  0  0  0  0  0
  146.8417  143.0867  156.5427 H   0  0  0  0  0  0  0  0  0  0  0  0
  146.2238  141.7951  154.2019 H   0  0  0  0  0  0  0  0  0  0  0  0
  147.6592  142.8186  154.2950 H   0  0  0  0  0  0  0  0  0  0  0  0
  1  2  1  0  0  0  0
  1 23  1  0  0  0  0
  1 24  1  0  0  0  0
  1 25  1  0  0  0  0
  2  3  1  0  0  0  0
  2 18  1  0  0  0  0
  2 26  1  0  0  0  0
  3  4  1  0  0  0  0
  3 27  1  0  0  0  0
  4  5  2  0  0  0  0
  4  6  1  0  0  0  0
  6  7  1  0  0  0  0
  6 28  1  0  0  0  0
  6 29  1  0  0  0  0
  7 16  1  0  0  0  0
  7  8  1  0  0  0  0
  8  9  2  0  0  0  0
  8 30  1  0  0  0  0
  9 10  1  0  0  0  0
  9 14  1  0  0  0  0
 10 11  1  0  0  0  0
 10 12  1  0  0  0  0
 10 13  1  0  0  0  0
 14 15  2  0  0  0  0
 14 31  1  0  0  0  0
 15 16  1  0  0  0  0
 15 32  1  0  0  0  0
 16 17  2  0  0  0  0
 18 22  1  0  0  0  0
 18 19  1  0  0  0  0
 18 33  1  0  0  0  0
 19 20  1  0  0  0  0
 19 34  1  0  0  0  0
 19 35  1  0  0  0  0
 20 21  1  0  0  0  0
 20 36  1  0  0  0  0
 20 37  1  0  0  0  0
 21 22  1  0  0  0  0
 21 38  1  0  0  0  0
 21 39  1  0  0  0  0
M  END
> <s_m_source_file>
AV-unprocessed.smi

> <i_m_source_file_index>
2151

> <i_lp_mmshare_version>
43012

> <i_f3d_flags>
0

> <s_epik_input>
TzFbQ0gyXVtDSDJdW0NIMl1bQ0BIXTFbQ0BIXShbQ0gzXSlbTkhdQyg9TylbQ0gyXW4yW2NIXWMoQyhGKShGKUYpW2NIXVtjSF1jMj1P

> <s_epik_cmdline>
J2VwaWtfcHl0aG9uJywgJy1waCcsICc3LjAnLCAnLXRuJywgJzgnLCAnLW1hJywgJzIwMCcsICctbWV0YWxfYmluZGluZycsICctaW1hZScsICc8aW5maWxlLm1hZT4nLCAnLW9tYWUnLCAnPG91dGZpbGUubWFlPic=

> <r_lp_tautomer_probability>
1

> <r_epik_Ionization_Penalty>
4.20109e-08

> <r_epik_Ionization_Penalty_Charging>
1.89977e-08

> <r_epik_Ionization_Penalty_Neutral>
2.30132e-08

> <r_epik_State_Penalty>
-0

> <r_epik_Charging_Adjusted_Penalty>
1.89977e-08

> <i_epik_Tot_Q>
0

> <i_epik_Tot_abs_Q>
0

> <r_epik_Metal_State_Penalty>
-0

> <b_epik_Metal_Only>
0

> <s_lp_Force_Field>
OPLS_2005

> <r_lp_Energy>
29.4657

> <b_lp_Chiralities_Consistent>
1

> <s_lp_Variant>
AV-unprocessed.smi:2151-3

> <Gold.Version>
5.8.1

> <Gold.Id.Protein>
6NUR|6NUR_protein|mol2

> <Gold.PLP.Fitness>
50.1536

> <Gold.PLP.PLP>
-48.5336

> <Gold.PLP.part.hbond>
-1.0000

> <Gold.PLP.part.metal>
0.0000

> <Gold.PLP.part.buried>
-6.5144

> <Gold.PLP.part.nonpolar>
-41.6740

> <Gold.PLP.part.repulsive>
1.3871

> <Gold.PLP.ligand.clash>
0.0000

> <Gold.PLP.ligand.torsion>
0.7263

> <Gold.PLP.Chemscore.Hbond>
1.0000

> <Gold.PLP.Chemscore.CHOScore>
0.0000

> <Gold.PLP.Chemscore.Metal>
0.0000

> <Gold.Chemscore.Hbonds>
donor molecule, donor type, donor heavy atom, donor atom, acceptor molecule, acceptor atom, score
      P1  H  7997  8008       L1     5  0.99

> <Gold.PLP.Chemscore.Internal.Correction>
0.0727

> <Gold.Rescore>
     Score         DG    S(hbond)    S(metal)    S(lipo)     H(rot)  DE(clash)    DE(int)     intcor
     13.62     -14.57       0.99        0.00      89.18       1.82       0.06       0.89       ----

> <Gold.Chemscore.Fitness>
13.6214

> <Gold.Chemscore.DG>
-14.5663

> <Gold.Chemscore.ZeroCoef>
-5.4800

> <Gold.Chemscore.Hbond>
0.9937

> <Gold.Chemscore.Metal>
0.0000

> <Gold.Chemscore.Lipo>
89.1790

> <Gold.Chemscore.Internal_Hbond>
0.0000

> <Gold.Chemscore.DEClash>
0.0555

> <Gold.Chemscore.DEInternal>
0.8894

> <Gold.Chemscore.Rot>
1.8228

> <Gold.Chemscore.Internal.Correction>
   9.000000E+99

> <Gold.Chemscore.Hbonds>
donor molecule, donor type, donor heavy atom, donor atom, acceptor molecule, acceptor atom, score
      P1  H  7997  8008       L1     5  0.93

> <Gold.Chemscore.Hbond.Weighted>
-3.3189

> <Gold.Chemscore.Metal.Weighted>
-0.0000

> <Gold.Chemscore.Lipo.Weighted>
-10.4339

> <Gold.Chemscore.Internal_Hbond.Weighted>
0.0000

> <Gold.Chemscore.DEClash.Weighted>
0.0555

> <Gold.Chemscore.DEInternal.Weighted>
0.8894

> <Gold.Chemscore.Rot.Weighted>
4.6665

> <Gold.Chemscore.Internal.Correction.Weighted>
   9.000000E+99

> <Gold.Protein.RotatedTorsions>
[ 6907 6896 6895 6894 ] final  -48.64 input  -60.11 | X-H torsion
[ 7974 7965 7964 7962 ] final  -87.71 input  175.53 | X-H torsion
[ 8008 7997 7996 7995 ] final  -28.58 input   59.86 | X-H torsion
[ 10167 10162 10161 10158 ] final  -98.93 input  -65.29 | X-H torsion
[ 10718 10713 10712 10709 ] final -156.59 input   66.30 | X-H torsion
[ 10763 10752 10751 10750 ] final  -72.17 input  -60.55 | X-H torsion
[ 11005 11000 10999 10996 ] final  -25.28 input  -57.11 | X-H torsion

> <Gold.Protein.ActiveResidues>
 VAL166  LYS551  ARG553  GLY616  TRP617  ASP618  TYR619  PRO620  LYS621  CYS622 
 ASP623  PHE694  ASN695  SER759  ASP760  ASP761  ALA762  ILE779  LEU786  VAL792 
 PHE793  MET794  SER795  GLU796  ALA797  LYS798  CYS799  TRP800  GLU811  SER814 

> <Gold.Protein.RotatedAtoms>
  150.8885  134.8285  159.7275 H   0  0  0  0  0  0  0  0  0  0  0  0  # atno 6907 bound_to 6896
  152.4822  134.4685  159.9638 H   0  0  0  0  0  0  0  0  0  0  0  0  # atno 6908 bound_to 6896
  151.4751  133.3521  159.2865 H   0  0  0  0  0  0  0  0  0  0  0  0  # atno 6909 bound_to 6896
  145.4629  140.9561  143.1959 H   0  0  0  0  0  0  0  0  0  0  0  0  # atno 7974 bound_to 7965
  154.4326  140.1841  156.1112 H   0  0  0  0  0  0  0  0  0  0  0  0  # atno 8008 bound_to 7997
  156.0216  140.3340  155.7019 H   0  0  0  0  0  0  0  0  0  0  0  0  # atno 8009 bound_to 7997
  155.5968  140.0636  157.2734 H   0  0  0  0  0  0  0  0  0  0  0  0  # atno 8010 bound_to 7997
  140.2678  143.3364  152.0564 H   0  0  0  0  0  0  0  0  0  0  0  0  # atno 10167 bound_to 10162
  156.5287  130.8511  151.2708 H   0  0  0  0  0  0  0  0  0  0  0  0  # atno 10718 bound_to 10713
  154.4419  135.5938  153.6135 H   0  0  0  0  0  0  0  0  0  0  0  0  # atno 10763 bound_to 10752
  152.9806  135.6000  154.3711 H   0  0  0  0  0  0  0  0  0  0  0  0  # atno 10764 bound_to 10752
  154.3562  135.2841  155.2324 H   0  0  0  0  0  0  0  0  0  0  0  0  # atno 10765 bound_to 10752
  140.8923  133.7580  156.0437 H   0  0  0  0  0  0  0  0  0  0  0  0  # atno 11005 bound_to 11000
  144.7992  139.6175  143.7079 LP  0  0  0  0  0  0  0  0  0  0  0  0  # atno 17320 bound_to 7965
  146.2441  139.6061  142.9472 LP  0  0  0  0  0  0  0  0  0  0  0  0  # atno 17321 bound_to 7965
  139.4997  144.6676  151.6319 LP  0  0  0  0  0  0  0  0  0  0  0  0  # atno 17342 bound_to 10162
  140.5914  143.9773  150.6327 LP  0  0  0  0  0  0  0  0  0  0  0  0  # atno 17343 bound_to 10162
  157.7425  130.9892  150.2523 LP  0  0  0  0  0  0  0  0  0  0  0  0  # atno 17370 bound_to 10713
  156.3081  130.3768  149.7687 LP  0  0  0  0  0  0  0  0  0  0  0  0  # atno 17371 bound_to 10713
  140.8331  134.3155  157.5341 LP  0  0  0  0  0  0  0  0  0  0  0  0  # atno 17394 bound_to 11000
  139.8731  134.9374  156.3687 LP  0  0  0  0  0  0  0  0  0  0  0  0  # atno 17395 bound_to 11000

$$$$
