#       Name:                AV-unprocessed.smi:148
#       Creating user name   scv26
#       Creation time:       Thu Mar 26 18:42:40 2020


#       File generated by GOLD software.
#

@<TRIPOS>MOLECULE
AV-unprocessed.smi:148
    73    77     1
SMALL
NO_CHARGES


@<TRIPOS>ATOM
      1 ****        -1.6174  -1.1229   6.1622 O.3            1 S1                 0.0000
      2 ****        -2.4863  -1.5540   5.1354 C.3            1 S1                 0.0000
      3 ****        -2.2309  -0.7621   3.8312 C.3            1 S1                 0.0000
      4 ****        -0.8256  -1.0925   3.2678 C.3            1 S1                 0.0000
      5 ****        -0.4742  -0.3067   2.0978 N.pl3          1 S1                 0.0000
      6 ****        -0.1468   1.0306   2.0763 C.2            1 S1                 0.0000
      7 ****         0.1357   1.5164   0.8979 N.2            1 S1                 0.0000
      8 ****        -0.0047   0.4289   0.0460 C.ar           1 S1                 0.0000
      9 ****         0.1568   0.2442  -1.3515 C.ar           1 S1                 0.0000
     10 ****         0.5173   1.2580  -2.1681 N.3            1 S1                 0.0000
     11 ****        -0.6059   1.6073  -3.0411 C.3            1 S1                 0.0000
     12 ****        -0.3511   2.9224  -3.7826 C.3            1 S1                 0.0000
     13 ****         0.9579   2.8273  -4.5666 C.3            1 S1                 0.0000
     14 ****         2.1063   2.4622  -3.6175 C.3            1 S1                 0.0000
     15 ****         1.8406   1.1565  -2.8189 C.3            1 S1                 0.0000
     16 ****         3.0178   0.8861  -1.8162 C.3            1 S1                 0.0000
     17 ****         4.4285   1.1354  -2.3821 C.3            1 S1                 0.0000
     18 ****         5.4055   0.4319  -1.4342 C.3            1 S1                 0.0000
     19 ****         4.5752  -0.5861  -0.6450 C.3            1 S1                 0.0000
     20 ****         3.1635  -0.5423  -1.2411 C.3            1 S1                 0.0000
     21 ****         3.0689  -1.5195  -2.2610 O.3            1 S1                 0.0000
     22 ****        -0.0733  -0.9939  -1.8641 N.ar           1 S1                 0.0000
     23 ****        -0.4259  -1.9947  -1.0513 C.ar           1 S1                 0.0000
     24 ****        -0.6042  -1.9726   0.2717 N.ar           1 S1                 0.0000
     25 ****        -0.3829  -0.7273   0.7827 C.ar           1 S1                 0.0000
     26 ****        -3.3485  -0.9339   2.7627 C.3            1 S1                 0.0000
     27 ****        -3.6801  -2.3559   2.3496 C.3            1 S1                 0.0000
     28 ****        -4.9998  -2.1548   1.6125 C.3            1 S1                 0.0000
     29 ****        -5.6503  -1.0725   2.2731 O.3            1 S1                 0.0000
     30 ****        -4.7345  -0.3952   3.1303 C.3            1 S1                 0.0000
     31 ****        -0.7272  -1.2978   5.8973 H              1 S1                 0.0000
     32 ****        -2.3450  -2.6238   4.9807 H              1 S1                 0.0000
     33 ****        -3.5022  -1.4163   5.5002 H              1 S1                 0.0000
     34 ****        -2.2302   0.2964   4.0963 H              1 S1                 0.0000
     35 ****        -0.0580  -0.9140   4.0212 H              1 S1                 0.0000
     36 ****        -0.7613  -2.1508   3.0124 H              1 S1                 0.0000
     37 ****        -0.1268   1.6388   2.9691 H              1 S1                 0.0000
     38 ****        -0.7694   0.8069  -3.7645 H              1 S1                 0.0000
     39 ****        -1.5214   1.6967  -2.4538 H              1 S1                 0.0000
     40 ****        -1.1801   3.1413  -4.4561 H              1 S1                 0.0000
     41 ****        -0.2992   3.7461  -3.0694 H              1 S1                 0.0000
     42 ****         0.8692   2.0721  -5.3486 H              1 S1                 0.0000
     43 ****         1.1671   3.7738  -5.0659 H              1 S1                 0.0000
     44 ****         3.0135   2.3745  -4.2143 H              1 S1                 0.0000
     45 ****         2.2710   3.2874  -2.9229 H              1 S1                 0.0000
     46 ****         1.7940   0.3410  -3.5417 H              1 S1                 0.0000
     47 ****         2.8973   1.5693  -0.9732 H              1 S1                 0.0000
     48 ****         4.5123   0.6893  -3.3742 H              1 S1                 0.0000
     49 ****         4.6614   2.1964  -2.4774 H              1 S1                 0.0000
     50 ****         6.2093  -0.0504  -1.9910 H              1 S1                 0.0000
     51 ****         5.8647   1.1487  -0.7526 H              1 S1                 0.0000
     52 ****         5.0112  -1.5861  -0.6652 H              1 S1                 0.0000
     53 ****         4.5347  -0.2773   0.4003 H              1 S1                 0.0000
     54 ****         2.4325  -0.7716  -0.4683 H              1 S1                 0.0000
     55 ****         2.1939  -1.4945  -2.6180 H              1 S1                 0.0000
     56 ****        -0.5853  -2.9502  -1.5288 H              1 S1                 0.0000
     57 ****        -3.0560  -0.3942   1.8613 H              1 S1                 0.0000
     58 ****        -2.9151  -2.8143   1.7234 H              1 S1                 0.0000
     59 ****        -3.8402  -2.9948   3.2180 H              1 S1                 0.0000
     60 ****        -4.8146  -1.8675   0.5766 H              1 S1                 0.0000
     61 ****        -5.6182  -3.0524   1.6096 H              1 S1                 0.0000
     62 ****        -5.0115  -0.6271   4.1570 H              1 S1                 0.0000
     63 ****        -4.8032   0.6854   3.0039 H              1 S1                 0.0000
     64 ****        -1.8213  -1.6188   7.0064 LP             1 S1                 0.0000
     65 ****        -1.7369  -0.1419   6.3148 LP             1 S1                 0.0000
     66 ****         0.3933   2.4537   0.6634 LP             1 S1                 0.0000
     67 ****         0.7052   2.0462  -1.5821 LP             1 S1                 0.0000
     68 ****         3.2520  -2.4253  -1.8788 LP             1 S1                 0.0000
     69 ****         3.7334  -1.3212  -2.9814 LP             1 S1                 0.0000
     70 ****         0.0210  -1.1553  -2.8464 LP             1 S1                 0.0000
     71 ****        -0.8666  -2.7678   0.8185 LP             1 S1                 0.0000
     72 ****        -6.4109  -1.4270   2.8170 LP             1 S1                 0.0000
     73 ****        -5.9994  -0.4309   1.5902 LP             1 S1                 0.0000
@<TRIPOS>BOND
    1    1    2 1     
    2    1   31 1     
    3    2    3 1     
    4    2   32 1     
    5    2   33 1     
    6    3    4 1     
    7    3   26 1     
    8    3   34 1     
    9    4    5 1     
   10    4   35 1     
   11    4   36 1     
   12    5   25 1     
   13    5    6 1     
   14    6    7 2     
   15    6   37 1     
   16    7    8 1     
   17    8   25 ar    
   18    8    9 ar    
   19    9   10 1     
   20    9   22 ar    
   21   10   15 1     
   22   10   11 1     
   23   11   12 1     
   24   11   38 1     
   25   11   39 1     
   26   12   13 1     
   27   12   40 1     
   28   12   41 1     
   29   13   14 1     
   30   13   42 1     
   31   13   43 1     
   32   14   15 1     
   33   14   44 1     
   34   14   45 1     
   35   15   16 1     
   36   15   46 1     
   37   16   20 1     
   38   16   17 1     
   39   16   47 1     
   40   17   18 1     
   41   17   48 1     
   42   17   49 1     
   43   18   19 1     
   44   18   50 1     
   45   18   51 1     
   46   19   20 1     
   47   19   52 1     
   48   19   53 1     
   49   20   21 1     
   50   20   54 1     
   51   21   55 1     
   52   22   23 ar    
   53   23   24 ar    
   54   23   56 1     
   55   24   25 ar    
   56   26   30 1     
   57   26   27 1     
   58   26   57 1     
   59   27   28 1     
   60   27   58 1     
   61   27   59 1     
   62   28   29 1     
   63   28   60 1     
   64   28   61 1     
   65   29   30 1     
   66   30   62 1     
   67   30   63 1     
   68    1   64 1     
   69    1   65 1     
   70    7   66 1     
   71   10   67 1     
   72   21   68 1     
   73   21   69 1     
   74   22   70 1     
   75   24   71 1     
   76   29   72 1     
   77   29   73 1     
@<TRIPOS>SUBSTRUCTURE
      1 S1             1
@<TRIPOS>SET
LONE_PAIRS      STATIC     ATOMS    <user>   **** ""
10 64 65 66 67 68 69 70 71 72 73
DONOR_HYDROGENS      STATIC     ATOMS    <user>   **** ""
2 31 55
ATOM$BLUE        STATIC     ATOMS    COLORGROUP SYSTEM
10 64 65 66 67 68 69 70 71 72 73
ATOM$RED        STATIC     ATOMS    COLORGROUP SYSTEM
2 31 55
