AV-unprocessed.smi:1406|AV-procd|sdf|5721|dock10
  -GOLD-   22720 5353D 1   1.00000     0.00000
 Structure written by MMmdl.
 41 43  0  0  0  0  0  0  0  0  2 V2000
  147.6644  140.7950  153.1079 C   0  0  0  0  0  0  0  0  0  0  0  0
  148.1866  141.7626  154.1890 C   0  0  2  0  0  0  0  0  0  0  0  0
  149.4619  141.2552  154.8821 C   0  0  0  0  0  0  0  0  0  0  0  0
  150.0165  140.2214  154.5073 O   0  0  0  0  0  0  0  0  0  0  0  0
  149.9272  142.0040  155.8948 N   0  0  0  0  0  0  0  0  0  0  0  0
  151.1094  141.6859  156.6904 C   0  0  2  0  0  0  0  0  0  0  0  0
  150.8718  140.5818  157.7127 C   0  0  0  0  0  0  0  0  0  0  0  0
  152.0346  140.7628  158.6946 C   0  0  0  0  0  0  0  0  0  0  0  0
  152.4419  142.1881  158.6219 N   0  3  2  0  0  0  0  0  0  0  0  0
  152.4497  142.8853  159.9364 C   0  0  0  0  0  0  0  0  0  0  0  0
  152.4630  144.4098  159.7508 C   0  0  0  0  0  0  0  0  0  0  0  0
  151.2010  144.8982  159.0148 C   0  0  0  0  0  0  0  0  0  0  0  0
  150.5716  143.8024  158.1330 C   0  0  0  0  0  0  0  0  0  0  0  0
  151.6427  142.8475  157.5505 C   0  0  2  0  0  0  0  0  0  0  0  0
  147.1600  142.0802  155.1740 N   0  0  0  0  0  0  0  0  0  0  0  0
  145.9671  142.6575  155.0152 C   0  0  0  0  0  0  0  0  0  0  0  0
  145.2943  142.8240  156.1451 N   0  0  0  0  0  0  0  0  0  0  0  0
  146.1946  142.2961  157.0265 C   0  0  0  0  0  0  0  0  0  0  0  0
  147.3324  141.8451  156.4988 N   0  0  0  0  0  0  0  0  0  0  0  0
  148.4223  140.6090  152.3462 H   0  0  0  0  0  0  0  0  0  0  0  0
  146.7923  141.2120  152.6037 H   0  0  0  0  0  0  0  0  0  0  0  0
  147.3724  139.8310  153.5269 H   0  0  0  0  0  0  0  0  0  0  0  0
  148.4472  142.6955  153.6861 H   0  0  0  0  0  0  0  0  0  0  0  0
  149.4185  142.8407  156.1409 H   0  0  0  0  0  0  0  0  0  0  0  0
  151.9049  141.3510  156.0208 H   0  0  0  0  0  0  0  0  0  0  0  0
  149.9240  140.7419  158.2291 H   0  0  0  0  0  0  0  0  0  0  0  0
  150.8481  139.5870  157.2665 H   0  0  0  0  0  0  0  0  0  0  0  0
  151.7600  140.4448  159.7012 H   0  0  0  0  0  0  0  0  0  0  0  0
  152.8854  140.1555  158.3841 H   0  0  0  0  0  0  0  0  0  0  0  0
  151.5693  142.6054  160.5177 H   0  0  0  0  0  0  0  0  0  0  0  0
  153.3208  142.5591  160.5054 H   0  0  0  0  0  0  0  0  0  0  0  0
  152.5508  144.9129  160.7143 H   0  0  0  0  0  0  0  0  0  0  0  0
  153.3492  144.6897  159.1794 H   0  0  0  0  0  0  0  0  0  0  0  0
  150.4573  145.2431  159.7342 H   0  0  0  0  0  0  0  0  0  0  0  0
  151.4590  145.7659  158.4065 H   0  0  0  0  0  0  0  0  0  0  0  0
  149.8609  143.2260  158.7269 H   0  0  0  0  0  0  0  0  0  0  0  0
  149.9907  144.2755  157.3410 H   0  0  0  0  0  0  0  0  0  0  0  0
  152.3228  143.4490  156.9453 H   0  0  0  0  0  0  0  0  0  0  0  0
  145.5828  142.9633  154.0532 H   0  0  0  0  0  0  0  0  0  0  0  0
  146.0078  142.2477  158.0893 H   0  0  0  0  0  0  0  0  0  0  0  0
  153.3957  142.1913  158.2892 H   0  0  0  0  0  0  0  0  0  0  0  0
  1  2  1  0  0  0  0
  1 20  1  0  0  0  0
  1 21  1  0  0  0  0
  1 22  1  0  0  0  0
  2  3  1  0  0  0  0
  2 15  1  0  0  0  0
  2 23  1  0  0  0  0
  3  4  2  0  0  0  0
  3  5  1  0  0  0  0
  5  6  1  0  0  0  0
  5 24  1  0  0  0  0
  6 14  1  0  0  0  0
  6  7  1  0  0  0  0
  6 25  1  0  0  0  0
  7  8  1  0  0  0  0
  7 26  1  0  0  0  0
  7 27  1  0  0  0  0
  8  9  1  0  0  0  0
  8 28  1  0  0  0  0
  8 29  1  0  0  0  0
  9 14  1  0  0  0  0
  9 10  1  0  0  0  0
  9 41  1  0  0  0  0
 10 11  1  0  0  0  0
 10 30  1  0  0  0  0
 10 31  1  0  0  0  0
 11 12  1  0  0  0  0
 11 32  1  0  0  0  0
 11 33  1  0  0  0  0
 12 13  1  0  0  0  0
 12 34  1  0  0  0  0
 12 35  1  0  0  0  0
 13 14  1  0  0  0  0
 13 36  1  0  0  0  0
 13 37  1  0  0  0  0
 14 38  1  0  0  0  0
 15 19  1  0  0  0  0
 15 16  1  0  0  0  0
 16 17  2  0  0  0  0
 16 39  1  0  0  0  0
 17 18  1  0  0  0  0
 18 19  2  0  0  0  0
 18 40  1  0  0  0  0
M  CHG  1   9   1
M  END
> <s_m_source_file>
AV-unprocessed.smi

> <i_m_source_file_index>
1406

> <i_lp_mmshare_version>
43012

> <i_f3d_flags>
0

> <s_epik_input>
bjFbY0hdbltjSF1uMVtDQEhdKFtDSDNdKUMoPU8pW05IXVtDQEhdKFtDSDJdW0NIMl0yKVtDQEBIXShOMjMpW0NIMl1bQ0gyXVtDSDJdW0NIMl0z

> <s_epik_cmdline>
J2VwaWtfcHl0aG9uJywgJy1waCcsICc3LjAnLCAnLXRuJywgJzgnLCAnLW1hJywgJzIwMCcsICctbWV0YWxfYmluZGluZycsICctaW1hZScsICc8aW5maWxlLm1hZT4nLCAnLW9tYWUnLCAnPG91dGZpbGUubWFlPic=

> <r_lp_tautomer_probability>
1

> <r_epik_Ionization_Penalty>
0.00197066

> <r_epik_Ionization_Penalty_Charging>
0.00196223

> <r_epik_Ionization_Penalty_Neutral>
8.43107e-06

> <r_epik_State_Penalty>
0.00133866

> <r_epik_Charging_Adjusted_Penalty>
0.00330089

> <i_epik_Tot_Q>
1

> <i_epik_Tot_abs_Q>
1

> <r_epik_Metal_State_Penalty>
-0

> <b_epik_Metal_Only>
0

> <s_lp_Force_Field>
OPLS_2005

> <r_lp_Energy>
46.3739

> <b_lp_Chiralities_Consistent>
1

> <s_lp_Variant>
AV-unprocessed.smi:1406-13

> <Gold.Version>
5.8.1

> <Gold.Id.Protein>
6NUR|6NUR_protein|mol2

> <Gold.PLP.Fitness>
41.8402

> <Gold.PLP.PLP>
-36.6443

> <Gold.PLP.part.hbond>
-2.0000

> <Gold.PLP.part.metal>
0.0000

> <Gold.PLP.part.buried>
-2.5633

> <Gold.PLP.part.nonpolar>
-31.9691

> <Gold.PLP.part.repulsive>
0.5323

> <Gold.PLP.ligand.clash>
0.0000

> <Gold.PLP.ligand.torsion>
0.3533

> <Gold.PLP.Chemscore.Hbond>
1.9360

> <Gold.PLP.Chemscore.CHOScore>
0.0000

> <Gold.PLP.Chemscore.Metal>
0.0000

> <Gold.Chemscore.Hbonds>
donor molecule, donor type, donor heavy atom, donor atom, acceptor molecule, acceptor atom, score
      L1  H     5    24       P1  8028  0.96
      P1  H  7989  7998       L1     4  0.99

> <Gold.PLP.Chemscore.Internal.Correction>
0.0946

> <Gold.Rescore>
     Score         DG    S(hbond)    S(metal)    S(lipo)     H(rot)  DE(clash)    DE(int)     intcor
     14.14     -16.48       1.47        0.00      93.42       1.89       0.50       1.84       ----

> <Gold.Chemscore.Fitness>
14.1434

> <Gold.Chemscore.DG>
-16.4800

> <Gold.Chemscore.ZeroCoef>
-5.4800

> <Gold.Chemscore.Hbond>
1.4668

> <Gold.Chemscore.Metal>
0.0000

> <Gold.Chemscore.Lipo>
93.4226

> <Gold.Chemscore.Internal_Hbond>
0.0000

> <Gold.Chemscore.DEClash>
0.5015

> <Gold.Chemscore.DEInternal>
1.8351

> <Gold.Chemscore.Rot>
1.8865

> <Gold.Chemscore.Internal.Correction>
   9.000000E+99

> <Gold.Chemscore.Hbonds>
donor molecule, donor type, donor heavy atom, donor atom, acceptor molecule, acceptor atom, score
      L1  H     5    24       P1  8028  0.88
      P1  H  7989  7998       L1     4  0.41

> <Gold.Chemscore.Hbond.Weighted>
-4.8991

> <Gold.Chemscore.Metal.Weighted>
-0.0000

> <Gold.Chemscore.Lipo.Weighted>
-10.9304

> <Gold.Chemscore.Internal_Hbond.Weighted>
0.0000

> <Gold.Chemscore.DEClash.Weighted>
0.5015

> <Gold.Chemscore.DEInternal.Weighted>
1.8351

> <Gold.Chemscore.Rot.Weighted>
4.8295

> <Gold.Chemscore.Internal.Correction.Weighted>
   9.000000E+99

> <Gold.Protein.RotatedTorsions>
[ 6907 6896 6895 6894 ] final  -25.62 input  -60.11 | X-H torsion
[ 7974 7965 7964 7962 ] final -121.54 input  175.53 | X-H torsion
[ 8008 7997 7996 7995 ] final  153.95 input   59.86 | X-H torsion
[ 10167 10162 10161 10158 ] final  -97.07 input  -65.29 | X-H torsion
[ 10718 10713 10712 10709 ] final  168.93 input   66.30 | X-H torsion
[ 10763 10752 10751 10750 ] final -103.12 input  -60.55 | X-H torsion
[ 11005 11000 10999 10996 ] final -141.34 input  -57.11 | X-H torsion

> <Gold.Protein.ActiveResidues>
 VAL166  LYS551  ARG553  GLY616  TRP617  ASP618  TYR619  PRO620  LYS621  CYS622 
 ASP623  PHE694  ASN695  SER759  ASP760  ASP761  ALA762  ILE779  LEU786  VAL792 
 PHE793  MET794  SER795  GLU796  ALA797  LYS798  CYS799  TRP800  GLU811  SER814 

> <Gold.Protein.RotatedAtoms>
  151.1725  135.0324  159.8757 H   0  0  0  0  0  0  0  0  0  0  0  0  # atno 6907 bound_to 6896
  152.5448  134.1154  159.8386 H   0  0  0  0  0  0  0  0  0  0  0  0  # atno 6908 bound_to 6896
  151.1261  133.5023  159.2633 H   0  0  0  0  0  0  0  0  0  0  0  0  # atno 6909 bound_to 6896
  145.0392  140.8130  143.4277 H   0  0  0  0  0  0  0  0  0  0  0  0  # atno 7974 bound_to 7965
  156.2556  140.1980  156.6569 H   0  0  0  0  0  0  0  0  0  0  0  0  # atno 8008 bound_to 7997
  154.6494  140.0574  156.9963 H   0  0  0  0  0  0  0  0  0  0  0  0  # atno 8009 bound_to 7997
  155.1442  140.3245  155.4448 H   0  0  0  0  0  0  0  0  0  0  0  0  # atno 8010 bound_to 7997
  140.2873  143.3244  152.0382 H   0  0  0  0  0  0  0  0  0  0  0  0  # atno 10167 bound_to 10162
  157.0301  131.0257  151.2747 H   0  0  0  0  0  0  0  0  0  0  0  0  # atno 10718 bound_to 10713
  154.7784  135.4835  153.9792 H   0  0  0  0  0  0  0  0  0  0  0  0  # atno 10763 bound_to 10752
  153.1460  135.6782  153.8962 H   0  0  0  0  0  0  0  0  0  0  0  0  # atno 10764 bound_to 10752
  153.8621  135.3154  155.3416 H   0  0  0  0  0  0  0  0  0  0  0  0  # atno 10765 bound_to 10752
  140.8334  134.2489  157.4846 H   0  0  0  0  0  0  0  0  0  0  0  0  # atno 11005 bound_to 11000
  145.1670  139.2426  143.5362 LP  0  0  0  0  0  0  0  0  0  0  0  0  # atno 17320 bound_to 7965
  146.3507  140.1411  142.8594 LP  0  0  0  0  0  0  0  0  0  0  0  0  # atno 17321 bound_to 7965
  139.4947  144.6550  151.6592 LP  0  0  0  0  0  0  0  0  0  0  0  0  # atno 17342 bound_to 10162
  140.5762  144.0024  150.6243 LP  0  0  0  0  0  0  0  0  0  0  0  0  # atno 17343 bound_to 10162
  157.5184  130.7983  149.7782 LP  0  0  0  0  0  0  0  0  0  0  0  0  # atno 17370 bound_to 10713
  156.0072  130.3850  150.2388 LP  0  0  0  0  0  0  0  0  0  0  0  0  # atno 17371 bound_to 10713
  139.8704  134.9598  156.4343 LP  0  0  0  0  0  0  0  0  0  0  0  0  # atno 17394 bound_to 11000
  140.8973  133.7804  155.9640 LP  0  0  0  0  0  0  0  0  0  0  0  0  # atno 17395 bound_to 11000

$$$$
