AV-unprocessed.smi:1419|AV-procd|sdf|5780|dock2
  -GOLD-   22720 5423D 1   1.00000     0.00000
 Structure written by MMmdl.
 41 42  0  0  0  0  0  0  0  0  1 V2000
  150.0798  144.5105  159.1913 C   0  0  0  0  0  0  0  0  0  0  0  0
  150.9997  143.2826  159.1679 C   0  0  2  0  0  0  0  0  0  0  0  0
  152.4674  143.6723  159.4448 C   0  0  0  0  0  0  0  0  0  0  0  0
  153.1164  142.7790  160.3879 N   0  0  0  0  0  0  0  0  0  0  0  0
  152.9285  142.7353  161.7633 C   0  0  0  0  0  0  0  0  0  0  0  0
  153.7619  141.7504  162.2430 C   0  0  0  0  0  0  0  0  0  0  0  0
  154.4608  141.1725  161.1861 N   0  0  0  0  0  0  0  0  0  0  0  0
  154.0240  141.8300  160.1196 C   0  0  0  0  0  0  0  0  0  0  0  0
  150.8829  142.6203  157.8691 N   0  0  0  0  0  0  0  0  0  0  0  0
  151.4160  141.4298  157.5413 C   0  0  0  0  0  0  0  0  0  0  0  0
  151.9776  140.7098  158.3680 O   0  0  0  0  0  0  0  0  0  0  0  0
  151.2807  141.0913  156.2356 N   0  0  0  0  0  0  0  0  0  0  0  0
  151.8328  139.8974  155.5813 C   0  0  0  0  0  0  0  0  0  0  0  0
  150.6830  138.8879  155.3871 C   0  0  2  0  0  0  0  0  0  0  0  0
  151.1417  137.6171  154.6648 C   0  0  0  0  0  0  0  0  0  0  0  0
  149.6540  139.4974  154.6072 O   0  0  0  0  0  0  0  0  0  0  0  0
  149.1263  140.6946  155.1793 C   0  0  2  0  0  0  0  0  0  0  0  0
  148.0289  141.2272  154.2521 C   0  0  0  0  0  0  0  0  0  0  0  0
  150.2732  141.7081  155.3706 C   0  0  0  0  0  0  0  0  0  0  0  0
  150.1211  145.0120  160.1586 H   0  0  0  0  0  0  0  0  0  0  0  0
  149.0419  144.2277  159.0118 H   0  0  0  0  0  0  0  0  0  0  0  0
  150.3646  145.2360  158.4283 H   0  0  0  0  0  0  0  0  0  0  0  0
  150.6628  142.6132  159.9614 H   0  0  0  0  0  0  0  0  0  0  0  0
  153.0422  143.6767  158.5174 H   0  0  0  0  0  0  0  0  0  0  0  0
  152.5180  144.6843  159.8487 H   0  0  0  0  0  0  0  0  0  0  0  0
  152.2430  143.3954  162.2739 H   0  0  0  0  0  0  0  0  0  0  0  0
  153.9102  141.4156  163.2590 H   0  0  0  0  0  0  0  0  0  0  0  0
  154.3804  141.6242  159.1210 H   0  0  0  0  0  0  0  0  0  0  0  0
  150.4187  143.1394  157.1384 H   0  0  0  0  0  0  0  0  0  0  0  0
  152.2531  140.1803  154.6149 H   0  0  0  0  0  0  0  0  0  0  0  0
  152.6518  139.4327  156.1301 H   0  0  0  0  0  0  0  0  0  0  0  0
  150.2717  138.6074  156.3581 H   0  0  0  0  0  0  0  0  0  0  0  0
  151.9209  137.1041  155.2289 H   0  0  0  0  0  0  0  0  0  0  0  0
  151.5398  137.8478  153.6762 H   0  0  0  0  0  0  0  0  0  0  0  0
  150.3120  136.9217  154.5361 H   0  0  0  0  0  0  0  0  0  0  0  0
  148.6801  140.4576  156.1471 H   0  0  0  0  0  0  0  0  0  0  0  0
  147.5847  142.1379  154.6543 H   0  0  0  0  0  0  0  0  0  0  0  0
  147.2314  140.4937  154.1319 H   0  0  0  0  0  0  0  0  0  0  0  0
  148.4244  141.4555  153.2620 H   0  0  0  0  0  0  0  0  0  0  0  0
  149.8880  142.6446  155.7767 H   0  0  0  0  0  0  0  0  0  0  0  0
  150.7233  141.9623  154.4096 H   0  0  0  0  0  0  0  0  0  0  0  0
  1  2  1  0  0  0  0
  1 20  1  0  0  0  0
  1 21  1  0  0  0  0
  1 22  1  0  0  0  0
  2  3  1  0  0  0  0
  2  9  1  0  0  0  0
  2 23  1  0  0  0  0
  3  4  1  0  0  0  0
  3 24  1  0  0  0  0
  3 25  1  0  0  0  0
  4  8  1  0  0  0  0
  4  5  1  0  0  0  0
  5  6  2  0  0  0  0
  5 26  1  0  0  0  0
  6  7  1  0  0  0  0
  6 27  1  0  0  0  0
  7  8  2  0  0  0  0
  8 28  1  0  0  0  0
  9 10  1  0  0  0  0
  9 29  1  0  0  0  0
 10 11  2  0  0  0  0
 10 12  1  0  0  0  0
 12 19  1  0  0  0  0
 12 13  1  0  0  0  0
 13 14  1  0  0  0  0
 13 30  1  0  0  0  0
 13 31  1  0  0  0  0
 14 15  1  0  0  0  0
 14 16  1  0  0  0  0
 14 32  1  0  0  0  0
 15 33  1  0  0  0  0
 15 34  1  0  0  0  0
 15 35  1  0  0  0  0
 16 17  1  0  0  0  0
 17 18  1  0  0  0  0
 17 19  1  0  0  0  0
 17 36  1  0  0  0  0
 18 37  1  0  0  0  0
 18 38  1  0  0  0  0
 18 39  1  0  0  0  0
 19 40  1  0  0  0  0
 19 41  1  0  0  0  0
M  END
> <s_m_source_file>
AV-unprocessed.smi

> <i_m_source_file_index>
1419

> <i_lp_mmshare_version>
43012

> <i_f3d_flags>
0

> <s_epik_input>
W2NIXTFuW2NIXVtjSF1uMVtDSDJdW0NAQEhdKFtDSDNdKVtOSF1DKD1PKU4yW0NIMl1bQ0BASF0oW0NIM10pT1tDQEBIXShbQ0gzXSlbQ0gyXTI=

> <s_epik_cmdline>
J2VwaWtfcHl0aG9uJywgJy1waCcsICc3LjAnLCAnLXRuJywgJzgnLCAnLW1hJywgJzIwMCcsICctbWV0YWxfYmluZGluZycsICctaW1hZScsICc8aW5maWxlLm1hZT4nLCAnLW9tYWUnLCAnPG91dGZpbGUubWFlPic=

> <r_lp_tautomer_probability>
1

> <r_epik_Ionization_Penalty>
0.625124

> <r_epik_Ionization_Penalty_Charging>
0.625093

> <r_epik_Ionization_Penalty_Neutral>
3.17415e-05

> <r_epik_State_Penalty>
0.641455

> <r_epik_Charging_Adjusted_Penalty>
1.26655

> <i_epik_Tot_Q>
0

> <i_epik_Tot_abs_Q>
0

> <r_epik_Metal_State_Penalty>
0.307717

> <b_epik_Metal_Only>
0

> <s_lp_Force_Field>
OPLS_2005

> <r_lp_Energy>
27.7679

> <b_lp_Chiralities_Consistent>
1

> <s_lp_Variant>
AV-unprocessed.smi:1419-7

> <Gold.Version>
5.8.1

> <Gold.Id.Protein>
6NUR|6NUR_protein|mol2

> <Gold.PLP.Fitness>
40.2222

> <Gold.PLP.PLP>
-42.8180

> <Gold.PLP.part.hbond>
-0.5398

> <Gold.PLP.part.metal>
0.0000

> <Gold.PLP.part.buried>
-4.9905

> <Gold.PLP.part.nonpolar>
-37.1610

> <Gold.PLP.part.repulsive>
0.1484

> <Gold.PLP.ligand.clash>
0.7667

> <Gold.PLP.ligand.torsion>
0.9543

> <Gold.PLP.Chemscore.Hbond>
0.0000

> <Gold.PLP.Chemscore.CHOScore>
0.0000

> <Gold.PLP.Chemscore.Metal>
0.0000

> <Gold.PLP.Chemscore.Internal.Correction>
0.0795

> <Gold.Rescore>
     Score         DG    S(hbond)    S(metal)    S(lipo)     H(rot)  DE(clash)    DE(int)     intcor
     11.19     -12.06       0.00        0.00      90.76       1.58       0.11       0.76       ----

> <Gold.Chemscore.Fitness>
11.1862

> <Gold.Chemscore.DG>
-12.0620

> <Gold.Chemscore.ZeroCoef>
-5.4800

> <Gold.Chemscore.Hbond>
0.0000

> <Gold.Chemscore.Metal>
0.0000

> <Gold.Chemscore.Lipo>
90.7595

> <Gold.Chemscore.Internal_Hbond>
0.0000

> <Gold.Chemscore.DEClash>
0.1113

> <Gold.Chemscore.DEInternal>
0.7644

> <Gold.Chemscore.Rot>
1.5769

> <Gold.Chemscore.Internal.Correction>
   9.000000E+99

> <Gold.Chemscore.Hbond.Weighted>
-0.0000

> <Gold.Chemscore.Metal.Weighted>
-0.0000

> <Gold.Chemscore.Lipo.Weighted>
-10.6189

> <Gold.Chemscore.Internal_Hbond.Weighted>
0.0000

> <Gold.Chemscore.DEClash.Weighted>
0.1113

> <Gold.Chemscore.DEInternal.Weighted>
0.7644

> <Gold.Chemscore.Rot.Weighted>
4.0369

> <Gold.Chemscore.Internal.Correction.Weighted>
   9.000000E+99

> <Gold.Protein.RotatedTorsions>
[ 6907 6896 6895 6894 ] final   -0.84 input  -60.11 | X-H torsion
[ 7974 7965 7964 7962 ] final  154.14 input  175.53 | X-H torsion
[ 8008 7997 7996 7995 ] final -163.65 input   59.86 | X-H torsion
[ 10167 10162 10161 10158 ] final -164.90 input  -65.29 | X-H torsion
[ 10718 10713 10712 10709 ] final  -24.19 input   66.30 | X-H torsion
[ 10763 10752 10751 10750 ] final  -46.93 input  -60.55 | X-H torsion
[ 11005 11000 10999 10996 ] final  126.39 input  -57.11 | X-H torsion

> <Gold.Protein.ActiveResidues>
 VAL166  LYS551  ARG553  GLY616  TRP617  ASP618  TYR619  PRO620  LYS621  CYS622 
 ASP623  PHE694  ASN695  SER759  ASP760  ASP761  ALA762  ILE779  LEU786  VAL792 
 PHE793  MET794  SER795  GLU796  ALA797  LYS798  CYS799  TRP800  GLU811  SER814 

> <Gold.Protein.RotatedAtoms>
  151.5557  135.1066  159.9960 H   0  0  0  0  0  0  0  0  0  0  0  0  # atno 6907 bound_to 6896
  152.4470  133.7552  159.6727 H   0  0  0  0  0  0  0  0  0  0  0  0  # atno 6908 bound_to 6896
  150.8389  133.7901  159.3093 H   0  0  0  0  0  0  0  0  0  0  0  0  # atno 6909 bound_to 6896
  144.8108  139.6894  143.6142 H   0  0  0  0  0  0  0  0  0  0  0  0  # atno 7974 bound_to 7965
  155.8244  140.0924  157.1830 H   0  0  0  0  0  0  0  0  0  0  0  0  # atno 8008 bound_to 7997
  154.3979  140.1431  156.3598 H   0  0  0  0  0  0  0  0  0  0  0  0  # atno 8009 bound_to 7997
  155.8233  140.3445  155.5530 H   0  0  0  0  0  0  0  0  0  0  0  0  # atno 8010 bound_to 7997
  139.6219  144.0608  152.1940 H   0  0  0  0  0  0  0  0  0  0  0  0  # atno 10167 bound_to 10162
  156.4810  130.4545  149.6812 H   0  0  0  0  0  0  0  0  0  0  0  0  # atno 10718 bound_to 10713
  154.0531  135.6628  153.4802 H   0  0  0  0  0  0  0  0  0  0  0  0  # atno 10763 bound_to 10752
  153.0456  135.5117  154.7732 H   0  0  0  0  0  0  0  0  0  0  0  0  # atno 10764 bound_to 10752
  154.6744  135.3035  154.9664 H   0  0  0  0  0  0  0  0  0  0  0  0  # atno 10765 bound_to 10752
  139.9453  134.9630  156.8699 H   0  0  0  0  0  0  0  0  0  0  0  0  # atno 11005 bound_to 11000
  146.2406  139.5994  142.9494 LP  0  0  0  0  0  0  0  0  0  0  0  0  # atno 17320 bound_to 7965
  145.5329  141.0426  143.2373 LP  0  0  0  0  0  0  0  0  0  0  0  0  # atno 17321 bound_to 7965
  140.0252  144.6123  150.7534 LP  0  0  0  0  0  0  0  0  0  0  0  0  # atno 17342 bound_to 10162
  140.7387  143.2782  151.3678 LP  0  0  0  0  0  0  0  0  0  0  0  0  # atno 17343 bound_to 10162
  156.3522  130.7438  151.2399 LP  0  0  0  0  0  0  0  0  0  0  0  0  # atno 17370 bound_to 10713
  157.7483  131.0374  150.4453 LP  0  0  0  0  0  0  0  0  0  0  0  0  # atno 17371 bound_to 10713
  140.5849  134.0317  155.7478 LP  0  0  0  0  0  0  0  0  0  0  0  0  # atno 17394 bound_to 11000
  141.1102  133.9629  157.2924 LP  0  0  0  0  0  0  0  0  0  0  0  0  # atno 17395 bound_to 11000

$$$$
