AV-unprocessed.smi:1691|AV-procd|sdf|6774|dock1
  -GOLD-   22720 7533D 1   1.00000     0.00000
 Structure written by MMmdl.
 44 45  0  0  0  0  0  0  0  0  2 V2000
  147.4042  141.8823  154.1361 C   0  0  0  0  0  0  0  0  0  0  0  0
  148.2546  140.8248  154.8662 C   0  0  0  0  0  0  0  0  0  0  0  0
  149.6396  141.4286  155.1752 C   0  0  0  0  0  0  0  0  0  0  0  0
  148.3666  139.4845  154.0810 C   0  0  2  0  0  0  0  0  0  0  0  0
  147.0060  138.7379  153.9754 C   0  0  0  0  0  0  0  0  0  0  0  0
  147.0332  137.6177  153.0390 N   0  0  0  0  0  0  0  0  0  0  0  0
  145.9581  137.0045  152.5240 C   0  0  0  0  0  0  0  0  0  0  0  0
  144.7992  137.3249  152.7864 O   0  0  0  0  0  0  0  0  0  0  0  0
  146.3149  136.0012  151.7063 N   0  0  0  0  0  0  0  0  0  0  0  0
  145.4533  135.1213  151.0049 C   0  0  0  0  0  0  0  0  0  0  0  0
  145.5945  133.7234  150.7619 C   0  0  0  0  0  0  0  0  0  0  0  0
  144.5724  133.2531  150.0616 N   0  0  0  0  0  0  0  0  0  0  0  0
  143.7826  134.3311  149.8574 N   0  0  0  0  0  0  0  0  0  0  0  0
  144.2808  135.4881  150.4147 C   0  0  0  0  0  0  0  0  0  0  0  0
  149.4752  138.6545  154.6511 N   0  3  0  0  0  0  0  0  0  0  0  0
  149.0953  137.3284  155.1995 C   0  0  0  0  0  0  0  0  0  0  0  0
  150.2844  136.7163  155.9578 C   0  0  0  0  0  0  0  0  0  0  0  0
  151.4101  136.6295  155.0914 O   0  0  0  0  0  0  0  0  0  0  0  0
  151.8319  137.9074  154.6287 C   0  0  0  0  0  0  0  0  0  0  0  0
  150.7006  138.5636  153.8197 C   0  0  0  0  0  0  0  0  0  0  0  0
  142.9166  134.2615  149.3420 H   0  0  0  0  0  0  0  0  0  0  0  0
  147.7707  142.0582  153.1242 H   0  0  0  0  0  0  0  0  0  0  0  0
  147.4258  142.8364  154.6639 H   0  0  0  0  0  0  0  0  0  0  0  0
  146.3562  141.5914  154.0717 H   0  0  0  0  0  0  0  0  0  0  0  0
  147.7651  140.6292  155.8207 H   0  0  0  0  0  0  0  0  0  0  0  0
  150.2042  141.6124  154.2606 H   0  0  0  0  0  0  0  0  0  0  0  0
  150.2378  140.7775  155.8126 H   0  0  0  0  0  0  0  0  0  0  0  0
  149.5454  142.3796  155.7004 H   0  0  0  0  0  0  0  0  0  0  0  0
  148.6605  139.7554  153.0656 H   0  0  0  0  0  0  0  0  0  0  0  0
  146.6702  138.4293  154.9665 H   0  0  0  0  0  0  0  0  0  0  0  0
  146.2364  139.4089  153.5970 H   0  0  0  0  0  0  0  0  0  0  0  0
  147.9444  137.2870  152.7563 H   0  0  0  0  0  0  0  0  0  0  0  0
  147.3037  135.8445  151.5772 H   0  0  0  0  0  0  0  0  0  0  0  0
  146.3793  133.0431  151.0576 H   0  0  0  0  0  0  0  0  0  0  0  0
  143.7727  136.4384  150.3430 H   0  0  0  0  0  0  0  0  0  0  0  0
  148.2425  137.4247  155.8710 H   0  0  0  0  0  0  0  0  0  0  0  0
  148.7989  136.6536  154.3982 H   0  0  0  0  0  0  0  0  0  0  0  0
  150.5326  137.3107  156.8388 H   0  0  0  0  0  0  0  0  0  0  0  0
  150.0311  135.7159  156.3091 H   0  0  0  0  0  0  0  0  0  0  0  0
  152.1226  138.5351  155.4726 H   0  0  0  0  0  0  0  0  0  0  0  0
  152.7172  137.7835  154.0044 H   0  0  0  0  0  0  0  0  0  0  0  0
  150.5168  137.9773  152.9208 H   0  0  0  0  0  0  0  0  0  0  0  0
  151.0115  139.5584  153.4992 H   0  0  0  0  0  0  0  0  0  0  0  0
  149.7748  139.1869  155.4555 H   0  0  0  0  0  0  0  0  0  0  0  0
  1  2  1  0  0  0  0
  1 22  1  0  0  0  0
  1 23  1  0  0  0  0
  1 24  1  0  0  0  0
  2  3  1  0  0  0  0
  2  4  1  0  0  0  0
  2 25  1  0  0  0  0
  3 26  1  0  0  0  0
  3 27  1  0  0  0  0
  3 28  1  0  0  0  0
  4  5  1  0  0  0  0
  4 15  1  0  0  0  0
  4 29  1  0  0  0  0
  5  6  1  0  0  0  0
  5 30  1  0  0  0  0
  5 31  1  0  0  0  0
  6  7  1  0  0  0  0
  6 32  1  0  0  0  0
  7  8  2  0  0  0  0
  7  9  1  0  0  0  0
  9 10  1  0  0  0  0
  9 33  1  0  0  0  0
 10 14  2  0  0  0  0
 10 11  1  0  0  0  0
 11 12  2  0  0  0  0
 11 34  1  0  0  0  0
 12 13  1  0  0  0  0
 13 21  1  0  0  0  0
 13 14  1  0  0  0  0
 14 35  1  0  0  0  0
 15 20  1  0  0  0  0
 15 16  1  0  0  0  0
 15 44  1  0  0  0  0
 16 17  1  0  0  0  0
 16 36  1  0  0  0  0
 16 37  1  0  0  0  0
 17 18  1  0  0  0  0
 17 38  1  0  0  0  0
 17 39  1  0  0  0  0
 18 19  1  0  0  0  0
 19 20  1  0  0  0  0
 19 40  1  0  0  0  0
 19 41  1  0  0  0  0
 20 42  1  0  0  0  0
 20 43  1  0  0  0  0
M  CHG  1  15   1
M  END
> <s_m_source_file>
AV-unprocessed.smi

> <i_m_source_file_index>
1691

> <i_lp_mmshare_version>
43012

> <i_f3d_flags>
0

> <s_epik_input>
W0NIMl0xW0NIMl1PW0NIMl1bQ0gyXU4xW0NASF0oW0NIXShbQ0gzXSlbQ0gzXSlbQ0gyXVtOSF1DKD1PKVtOSF1jMltjSF1uW25IXVtjSF0y

> <s_epik_cmdline>
J2VwaWtfcHl0aG9uJywgJy1waCcsICc3LjAnLCAnLXRuJywgJzgnLCAnLW1hJywgJzIwMCcsICctbWV0YWxfYmluZGluZycsICctaW1hZScsICc8aW5maWxlLm1hZT4nLCAnLW9tYWUnLCAnPG91dGZpbGUubWFlPic=

> <r_lp_tautomer_probability>
0.5

> <r_epik_Ionization_Penalty>
0.363378

> <r_epik_Ionization_Penalty_Charging>
0.363339

> <r_epik_Ionization_Penalty_Neutral>
3.97246e-05

> <r_epik_State_Penalty>
0.36031

> <r_epik_Charging_Adjusted_Penalty>
0.723649

> <i_epik_Tot_Q>
1

> <i_epik_Tot_abs_Q>
1

> <r_epik_Metal_State_Penalty>
0.360311

> <b_epik_Metal_Only>
0

> <s_lp_Force_Field>
OPLS_2005

> <r_lp_Energy>
33.682

> <b_lp_Chiralities_Consistent>
1

> <s_lp_Variant>
AV-unprocessed.smi:1691-1

> <Gold.Version>
5.8.1

> <Gold.Id.Protein>
6NUR|6NUR_protein|mol2

> <Gold.PLP.Fitness>
41.9301

> <Gold.PLP.PLP>
-31.0773

> <Gold.PLP.part.hbond>
-4.1014

> <Gold.PLP.part.metal>
0.0000

> <Gold.PLP.part.buried>
-5.4847

> <Gold.PLP.part.nonpolar>
-22.7236

> <Gold.PLP.part.repulsive>
0.6525

> <Gold.PLP.ligand.clash>
0.0000

> <Gold.PLP.ligand.torsion>
2.0384

> <Gold.PLP.Chemscore.Hbond>
3.8800

> <Gold.PLP.Chemscore.CHOScore>
1.0000

> <Gold.PLP.Chemscore.Metal>
0.0000

> <Gold.Chemscore.Hbonds>
donor molecule, donor type, donor heavy atom, donor atom, acceptor molecule, acceptor atom, score
      L1  H     6    32       P1  7948  1.00
      L1  H     9    33       P1  7948  1.00
      L1  H    13    21       P1 10186  0.85
      P1  H 10752 10763       L1    18  0.90
      L1  C    14    35       P1 10171  1.00

> <Gold.PLP.Chemscore.Internal.Correction>
0.2897

> <Gold.Rescore>
     Score         DG    S(hbond)    S(metal)    S(lipo)     H(rot)  DE(clash)    DE(int)     intcor
     18.95     -21.04       3.86        0.00      62.97       1.84       0.06       2.02       ----

> <Gold.Chemscore.Fitness>
18.9528

> <Gold.Chemscore.DG>
-21.0373

> <Gold.Chemscore.ZeroCoef>
-5.4800

> <Gold.Chemscore.Hbond>
3.8641

> <Gold.Chemscore.Metal>
0.0000

> <Gold.Chemscore.Lipo>
62.9735

> <Gold.Chemscore.Internal_Hbond>
0.0000

> <Gold.Chemscore.DEClash>
0.0624

> <Gold.Chemscore.DEInternal>
2.0221

> <Gold.Chemscore.Rot>
1.8425

> <Gold.Chemscore.Internal.Correction>
   9.000000E+99

> <Gold.Chemscore.Hbonds>
donor molecule, donor type, donor heavy atom, donor atom, acceptor molecule, acceptor atom, score
      L1  H     6    32       P1  7948  0.96
      L1  H     9    33       P1  7948  0.97
      L1  H    13    21       P1 10186  0.83
      P1  H 10752 10763       L1    18  0.18

> <Gold.Chemscore.Hbond.Weighted>
-12.9062

> <Gold.Chemscore.Metal.Weighted>
-0.0000

> <Gold.Chemscore.Lipo.Weighted>
-7.3679

> <Gold.Chemscore.Internal_Hbond.Weighted>
0.0000

> <Gold.Chemscore.DEClash.Weighted>
0.0624

> <Gold.Chemscore.DEInternal.Weighted>
2.0221

> <Gold.Chemscore.Rot.Weighted>
4.7168

> <Gold.Chemscore.Internal.Correction.Weighted>
   9.000000E+99

> <Gold.Protein.RotatedTorsions>
[ 6907 6896 6895 6894 ] final  -67.11 input  -60.11 | X-H torsion
[ 7974 7965 7964 7962 ] final  100.09 input  175.53 | X-H torsion
[ 8008 7997 7996 7995 ] final  -94.75 input   59.86 | X-H torsion
[ 10167 10162 10161 10158 ] final -104.84 input  -65.29 | X-H torsion
[ 10718 10713 10712 10709 ] final   18.20 input   66.30 | X-H torsion
[ 10763 10752 10751 10750 ] final   51.26 input  -60.55 | X-H torsion
[ 11005 11000 10999 10996 ] final   15.39 input  -57.11 | X-H torsion

> <Gold.Protein.ActiveResidues>
 VAL166  LYS551  ARG553  GLY616  TRP617  ASP618  TYR619  PRO620  LYS621  CYS622 
 ASP623  PHE694  ASN695  SER759  ASP760  ASP761  ALA762  ILE779  LEU786  VAL792 
 PHE793  MET794  SER795  GLU796  ALA797  LYS798  CYS799  TRP800  GLU811  SER814 

> <Gold.Protein.RotatedAtoms>
  150.7427  134.5926  159.5995 H   0  0  0  0  0  0  0  0  0  0  0  0  # atno 6907 bound_to 6896
  152.3310  134.7256  160.0298 H   0  0  0  0  0  0  0  0  0  0  0  0  # atno 6908 bound_to 6896
  151.7740  133.3308  159.3489 H   0  0  0  0  0  0  0  0  0  0  0  0  # atno 6909 bound_to 6896
  145.3902  139.2364  143.3356 H   0  0  0  0  0  0  0  0  0  0  0  0  # atno 7974 bound_to 7965
  154.7524  140.0486  157.0905 H   0  0  0  0  0  0  0  0  0  0  0  0  # atno 8008 bound_to 7997
  155.0040  140.3128  155.4836 H   0  0  0  0  0  0  0  0  0  0  0  0  # atno 8009 bound_to 7997
  156.2888  140.2196  156.5151 H   0  0  0  0  0  0  0  0  0  0  0  0  # atno 8010 bound_to 7997
  140.2050  143.3790  152.1098 H   0  0  0  0  0  0  0  0  0  0  0  0  # atno 10167 bound_to 10162
  157.0930  130.6435  149.5853 H   0  0  0  0  0  0  0  0  0  0  0  0  # atno 10718 bound_to 10713
  152.9785  135.5852  154.4386 H   0  0  0  0  0  0  0  0  0  0  0  0  # atno 10763 bound_to 10752
  154.3990  135.2768  155.2110 H   0  0  0  0  0  0  0  0  0  0  0  0  # atno 10764 bound_to 10752
  154.3949  135.6117  153.5918 H   0  0  0  0  0  0  0  0  0  0  0  0  # atno 10765 bound_to 10752
  140.4588  134.1148  155.7713 H   0  0  0  0  0  0  0  0  0  0  0  0  # atno 11005 bound_to 11000
  146.2801  140.4584  142.8780 LP  0  0  0  0  0  0  0  0  0  0  0  0  # atno 17320 bound_to 7965
  144.8445  140.6908  143.6208 LP  0  0  0  0  0  0  0  0  0  0  0  0  # atno 17321 bound_to 7965
  139.5202  144.7030  151.5438 LP  0  0  0  0  0  0  0  0  0  0  0  0  # atno 17342 bound_to 10162
  140.6364  143.8976  150.6651 LP  0  0  0  0  0  0  0  0  0  0  0  0  # atno 17343 bound_to 10162
  155.9893  130.4940  150.7208 LP  0  0  0  0  0  0  0  0  0  0  0  0  # atno 17370 bound_to 10713
  157.4705  131.0892  151.0647 LP  0  0  0  0  0  0  0  0  0  0  0  0  # atno 17371 bound_to 10713
  141.1630  133.8756  157.1793 LP  0  0  0  0  0  0  0  0  0  0  0  0  # atno 17394 bound_to 11000
  139.9958  135.0047  157.0080 LP  0  0  0  0  0  0  0  0  0  0  0  0  # atno 17395 bound_to 11000

$$$$
