AV-unprocessed.smi:1554|AV-procd|sdf|6262|dock10
  -GOLD-   22720 6453D 1   1.00000     0.00000
 Structure written by MMmdl.
 49 51  0  0  0  0  0  0  0  0  3 V2000
  152.5941  143.4247  161.3662 C   0  0  0  0  0  0  0  0  0  0  0  0
  152.0310  142.8911  160.0599 C   0  0  0  0  0  0  0  0  0  0  0  0
  151.8109  141.5007  159.9383 C   0  0  0  0  0  0  0  0  0  0  0  0
  151.2933  141.0433  158.7323 C   0  0  0  0  0  0  0  0  0  0  0  0
  150.9670  139.7533  158.3093 N   0  3  0  0  0  0  0  0  0  0  0  0
  150.4888  139.7998  157.0354 C   0  0  0  0  0  0  0  0  0  0  0  0
  150.5002  141.1020  156.6388 N   0  0  0  0  0  0  0  0  0  0  0  0
  150.0946  141.6904  155.3543 C   0  0  0  0  0  0  0  0  0  0  0  0
  149.0606  140.8323  154.5989 C   0  0  2  0  0  0  0  0  0  0  0  0
  149.7684  139.8263  153.9033 O   0  0  0  0  0  0  0  0  0  0  0  0
  148.2053  141.6290  153.5890 C   0  0  0  0  0  0  0  0  0  0  0  0
  147.3088  142.6128  154.2480 N   0  3  2  0  0  0  0  0  0  0  0  0
  146.5239  142.0121  155.3523 C   0  0  0  0  0  0  0  0  0  0  0  0
  145.6581  143.0806  156.0398 C   0  0  0  0  0  0  0  0  0  0  0  0
  144.8119  143.6977  155.0778 O   0  0  0  0  0  0  0  0  0  0  0  0
  145.5495  144.3600  154.0565 C   0  0  2  0  0  0  0  0  0  0  0  0
  144.5550  145.0665  153.1284 C   0  0  0  0  0  0  0  0  0  0  0  0
  146.4108  143.3259  153.3056 C   0  0  0  0  0  0  0  0  0  0  0  0
  150.9981  141.9150  157.6654 C   0  0  0  0  0  0  0  0  0  0  0  0
  151.2101  143.2883  157.7695 C   0  0  0  0  0  0  0  0  0  0  0  0
  151.7335  143.7733  158.9893 C   0  0  0  0  0  0  0  0  0  0  0  0
  151.9723  145.2670  159.1316 C   0  0  0  0  0  0  0  0  0  0  0  0
  152.7873  142.6199  162.0760 H   0  0  0  0  0  0  0  0  0  0  0  0
  151.8920  144.1172  161.8308 H   0  0  0  0  0  0  0  0  0  0  0  0
  153.5348  143.9482  161.1936 H   0  0  0  0  0  0  0  0  0  0  0  0
  152.0352  140.8229  160.7493 H   0  0  0  0  0  0  0  0  0  0  0  0
  150.1616  138.9552  156.4461 H   0  0  0  0  0  0  0  0  0  0  0  0
  149.7263  142.7031  155.5176 H   0  0  0  0  0  0  0  0  0  0  0  0
  151.0005  141.7918  154.7545 H   0  0  0  0  0  0  0  0  0  0  0  0
  148.4223  140.3435  155.3342 H   0  0  0  0  0  0  0  0  0  0  0  0
  149.5281  139.8606  152.9896 H   0  0  0  0  0  0  0  0  0  0  0  0
  148.8342  142.1585  152.8725 H   0  0  0  0  0  0  0  0  0  0  0  0
  147.6100  140.9227  153.0079 H   0  0  0  0  0  0  0  0  0  0  0  0
  145.8913  141.2138  154.9608 H   0  0  0  0  0  0  0  0  0  0  0  0
  147.1956  141.5611  156.0838 H   0  0  0  0  0  0  0  0  0  0  0  0
  145.0401  142.6234  156.8126 H   0  0  0  0  0  0  0  0  0  0  0  0
  146.2800  143.8304  156.5315 H   0  0  0  0  0  0  0  0  0  0  0  0
  146.1945  145.1140  154.5116 H   0  0  0  0  0  0  0  0  0  0  0  0
  145.0726  145.5987  152.3298 H   0  0  0  0  0  0  0  0  0  0  0  0
  143.9580  145.7942  153.6785 H   0  0  0  0  0  0  0  0  0  0  0  0
  143.8695  144.3549  152.6671 H   0  0  0  0  0  0  0  0  0  0  0  0
  146.9926  143.8343  152.5376 H   0  0  0  0  0  0  0  0  0  0  0  0
  145.7709  142.6041  152.7951 H   0  0  0  0  0  0  0  0  0  0  0  0
  150.9855  143.9647  156.9587 H   0  0  0  0  0  0  0  0  0  0  0  0
  151.6969  145.8043  158.2235 H   0  0  0  0  0  0  0  0  0  0  0  0
  153.0248  145.4698  159.3313 H   0  0  0  0  0  0  0  0  0  0  0  0
  151.3790  145.6733  159.9512 H   0  0  0  0  0  0  0  0  0  0  0  0
  147.9085  143.3075  154.6709 H   0  0  0  0  0  0  0  0  0  0  0  0
  151.0664  138.9016  158.8472 H   0  0  0  0  0  0  0  0  0  0  0  0
  1  2  1  0  0  0  0
  1 23  1  0  0  0  0
  1 24  1  0  0  0  0
  1 25  1  0  0  0  0
  2 21  1  0  0  0  0
  2  3  2  0  0  0  0
  3  4  1  0  0  0  0
  3 26  1  0  0  0  0
  4 19  2  0  0  0  0
  4  5  1  0  0  0  0
  5  6  2  0  0  0  0
  5 49  1  0  0  0  0
  6  7  1  0  0  0  0
  6 27  1  0  0  0  0
  7  8  1  0  0  0  0
  7 19  1  0  0  0  0
  8  9  1  0  0  0  0
  8 28  1  0  0  0  0
  8 29  1  0  0  0  0
  9 10  1  0  0  0  0
  9 11  1  0  0  0  0
  9 30  1  0  0  0  0
 10 31  1  0  0  0  0
 11 12  1  0  0  0  0
 11 32  1  0  0  0  0
 11 33  1  0  0  0  0
 12 18  1  0  0  0  0
 12 13  1  0  0  0  0
 12 48  1  0  0  0  0
 13 14  1  0  0  0  0
 13 34  1  0  0  0  0
 13 35  1  0  0  0  0
 14 15  1  0  0  0  0
 14 36  1  0  0  0  0
 14 37  1  0  0  0  0
 15 16  1  0  0  0  0
 16 17  1  0  0  0  0
 16 18  1  0  0  0  0
 16 38  1  0  0  0  0
 17 39  1  0  0  0  0
 17 40  1  0  0  0  0
 17 41  1  0  0  0  0
 18 42  1  0  0  0  0
 18 43  1  0  0  0  0
 19 20  1  0  0  0  0
 20 21  2  0  0  0  0
 20 44  1  0  0  0  0
 21 22  1  0  0  0  0
 22 45  1  0  0  0  0
 22 46  1  0  0  0  0
 22 47  1  0  0  0  0
M  CHG  1   5   1
M  CHG  1  12   1
M  END
> <s_m_source_file>
AV-unprocessed.smi

> <i_m_source_file_index>
1554

> <i_lp_mmshare_version>
43012

> <i_f3d_flags>
0

> <s_epik_input>
W0NIM11jKFtjSF0xKWMoW0NIM10pW2NIXWMoYzEyKW4oW2NIXW4yKVtDSDJdW0NASF0oW09IXSlbQ0gyXU4zW0NIMl1bQ0gyXU9bQ0BASF0oW0NIM10pW0NIMl0z

> <s_epik_cmdline>
J2VwaWtfcHl0aG9uJywgJy1waCcsICc3LjAnLCAnLXRuJywgJzgnLCAnLW1hJywgJzIwMCcsICctbWV0YWxfYmluZGluZycsICctaW1hZScsICc8aW5maWxlLm1hZT4nLCAnLW9tYWUnLCAnPG91dGZpbGUubWFlPic=

> <r_epik_Ionization_Penalty>
1.8848

> <r_epik_Ionization_Penalty_Charging>
1.88479

> <r_epik_Ionization_Penalty_Neutral>
1.42224e-05

> <r_epik_State_Penalty>
1.94551

> <r_epik_Charging_Adjusted_Penalty>
3.8303

> <i_epik_Tot_Q>
2

> <i_epik_Tot_abs_Q>
2

> <r_epik_Metal_State_Penalty>
5.95849

> <b_epik_Metal_Only>
0

> <s_lp_Force_Field>
OPLS_2005

> <r_lp_Energy>
32.1421

> <b_lp_Chiralities_Consistent>
1

> <s_lp_Variant>
AV-unprocessed.smi:1554-23

> <Gold.Version>
5.8.1

> <Gold.Id.Protein>
6NUR|6NUR_protein|mol2

> <Gold.PLP.Fitness>
58.6048

> <Gold.PLP.PLP>
-48.7504

> <Gold.PLP.part.hbond>
-3.0000

> <Gold.PLP.part.metal>
0.0000

> <Gold.PLP.part.buried>
-6.6343

> <Gold.PLP.part.nonpolar>
-38.3837

> <Gold.PLP.part.repulsive>
0.3017

> <Gold.PLP.ligand.clash>
0.0000

> <Gold.PLP.ligand.torsion>
0.6395

> <Gold.PLP.Chemscore.Hbond>
3.6992

> <Gold.PLP.Chemscore.CHOScore>
0.0000

> <Gold.PLP.Chemscore.Metal>
0.0000

> <Gold.Chemscore.Hbonds>
donor molecule, donor type, donor heavy atom, donor atom, acceptor molecule, acceptor atom, score
      L1  H    10    31       P1  7957  1.00
      L1  H    12    48       P1  8028  2.00
      P1  H  7989  7998       L1    10  0.29

> <Gold.PLP.Chemscore.Internal.Correction>
0.0358

> <Gold.Rescore>
     Score         DG    S(hbond)    S(metal)    S(lipo)     H(rot)  DE(clash)    DE(int)     intcor
     19.80     -21.22       1.77        0.00     130.26       2.11       0.57       0.85       ----

> <Gold.Chemscore.Fitness>
19.7986

> <Gold.Chemscore.DG>
-21.2227

> <Gold.Chemscore.ZeroCoef>
-5.4800

> <Gold.Chemscore.Hbond>
1.7695

> <Gold.Chemscore.Metal>
0.0000

> <Gold.Chemscore.Lipo>
130.2555

> <Gold.Chemscore.Internal_Hbond>
0.0000

> <Gold.Chemscore.DEClash>
0.5744

> <Gold.Chemscore.DEInternal>
0.8496

> <Gold.Chemscore.Rot>
2.1122

> <Gold.Chemscore.Internal.Correction>
   9.000000E+99

> <Gold.Chemscore.Hbonds>
donor molecule, donor type, donor heavy atom, donor atom, acceptor molecule, acceptor atom, score
      L1  H    10    31       P1  7957  1.00
      L1  H    12    48       P1  8028  0.78

> <Gold.Chemscore.Hbond.Weighted>
-5.9100

> <Gold.Chemscore.Metal.Weighted>
-0.0000

> <Gold.Chemscore.Lipo.Weighted>
-15.2399

> <Gold.Chemscore.Internal_Hbond.Weighted>
0.0000

> <Gold.Chemscore.DEClash.Weighted>
0.5744

> <Gold.Chemscore.DEInternal.Weighted>
0.8496

> <Gold.Chemscore.Rot.Weighted>
5.4073

> <Gold.Chemscore.Internal.Correction.Weighted>
   9.000000E+99

> <Gold.Protein.RotatedTorsions>
[ 6907 6896 6895 6894 ] final   57.69 input  -60.11 | X-H torsion
[ 7974 7965 7964 7962 ] final   55.19 input  175.53 | X-H torsion
[ 8008 7997 7996 7995 ] final  129.08 input   59.86 | X-H torsion
[ 10167 10162 10161 10158 ] final -116.55 input  -65.29 | X-H torsion
[ 10718 10713 10712 10709 ] final  165.85 input   66.30 | X-H torsion
[ 10763 10752 10751 10750 ] final  -20.45 input  -60.55 | X-H torsion
[ 11005 11000 10999 10996 ] final  156.08 input  -57.11 | X-H torsion

> <Gold.Protein.ActiveResidues>
 VAL166  LYS551  ARG553  GLY616  TRP617  ASP618  TYR619  PRO620  LYS621  CYS622 
 ASP623  PHE694  ASN695  SER759  ASP760  ASP761  ALA762  ILE779  LEU786  VAL792 
 PHE793  MET794  SER795  GLU796  ALA797  LYS798  CYS799  TRP800  GLU811  SER814 

> <Gold.Protein.RotatedAtoms>
  152.3755  134.6670  160.0161 H   0  0  0  0  0  0  0  0  0  0  0  0  # atno 6907 bound_to 6896
  151.6949  133.3305  159.3260 H   0  0  0  0  0  0  0  0  0  0  0  0  # atno 6908 bound_to 6896
  150.7706  134.6602  159.6380 H   0  0  0  0  0  0  0  0  0  0  0  0  # atno 6909 bound_to 6896
  145.9530  139.3989  143.0295 H   0  0  0  0  0  0  0  0  0  0  0  0  # atno 7974 bound_to 7965
  156.2929  140.2629  156.2541 H   0  0  0  0  0  0  0  0  0  0  0  0  # atno 8008 bound_to 7997
  154.9854  140.0389  157.2314 H   0  0  0  0  0  0  0  0  0  0  0  0  # atno 8009 bound_to 7997
  154.7734  140.2782  155.6125 H   0  0  0  0  0  0  0  0  0  0  0  0  # atno 8010 bound_to 7997
  140.0780  143.4814  152.1942 H   0  0  0  0  0  0  0  0  0  0  0  0  # atno 10167 bound_to 10162
  157.0743  131.0375  151.2600 H   0  0  0  0  0  0  0  0  0  0  0  0  # atno 10718 bound_to 10713
  153.6206  135.6993  153.5312 H   0  0  0  0  0  0  0  0  0  0  0  0  # atno 10763 bound_to 10752
  153.2941  135.4148  155.1193 H   0  0  0  0  0  0  0  0  0  0  0  0  # atno 10764 bound_to 10752
  154.8544  135.3632  154.5747 H   0  0  0  0  0  0  0  0  0  0  0  0  # atno 10765 bound_to 10752
  140.1642  134.8588  157.2611 H   0  0  0  0  0  0  0  0  0  0  0  0  # atno 11005 bound_to 11000
  145.8145  140.9709  143.0931 LP  0  0  0  0  0  0  0  0  0  0  0  0  # atno 17320 bound_to 7965
  144.6799  139.9964  143.7484 LP  0  0  0  0  0  0  0  0  0  0  0  0  # atno 17321 bound_to 7965
  139.5796  144.7504  151.3674 LP  0  0  0  0  0  0  0  0  0  0  0  0  # atno 17342 bound_to 10162
  140.7092  143.7434  150.7536 LP  0  0  0  0  0  0  0  0  0  0  0  0  # atno 17343 bound_to 10162
  157.4852  130.7789  149.7453 LP  0  0  0  0  0  0  0  0  0  0  0  0  # atno 17370 bound_to 10713
  155.9941  130.3920  150.2871 LP  0  0  0  0  0  0  0  0  0  0  0  0  # atno 17371 bound_to 10713
  140.2454  134.3746  155.7463 LP  0  0  0  0  0  0  0  0  0  0  0  0  # atno 17394 bound_to 11000
  141.2212  133.7288  156.8853 LP  0  0  0  0  0  0  0  0  0  0  0  0  # atno 17395 bound_to 11000

$$$$
