AV-unprocessed.smi:1453|AV-procd|sdf|5911|dock2
  -GOLD-   22720 5593D 1   1.00000     0.00000
 Structure written by MMmdl.
 43 44  0  0  0  0  0  0  0  0  1 V2000
  148.9823  133.9657  154.7620 C   0  0  0  0  0  0  0  0  0  0  0  0
  148.9230  135.1866  155.6938 C   0  0  2  0  0  0  0  0  0  0  0  0
  150.2256  135.9956  155.6470 C   0  0  0  0  0  0  0  0  0  0  0  0
  151.0055  135.9790  156.5995 O   0  0  0  0  0  0  0  0  0  0  0  0
  150.4494  136.7050  154.5294 N   0  0  0  0  0  0  0  0  0  0  0  0
  151.6095  137.5603  154.3054 C   0  0  0  0  0  0  0  0  0  0  0  0
  151.7179  138.6899  155.3153 C   0  0  0  0  0  0  0  0  0  0  0  0
  150.9477  139.8624  155.1848 C   0  0  0  0  0  0  0  0  0  0  0  0
  151.0774  140.8759  156.1531 C   0  0  0  0  0  0  0  0  0  0  0  0
  151.9792  140.6924  157.2286 C   0  0  0  0  0  0  0  0  0  0  0  0
  152.1218  141.6929  158.2148 N   0  0  0  0  0  0  0  0  0  0  0  0
  151.4182  142.9459  157.9512 C   0  0  0  0  0  0  0  0  0  0  0  0
  151.8906  144.0411  158.9231 C   0  0  0  0  0  0  0  0  0  0  0  0
  151.7384  143.5936  160.2660 O   0  0  0  0  0  0  0  0  0  0  0  0
  152.5230  142.4354  160.5298 C   0  0  0  0  0  0  0  0  0  0  0  0
  152.0686  141.2838  159.6175 C   0  0  0  0  0  0  0  0  0  0  0  0
  152.7287  139.5674  157.3404 N   0  0  0  0  0  0  0  0  0  0  0  0
  152.5983  138.5972  156.4115 C   0  0  0  0  0  0  0  0  0  0  0  0
  148.5733  134.6364  157.4302 S   0  0  0  0  0  0  0  0  0  0  0  0
  148.5277  136.2196  158.3708 C   0  0  0  0  0  0  0  0  0  0  0  0
  147.2249  134.0492  157.4552 O   0  0  0  0  0  0  0  0  0  0  0  0
  149.7116  133.8453  157.9228 O   0  0  0  0  0  0  0  0  0  0  0  0
  149.1987  134.2612  153.7346 H   0  0  0  0  0  0  0  0  0  0  0  0
  148.0297  133.4357  154.7568 H   0  0  0  0  0  0  0  0  0  0  0  0
  149.7502  133.2575  155.0765 H   0  0  0  0  0  0  0  0  0  0  0  0
  148.0909  135.8213  155.3866 H   0  0  0  0  0  0  0  0  0  0  0  0
  149.7656  136.6591  153.7880 H   0  0  0  0  0  0  0  0  0  0  0  0
  152.5230  136.9630  154.3024 H   0  0  0  0  0  0  0  0  0  0  0  0
  151.5247  137.9966  153.3099 H   0  0  0  0  0  0  0  0  0  0  0  0
  150.2650  139.9854  154.3568 H   0  0  0  0  0  0  0  0  0  0  0  0
  150.4981  141.7815  156.0519 H   0  0  0  0  0  0  0  0  0  0  0  0
  151.5727  143.2901  156.9297 H   0  0  0  0  0  0  0  0  0  0  0  0
  150.3469  142.7791  158.0708 H   0  0  0  0  0  0  0  0  0  0  0  0
  152.9317  144.3069  158.7322 H   0  0  0  0  0  0  0  0  0  0  0  0
  151.3005  144.9467  158.7828 H   0  0  0  0  0  0  0  0  0  0  0  0
  153.5810  142.6568  160.3793 H   0  0  0  0  0  0  0  0  0  0  0  0
  152.4019  142.1550  161.5764 H   0  0  0  0  0  0  0  0  0  0  0  0
  151.0487  140.9888  159.8689 H   0  0  0  0  0  0  0  0  0  0  0  0
  152.7103  140.4175  159.7838 H   0  0  0  0  0  0  0  0  0  0  0  0
  153.2124  137.7200  156.5531 H   0  0  0  0  0  0  0  0  0  0  0  0
  148.2141  136.0199  159.3951 H   0  0  0  0  0  0  0  0  0  0  0  0
  147.8210  136.9053  157.9041 H   0  0  0  0  0  0  0  0  0  0  0  0
  149.5205  136.6674  158.3867 H   0  0  0  0  0  0  0  0  0  0  0  0
  1  2  1  0  0  0  0
  1 23  1  0  0  0  0
  1 24  1  0  0  0  0
  1 25  1  0  0  0  0
  2  3  1  0  0  0  0
  2 19  1  0  0  0  0
  2 26  1  0  0  0  0
  3  4  2  0  0  0  0
  3  5  1  0  0  0  0
  5  6  1  0  0  0  0
  5 27  1  0  0  0  0
  6  7  1  0  0  0  0
  6 28  1  0  0  0  0
  6 29  1  0  0  0  0
  7 18  1  0  0  0  0
  7  8  2  0  0  0  0
  8  9  1  0  0  0  0
  8 30  1  0  0  0  0
  9 10  2  0  0  0  0
  9 31  1  0  0  0  0
 10 11  1  0  0  0  0
 10 17  1  0  0  0  0
 11 16  1  0  0  0  0
 11 12  1  0  0  0  0
 12 13  1  0  0  0  0
 12 32  1  0  0  0  0
 12 33  1  0  0  0  0
 13 14  1  0  0  0  0
 13 34  1  0  0  0  0
 13 35  1  0  0  0  0
 14 15  1  0  0  0  0
 15 16  1  0  0  0  0
 15 36  1  0  0  0  0
 15 37  1  0  0  0  0
 16 38  1  0  0  0  0
 16 39  1  0  0  0  0
 17 18  2  0  0  0  0
 18 40  1  0  0  0  0
 19 20  1  0  0  0  0
 19 21  2  0  0  0  0
 19 22  2  0  0  0  0
 20 41  1  0  0  0  0
 20 42  1  0  0  0  0
 20 43  1  0  0  0  0
M  END
> <s_m_source_file>
AV-unprocessed.smi

> <i_m_source_file_index>
1453

> <i_lp_mmshare_version>
43012

> <i_f3d_flags>
0

> <s_epik_input>
W0NIM11TKD1PKSg9TylbQ0BIXShbQ0gzXSlDKD1PKVtOSF1bQ0gyXWMxW2NIXVtjSF1jKG5bY0hdMSlOMltDSDJdW0NIMl1PW0NIMl1bQ0gyXTI=

> <s_epik_cmdline>
J2VwaWtfcHl0aG9uJywgJy1waCcsICc3LjAnLCAnLXRuJywgJzgnLCAnLW1hJywgJzIwMCcsICctbWV0YWxfYmluZGluZycsICctaW1hZScsICc8aW5maWxlLm1hZT4nLCAnLW9tYWUnLCAnPG91dGZpbGUubWFlPic=

> <r_lp_tautomer_probability>
1

> <r_epik_Ionization_Penalty>
0.00349781

> <r_epik_Ionization_Penalty_Charging>
0

> <r_epik_Ionization_Penalty_Neutral>
0.00349781

> <r_epik_State_Penalty>
0.00248024

> <r_epik_Charging_Adjusted_Penalty>
0.00248024

> <i_epik_Tot_Q>
0

> <i_epik_Tot_abs_Q>
0

> <r_epik_Metal_State_Penalty>
-0

> <b_epik_Metal_Only>
0

> <s_lp_Force_Field>
OPLS_2005

> <r_lp_Energy>
14.1024

> <b_lp_Chiralities_Consistent>
1

> <s_lp_Variant>
AV-unprocessed.smi:1453-1

> <Gold.Version>
5.8.1

> <Gold.Id.Protein>
6NUR|6NUR_protein|mol2

> <Gold.PLP.Fitness>
45.3908

> <Gold.PLP.PLP>
-37.3653

> <Gold.PLP.part.hbond>
-3.9850

> <Gold.PLP.part.metal>
0.0000

> <Gold.PLP.part.buried>
-2.6563

> <Gold.PLP.part.nonpolar>
-30.7912

> <Gold.PLP.part.repulsive>
0.1346

> <Gold.PLP.ligand.clash>
0.0000

> <Gold.PLP.ligand.torsion>
0.8319

> <Gold.PLP.Chemscore.Hbond>
3.0548

> <Gold.PLP.Chemscore.CHOScore>
0.0000

> <Gold.PLP.Chemscore.Metal>
0.0000

> <Gold.Chemscore.Hbonds>
donor molecule, donor type, donor heavy atom, donor atom, acceptor molecule, acceptor atom, score
      L1  H     5    27       P1  7948  0.83
      P1  H  6896  6908       L1    22  1.00
      P1  H  7997  8009       L1    17  0.85

> <Gold.PLP.Chemscore.Internal.Correction>
0.5249

> <Gold.Rescore>
     Score         DG    S(hbond)    S(metal)    S(lipo)     H(rot)  DE(clash)    DE(int)     intcor
     13.29     -18.00       2.22        0.00      89.03       2.08       0.28       4.43       ----

> <Gold.Chemscore.Fitness>
13.2891

> <Gold.Chemscore.DG>
-18.0006

> <Gold.Chemscore.ZeroCoef>
-5.4800

> <Gold.Chemscore.Hbond>
2.2213

> <Gold.Chemscore.Metal>
0.0000

> <Gold.Chemscore.Lipo>
89.0341

> <Gold.Chemscore.Internal_Hbond>
0.0000

> <Gold.Chemscore.DEClash>
0.2805

> <Gold.Chemscore.DEInternal>
4.4310

> <Gold.Chemscore.Rot>
2.0764

> <Gold.Chemscore.Internal.Correction>
   9.000000E+99

> <Gold.Chemscore.Hbonds>
donor molecule, donor type, donor heavy atom, donor atom, acceptor molecule, acceptor atom, score
      L1  H     5    27       P1  7948  0.44
      P1  H  6896  6908       L1    22  1.00
      P1  H  7997  8009       L1    17  0.09

> <Gold.Chemscore.Hbond.Weighted>
-7.4191

> <Gold.Chemscore.Metal.Weighted>
-0.0000

> <Gold.Chemscore.Lipo.Weighted>
-10.4170

> <Gold.Chemscore.Internal_Hbond.Weighted>
0.0000

> <Gold.Chemscore.DEClash.Weighted>
0.2805

> <Gold.Chemscore.DEInternal.Weighted>
4.4310

> <Gold.Chemscore.Rot.Weighted>
5.3155

> <Gold.Chemscore.Internal.Correction.Weighted>
   9.000000E+99

> <Gold.Protein.RotatedTorsions>
[ 6907 6896 6895 6894 ] final  130.30 input  -60.11 | X-H torsion
[ 7974 7965 7964 7962 ] final   70.74 input  175.53 | X-H torsion
[ 8008 7997 7996 7995 ] final  161.52 input   59.86 | X-H torsion
[ 10167 10162 10161 10158 ] final -100.75 input  -65.29 | X-H torsion
[ 10718 10713 10712 10709 ] final    1.13 input   66.30 | X-H torsion
[ 10763 10752 10751 10750 ] final   70.66 input  -60.55 | X-H torsion
[ 11005 11000 10999 10996 ] final  -56.11 input  -57.11 | X-H torsion

> <Gold.Protein.ActiveResidues>
 VAL166  LYS551  ARG553  GLY616  TRP617  ASP618  TYR619  PRO620  LYS621  CYS622 
 ASP623  PHE694  ASN695  SER759  ASP760  ASP761  ALA762  ILE779  LEU786  VAL792 
 PHE793  MET794  SER795  GLU796  ALA797  LYS798  CYS799  TRP800  GLU811  SER814 

> <Gold.Protein.RotatedAtoms>
  152.3540  133.6214  159.5965 H   0  0  0  0  0  0  0  0  0  0  0  0  # atno 6907 bound_to 6896
  150.7556  133.9529  159.3500 H   0  0  0  0  0  0  0  0  0  0  0  0  # atno 6908 bound_to 6896
  151.7377  135.0862  160.0361 H   0  0  0  0  0  0  0  0  0  0  0  0  # atno 6909 bound_to 6896
  145.7744  139.2858  143.1302 H   0  0  0  0  0  0  0  0  0  0  0  0  # atno 7974 bound_to 7965
  156.2097  140.1775  156.7721 H   0  0  0  0  0  0  0  0  0  0  0  0  # atno 8008 bound_to 7997
  154.5705  140.0683  156.8987 H   0  0  0  0  0  0  0  0  0  0  0  0  # atno 8009 bound_to 7997
  155.2681  140.3340  155.4270 H   0  0  0  0  0  0  0  0  0  0  0  0  # atno 8010 bound_to 7997
  140.2486  143.3488  152.0736 H   0  0  0  0  0  0  0  0  0  0  0  0  # atno 10167 bound_to 10162
  156.8436  130.5529  149.5675 H   0  0  0  0  0  0  0  0  0  0  0  0  # atno 10718 bound_to 10713
  153.0354  135.5165  154.7475 H   0  0  0  0  0  0  0  0  0  0  0  0  # atno 10763 bound_to 10752
  154.6456  135.2918  155.0053 H   0  0  0  0  0  0  0  0  0  0  0  0  # atno 10764 bound_to 10752
  154.0955  135.6644  153.4912 H   0  0  0  0  0  0  0  0  0  0  0  0  # atno 10765 bound_to 10752
  141.1105  133.6611  156.4571 H   0  0  0  0  0  0  0  0  0  0  0  0  # atno 11005 bound_to 11000
  146.0137  140.8412  142.9958 LP  0  0  0  0  0  0  0  0  0  0  0  0  # atno 17320 bound_to 7965
  144.6807  140.2527  143.7329 LP  0  0  0  0  0  0  0  0  0  0  0  0  # atno 17321 bound_to 7965
  139.5054  144.6793  151.6048 LP  0  0  0  0  0  0  0  0  0  0  0  0  # atno 17342 bound_to 10162
  140.6058  143.9526  150.6418 LP  0  0  0  0  0  0  0  0  0  0  0  0  # atno 17343 bound_to 10162
  156.0867  130.5863  150.9660 LP  0  0  0  0  0  0  0  0  0  0  0  0  # atno 17370 bound_to 10713
  157.6342  131.0918  150.8382 LP  0  0  0  0  0  0  0  0  0  0  0  0  # atno 17371 bound_to 10713
  140.4787  134.6685  157.5161 LP  0  0  0  0  0  0  0  0  0  0  0  0  # atno 17394 bound_to 11000
  139.9997  134.6856  155.9551 LP  0  0  0  0  0  0  0  0  0  0  0  0  # atno 17395 bound_to 11000

$$$$
