AV-unprocessed.smi:2243|AV-procd|sdf|9069|dock2
  -GOLD-   2272012273D 1   1.00000     0.00000
 Structure written by MMmdl.
 34 35  0  0  0  0  0  0  0  0  1 V2000
  151.6606  139.9972  158.1947 C   0  0  0  0  0  0  0  0  0  0  0  0
  151.6282  141.4946  157.8433 C   0  0  1  0  0  0  0  0  0  0  0  0
  150.5741  141.7010  156.8489 N   0  0  0  0  0  0  0  0  0  0  0  0
  150.5009  141.1399  155.6315 C   0  0  0  0  0  0  0  0  0  0  0  0
  151.3663  140.3598  155.2218 O   0  0  0  0  0  0  0  0  0  0  0  0
  149.3590  141.5814  154.9779 N   0  0  0  0  0  0  0  0  0  0  0  0
  148.6162  140.7424  154.3227 C   0  0  0  0  0  0  0  0  0  0  0  0
  148.7003  139.3704  154.1009 N   0  0  0  0  0  0  0  0  0  0  0  0
  147.6360  138.9969  153.3290 C   0  0  0  0  0  0  0  0  0  0  0  0
  146.9117  140.0821  153.0737 C   0  0  0  0  0  0  0  0  0  0  0  0
  147.4862  141.1650  153.6688 O   0  0  0  0  0  0  0  0  0  0  0  0
  151.3984  142.4105  159.0750 C   0  0  0  0  0  0  0  0  0  0  0  0
  151.2159  143.8935  158.6861 C   0  0  0  0  0  0  0  0  0  0  0  0
  151.0637  144.7835  159.9297 C   0  0  0  0  0  0  0  0  0  0  0  0
  152.1916  144.6263  160.7814 O   0  0  0  0  0  0  0  0  0  0  0  0
  152.3265  143.2981  161.2707 C   0  0  0  0  0  0  0  0  0  0  0  0
  152.5463  142.3242  160.1015 C   0  0  0  0  0  0  0  0  0  0  0  0
  152.5117  139.7482  158.8275 H   0  0  0  0  0  0  0  0  0  0  0  0
  151.7479  139.3869  157.2951 H   0  0  0  0  0  0  0  0  0  0  0  0
  150.7528  139.6913  158.7157 H   0  0  0  0  0  0  0  0  0  0  0  0
  152.5989  141.7469  157.4135 H   0  0  0  0  0  0  0  0  0  0  0  0
  149.8305  142.3316  157.1114 H   0  0  0  0  0  0  0  0  0  0  0  0
  149.4037  138.7258  154.4326 H   0  0  0  0  0  0  0  0  0  0  0  0
  147.5069  137.9652  153.0369 H   0  0  0  0  0  0  0  0  0  0  0  0
  146.0036  140.2423  152.5115 H   0  0  0  0  0  0  0  0  0  0  0  0
  150.4826  142.0840  159.5708 H   0  0  0  0  0  0  0  0  0  0  0  0
  152.0744  144.2297  158.1031 H   0  0  0  0  0  0  0  0  0  0  0  0
  150.3394  144.0239  158.0512 H   0  0  0  0  0  0  0  0  0  0  0  0
  150.9905  145.8300  159.6335 H   0  0  0  0  0  0  0  0  0  0  0  0
  150.1476  144.5419  160.4712 H   0  0  0  0  0  0  0  0  0  0  0  0
  153.1764  143.2606  161.9522 H   0  0  0  0  0  0  0  0  0  0  0  0
  151.4438  143.0197  161.8486 H   0  0  0  0  0  0  0  0  0  0  0  0
  152.6336  141.3143  160.5009 H   0  0  0  0  0  0  0  0  0  0  0  0
  153.4955  142.5520  159.6150 H   0  0  0  0  0  0  0  0  0  0  0  0
  1  2  1  0  0  0  0
  1 18  1  0  0  0  0
  1 19  1  0  0  0  0
  1 20  1  0  0  0  0
  2  3  1  0  0  0  0
  2 12  1  0  0  0  0
  2 21  1  0  0  0  0
  3 22  1  0  0  0  0
  3  4  1  0  0  0  0
  4  6  1  0  0  0  0
  4  5  2  0  0  0  0
  6  7  2  0  0  0  0
  7 11  1  0  0  0  0
  7  8  1  0  0  0  0
  8 23  1  0  0  0  0
  8  9  1  0  0  0  0
  9 24  1  0  0  0  0
  9 10  2  0  0  0  0
 10 25  1  0  0  0  0
 10 11  1  0  0  0  0
 12 17  1  0  0  0  0
 12 13  1  0  0  0  0
 12 26  1  0  0  0  0
 13 14  1  0  0  0  0
 13 27  1  0  0  0  0
 13 28  1  0  0  0  0
 14 15  1  0  0  0  0
 14 29  1  0  0  0  0
 14 30  1  0  0  0  0
 15 16  1  0  0  0  0
 16 17  1  0  0  0  0
 16 31  1  0  0  0  0
 16 32  1  0  0  0  0
 17 33  1  0  0  0  0
 17 34  1  0  0  0  0
M  END
> <s_m_source_file>
AV-unprocessed.smi

> <i_m_source_file_index>
2243

> <i_lp_mmshare_version>
43012

> <i_f3d_flags>
0

> <s_epik_input>
W0NIMl0xW0NIMl1PW0NIMl1bQ0gyXVtDSF0xW0NASF0oW0NIM10pW05IXUMoPU8pW05IXWMybltjSF1bY0hdbzI=

> <s_epik_cmdline>
J2VwaWtfcHl0aG9uJywgJy1waCcsICc3LjAnLCAnLXRuJywgJzgnLCAnLW1hJywgJzIwMCcsICctbWV0YWxfYmluZGluZycsICctaW1hZScsICc8aW5maWxlLm1hZT4nLCAnLW9tYWUnLCAnPG91dGZpbGUubWFlPic=

> <r_lp_tautomer_probability>
0.107061

> <r_epik_Ionization_Penalty>
1.44639

> <r_epik_Ionization_Penalty_Charging>
1.44602

> <r_epik_Ionization_Penalty_Neutral>
0.000368208

> <r_epik_State_Penalty>
2.61815

> <r_epik_Charging_Adjusted_Penalty>
4.06418

> <i_epik_Tot_Q>
0

> <i_epik_Tot_abs_Q>
0

> <r_epik_Metal_State_Penalty>
3.54171

> <b_epik_Metal_Only>
0

> <s_lp_Force_Field>
OPLS_2005

> <r_lp_Energy>
34.9147

> <b_lp_Chiralities_Consistent>
1

> <s_lp_Variant>
AV-unprocessed.smi:2243-8

> <Gold.Version>
5.8.1

> <Gold.Id.Protein>
6NUR|6NUR_protein|mol2

> <Gold.PLP.Fitness>
40.3345

> <Gold.PLP.PLP>
-32.1917

> <Gold.PLP.part.hbond>
-1.6508

> <Gold.PLP.part.metal>
0.0000

> <Gold.PLP.part.buried>
-4.3064

> <Gold.PLP.part.nonpolar>
-27.3908

> <Gold.PLP.part.repulsive>
0.5800

> <Gold.PLP.ligand.clash>
0.0000

> <Gold.PLP.ligand.torsion>
0.4019

> <Gold.PLP.Chemscore.Hbond>
0.9760

> <Gold.PLP.Chemscore.CHOScore>
2.0000

> <Gold.PLP.Chemscore.Metal>
0.0000

> <Gold.Chemscore.Hbonds>
donor molecule, donor type, donor heavy atom, donor atom, acceptor molecule, acceptor atom, score
      P1  H  7989  7998       L1     5  0.98
      L1  C     9    24       P1  7948  0.99
      L1  C    10    25       P1 10175  1.00

> <Gold.PLP.Chemscore.Internal.Correction>
0.0187

> <Gold.Rescore>
     Score         DG    S(hbond)    S(metal)    S(lipo)     H(rot)  DE(clash)    DE(int)     intcor
     12.30     -13.55       0.79        0.00      75.39       1.32       0.04       1.21       ----

> <Gold.Chemscore.Fitness>
12.2982

> <Gold.Chemscore.DG>
-13.5475

> <Gold.Chemscore.ZeroCoef>
-5.4800

> <Gold.Chemscore.Hbond>
0.7863

> <Gold.Chemscore.Metal>
0.0000

> <Gold.Chemscore.Lipo>
75.3890

> <Gold.Chemscore.Internal_Hbond>
0.0000

> <Gold.Chemscore.DEClash>
0.0385

> <Gold.Chemscore.DEInternal>
1.2108

> <Gold.Chemscore.Rot>
1.3201

> <Gold.Chemscore.Internal.Correction>
   9.000000E+99

> <Gold.Chemscore.Hbonds>
donor molecule, donor type, donor heavy atom, donor atom, acceptor molecule, acceptor atom, score
      P1  H  7989  7998       L1     5  0.41

> <Gold.Chemscore.Hbond.Weighted>
-2.6264

> <Gold.Chemscore.Metal.Weighted>
-0.0000

> <Gold.Chemscore.Lipo.Weighted>
-8.8205

> <Gold.Chemscore.Internal_Hbond.Weighted>
0.0000

> <Gold.Chemscore.DEClash.Weighted>
0.0385

> <Gold.Chemscore.DEInternal.Weighted>
1.2108

> <Gold.Chemscore.Rot.Weighted>
3.3794

> <Gold.Chemscore.Internal.Correction.Weighted>
   9.000000E+99

> <Gold.Protein.RotatedTorsions>
[ 6907 6896 6895 6894 ] final  102.74 input  -60.11 | X-H torsion
[ 7974 7965 7964 7962 ] final -149.77 input  175.53 | X-H torsion
[ 8008 7997 7996 7995 ] final -104.78 input   59.86 | X-H torsion
[ 10167 10162 10161 10158 ] final -158.37 input  -65.29 | X-H torsion
[ 10718 10713 10712 10709 ] final  128.30 input   66.30 | X-H torsion
[ 10763 10752 10751 10750 ] final   34.54 input  -60.55 | X-H torsion
[ 11005 11000 10999 10996 ] final -151.43 input  -57.11 | X-H torsion

> <Gold.Protein.ActiveResidues>
 VAL166  LYS551  ARG553  GLY616  TRP617  ASP618  TYR619  PRO620  LYS621  CYS622 
 ASP623  PHE694  ASN695  SER759  ASP760  ASP761  ALA762  ILE779  LEU786  VAL792 
 PHE793  MET794  SER795  GLU796  ALA797  LYS798  CYS799  TRP800  GLU811  SER814 

> <Gold.Protein.RotatedAtoms>
  152.5315  133.9930  159.7859 H   0  0  0  0  0  0  0  0  0  0  0  0  # atno 6907 bound_to 6896
  151.0162  133.5911  159.2684 H   0  0  0  0  0  0  0  0  0  0  0  0  # atno 6908 bound_to 6896
  151.2967  135.0764  159.9277 H   0  0  0  0  0  0  0  0  0  0  0  0  # atno 6909 bound_to 6896
  144.7947  140.5021  143.5748 H   0  0  0  0  0  0  0  0  0  0  0  0  # atno 7974 bound_to 7965
  154.8902  140.0416  157.1834 H   0  0  0  0  0  0  0  0  0  0  0  0  # atno 8008 bound_to 7997
  154.8548  140.2935  155.5554 H   0  0  0  0  0  0  0  0  0  0  0  0  # atno 8009 bound_to 7997
  156.2997  140.2458  156.3513 H   0  0  0  0  0  0  0  0  0  0  0  0  # atno 8010 bound_to 7997
  139.6697  143.9766  152.2276 H   0  0  0  0  0  0  0  0  0  0  0  0  # atno 10167 bound_to 10162
  157.5256  131.1098  150.9087 H   0  0  0  0  0  0  0  0  0  0  0  0  # atno 10718 bound_to 10713
  153.0160  135.6358  154.1684 H   0  0  0  0  0  0  0  0  0  0  0  0  # atno 10763 bound_to 10752
  154.1423  135.2834  155.3159 H   0  0  0  0  0  0  0  0  0  0  0  0  # atno 10764 bound_to 10752
  154.6115  135.5555  153.7539 H   0  0  0  0  0  0  0  0  0  0  0  0  # atno 10765 bound_to 10752
  140.7296  134.3636  157.5169 H   0  0  0  0  0  0  0  0  0  0  0  0  # atno 11005 bound_to 11000
  145.5703  139.1483  143.3292 LP  0  0  0  0  0  0  0  0  0  0  0  0  # atno 17320 bound_to 7965
  146.2212  140.5836  142.9016 LP  0  0  0  0  0  0  0  0  0  0  0  0  # atno 17321 bound_to 7965
  139.9527  144.6609  150.8156 LP  0  0  0  0  0  0  0  0  0  0  0  0  # atno 17342 bound_to 10162
  140.7613  143.3172  151.2706 LP  0  0  0  0  0  0  0  0  0  0  0  0  # atno 17343 bound_to 10162
  156.9684  130.5482  149.5289 LP  0  0  0  0  0  0  0  0  0  0  0  0  # atno 17370 bound_to 10713
  156.0385  130.5470  150.8712 LP  0  0  0  0  0  0  0  0  0  0  0  0  # atno 17371 bound_to 10713
  139.8829  134.9010  156.2800 LP  0  0  0  0  0  0  0  0  0  0  0  0  # atno 17394 bound_to 11000
  140.9932  133.7196  156.0846 LP  0  0  0  0  0  0  0  0  0  0  0  0  # atno 17395 bound_to 11000

$$$$
