AV-unprocessed.smi:334|AV-procd|sdf|2369|dock5
  -GOLD-   2262022283D 1   1.00000     0.00000
 Structure written by MMmdl.
 44 46  0  0  0  0  0  0  0  0  3 V2000
  150.6755  140.7055  157.0317 C   0  0  0  0  0  0  0  0  0  0  0  0
  150.4742  142.2177  157.2230 C   0  0  1  0  0  0  0  0  0  0  0  0
  149.0498  142.5147  157.0804 N   0  0  0  0  0  0  0  0  0  0  0  0
  148.0395  141.8124  157.6168 C   0  0  0  0  0  0  0  0  0  0  0  0
  148.2028  140.8318  158.3436 O   0  0  0  0  0  0  0  0  0  0  0  0
  146.6257  142.3059  157.2802 C   0  0  0  0  0  0  0  0  0  0  0  0
  146.2396  143.5056  158.0424 N   0  0  0  0  0  0  0  0  0  0  0  0
  147.0562  143.8660  159.1329 C   0  0  0  0  0  0  0  0  0  0  0  0
  146.7926  144.9423  159.8997 C   0  0  0  0  0  0  0  0  0  0  0  0
  147.6404  145.2967  161.0170 N   0  3  0  0  0  0  0  0  0  0  0  0
  148.5033  144.5019  161.3761 O   0  0  0  0  0  0  0  0  0  0  0  0
  147.4725  146.3784  161.5727 O   0  5  0  0  0  0  0  0  0  0  0  0
  145.6247  145.7358  159.5694 C   0  0  0  0  0  0  0  0  0  0  0  0
  144.8385  145.3953  158.5295 C   0  0  0  0  0  0  0  0  0  0  0  0
  145.1275  144.2242  157.6957 C   0  0  0  0  0  0  0  0  0  0  0  0
  144.4133  143.9084  156.7436 O   0  0  0  0  0  0  0  0  0  0  0  0
  150.9877  142.7093  158.5998 C   0  0  1  0  0  0  0  0  0  0  0  0
  152.4084  142.1987  158.9448 C   0  0  0  0  0  0  0  0  0  0  0  0
  153.1819  143.4892  159.2679 C   0  0  2  0  0  0  0  0  0  0  0  0
  152.6715  144.0757  160.5963 C   0  0  0  0  0  0  0  0  0  0  0  0
  151.2839  144.6211  160.2117 C   0  0  0  0  0  0  0  0  0  0  0  0
  151.1708  144.2454  158.7216 C   0  0  1  0  0  0  0  0  0  0  0  0
  152.6034  144.4589  158.2459 C   0  0  0  0  0  0  0  0  0  0  0  0
  151.7296  140.4317  157.0717 H   0  0  0  0  0  0  0  0  0  0  0  0
  150.2938  140.3799  156.0636 H   0  0  0  0  0  0  0  0  0  0  0  0
  150.1559  140.1353  157.8026 H   0  0  0  0  0  0  0  0  0  0  0  0
  151.0399  142.7252  156.4402 H   0  0  0  0  0  0  0  0  0  0  0  0
  148.8125  143.3067  156.5008 H   0  0  0  0  0  0  0  0  0  0  0  0
  146.5807  142.4947  156.2067 H   0  0  0  0  0  0  0  0  0  0  0  0
  145.9036  141.5068  157.4599 H   0  0  0  0  0  0  0  0  0  0  0  0
  147.8970  143.2085  159.3008 H   0  0  0  0  0  0  0  0  0  0  0  0
  145.3708  146.6076  160.1544 H   0  0  0  0  0  0  0  0  0  0  0  0
  143.9720  145.9993  158.3029 H   0  0  0  0  0  0  0  0  0  0  0  0
  150.2812  142.3727  159.3607 H   0  0  0  0  0  0  0  0  0  0  0  0
  152.4052  141.4967  159.7791 H   0  0  0  0  0  0  0  0  0  0  0  0
  152.8721  141.6969  158.0947 H   0  0  0  0  0  0  0  0  0  0  0  0
  154.2651  143.3709  159.2290 H   0  0  0  0  0  0  0  0  0  0  0  0
  152.6205  143.3250  161.3858 H   0  0  0  0  0  0  0  0  0  0  0  0
  153.3191  144.8828  160.9412 H   0  0  0  0  0  0  0  0  0  0  0  0
  150.4835  144.1903  160.8144 H   0  0  0  0  0  0  0  0  0  0  0  0
  151.2503  145.7037  160.3405 H   0  0  0  0  0  0  0  0  0  0  0  0
  150.4241  144.8410  158.1971 H   0  0  0  0  0  0  0  0  0  0  0  0
  152.9540  145.4843  158.3758 H   0  0  0  0  0  0  0  0  0  0  0  0
  152.7707  144.1532  157.2120 H   0  0  0  0  0  0  0  0  0  0  0  0
  1  2  1  0  0  0  0
  1 24  1  0  0  0  0
  1 25  1  0  0  0  0
  1 26  1  0  0  0  0
  2  3  1  0  0  0  0
  2 17  1  0  0  0  0
  2 27  1  0  0  0  0
  3  4  1  0  0  0  0
  3 28  1  0  0  0  0
  4  5  2  0  0  0  0
  4  6  1  0  0  0  0
  6  7  1  0  0  0  0
  6 29  1  0  0  0  0
  6 30  1  0  0  0  0
  7 15  1  0  0  0  0
  7  8  1  0  0  0  0
  8  9  2  0  0  0  0
  8 31  1  0  0  0  0
  9 10  1  0  0  0  0
  9 13  1  0  0  0  0
 10 11  2  0  0  0  0
 10 12  1  0  0  0  0
 13 14  2  0  0  0  0
 13 32  1  0  0  0  0
 14 15  1  0  0  0  0
 14 33  1  0  0  0  0
 15 16  2  0  0  0  0
 17 22  1  0  0  0  0
 17 18  1  0  0  0  0
 17 34  1  0  0  0  0
 18 19  1  0  0  0  0
 18 35  1  0  0  0  0
 18 36  1  0  0  0  0
 19 23  1  0  0  0  0
 19 20  1  0  0  0  0
 19 37  1  0  0  0  0
 20 21  1  0  0  0  0
 20 38  1  0  0  0  0
 20 39  1  0  0  0  0
 21 22  1  0  0  0  0
 21 40  1  0  0  0  0
 21 41  1  0  0  0  0
 22 23  1  0  0  0  0
 22 42  1  0  0  0  0
 23 43  1  0  0  0  0
 23 44  1  0  0  0  0
M  CHG  1  10   1
M  CHG  1  12  -1
M  END
> <s_m_source_file>
AV-unprocessed.smi

> <i_m_source_file_index>
334

> <i_lp_mmshare_version>
43012

> <i_f3d_flags>
0

> <s_epik_input>
W0NIMl0xW0NIMl1bQ0BIXShbQ0gyXTIpW0NAQEhdKFtDSDJdW0NAQEhdMTIpW0NASF0oW0NIM10pW05IXUMoPU8pW0NIMl1uM1tjSF1jKFtOK10oPU8pW08tXSlbY0hdW2NIXWMzPU8=

> <s_epik_cmdline>
J2VwaWtfcHl0aG9uJywgJy1waCcsICc3LjAnLCAnLXRuJywgJzgnLCAnLW1hJywgJzIwMCcsICctbWV0YWxfYmluZGluZycsICctaW1hZScsICc8aW5maWxlLm1hZT4nLCAnLW9tYWUnLCAnPG91dGZpbGUubWFlPic=

> <r_lp_tautomer_probability>
1

> <r_epik_Ionization_Penalty>
2.17081e-08

> <r_epik_Ionization_Penalty_Charging>
8.1195e-11

> <r_epik_Ionization_Penalty_Neutral>
2.16269e-08

> <r_epik_State_Penalty>
-0

> <r_epik_Charging_Adjusted_Penalty>
8.1195e-11

> <i_epik_Tot_Q>
0

> <i_epik_Tot_abs_Q>
2

> <r_epik_Metal_State_Penalty>
-0

> <b_epik_Metal_Only>
0

> <s_lp_Force_Field>
OPLS_2005

> <r_lp_Energy>
62.1709

> <b_lp_Chiralities_Consistent>
1

> <s_lp_Variant>
AV-unprocessed.smi:334-8

> <Gold.Version>
5.8.1

> <Gold.Id.Protein>
6NUR|6NUR_protein|mol2

> <Gold.PLP.Fitness>
48.8786

> <Gold.PLP.PLP>
-45.0794

> <Gold.PLP.part.hbond>
-4.7694

> <Gold.PLP.part.metal>
0.0000

> <Gold.PLP.part.buried>
-6.5510

> <Gold.PLP.part.nonpolar>
-33.0623

> <Gold.PLP.part.repulsive>
0.4535

> <Gold.PLP.ligand.clash>
0.5296

> <Gold.PLP.ligand.torsion>
0.8196

> <Gold.PLP.Chemscore.Hbond>
1.9760

> <Gold.PLP.Chemscore.CHOScore>
0.0000

> <Gold.PLP.Chemscore.Metal>
0.0000

> <Gold.Chemscore.Hbonds>
donor molecule, donor type, donor heavy atom, donor atom, acceptor molecule, acceptor atom, score
      L1  H     3    28       P1  8028  1.00
      P1  H  6933  6944       L1    11  0.64

> <Gold.PLP.Chemscore.Internal.Correction>
0.0401

> <Gold.Rescore>
     Score         DG    S(hbond)    S(metal)    S(lipo)     H(rot)  DE(clash)    DE(int)     intcor
     17.36     -20.03       1.96        0.00     106.63       1.75       0.18       2.49       ----

> <Gold.Chemscore.Fitness>
17.3586

> <Gold.Chemscore.DG>
-20.0326

> <Gold.Chemscore.ZeroCoef>
-5.4800

> <Gold.Chemscore.Hbond>
1.9613

> <Gold.Chemscore.Metal>
0.0000

> <Gold.Chemscore.Lipo>
106.6261

> <Gold.Chemscore.Internal_Hbond>
0.0000

> <Gold.Chemscore.DEClash>
0.1820

> <Gold.Chemscore.DEInternal>
2.4919

> <Gold.Chemscore.Rot>
1.7474

> <Gold.Chemscore.Internal.Correction>
   9.000000E+99

> <Gold.Chemscore.Hbonds>
donor molecule, donor type, donor heavy atom, donor atom, acceptor molecule, acceptor atom, score
      L1  H     3    28       P1  8028  0.92
      P1  H  6933  6944       L1    11  0.64

> <Gold.Chemscore.Hbond.Weighted>
-6.5506

> <Gold.Chemscore.Metal.Weighted>
-0.0000

> <Gold.Chemscore.Lipo.Weighted>
-12.4752

> <Gold.Chemscore.Internal_Hbond.Weighted>
0.0000

> <Gold.Chemscore.DEClash.Weighted>
0.1820

> <Gold.Chemscore.DEInternal.Weighted>
2.4919

> <Gold.Chemscore.Rot.Weighted>
4.4733

> <Gold.Chemscore.Internal.Correction.Weighted>
   9.000000E+99

> <Gold.Protein.RotatedTorsions>
[ 6907 6896 6895 6894 ] final  117.08 input  -60.11 | X-H torsion
[ 7974 7965 7964 7962 ] final  -55.18 input  175.53 | X-H torsion
[ 8008 7997 7996 7995 ] final  123.65 input   59.86 | X-H torsion
[ 10167 10162 10161 10158 ] final   86.24 input  -65.29 | X-H torsion
[ 10718 10713 10712 10709 ] final  -56.49 input   66.30 | X-H torsion
[ 10763 10752 10751 10750 ] final -133.13 input  -60.55 | X-H torsion
[ 11005 11000 10999 10996 ] final   91.23 input  -57.11 | X-H torsion

> <Gold.Protein.ActiveResidues>
 VAL166  LYS551  ARG553  GLY616  TRP617  ASP618  TYR619  PRO620  LYS621  CYS622 
 ASP623  PHE694  ASN695  SER759  ASP760  ASP761  ALA762  ILE779  LEU786  VAL792 
 PHE793  MET794  SER795  GLU796  ALA797  LYS798  CYS799  TRP800  GLU811  SER814 

> <Gold.Protein.RotatedAtoms>
  152.4635  133.7874  159.6882 H   0  0  0  0  0  0  0  0  0  0  0  0  # atno 6907 bound_to 6896
  150.8590  133.7662  159.3005 H   0  0  0  0  0  0  0  0  0  0  0  0  # atno 6908 bound_to 6896
  151.5234  135.1070  159.9936 H   0  0  0  0  0  0  0  0  0  0  0  0  # atno 6909 bound_to 6896
  145.8771  140.8172  142.9858 H   0  0  0  0  0  0  0  0  0  0  0  0  # atno 7974 bound_to 7965
  156.2773  140.2758  156.1661 H   0  0  0  0  0  0  0  0  0  0  0  0  # atno 8008 bound_to 7997
  155.0703  140.0387  157.2624 H   0  0  0  0  0  0  0  0  0  0  0  0  # atno 8009 bound_to 7997
  154.7045  140.2656  155.6693 H   0  0  0  0  0  0  0  0  0  0  0  0  # atno 8010 bound_to 7997
  139.8895  144.6394  150.8754 H   0  0  0  0  0  0  0  0  0  0  0  0  # atno 10167 bound_to 10162
  156.1284  130.4161  150.0312 H   0  0  0  0  0  0  0  0  0  0  0  0  # atno 10718 bound_to 10713
  154.8736  135.3776  154.4522 H   0  0  0  0  0  0  0  0  0  0  0  0  # atno 10763 bound_to 10752
  153.5197  135.7029  153.5742 H   0  0  0  0  0  0  0  0  0  0  0  0  # atno 10764 bound_to 10752
  153.3995  135.3952  155.1943 H   0  0  0  0  0  0  0  0  0  0  0  0  # atno 10765 bound_to 10752
  139.8842  134.8661  156.3398 H   0  0  0  0  0  0  0  0  0  0  0  0  # atno 11005 bound_to 11000
  144.6726  140.1327  143.7442 LP  0  0  0  0  0  0  0  0  0  0  0  0  # atno 17320 bound_to 7965
  145.9068  139.2463  143.1461 LP  0  0  0  0  0  0  0  0  0  0  0  0  # atno 17321 bound_to 7965
  140.7729  143.3521  151.1993 LP  0  0  0  0  0  0  0  0  0  0  0  0  # atno 17342 bound_to 10162
  139.7122  143.9357  152.2952 LP  0  0  0  0  0  0  0  0  0  0  0  0  # atno 17343 bound_to 10162
  156.8231  130.9366  151.3640 LP  0  0  0  0  0  0  0  0  0  0  0  0  # atno 17370 bound_to 10713
  157.6464  130.8848  149.9547 LP  0  0  0  0  0  0  0  0  0  0  0  0  # atno 17371 bound_to 10713
  140.9666  133.7354  156.0476 LP  0  0  0  0  0  0  0  0  0  0  0  0  # atno 17394 bound_to 11000
  140.7923  134.3604  157.5461 LP  0  0  0  0  0  0  0  0  0  0  0  0  # atno 17395 bound_to 11000

$$$$
