AV-unprocessed.smi:1873|AV-procd|sdf|7609|dock1
  -GOLD-   22720 9333D 1   1.00000     0.00000
 Structure written by MMmdl.
 37 39  0  0  0  0  0  0  0  0  2 V2000
  153.1975  138.8217  156.2429 O   0  0  0  0  0  0  0  0  0  0  0  0
  151.7830  138.8189  156.2755 C   0  0  2  0  0  0  0  0  0  0  0  0
  151.2945  139.4990  157.5697 C   0  0  0  0  0  0  0  0  0  0  0  0
  150.9594  140.9147  157.3726 N   0  0  0  0  0  0  0  0  0  0  0  0
  150.1028  141.4972  156.4907 C   0  0  0  0  0  0  0  0  0  0  0  0
  150.1350  142.8406  156.7134 N   0  3  0  0  0  0  0  0  0  0  0  0
  151.0262  143.1201  157.7521 C   0  0  0  0  0  0  0  0  0  0  0  0
  151.3969  144.3271  158.3370 C   0  0  0  0  0  0  0  0  0  0  0  0
  152.3389  144.2595  159.3850 C   0  0  0  0  0  0  0  0  0  0  0  0
  152.8739  143.0273  159.8142 C   0  0  0  0  0  0  0  0  0  0  0  0
  152.4900  141.8095  159.2149 C   0  0  0  0  0  0  0  0  0  0  0  0
  151.5597  141.8860  158.1794 C   0  0  0  0  0  0  0  0  0  0  0  0
  151.2052  137.4204  156.1318 C   0  0  0  0  0  0  0  0  0  0  0  0
  150.4943  136.8217  157.1936 C   0  0  0  0  0  0  0  0  0  0  0  0
  149.9566  135.5284  157.0469 C   0  0  0  0  0  0  0  0  0  0  0  0
  150.1111  134.8196  155.8386 C   0  0  0  0  0  0  0  0  0  0  0  0
  149.5738  133.5547  155.7604 O   0  0  0  0  0  0  0  0  0  0  0  0
  149.9681  132.7254  154.7578 C   0  0  0  0  0  0  0  0  0  0  0  0
  149.6393  131.4423  155.0472 F   0  0  0  0  0  0  0  0  0  0  0  0
  149.3331  133.0611  153.6092 F   0  0  0  0  0  0  0  0  0  0  0  0
  150.8317  135.4189  154.7780 C   0  0  0  0  0  0  0  0  0  0  0  0
  151.3698  136.7119  154.9236 C   0  0  0  0  0  0  0  0  0  0  0  0
  153.4927  137.9584  155.9960 H   0  0  0  0  0  0  0  0  0  0  0  0
  151.4538  139.4103  155.4202 H   0  0  0  0  0  0  0  0  0  0  0  0
  150.4170  138.9907  157.9717 H   0  0  0  0  0  0  0  0  0  0  0  0
  152.0628  139.4480  158.3427 H   0  0  0  0  0  0  0  0  0  0  0  0
  149.5016  140.9852  155.7529 H   0  0  0  0  0  0  0  0  0  0  0  0
  150.9884  145.2724  158.0109 H   0  0  0  0  0  0  0  0  0  0  0  0
  152.6571  145.1714  159.8693 H   0  0  0  0  0  0  0  0  0  0  0  0
  153.5939  143.0155  160.6199 H   0  0  0  0  0  0  0  0  0  0  0  0
  152.9041  140.8703  159.5504 H   0  0  0  0  0  0  0  0  0  0  0  0
  150.3578  137.3524  158.1246 H   0  0  0  0  0  0  0  0  0  0  0  0
  149.4166  135.0786  157.8673 H   0  0  0  0  0  0  0  0  0  0  0  0
  151.0413  132.7931  154.5765 H   0  0  0  0  0  0  0  0  0  0  0  0
  150.9843  134.8948  153.8462 H   0  0  0  0  0  0  0  0  0  0  0  0
  151.9123  137.1560  154.1020 H   0  0  0  0  0  0  0  0  0  0  0  0
  149.5862  143.5139  156.1942 H   0  0  0  0  0  0  0  0  0  0  0  0
  1  2  1  0  0  0  0
  1 23  1  0  0  0  0
  2  3  1  0  0  0  0
  2 13  1  0  0  0  0
  2 24  1  0  0  0  0
  3  4  1  0  0  0  0
  3 25  1  0  0  0  0
  3 26  1  0  0  0  0
  4 12  1  0  0  0  0
  4  5  1  0  0  0  0
  5  6  2  0  0  0  0
  5 27  1  0  0  0  0
  6  7  1  0  0  0  0
  6 37  1  0  0  0  0
  7 12  2  0  0  0  0
  7  8  1  0  0  0  0
  8  9  2  0  0  0  0
  8 28  1  0  0  0  0
  9 10  1  0  0  0  0
  9 29  1  0  0  0  0
 10 11  2  0  0  0  0
 10 30  1  0  0  0  0
 11 12  1  0  0  0  0
 11 31  1  0  0  0  0
 13 22  1  0  0  0  0
 13 14  2  0  0  0  0
 14 15  1  0  0  0  0
 14 32  1  0  0  0  0
 15 16  2  0  0  0  0
 15 33  1  0  0  0  0
 16 17  1  0  0  0  0
 16 21  1  0  0  0  0
 17 18  1  0  0  0  0
 18 19  1  0  0  0  0
 18 20  1  0  0  0  0
 18 34  1  0  0  0  0
 21 22  2  0  0  0  0
 21 35  1  0  0  0  0
 22 36  1  0  0  0  0
M  CHG  1   6   1
M  END
> <s_m_source_file>
AV-unprocessed.smi

> <i_m_source_file_index>
1873

> <i_lp_mmshare_version>
43012

> <i_f3d_flags>
0

> <s_epik_input>
RltDSF0oRilPYyhbY0hdW2NIXTEpW2NIXVtjSF1jMVtDQEhdKFtPSF0pW0NIMl1uKFtjSF1uMiljKGMyMylbY0hdW2NIXVtjSF1bY0hdMw==

> <s_epik_cmdline>
J2VwaWtfcHl0aG9uJywgJy1waCcsICc3LjAnLCAnLXRuJywgJzgnLCAnLW1hJywgJzIwMCcsICctbWV0YWxfYmluZGluZycsICctaW1hZScsICc8aW5maWxlLm1hZT4nLCAnLW9tYWUnLCAnPG91dGZpbGUubWFlPic=

> <r_lp_tautomer_probability>
1

> <r_epik_Ionization_Penalty>
1.3029

> <r_epik_Ionization_Penalty_Charging>
1.3029

> <r_epik_Ionization_Penalty_Neutral>
2.50501e-07

> <r_epik_State_Penalty>
1.377

> <r_epik_Charging_Adjusted_Penalty>
2.6799

> <i_epik_Tot_Q>
1

> <i_epik_Tot_abs_Q>
1

> <r_epik_Metal_State_Penalty>
5.40879

> <b_epik_Metal_Only>
0

> <s_lp_Force_Field>
OPLS_2005

> <r_lp_Energy>
14.9016

> <b_lp_Chiralities_Consistent>
1

> <s_lp_Variant>
AV-unprocessed.smi:1873-3

> <Gold.Version>
5.8.1

> <Gold.Id.Protein>
6NUR|6NUR_protein|mol2

> <Gold.PLP.Fitness>
49.0188

> <Gold.PLP.PLP>
-41.8417

> <Gold.PLP.part.hbond>
-2.0000

> <Gold.PLP.part.metal>
0.0000

> <Gold.PLP.part.buried>
-4.2394

> <Gold.PLP.part.nonpolar>
-37.0217

> <Gold.PLP.part.repulsive>
0.0631

> <Gold.PLP.ligand.clash>
0.0000

> <Gold.PLP.ligand.torsion>
1.0216

> <Gold.PLP.Chemscore.Hbond>
3.0000

> <Gold.PLP.Chemscore.CHOScore>
0.0000

> <Gold.PLP.Chemscore.Metal>
0.0000

> <Gold.Chemscore.Hbonds>
donor molecule, donor type, donor heavy atom, donor atom, acceptor molecule, acceptor atom, score
      L1  H     6    37       P1  8028  1.82
      P1  H  7997  8010       L1     1  1.00

> <Gold.PLP.Chemscore.Internal.Correction>
0.2203

> <Gold.Rescore>
     Score         DG    S(hbond)    S(metal)    S(lipo)     H(rot)  DE(clash)    DE(int)     intcor
     17.70     -18.70       1.92        0.00     112.16       2.47       0.21       0.79       ----

> <Gold.Chemscore.Fitness>
17.7009

> <Gold.Chemscore.DG>
-18.6982

> <Gold.Chemscore.ZeroCoef>
-5.4800

> <Gold.Chemscore.Hbond>
1.9193

> <Gold.Chemscore.Metal>
0.0000

> <Gold.Chemscore.Lipo>
112.1601

> <Gold.Chemscore.Internal_Hbond>
0.0000

> <Gold.Chemscore.DEClash>
0.2102

> <Gold.Chemscore.DEInternal>
0.7871

> <Gold.Chemscore.Rot>
2.4668

> <Gold.Chemscore.Internal.Correction>
   9.000000E+99

> <Gold.Chemscore.Hbonds>
donor molecule, donor type, donor heavy atom, donor atom, acceptor molecule, acceptor atom, score
      L1  H     6    37       P1  8028  0.87
      P1  H  7997  8010       L1     1  0.94

> <Gold.Chemscore.Hbond.Weighted>
-6.4106

> <Gold.Chemscore.Metal.Weighted>
-0.0000

> <Gold.Chemscore.Lipo.Weighted>
-13.1227

> <Gold.Chemscore.Internal_Hbond.Weighted>
0.0000

> <Gold.Chemscore.DEClash.Weighted>
0.2102

> <Gold.Chemscore.DEInternal.Weighted>
0.7871

> <Gold.Chemscore.Rot.Weighted>
6.3151

> <Gold.Chemscore.Internal.Correction.Weighted>
   9.000000E+99

> <Gold.Protein.RotatedTorsions>
[ 6907 6896 6895 6894 ] final   77.91 input  -60.11 | X-H torsion
[ 7974 7965 7964 7962 ] final   88.31 input  175.53 | X-H torsion
[ 8008 7997 7996 7995 ] final   67.94 input   59.86 | X-H torsion
[ 10167 10162 10161 10158 ] final  122.76 input  -65.29 | X-H torsion
[ 10718 10713 10712 10709 ] final   10.18 input   66.30 | X-H torsion
[ 10763 10752 10751 10750 ] final -161.34 input  -60.55 | X-H torsion
[ 11005 11000 10999 10996 ] final  -62.92 input  -57.11 | X-H torsion

> <Gold.Protein.ActiveResidues>
 VAL166  LYS551  ARG553  GLY616  TRP617  ASP618  TYR619  PRO620  LYS621  CYS622 
 ASP623  PHE694  ASN695  SER759  ASP760  ASP761  ALA762  ILE779  LEU786  VAL792 
 PHE793  MET794  SER795  GLU796  ALA797  LYS798  CYS799  TRP800  GLU811  SER814 

> <Gold.Protein.RotatedAtoms>
  152.5137  134.3745  159.9329 H   0  0  0  0  0  0  0  0  0  0  0  0  # atno 6907 bound_to 6896
  151.3700  133.3852  159.2706 H   0  0  0  0  0  0  0  0  0  0  0  0  # atno 6908 bound_to 6896
  150.9585  134.8996  159.7774 H   0  0  0  0  0  0  0  0  0  0  0  0  # atno 6909 bound_to 6896
  145.5474  139.2293  143.2532 H   0  0  0  0  0  0  0  0  0  0  0  0  # atno 7974 bound_to 7965
  155.7006  140.3495  155.4931 H   0  0  0  0  0  0  0  0  0  0  0  0  # atno 8008 bound_to 7997
  155.9444  140.1107  157.1051 H   0  0  0  0  0  0  0  0  0  0  0  0  # atno 8009 bound_to 7997
  154.4109  140.1206  156.4956 H   0  0  0  0  0  0  0  0  0  0  0  0  # atno 8010 bound_to 7997
  139.5840  144.6998  151.3457 H   0  0  0  0  0  0  0  0  0  0  0  0  # atno 10167 bound_to 10162
  156.9773  130.5992  149.5673 H   0  0  0  0  0  0  0  0  0  0  0  0  # atno 10718 bound_to 10713
  154.7312  135.3047  154.8888 H   0  0  0  0  0  0  0  0  0  0  0  0  # atno 10763 bound_to 10752
  153.9730  135.6739  153.4752 H   0  0  0  0  0  0  0  0  0  0  0  0  # atno 10764 bound_to 10752
  153.0920  135.4954  154.8629 H   0  0  0  0  0  0  0  0  0  0  0  0  # atno 10765 bound_to 10752
  141.1376  133.6645  156.5601 H   0  0  0  0  0  0  0  0  0  0  0  0  # atno 11005 bound_to 11000
  146.1940  140.6296  142.9132 LP  0  0  0  0  0  0  0  0  0  0  0  0  # atno 17320 bound_to 7965
  144.7546  140.5276  143.6778 LP  0  0  0  0  0  0  0  0  0  0  0  0  # atno 17321 bound_to 7965
  140.7114  143.7380  150.7574 LP  0  0  0  0  0  0  0  0  0  0  0  0  # atno 17342 bound_to 10162
  140.0920  143.4869  152.2473 LP  0  0  0  0  0  0  0  0  0  0  0  0  # atno 17343 bound_to 10162
  156.0258  130.5352  150.8404 LP  0  0  0  0  0  0  0  0  0  0  0  0  # atno 17370 bound_to 10713
  157.5551  131.0945  150.9640 LP  0  0  0  0  0  0  0  0  0  0  0  0  # atno 17371 bound_to 10713
  140.3995  134.7369  157.4771 LP  0  0  0  0  0  0  0  0  0  0  0  0  # atno 17394 bound_to 11000
  140.0506  134.6135  155.8866 LP  0  0  0  0  0  0  0  0  0  0  0  0  # atno 17395 bound_to 11000

$$$$
