AV-unprocessed.smi:294|AV-procd|sdf|2252|dock7
  -GOLD-   2262022133D 1   1.00000     0.00000
 Structure written by MMmdl.
 29 30  0  0  0  0  0  0  0  0  1 V2000
  149.1693  134.1110  155.2118 N   0  0  0  0  0  0  0  0  0  0  0  0
  149.6303  135.1561  155.0267 C   0  0  0  0  0  0  0  0  0  0  0  0
  150.2092  136.4681  154.7936 C   0  0  0  0  0  0  0  0  0  0  0  0
  151.4512  136.6126  154.2464 N   0  0  0  0  0  0  0  0  0  0  0  0
  151.5167  137.9383  154.2313 C   0  0  0  0  0  0  0  0  0  0  0  0
  150.4286  138.5415  154.7215 N   0  0  0  0  0  0  0  0  0  0  0  0
  150.1143  139.9512  154.8585 C   0  0  0  0  0  0  0  0  0  0  0  0
  151.1210  140.6420  155.7780 C   0  0  0  0  0  0  0  0  0  0  0  0
  152.3031  140.3001  155.7627 O   0  0  0  0  0  0  0  0  0  0  0  0
  150.6421  141.6214  156.5602 N   0  0  0  0  0  0  0  0  0  0  0  0
  151.4425  142.4326  157.4709 C   0  0  2  0  0  0  0  0  0  0  0  0
  152.1433  141.5586  158.5272 C   0  0  0  0  0  0  0  0  0  0  0  0
  152.6600  142.4660  159.6507 C   0  0  0  0  0  0  0  0  0  0  0  0
  151.4926  143.8770  159.7418 S   0  0  0  0  0  0  0  0  0  0  0  0
  150.5978  143.7034  160.8961 O   0  0  0  0  0  0  0  0  0  0  0  0
  152.2405  145.1279  159.5446 O   0  0  0  0  0  0  0  0  0  0  0  0
  150.5775  143.4660  158.2091 C   0  0  0  0  0  0  0  0  0  0  0  0
  149.5481  137.5826  155.1000 N   0  0  0  0  0  0  0  0  0  0  0  0
  152.3705  138.4807  153.8518 H   0  0  0  0  0  0  0  0  0  0  0  0
  150.1060  140.4197  153.8727 H   0  0  0  0  0  0  0  0  0  0  0  0
  149.1091  140.0498  155.2703 H   0  0  0  0  0  0  0  0  0  0  0  0
  149.6567  141.8355  156.5027 H   0  0  0  0  0  0  0  0  0  0  0  0
  152.2172  142.9611  156.9117 H   0  0  0  0  0  0  0  0  0  0  0  0
  151.4215  140.8583  158.9505 H   0  0  0  0  0  0  0  0  0  0  0  0
  152.9472  140.9630  158.0931 H   0  0  0  0  0  0  0  0  0  0  0  0
  152.7186  141.9607  160.6147 H   0  0  0  0  0  0  0  0  0  0  0  0
  153.6458  142.8621  159.4049 H   0  0  0  0  0  0  0  0  0  0  0  0
  150.3974  144.3681  157.6241 H   0  0  0  0  0  0  0  0  0  0  0  0
  149.6157  143.0421  158.5002 H   0  0  0  0  0  0  0  0  0  0  0  0
  1  2  3  0  0  0  0
  2  3  1  0  0  0  0
  3 18  2  0  0  0  0
  3  4  1  0  0  0  0
  4  5  2  0  0  0  0
  5  6  1  0  0  0  0
  5 19  1  0  0  0  0
  6  7  1  0  0  0  0
  6 18  1  0  0  0  0
  7  8  1  0  0  0  0
  7 20  1  0  0  0  0
  7 21  1  0  0  0  0
  8  9  2  0  0  0  0
  8 10  1  0  0  0  0
 10 11  1  0  0  0  0
 10 22  1  0  0  0  0
 11 17  1  0  0  0  0
 11 12  1  0  0  0  0
 11 23  1  0  0  0  0
 12 13  1  0  0  0  0
 12 24  1  0  0  0  0
 12 25  1  0  0  0  0
 13 14  1  0  0  0  0
 13 26  1  0  0  0  0
 13 27  1  0  0  0  0
 14 15  2  0  0  0  0
 14 16  2  0  0  0  0
 14 17  1  0  0  0  0
 17 28  1  0  0  0  0
 17 29  1  0  0  0  0
M  END
> <s_m_source_file>
AV-unprocessed.smi

> <i_m_source_file_index>
294

> <i_lp_mmshare_version>
43012

> <i_f3d_flags>
0

> <s_epik_input>
TiNDYzFuW2NIXW4objEpW0NIMl1DKD1PKVtOSF1bQ0BASF0oW0NIMl0yKVtDSDJdW0NIMl1TMig9Tyk9Tw==

> <s_epik_cmdline>
J2VwaWtfcHl0aG9uJywgJy1waCcsICc3LjAnLCAnLXRuJywgJzgnLCAnLW1hJywgJzIwMCcsICctbWV0YWxfYmluZGluZycsICctaW1hZScsICc8aW5maWxlLm1hZT4nLCAnLW9tYWUnLCAnPG91dGZpbGUubWFlPic=

> <r_lp_tautomer_probability>
1

> <r_epik_Ionization_Penalty>
6.08231e-07

> <r_epik_Ionization_Penalty_Charging>
0

> <r_epik_Ionization_Penalty_Neutral>
6.08231e-07

> <r_epik_State_Penalty>
-0

> <r_epik_Charging_Adjusted_Penalty>
0

> <i_epik_Tot_Q>
0

> <i_epik_Tot_abs_Q>
0

> <r_epik_Metal_State_Penalty>
-0

> <b_epik_Metal_Only>
0

> <s_lp_Force_Field>
OPLS_2005

> <r_lp_Energy>
6.42809

> <b_lp_Chiralities_Consistent>
1

> <s_lp_Variant>
AV-unprocessed.smi:294-1

> <Gold.Version>
5.8.1

> <Gold.Id.Protein>
6NUR|6NUR_protein|mol2

> <Gold.PLP.Fitness>
35.4686

> <Gold.PLP.PLP>
-30.1539

> <Gold.PLP.part.hbond>
-3.2315

> <Gold.PLP.part.metal>
0.0000

> <Gold.PLP.part.buried>
-4.0516

> <Gold.PLP.part.nonpolar>
-24.4103

> <Gold.PLP.part.repulsive>
1.1643

> <Gold.PLP.ligand.clash>
0.0000

> <Gold.PLP.ligand.torsion>
0.3438

> <Gold.PLP.Chemscore.Hbond>
2.0000

> <Gold.PLP.Chemscore.CHOScore>
0.0000

> <Gold.PLP.Chemscore.Metal>
0.0000

> <Gold.Chemscore.Hbonds>
donor molecule, donor type, donor heavy atom, donor atom, acceptor molecule, acceptor atom, score
      P1  H  7997  8010       L1     9  0.81
      P1  H 10752 10765       L1     4  1.00

> <Gold.PLP.Chemscore.Internal.Correction>
0.0022

> <Gold.Rescore>
     Score         DG    S(hbond)    S(metal)    S(lipo)     H(rot)  DE(clash)    DE(int)     intcor
      9.86     -11.18       1.93        0.00      40.75       2.15       0.09       1.22       ----

> <Gold.Chemscore.Fitness>
9.8569

> <Gold.Chemscore.DG>
-11.1750

> <Gold.Chemscore.ZeroCoef>
-5.4800

> <Gold.Chemscore.Hbond>
1.9290

> <Gold.Chemscore.Metal>
0.0000

> <Gold.Chemscore.Lipo>
40.7529

> <Gold.Chemscore.Internal_Hbond>
0.0000

> <Gold.Chemscore.DEClash>
0.0936

> <Gold.Chemscore.DEInternal>
1.2245

> <Gold.Chemscore.Rot>
2.1546

> <Gold.Chemscore.Internal.Correction>
   9.000000E+99

> <Gold.Chemscore.Hbonds>
donor molecule, donor type, donor heavy atom, donor atom, acceptor molecule, acceptor atom, score
      P1  H  7997  8010       L1     9  0.78
      P1  H 10752 10765       L1     4  0.98

> <Gold.Chemscore.Hbond.Weighted>
-6.4427

> <Gold.Chemscore.Metal.Weighted>
-0.0000

> <Gold.Chemscore.Lipo.Weighted>
-4.7681

> <Gold.Chemscore.Internal_Hbond.Weighted>
0.0000

> <Gold.Chemscore.DEClash.Weighted>
0.0936

> <Gold.Chemscore.DEInternal.Weighted>
1.2245

> <Gold.Chemscore.Rot.Weighted>
5.5158

> <Gold.Chemscore.Internal.Correction.Weighted>
   9.000000E+99

> <Gold.Protein.RotatedTorsions>
[ 6907 6896 6895 6894 ] final -137.35 input  -60.11 | X-H torsion
[ 7974 7965 7964 7962 ] final  -74.63 input  175.53 | X-H torsion
[ 8008 7997 7996 7995 ] final   95.85 input   59.86 | X-H torsion
[ 10167 10162 10161 10158 ] final  149.37 input  -65.29 | X-H torsion
[ 10718 10713 10712 10709 ] final -139.27 input   66.30 | X-H torsion
[ 10763 10752 10751 10750 ] final  165.35 input  -60.55 | X-H torsion
[ 11005 11000 10999 10996 ] final   51.94 input  -57.11 | X-H torsion

> <Gold.Protein.ActiveResidues>
 VAL166  LYS551  ARG553  GLY616  TRP617  ASP618  TYR619  PRO620  LYS621  CYS622 
 ASP623  PHE694  ASN695  SER759  ASP760  ASP761  ALA762  ILE779  LEU786  VAL792 
 PHE793  MET794  SER795  GLU796  ALA797  LYS798  CYS799  TRP800  GLU811  SER814 

> <Gold.Protein.RotatedAtoms>
  151.0213  133.5874  159.2670 H   0  0  0  0  0  0  0  0  0  0  0  0  # atno 6907 bound_to 6896
  151.2990  135.0762  159.9241 H   0  0  0  0  0  0  0  0  0  0  0  0  # atno 6908 bound_to 6896
  152.5324  133.9898  159.7899 H   0  0  0  0  0  0  0  0  0  0  0  0  # atno 6909 bound_to 6896
  145.6366  140.9323  143.1058 H   0  0  0  0  0  0  0  0  0  0  0  0  # atno 7974 bound_to 7965
  156.0733  140.3281  155.7602 H   0  0  0  0  0  0  0  0  0  0  0  0  # atno 8008 bound_to 7997
  155.5271  140.0590  157.2913 H   0  0  0  0  0  0  0  0  0  0  0  0  # atno 8009 bound_to 7997
  154.4542  140.1934  156.0447 H   0  0  0  0  0  0  0  0  0  0  0  0  # atno 8010 bound_to 7997
  139.4862  144.5607  151.7237 H   0  0  0  0  0  0  0  0  0  0  0  0  # atno 10167 bound_to 10162
  156.3088  130.7470  151.1541 H   0  0  0  0  0  0  0  0  0  0  0  0  # atno 10718 bound_to 10713
  154.3227  135.2755  155.2511 H   0  0  0  0  0  0  0  0  0  0  0  0  # atno 10763 bound_to 10752
  154.4858  135.5846  153.6426 H   0  0  0  0  0  0  0  0  0  0  0  0  # atno 10764 bound_to 10752
  152.9875  135.6122  154.3413 H   0  0  0  0  0  0  0  0  0  0  0  0  # atno 10765 bound_to 10752
  140.0891  134.5234  155.8870 H   0  0  0  0  0  0  0  0  0  0  0  0  # atno 11005 bound_to 11000
  144.7173  139.8151  143.7394 LP  0  0  0  0  0  0  0  0  0  0  0  0  # atno 17320 bound_to 7965
  146.1315  139.4351  143.0166 LP  0  0  0  0  0  0  0  0  0  0  0  0  # atno 17321 bound_to 7965
  140.5176  144.0929  150.6013 LP  0  0  0  0  0  0  0  0  0  0  0  0  # atno 17342 bound_to 10162
  140.3876  143.2769  152.0098 LP  0  0  0  0  0  0  0  0  0  0  0  0  # atno 17343 bound_to 10162
  157.7386  131.0539  150.5284 LP  0  0  0  0  0  0  0  0  0  0  0  0  # atno 17370 bound_to 10713
  156.5421  130.4210  149.6149 LP  0  0  0  0  0  0  0  0  0  0  0  0  # atno 17371 bound_to 10713
  141.2072  133.6662  156.6290 LP  0  0  0  0  0  0  0  0  0  0  0  0  # atno 17394 bound_to 11000
  140.3378  134.7874  157.4375 LP  0  0  0  0  0  0  0  0  0  0  0  0  # atno 17395 bound_to 11000

$$$$
