AV-unprocessed.smi:258|AV-procd|sdf|1968|dock2
  -GOLD-   2262021123D 1   1.00000     0.00000
 Structure written by MMmdl.
 57 60  0  0  0  0  0  0  0  0  1 V2000
  154.9502  140.9908  162.2445 O   0  0  0  0  0  0  0  0  0  0  0  0
  154.8673  140.3862  160.9711 C   0  0  0  0  0  0  0  0  0  0  0  0
  154.2243  141.3507  159.9671 C   0  0  0  0  0  0  0  0  0  0  0  0
  153.0272  141.8725  160.5266 O   0  0  0  0  0  0  0  0  0  0  0  0
  152.1119  142.3967  159.5735 C   0  0  1  0  0  0  0  0  0  0  0  0
  152.6667  143.6770  158.9167 C   0  0  0  0  0  0  0  0  0  0  0  0
  151.7356  144.1414  157.7867 C   0  0  0  0  0  0  0  0  0  0  0  0
  151.5001  143.0158  156.7668 C   0  0  0  0  0  0  0  0  0  0  0  0
  151.0232  141.8016  157.4316 N   0  0  0  0  0  0  0  0  0  0  0  0
  150.4736  140.8312  156.6576 C   0  0  0  0  0  0  0  0  0  0  0  0
  150.3466  141.0223  155.3168 N   0  0  0  0  0  0  0  0  0  0  0  0
  149.8189  140.0677  154.5450 C   0  0  0  0  0  0  0  0  0  0  0  0
  149.3599  138.8665  154.9002 N   0  0  0  0  0  0  0  0  0  0  0  0
  149.4767  138.6703  156.2445 C   0  0  0  0  0  0  0  0  0  0  0  0
  150.0141  139.5919  157.1874 C   0  0  0  0  0  0  0  0  0  0  0  0
  149.9534  139.0488  158.4657 N   0  0  0  0  0  0  0  0  0  0  0  0
  149.4232  137.8697  158.2873 C   0  0  0  0  0  0  0  0  0  0  0  0
  149.1158  137.5565  156.9830 N   0  0  0  0  0  0  0  0  0  0  0  0
  148.5253  136.3166  156.5085 C   0  0  0  0  0  0  0  0  0  0  0  0
  149.3048  135.6814  155.3310 C   0  0  1  0  0  0  0  0  0  0  0  0
  150.7931  135.4836  155.7052 C   0  0  0  0  0  0  0  0  0  0  0  0
  151.5663  136.5794  155.2626 O   0  0  0  0  0  0  0  0  0  0  0  0
  148.6237  134.3931  154.7880 C   0  0  2  0  0  0  0  0  0  0  0  0
  149.3673  133.6766  153.6618 C   0  0  0  0  0  0  0  0  0  0  0  0
  148.2383  133.1268  152.8006 C   0  0  0  0  0  0  0  0  0  0  0  0
  147.2700  134.1587  152.8689 O   0  0  0  0  0  0  0  0  0  0  0  0
  147.2069  134.5942  154.2206 C   0  0  0  0  0  0  0  0  0  0  0  0
  151.8823  141.3101  158.5089 C   0  0  0  0  0  0  0  0  0  0  0  0
  154.1368  140.8412  162.7015 H   0  0  0  0  0  0  0  0  0  0  0  0
  155.8530  140.0619  160.6360 H   0  0  0  0  0  0  0  0  0  0  0  0
  154.2503  139.4932  161.0717 H   0  0  0  0  0  0  0  0  0  0  0  0
  154.9100  142.1794  159.7849 H   0  0  0  0  0  0  0  0  0  0  0  0
  154.0530  140.8576  159.0099 H   0  0  0  0  0  0  0  0  0  0  0  0
  151.1547  142.6106  160.0528 H   0  0  0  0  0  0  0  0  0  0  0  0
  152.7758  144.4766  159.6487 H   0  0  0  0  0  0  0  0  0  0  0  0
  153.6620  143.4830  158.5147 H   0  0  0  0  0  0  0  0  0  0  0  0
  150.7804  144.4556  158.2089 H   0  0  0  0  0  0  0  0  0  0  0  0
  152.1569  145.0146  157.2879 H   0  0  0  0  0  0  0  0  0  0  0  0
  150.7732  143.3476  156.0241 H   0  0  0  0  0  0  0  0  0  0  0  0
  152.4274  142.7950  156.2360 H   0  0  0  0  0  0  0  0  0  0  0  0
  149.7575  140.2992  153.4919 H   0  0  0  0  0  0  0  0  0  0  0  0
  149.2448  137.1887  159.1068 H   0  0  0  0  0  0  0  0  0  0  0  0
  148.4831  135.6284  157.3531 H   0  0  0  0  0  0  0  0  0  0  0  0
  147.4916  136.5071  156.2177 H   0  0  0  0  0  0  0  0  0  0  0  0
  149.2796  136.3978  154.5082 H   0  0  0  0  0  0  0  0  0  0  0  0
  150.9209  135.3807  156.7827 H   0  0  0  0  0  0  0  0  0  0  0  0
  151.2059  134.5845  155.2497 H   0  0  0  0  0  0  0  0  0  0  0  0
  151.2223  137.3679  155.6545 H   0  0  0  0  0  0  0  0  0  0  0  0
  148.5123  133.6858  155.6105 H   0  0  0  0  0  0  0  0  0  0  0  0
  149.9622  134.3685  153.0675 H   0  0  0  0  0  0  0  0  0  0  0  0
  150.0341  132.8941  154.0237 H   0  0  0  0  0  0  0  0  0  0  0  0
  148.5473  132.9280  151.7741 H   0  0  0  0  0  0  0  0  0  0  0  0
  147.8309  132.2081  153.2258 H   0  0  0  0  0  0  0  0  0  0  0  0
  146.4921  133.9696  154.7589 H   0  0  0  0  0  0  0  0  0  0  0  0
  146.8490  135.6218  154.2821 H   0  0  0  0  0  0  0  0  0  0  0  0
  152.8370  141.0047  158.0782 H   0  0  0  0  0  0  0  0  0  0  0  0
  151.4608  140.4253  158.9847 H   0  0  0  0  0  0  0  0  0  0  0  0
  1  2  1  0  0  0  0
  1 29  1  0  0  0  0
  2  3  1  0  0  0  0
  2 30  1  0  0  0  0
  2 31  1  0  0  0  0
  3  4  1  0  0  0  0
  3 32  1  0  0  0  0
  3 33  1  0  0  0  0
  4  5  1  0  0  0  0
  5 28  1  0  0  0  0
  5  6  1  0  0  0  0
  5 34  1  0  0  0  0
  6  7  1  0  0  0  0
  6 35  1  0  0  0  0
  6 36  1  0  0  0  0
  7  8  1  0  0  0  0
  7 37  1  0  0  0  0
  7 38  1  0  0  0  0
  8  9  1  0  0  0  0
  8 39  1  0  0  0  0
  8 40  1  0  0  0  0
  9 10  1  0  0  0  0
  9 28  1  0  0  0  0
 10 15  1  0  0  0  0
 10 11  2  0  0  0  0
 11 12  1  0  0  0  0
 12 13  2  0  0  0  0
 12 41  1  0  0  0  0
 13 14  1  0  0  0  0
 14 18  1  0  0  0  0
 14 15  2  0  0  0  0
 15 16  1  0  0  0  0
 16 17  2  0  0  0  0
 17 18  1  0  0  0  0
 17 42  1  0  0  0  0
 18 19  1  0  0  0  0
 19 20  1  0  0  0  0
 19 43  1  0  0  0  0
 19 44  1  0  0  0  0
 20 21  1  0  0  0  0
 20 23  1  0  0  0  0
 20 45  1  0  0  0  0
 21 22  1  0  0  0  0
 21 46  1  0  0  0  0
 21 47  1  0  0  0  0
 22 48  1  0  0  0  0
 23 27  1  0  0  0  0
 23 24  1  0  0  0  0
 23 49  1  0  0  0  0
 24 25  1  0  0  0  0
 24 50  1  0  0  0  0
 24 51  1  0  0  0  0
 25 26  1  0  0  0  0
 25 52  1  0  0  0  0
 25 53  1  0  0  0  0
 26 27  1  0  0  0  0
 27 54  1  0  0  0  0
 27 55  1  0  0  0  0
 28 56  1  0  0  0  0
 28 57  1  0  0  0  0
M  END
> <s_m_source_file>
AV-unprocessed.smi

> <i_m_source_file_index>
258

> <i_lp_mmshare_version>
43012

> <i_f3d_flags>
0

> <s_epik_input>
W09IXVtDSDJdW0NIMl1PW0NAQEhdMVtDSDJdW0NIMl1bQ0gyXU4oW0NIMl0xKWMobltjSF1uMiljKGMyMyluW2NIXW4zW0NIMl1bQ0BIXShbQ0gyXVtPSF0pW0NAQEhdNFtDSDJdW0NIMl1PW0NIMl00

> <s_epik_cmdline>
J2VwaWtfcHl0aG9uJywgJy1waCcsICc3LjAnLCAnLXRuJywgJzgnLCAnLW1hJywgJzIwMCcsICctbWV0YWxfYmluZGluZycsICctaW1hZScsICc8aW5maWxlLm1hZT4nLCAnLW9tYWUnLCAnPG91dGZpbGUubWFlPic=

> <r_lp_tautomer_probability>
1

> <r_epik_Ionization_Penalty>
0.00349036

> <r_epik_Ionization_Penalty_Charging>
0

> <r_epik_Ionization_Penalty_Neutral>
0.00349036

> <r_epik_State_Penalty>
0.00229798

> <r_epik_Charging_Adjusted_Penalty>
0.00229798

> <i_epik_Tot_Q>
0

> <i_epik_Tot_abs_Q>
0

> <r_epik_Metal_State_Penalty>
-0

> <b_epik_Metal_Only>
0

> <s_lp_Force_Field>
OPLS_2005

> <r_lp_Energy>
48.0574

> <b_lp_Chiralities_Consistent>
1

> <s_lp_Variant>
AV-unprocessed.smi:258-4

> <Gold.Version>
5.8.1

> <Gold.Id.Protein>
6NUR|6NUR_protein|mol2

> <Gold.PLP.Fitness>
47.1717

> <Gold.PLP.PLP>
-42.6659

> <Gold.PLP.part.hbond>
-2.8227

> <Gold.PLP.part.metal>
0.0000

> <Gold.PLP.part.buried>
-8.2067

> <Gold.PLP.part.nonpolar>
-33.3834

> <Gold.PLP.part.repulsive>
0.9406

> <Gold.PLP.ligand.clash>
0.0000

> <Gold.PLP.ligand.torsion>
1.1364

> <Gold.PLP.Chemscore.Hbond>
1.0000

> <Gold.PLP.Chemscore.CHOScore>
1.0000

> <Gold.PLP.Chemscore.Metal>
0.0000

> <Gold.Chemscore.Hbonds>
donor molecule, donor type, donor heavy atom, donor atom, acceptor molecule, acceptor atom, score
      P1  H 10752 10763       L1    22  0.80
      L1  C    12    41       P1  7957  1.00

> <Gold.PLP.Chemscore.Internal.Correction>
0.7785

> <Gold.Rescore>
     Score         DG    S(hbond)    S(metal)    S(lipo)     H(rot)  DE(clash)    DE(int)     intcor
      6.74      -9.46       0.96        0.00      99.09       4.22       0.17       2.55       ----

> <Gold.Chemscore.Fitness>
6.7406

> <Gold.Chemscore.DG>
-9.4596

> <Gold.Chemscore.ZeroCoef>
-5.4800

> <Gold.Chemscore.Hbond>
0.9584

> <Gold.Chemscore.Metal>
0.0000

> <Gold.Chemscore.Lipo>
99.0881

> <Gold.Chemscore.Internal_Hbond>
0.0000

> <Gold.Chemscore.DEClash>
0.1696

> <Gold.Chemscore.DEInternal>
2.5494

> <Gold.Chemscore.Rot>
4.2246

> <Gold.Chemscore.Internal.Correction>
   9.000000E+99

> <Gold.Chemscore.Hbonds>
donor molecule, donor type, donor heavy atom, donor atom, acceptor molecule, acceptor atom, score
      P1  H 10752 10763       L1    22  0.12

> <Gold.Chemscore.Hbond.Weighted>
-3.2012

> <Gold.Chemscore.Metal.Weighted>
-0.0000

> <Gold.Chemscore.Lipo.Weighted>
-11.5933

> <Gold.Chemscore.Internal_Hbond.Weighted>
0.0000

> <Gold.Chemscore.DEClash.Weighted>
0.1696

> <Gold.Chemscore.DEInternal.Weighted>
2.5494

> <Gold.Chemscore.Rot.Weighted>
10.8149

> <Gold.Chemscore.Internal.Correction.Weighted>
   9.000000E+99

> <Gold.Protein.RotatedTorsions>
[ 6907 6896 6895 6894 ] final  -96.75 input  -60.11 | X-H torsion
[ 7974 7965 7964 7962 ] final -104.73 input  175.53 | X-H torsion
[ 8008 7997 7996 7995 ] final  103.96 input   59.86 | X-H torsion
[ 10167 10162 10161 10158 ] final  143.67 input  -65.29 | X-H torsion
[ 10718 10713 10712 10709 ] final  -43.23 input   66.30 | X-H torsion
[ 10763 10752 10751 10750 ] final   61.80 input  -60.55 | X-H torsion
[ 11005 11000 10999 10996 ] final -113.62 input  -57.11 | X-H torsion

> <Gold.Protein.ActiveResidues>
 VAL166  LYS551  ARG553  GLY616  TRP617  ASP618  TYR619  PRO620  LYS621  CYS622 
 ASP623  PHE694  ASN695  SER759  ASP760  ASP761  ALA762  ILE779  LEU786  VAL792 
 PHE793  MET794  SER795  GLU796  ALA797  LYS798  CYS799  TRP800  GLU811  SER814 

> <Gold.Protein.RotatedAtoms>
  150.6997  134.1455  159.4120 H   0  0  0  0  0  0  0  0  0  0  0  0  # atno 6907 bound_to 6896
  151.9439  135.0198  160.0547 H   0  0  0  0  0  0  0  0  0  0  0  0  # atno 6908 bound_to 6896
  152.2070  133.4848  159.5126 H   0  0  0  0  0  0  0  0  0  0  0  0  # atno 6909 bound_to 6896
  145.2394  140.9199  143.3159 H   0  0  0  0  0  0  0  0  0  0  0  0  # atno 7974 bound_to 7965
  156.1531  140.3156  155.8681 H   0  0  0  0  0  0  0  0  0  0  0  0  # atno 8008 bound_to 7997
  155.3932  140.0495  157.3057 H   0  0  0  0  0  0  0  0  0  0  0  0  # atno 8009 bound_to 7997
  154.5076  140.2153  155.9231 H   0  0  0  0  0  0  0  0  0  0  0  0  # atno 8010 bound_to 7997
  139.4964  144.6025  151.6451 H   0  0  0  0  0  0  0  0  0  0  0  0  # atno 10167 bound_to 10162
  156.2512  130.4188  149.8648 H   0  0  0  0  0  0  0  0  0  0  0  0  # atno 10718 bound_to 10713
  152.9962  135.5488  154.6091 H   0  0  0  0  0  0  0  0  0  0  0  0  # atno 10763 bound_to 10752
  154.5415  135.2820  155.1093 H   0  0  0  0  0  0  0  0  0  0  0  0  # atno 10764 bound_to 10752
  154.2368  135.6423  153.5246 H   0  0  0  0  0  0  0  0  0  0  0  0  # atno 10765 bound_to 10752
  141.0603  133.9546  157.2679 H   0  0  0  0  0  0  0  0  0  0  0  0  # atno 11005 bound_to 11000
  144.9603  139.3987  143.6359 LP  0  0  0  0  0  0  0  0  0  0  0  0  # atno 17320 bound_to 7965
  146.3332  139.8653  142.8849 LP  0  0  0  0  0  0  0  0  0  0  0  0  # atno 17321 bound_to 7965
  140.5678  144.0160  150.6201 LP  0  0  0  0  0  0  0  0  0  0  0  0  # atno 17342 bound_to 10162
  140.3268  143.3103  152.0728 LP  0  0  0  0  0  0  0  0  0  0  0  0  # atno 17343 bound_to 10162
  156.6196  130.8621  151.3472 LP  0  0  0  0  0  0  0  0  0  0  0  0  # atno 17370 bound_to 10713
  157.7215  130.9565  150.1457 LP  0  0  0  0  0  0  0  0  0  0  0  0  # atno 17371 bound_to 10713
  139.9426  135.0189  156.8756 LP  0  0  0  0  0  0  0  0  0  0  0  0  # atno 17394 bound_to 11000
  140.5882  134.0287  155.7489 LP  0  0  0  0  0  0  0  0  0  0  0  0  # atno 17395 bound_to 11000

$$$$
