AV-unprocessed.smi:403|AV-procd|sdf|2496|dock8
  -GOLD-   2262022443D 1   1.00000     0.00000
 Structure written by MMmdl.
 46 47  0  0  0  0  0  0  0  0  1 V2000
  153.0173  143.4933  161.9774 C   0  0  0  0  0  0  0  0  0  0  0  0
  152.6408  143.0625  160.5496 C   0  0  0  0  0  0  0  0  0  0  0  0
  153.8759  142.5224  159.8124 C   0  0  0  0  0  0  0  0  0  0  0  0
  151.9789  144.1995  159.7439 C   0  0  0  0  0  0  0  0  0  0  0  0
  151.5980  143.8069  158.3012 C   0  0  0  0  0  0  0  0  0  0  0  0
  150.5832  142.6611  158.2196 C   0  0  0  0  0  0  0  0  0  0  0  0
  150.7959  141.5814  158.7729 O   0  0  0  0  0  0  0  0  0  0  0  0
  149.4689  142.9177  157.5173 N   0  0  0  0  0  0  0  0  0  0  0  0
  148.3703  141.9765  157.3181 C   0  0  0  0  0  0  0  0  0  0  0  0
  148.3913  141.2268  155.9832 C   0  0  0  0  0  0  0  0  0  0  0  0
  149.4851  140.4028  155.6270 C   0  0  0  0  0  0  0  0  0  0  0  0
  149.4586  139.7065  154.4055 C   0  0  0  0  0  0  0  0  0  0  0  0
  148.3305  139.8524  153.5796 C   0  0  0  0  0  0  0  0  0  0  0  0
  147.2750  140.6254  153.9048 N   0  0  0  0  0  0  0  0  0  0  0  0
  147.2961  141.2995  155.0807 C   0  0  0  0  0  0  0  0  0  0  0  0
  146.1859  142.1103  155.3756 N   0  0  0  0  0  0  0  0  0  0  0  0
  145.6933  142.8353  154.2112 C   0  0  0  0  0  0  0  0  0  0  0  0
  144.6234  143.8532  154.6422 C   0  0  0  0  0  0  0  0  0  0  0  0
  143.5817  143.1837  155.3481 O   0  0  0  0  0  0  0  0  0  0  0  0
  144.0598  142.5343  156.5232 C   0  0  0  0  0  0  0  0  0  0  0  0
  145.1130  141.4812  156.1381 C   0  0  0  0  0  0  0  0  0  0  0  0
  153.7000  144.3435  161.9679 H   0  0  0  0  0  0  0  0  0  0  0  0
  153.5081  142.6808  162.5140 H   0  0  0  0  0  0  0  0  0  0  0  0
  152.1403  143.7756  162.5588 H   0  0  0  0  0  0  0  0  0  0  0  0
  151.9266  142.2415  160.6248 H   0  0  0  0  0  0  0  0  0  0  0  0
  154.6408  143.2924  159.7058 H   0  0  0  0  0  0  0  0  0  0  0  0
  153.6172  142.1695  158.8135 H   0  0  0  0  0  0  0  0  0  0  0  0
  154.3203  141.6842  160.3495 H   0  0  0  0  0  0  0  0  0  0  0  0
  151.0966  144.5576  160.2771 H   0  0  0  0  0  0  0  0  0  0  0  0
  152.6708  145.0424  159.7036 H   0  0  0  0  0  0  0  0  0  0  0  0
  151.1784  144.6716  157.7854 H   0  0  0  0  0  0  0  0  0  0  0  0
  152.4864  143.5083  157.7447 H   0  0  0  0  0  0  0  0  0  0  0  0
  149.3725  143.8288  157.0931 H   0  0  0  0  0  0  0  0  0  0  0  0
  148.4126  141.2379  158.1184 H   0  0  0  0  0  0  0  0  0  0  0  0
  147.4270  142.5079  157.4479 H   0  0  0  0  0  0  0  0  0  0  0  0
  150.3406  140.2919  156.2762 H   0  0  0  0  0  0  0  0  0  0  0  0
  150.2821  139.0735  154.1102 H   0  0  0  0  0  0  0  0  0  0  0  0
  148.2727  139.3334  152.6342 H   0  0  0  0  0  0  0  0  0  0  0  0
  146.5134  143.3451  153.7043 H   0  0  0  0  0  0  0  0  0  0  0  0
  145.2685  142.1269  153.4985 H   0  0  0  0  0  0  0  0  0  0  0  0
  145.0598  144.6323  155.2695 H   0  0  0  0  0  0  0  0  0  0  0  0
  144.2001  144.3473  153.7677 H   0  0  0  0  0  0  0  0  0  0  0  0
  144.4777  143.2695  157.2128 H   0  0  0  0  0  0  0  0  0  0  0  0
  143.2215  142.0590  157.0327 H   0  0  0  0  0  0  0  0  0  0  0  0
  144.6438  140.6954  155.5444 H   0  0  0  0  0  0  0  0  0  0  0  0
  145.5221  141.0125  157.0336 H   0  0  0  0  0  0  0  0  0  0  0  0
  1  2  1  0  0  0  0
  1 22  1  0  0  0  0
  1 23  1  0  0  0  0
  1 24  1  0  0  0  0
  2  3  1  0  0  0  0
  2  4  1  0  0  0  0
  2 25  1  0  0  0  0
  3 26  1  0  0  0  0
  3 27  1  0  0  0  0
  3 28  1  0  0  0  0
  4  5  1  0  0  0  0
  4 29  1  0  0  0  0
  4 30  1  0  0  0  0
  5  6  1  0  0  0  0
  5 31  1  0  0  0  0
  5 32  1  0  0  0  0
  6  7  2  0  0  0  0
  6  8  1  0  0  0  0
  8  9  1  0  0  0  0
  8 33  1  0  0  0  0
  9 10  1  0  0  0  0
  9 34  1  0  0  0  0
  9 35  1  0  0  0  0
 10 15  1  0  0  0  0
 10 11  2  0  0  0  0
 11 12  1  0  0  0  0
 11 36  1  0  0  0  0
 12 13  2  0  0  0  0
 12 37  1  0  0  0  0
 13 14  1  0  0  0  0
 13 38  1  0  0  0  0
 14 15  2  0  0  0  0
 15 16  1  0  0  0  0
 16 21  1  0  0  0  0
 16 17  1  0  0  0  0
 17 18  1  0  0  0  0
 17 39  1  0  0  0  0
 17 40  1  0  0  0  0
 18 19  1  0  0  0  0
 18 41  1  0  0  0  0
 18 42  1  0  0  0  0
 19 20  1  0  0  0  0
 20 21  1  0  0  0  0
 20 43  1  0  0  0  0
 20 44  1  0  0  0  0
 21 45  1  0  0  0  0
 21 46  1  0  0  0  0
M  END
> <s_m_source_file>
AV-unprocessed.smi

> <i_m_source_file_index>
403

> <i_lp_mmshare_version>
43012

> <i_f3d_flags>
0

> <s_epik_input>
W0NIM11bQ0hdKFtDSDNdKVtDSDJdW0NIMl1DKD1PKVtOSF1bQ0gyXWMxW2NIXVtjSF1bY0hdbmMxTjJbQ0gyXVtDSDJdT1tDSDJdW0NIMl0y

> <s_epik_cmdline>
J2VwaWtfcHl0aG9uJywgJy1waCcsICc3LjAnLCAnLXRuJywgJzgnLCAnLW1hJywgJzIwMCcsICctbWV0YWxfYmluZGluZycsICctaW1hZScsICc8aW5maWxlLm1hZT4nLCAnLW9tYWUnLCAnPG91dGZpbGUubWFlPic=

> <r_lp_tautomer_probability>
1

> <r_epik_Ionization_Penalty>
0.00581842

> <r_epik_Ionization_Penalty_Charging>
0

> <r_epik_Ionization_Penalty_Neutral>
0.00581842

> <r_epik_State_Penalty>
0.00427389

> <r_epik_Charging_Adjusted_Penalty>
0.00427389

> <i_epik_Tot_Q>
0

> <i_epik_Tot_abs_Q>
0

> <r_epik_Metal_State_Penalty>
-0

> <b_epik_Metal_Only>
0

> <s_lp_Force_Field>
OPLS_2005

> <r_lp_Energy>
20.7725

> <b_lp_Chiralities_Consistent>
1

> <s_lp_Variant>
AV-unprocessed.smi:403-1

> <Gold.Version>
5.8.1

> <Gold.Id.Protein>
6NUR|6NUR_protein|mol2

> <Gold.PLP.Fitness>
42.3915

> <Gold.PLP.PLP>
-38.9645

> <Gold.PLP.part.hbond>
-1.3586

> <Gold.PLP.part.metal>
0.0000

> <Gold.PLP.part.buried>
-3.6344

> <Gold.PLP.part.nonpolar>
-34.7678

> <Gold.PLP.part.repulsive>
0.4915

> <Gold.PLP.ligand.clash>
0.0000

> <Gold.PLP.ligand.torsion>
0.8262

> <Gold.PLP.Chemscore.Hbond>
0.8960

> <Gold.PLP.Chemscore.CHOScore>
0.7353

> <Gold.PLP.Chemscore.Metal>
0.0000

> <Gold.Chemscore.Hbonds>
donor molecule, donor type, donor heavy atom, donor atom, acceptor molecule, acceptor atom, score
      L1  H     8    33       P1  8028  0.94
      L1  C    13    38       P1  7957  0.71

> <Gold.PLP.Chemscore.Internal.Correction>
0.1855

> <Gold.Rescore>
     Score         DG    S(hbond)    S(metal)    S(lipo)     H(rot)  DE(clash)    DE(int)     intcor
     15.02     -15.77       0.95        0.00      98.80       1.73       0.06       0.68       ----

> <Gold.Chemscore.Fitness>
15.0225

> <Gold.Chemscore.DG>
-15.7686

> <Gold.Chemscore.ZeroCoef>
-5.4800

> <Gold.Chemscore.Hbond>
0.9491

> <Gold.Chemscore.Metal>
0.0000

> <Gold.Chemscore.Lipo>
98.7985

> <Gold.Chemscore.Internal_Hbond>
0.0000

> <Gold.Chemscore.DEClash>
0.0615

> <Gold.Chemscore.DEInternal>
0.6847

> <Gold.Chemscore.Rot>
1.7347

> <Gold.Chemscore.Internal.Correction>
   9.000000E+99

> <Gold.Chemscore.Hbonds>
donor molecule, donor type, donor heavy atom, donor atom, acceptor molecule, acceptor atom, score
      L1  H     8    33       P1  8028  0.59

> <Gold.Chemscore.Hbond.Weighted>
-3.1701

> <Gold.Chemscore.Metal.Weighted>
-0.0000

> <Gold.Chemscore.Lipo.Weighted>
-11.5594

> <Gold.Chemscore.Internal_Hbond.Weighted>
0.0000

> <Gold.Chemscore.DEClash.Weighted>
0.0615

> <Gold.Chemscore.DEInternal.Weighted>
0.6847

> <Gold.Chemscore.Rot.Weighted>
4.4409

> <Gold.Chemscore.Internal.Correction.Weighted>
   9.000000E+99

> <Gold.Protein.RotatedTorsions>
[ 6907 6896 6895 6894 ] final  158.06 input  -60.11 | X-H torsion
[ 7974 7965 7964 7962 ] final   -3.19 input  175.53 | X-H torsion
[ 8008 7997 7996 7995 ] final -166.71 input   59.86 | X-H torsion
[ 10167 10162 10161 10158 ] final -112.47 input  -65.29 | X-H torsion
[ 10718 10713 10712 10709 ] final -161.35 input   66.30 | X-H torsion
[ 10763 10752 10751 10750 ] final   -4.85 input  -60.55 | X-H torsion
[ 11005 11000 10999 10996 ] final   91.30 input  -57.11 | X-H torsion

> <Gold.Protein.ActiveResidues>
 VAL166  LYS551  ARG553  GLY616  TRP617  ASP618  TYR619  PRO620  LYS621  CYS622 
 ASP623  PHE694  ASN695  SER759  ASP760  ASP761  ALA762  ILE779  LEU786  VAL792 
 PHE793  MET794  SER795  GLU796  ALA797  LYS798  CYS799  TRP800  GLU811  SER814 

> <Gold.Protein.RotatedAtoms>
  152.0060  133.3843  159.4200 H   0  0  0  0  0  0  0  0  0  0  0  0  # atno 6907 bound_to 6896
  150.6904  134.3782  159.5032 H   0  0  0  0  0  0  0  0  0  0  0  0  # atno 6908 bound_to 6896
  152.1536  134.8968  160.0597 H   0  0  0  0  0  0  0  0  0  0  0  0  # atno 6909 bound_to 6896
  146.2393  140.1684  142.8332 H   0  0  0  0  0  0  0  0  0  0  0  0  # atno 7974 bound_to 7965
  155.8676  140.0988  157.1572 H   0  0  0  0  0  0  0  0  0  0  0  0  # atno 8008 bound_to 7997
  154.3994  140.1353  156.4101 H   0  0  0  0  0  0  0  0  0  0  0  0  # atno 8009 bound_to 7997
  155.7786  140.3459  155.5288 H   0  0  0  0  0  0  0  0  0  0  0  0  # atno 8010 bound_to 7997
  140.1224  143.4432  152.1682 H   0  0  0  0  0  0  0  0  0  0  0  0  # atno 10167 bound_to 10162
  156.5950  130.8786  151.2899 H   0  0  0  0  0  0  0  0  0  0  0  0  # atno 10718 bound_to 10713
  153.3905  135.7001  153.6498 H   0  0  0  0  0  0  0  0  0  0  0  0  # atno 10763 bound_to 10752
  153.5072  135.3639  155.2569 H   0  0  0  0  0  0  0  0  0  0  0  0  # atno 10764 bound_to 10752
  154.8702  135.4126  154.3221 H   0  0  0  0  0  0  0  0  0  0  0  0  # atno 10765 bound_to 10752
  139.8841  134.8666  156.3408 H   0  0  0  0  0  0  0  0  0  0  0  0  # atno 11005 bound_to 11000
  145.0031  140.8649  143.5269 LP  0  0  0  0  0  0  0  0  0  0  0  0  # atno 17320 bound_to 7965
  145.1707  139.2406  143.5344 LP  0  0  0  0  0  0  0  0  0  0  0  0  # atno 17321 bound_to 7965
  139.5562  144.7374  151.4288 LP  0  0  0  0  0  0  0  0  0  0  0  0  # atno 17342 bound_to 10162
  140.6864  143.7963  150.7193 LP  0  0  0  0  0  0  0  0  0  0  0  0  # atno 17343 bound_to 10162
  157.7294  130.9670  150.1785 LP  0  0  0  0  0  0  0  0  0  0  0  0  # atno 17370 bound_to 10713
  156.2517  130.3701  149.8225 LP  0  0  0  0  0  0  0  0  0  0  0  0  # atno 17371 bound_to 10713
  140.9660  133.7358  156.0467 LP  0  0  0  0  0  0  0  0  0  0  0  0  # atno 17394 bound_to 11000
  140.7931  134.3595  157.5459 LP  0  0  0  0  0  0  0  0  0  0  0  0  # atno 17395 bound_to 11000

$$$$
