AV-unprocessed.smi:2156|AV-procd|sdf|8779|dock8
  -GOLD-   2272011563D 1   1.00000     0.00000
 Structure written by MMmdl.
 34 34  0  0  0  0  0  0  0  0  1 V2000
  153.6199  141.9338  161.8771 C   0  0  0  0  0  0  0  0  0  0  0  0
  152.6336  142.9630  161.3145 C   0  0  0  0  0  0  0  0  0  0  0  0
  152.6217  142.9891  159.7761 C   0  0  0  0  0  0  0  0  0  0  0  0
  151.7969  141.8555  159.1336 C   0  0  2  0  0  0  0  0  0  0  0  0
  152.6077  140.5563  159.0317 C   0  0  0  0  0  0  0  0  0  0  0  0
  151.3409  142.2379  157.7980 N   0  0  0  0  0  0  0  0  0  0  0  0
  150.5753  141.4958  156.9821 C   0  0  0  0  0  0  0  0  0  0  0  0
  150.1474  140.3806  157.2833 O   0  0  0  0  0  0  0  0  0  0  0  0
  150.2227  142.1353  155.6315 C   0  0  0  0  0  0  0  0  0  0  0  0
  149.2631  141.3430  154.8487 N   0  0  0  0  0  0  0  0  0  0  0  0
  147.9737  141.8122  154.6408 C   0  0  0  0  0  0  0  0  0  0  0  0
  147.0364  141.1310  153.9402 C   0  0  0  0  0  0  0  0  0  0  0  0
  147.3510  139.8321  153.3551 C   0  0  0  0  0  0  0  0  0  0  0  0
  146.5717  139.1407  152.7031 O   0  0  0  0  0  0  0  0  0  0  0  0
  148.6567  139.3927  153.5890 N   0  0  0  0  0  0  0  0  0  0  0  0
  149.6269  140.0888  154.3118 C   0  0  0  0  0  0  0  0  0  0  0  0
  150.7492  139.6074  154.4632 O   0  0  0  0  0  0  0  0  0  0  0  0
  148.9197  138.4966  153.2056 H   0  0  0  0  0  0  0  0  0  0  0  0
  153.6015  141.9347  162.9669 H   0  0  0  0  0  0  0  0  0  0  0  0
  154.6400  142.1532  161.5611 H   0  0  0  0  0  0  0  0  0  0  0  0
  153.3735  140.9260  161.5413 H   0  0  0  0  0  0  0  0  0  0  0  0
  151.6317  142.7397  161.6829 H   0  0  0  0  0  0  0  0  0  0  0  0
  152.8930  143.9472  161.7048 H   0  0  0  0  0  0  0  0  0  0  0  0
  152.2475  143.9544  159.4320 H   0  0  0  0  0  0  0  0  0  0  0  0
  153.6505  142.9203  159.4198 H   0  0  0  0  0  0  0  0  0  0  0  0
  150.9404  141.6494  159.7779 H   0  0  0  0  0  0  0  0  0  0  0  0
  152.9387  140.2218  160.0155 H   0  0  0  0  0  0  0  0  0  0  0  0
  153.4941  140.6874  158.4101 H   0  0  0  0  0  0  0  0  0  0  0  0
  152.0104  139.7541  158.5972 H   0  0  0  0  0  0  0  0  0  0  0  0
  151.6354  143.1446  157.4652 H   0  0  0  0  0  0  0  0  0  0  0  0
  149.8192  143.1304  155.8239 H   0  0  0  0  0  0  0  0  0  0  0  0
  151.1347  142.3016  155.0545 H   0  0  0  0  0  0  0  0  0  0  0  0
  147.6943  142.7682  155.0603 H   0  0  0  0  0  0  0  0  0  0  0  0
  146.0482  141.5489  153.8131 H   0  0  0  0  0  0  0  0  0  0  0  0
  1  2  1  0  0  0  0
  1 19  1  0  0  0  0
  1 20  1  0  0  0  0
  1 21  1  0  0  0  0
  2  3  1  0  0  0  0
  2 22  1  0  0  0  0
  2 23  1  0  0  0  0
  3  4  1  0  0  0  0
  3 24  1  0  0  0  0
  3 25  1  0  0  0  0
  4  5  1  0  0  0  0
  4  6  1  0  0  0  0
  4 26  1  0  0  0  0
  5 27  1  0  0  0  0
  5 28  1  0  0  0  0
  5 29  1  0  0  0  0
  6  7  1  0  0  0  0
  6 30  1  0  0  0  0
  7  8  2  0  0  0  0
  7  9  1  0  0  0  0
  9 10  1  0  0  0  0
  9 31  1  0  0  0  0
  9 32  1  0  0  0  0
 10 16  1  0  0  0  0
 10 11  1  0  0  0  0
 11 12  2  0  0  0  0
 11 33  1  0  0  0  0
 12 13  1  0  0  0  0
 12 34  1  0  0  0  0
 13 14  2  0  0  0  0
 13 15  1  0  0  0  0
 15 18  1  0  0  0  0
 15 16  1  0  0  0  0
 16 17  2  0  0  0  0
M  END
> <s_m_source_file>
AV-unprocessed.smi

> <i_m_source_file_index>
2156

> <i_lp_mmshare_version>
43012

> <i_f3d_flags>
0

> <s_epik_input>
W0NIM11bQ0gyXVtDSDJdW0NASF0oW0NIM10pW05IXUMoPU8pW0NIMl1uMVtjSF1bY0hdYyg9TylbbkhdYzE9Tw==

> <s_epik_cmdline>
J2VwaWtfcHl0aG9uJywgJy1waCcsICc3LjAnLCAnLXRuJywgJzgnLCAnLW1hJywgJzIwMCcsICctbWV0YWxfYmluZGluZycsICctaW1hZScsICc8aW5maWxlLm1hZT4nLCAnLW9tYWUnLCAnPG91dGZpbGUubWFlPic=

> <r_lp_tautomer_probability>
0.999537

> <r_epik_Ionization_Penalty>
0.00324917

> <r_epik_Ionization_Penalty_Charging>
0.00324916

> <r_epik_Ionization_Penalty_Neutral>
1.93017e-08

> <r_epik_State_Penalty>
0.00229371

> <r_epik_Charging_Adjusted_Penalty>
0.00554286

> <i_epik_Tot_Q>
0

> <i_epik_Tot_abs_Q>
0

> <r_epik_Metal_State_Penalty>
0.364744

> <b_epik_Metal_Only>
0

> <s_lp_Force_Field>
OPLS_2005

> <r_lp_Energy>
3.31869

> <b_lp_Chiralities_Consistent>
1

> <s_lp_Variant>
AV-unprocessed.smi:2156-1

> <Gold.Version>
5.8.1

> <Gold.Id.Protein>
6NUR|6NUR_protein|mol2

> <Gold.PLP.Fitness>
39.2625

> <Gold.PLP.PLP>
-34.1298

> <Gold.PLP.part.hbond>
-2.0000

> <Gold.PLP.part.metal>
0.0000

> <Gold.PLP.part.buried>
-2.6221

> <Gold.PLP.part.nonpolar>
-29.4593

> <Gold.PLP.part.repulsive>
0.5297

> <Gold.PLP.ligand.clash>
0.0000

> <Gold.PLP.ligand.torsion>
0.4500

> <Gold.PLP.Chemscore.Hbond>
1.0000

> <Gold.PLP.Chemscore.CHOScore>
1.0000

> <Gold.PLP.Chemscore.Metal>
0.0000

> <Gold.Chemscore.Hbonds>
donor molecule, donor type, donor heavy atom, donor atom, acceptor molecule, acceptor atom, score
      P1  H  7989  7998       L1    17  0.80
      L1  C    11    33       P1  8028  1.00

> <Gold.PLP.Chemscore.Internal.Correction>
0.0328

> <Gold.Rescore>
     Score         DG    S(hbond)    S(metal)    S(lipo)     H(rot)  DE(clash)    DE(int)     intcor
      9.36     -11.42       0.95        0.00      71.66       2.19       1.36       0.70       ----

> <Gold.Chemscore.Fitness>
9.3621

> <Gold.Chemscore.DG>
-11.4238

> <Gold.Chemscore.ZeroCoef>
-5.4800

> <Gold.Chemscore.Hbond>
0.9516

> <Gold.Chemscore.Metal>
0.0000

> <Gold.Chemscore.Lipo>
71.6593

> <Gold.Chemscore.Internal_Hbond>
0.0000

> <Gold.Chemscore.DEClash>
1.3615

> <Gold.Chemscore.DEInternal>
0.7002

> <Gold.Chemscore.Rot>
2.1949

> <Gold.Chemscore.Internal.Correction>
   9.000000E+99

> <Gold.Chemscore.Hbonds>
donor molecule, donor type, donor heavy atom, donor atom, acceptor molecule, acceptor atom, score
      P1  H  7989  7998       L1    17  0.12

> <Gold.Chemscore.Hbond.Weighted>
-3.1785

> <Gold.Chemscore.Metal.Weighted>
-0.0000

> <Gold.Chemscore.Lipo.Weighted>
-8.3841

> <Gold.Chemscore.Internal_Hbond.Weighted>
0.0000

> <Gold.Chemscore.DEClash.Weighted>
1.3615

> <Gold.Chemscore.DEInternal.Weighted>
0.7002

> <Gold.Chemscore.Rot.Weighted>
5.6188

> <Gold.Chemscore.Internal.Correction.Weighted>
   9.000000E+99

> <Gold.Protein.RotatedTorsions>
[ 6907 6896 6895 6894 ] final  138.66 input  -60.11 | X-H torsion
[ 7974 7965 7964 7962 ] final -146.23 input  175.53 | X-H torsion
[ 8008 7997 7996 7995 ] final  141.72 input   59.86 | X-H torsion
[ 10167 10162 10161 10158 ] final -179.06 input  -65.29 | X-H torsion
[ 10718 10713 10712 10709 ] final   62.01 input   66.30 | X-H torsion
[ 10763 10752 10751 10750 ] final  -31.14 input  -60.55 | X-H torsion
[ 11005 11000 10999 10996 ] final  -69.91 input  -57.11 | X-H torsion

> <Gold.Protein.ActiveResidues>
 VAL166  LYS551  ARG553  GLY616  TRP617  ASP618  TYR619  PRO620  LYS621  CYS622 
 ASP623  PHE694  ASN695  SER759  ASP760  ASP761  ALA762  ILE779  LEU786  VAL792 
 PHE793  MET794  SER795  GLU796  ALA797  LYS798  CYS799  TRP800  GLU811  SER814 

> <Gold.Protein.RotatedAtoms>
  152.2640  133.5323  159.5398 H   0  0  0  0  0  0  0  0  0  0  0  0  # atno 6907 bound_to 6896
  150.7135  134.0790  159.3900 H   0  0  0  0  0  0  0  0  0  0  0  0  # atno 6908 bound_to 6896
  151.8706  135.0491  160.0529 H   0  0  0  0  0  0  0  0  0  0  0  0  # atno 6909 bound_to 6896
  144.8173  140.5482  143.5602 H   0  0  0  0  0  0  0  0  0  0  0  0  # atno 7974 bound_to 7965
  156.2961  140.2307  156.4611 H   0  0  0  0  0  0  0  0  0  0  0  0  # atno 8008 bound_to 7997
  154.8017  140.0448  157.1299 H   0  0  0  0  0  0  0  0  0  0  0  0  # atno 8009 bound_to 7997
  154.9525  140.3044  155.5072 H   0  0  0  0  0  0  0  0  0  0  0  0  # atno 8010 bound_to 7997
  139.5403  144.2381  152.0882 H   0  0  0  0  0  0  0  0  0  0  0  0  # atno 10167 bound_to 10162
  157.5870  130.9026  149.9533 H   0  0  0  0  0  0  0  0  0  0  0  0  # atno 10718 bound_to 10713
  153.7925  135.6896  153.4869 H   0  0  0  0  0  0  0  0  0  0  0  0  # atno 10763 bound_to 10752
  153.1740  135.4531  154.9939 H   0  0  0  0  0  0  0  0  0  0  0  0  # atno 10764 bound_to 10752
  154.8039  135.3349  154.7419 H   0  0  0  0  0  0  0  0  0  0  0  0  # atno 10765 bound_to 10752
  141.1564  133.6776  156.6672 H   0  0  0  0  0  0  0  0  0  0  0  0  # atno 11005 bound_to 11000
  145.5185  139.1477  143.3565 LP  0  0  0  0  0  0  0  0  0  0  0  0  # atno 17320 bound_to 7965
  146.2477  140.5326  142.8907 LP  0  0  0  0  0  0  0  0  0  0  0  0  # atno 17321 bound_to 7965
  140.1858  144.4800  150.6504 LP  0  0  0  0  0  0  0  0  0  0  0  0  # atno 17342 bound_to 10162
  140.6630  143.2258  151.5810 LP  0  0  0  0  0  0  0  0  0  0  0  0  # atno 17343 bound_to 10162
  156.0920  130.3662  150.0377 LP  0  0  0  0  0  0  0  0  0  0  0  0  # atno 17370 bound_to 10713
  156.8507  130.9458  151.3625 LP  0  0  0  0  0  0  0  0  0  0  0  0  # atno 17371 bound_to 10713
  140.3202  134.8014  157.4246 LP  0  0  0  0  0  0  0  0  0  0  0  0  # atno 17394 bound_to 11000
  140.1103  134.5354  155.8272 LP  0  0  0  0  0  0  0  0  0  0  0  0  # atno 17395 bound_to 11000

$$$$
