AV-unprocessed.smi:2195|AV-procd|sdf|8904|dock7
  -GOLD-   2272012123D 1   1.00000     0.00000
 Structure written by MMmdl.
 39 41  0  0  0  0  0  0  0  0  1 V2000
  151.9294  145.9870  159.9293 C   0  0  0  0  0  0  0  0  0  0  0  0
  151.9810  144.6035  159.3151 C   0  0  0  0  0  0  0  0  0  0  0  0
  152.6653  143.5570  159.9647 C   0  0  0  0  0  0  0  0  0  0  0  0
  152.7056  142.2741  159.3859 C   0  0  0  0  0  0  0  0  0  0  0  0
  152.0661  142.0151  158.1566 C   0  0  0  0  0  0  0  0  0  0  0  0
  152.1555  140.7307  157.6660 O   0  0  0  0  0  0  0  0  0  0  0  0
  151.4445  140.4103  156.4766 C   0  0  0  0  0  0  0  0  0  0  0  0
  151.8560  139.0143  155.9808 C   0  0  2  0  0  0  0  0  0  0  0  0
  153.2641  138.9551  155.8657 O   0  0  0  0  0  0  0  0  0  0  0  0
  151.1650  138.5951  154.6685 C   0  0  0  0  0  0  0  0  0  0  0  0
  149.7214  138.5224  154.8042 N   0  0  0  0  0  0  0  0  0  0  0  0
  148.9885  137.4237  155.0684 C   0  0  0  0  0  0  0  0  0  0  0  0
  147.6699  137.5759  155.1521 N   0  0  0  0  0  0  0  0  0  0  0  0
  147.5302  138.9329  154.9166 C   0  0  0  0  0  0  0  0  0  0  0  0
  146.3714  139.7401  154.8669 C   0  0  0  0  0  0  0  0  0  0  0  0
  146.4743  141.1221  154.6042 C   0  0  0  0  0  0  0  0  0  0  0  0
  147.7342  141.7172  154.3871 C   0  0  0  0  0  0  0  0  0  0  0  0
  148.9030  140.9331  154.4316 C   0  0  0  0  0  0  0  0  0  0  0  0
  148.7961  139.5548  154.6947 C   0  0  0  0  0  0  0  0  0  0  0  0
  151.3810  143.0728  157.5069 C   0  0  0  0  0  0  0  0  0  0  0  0
  151.3410  144.3568  158.0848 C   0  0  0  0  0  0  0  0  0  0  0  0
  152.4206  146.0095  160.9027 H   0  0  0  0  0  0  0  0  0  0  0  0
  150.8944  146.3021  160.0634 H   0  0  0  0  0  0  0  0  0  0  0  0
  152.4268  146.7072  159.2792 H   0  0  0  0  0  0  0  0  0  0  0  0
  153.1613  143.7315  160.9083 H   0  0  0  0  0  0  0  0  0  0  0  0
  153.2316  141.4783  159.8925 H   0  0  0  0  0  0  0  0  0  0  0  0
  150.3659  140.4522  156.6382 H   0  0  0  0  0  0  0  0  0  0  0  0
  151.6931  141.1430  155.7069 H   0  0  0  0  0  0  0  0  0  0  0  0
  151.5867  138.2978  156.7579 H   0  0  0  0  0  0  0  0  0  0  0  0
  153.5883  138.3090  156.4744 H   0  0  0  0  0  0  0  0  0  0  0  0
  151.3975  139.3095  153.8777 H   0  0  0  0  0  0  0  0  0  0  0  0
  151.5313  137.6254  154.3294 H   0  0  0  0  0  0  0  0  0  0  0  0
  149.4500  136.4566  155.2051 H   0  0  0  0  0  0  0  0  0  0  0  0
  145.4012  139.2950  155.0308 H   0  0  0  0  0  0  0  0  0  0  0  0
  145.5814  141.7288  154.5685 H   0  0  0  0  0  0  0  0  0  0  0  0
  147.8024  142.7763  154.1858 H   0  0  0  0  0  0  0  0  0  0  0  0
  149.8692  141.3855  154.2639 H   0  0  0  0  0  0  0  0  0  0  0  0
  150.8783  142.9256  156.5634 H   0  0  0  0  0  0  0  0  0  0  0  0
  150.8154  145.1540  157.5797 H   0  0  0  0  0  0  0  0  0  0  0  0
  1  2  1  0  0  0  0
  1 22  1  0  0  0  0
  1 23  1  0  0  0  0
  1 24  1  0  0  0  0
  2 21  1  0  0  0  0
  2  3  2  0  0  0  0
  3  4  1  0  0  0  0
  3 25  1  0  0  0  0
  4  5  2  0  0  0  0
  4 26  1  0  0  0  0
  5  6  1  0  0  0  0
  5 20  1  0  0  0  0
  6  7  1  0  0  0  0
  7  8  1  0  0  0  0
  7 27  1  0  0  0  0
  7 28  1  0  0  0  0
  8  9  1  0  0  0  0
  8 10  1  0  0  0  0
  8 29  1  0  0  0  0
  9 30  1  0  0  0  0
 10 11  1  0  0  0  0
 10 31  1  0  0  0  0
 10 32  1  0  0  0  0
 11 19  1  0  0  0  0
 11 12  1  0  0  0  0
 12 13  2  0  0  0  0
 12 33  1  0  0  0  0
 13 14  1  0  0  0  0
 14 19  2  0  0  0  0
 14 15  1  0  0  0  0
 15 16  2  0  0  0  0
 15 34  1  0  0  0  0
 16 17  1  0  0  0  0
 16 35  1  0  0  0  0
 17 18  2  0  0  0  0
 17 36  1  0  0  0  0
 18 19  1  0  0  0  0
 18 37  1  0  0  0  0
 20 21  2  0  0  0  0
 20 38  1  0  0  0  0
 21 39  1  0  0  0  0
M  END
> <s_m_source_file>
AV-unprocessed.smi

> <i_m_source_file_index>
2195

> <i_lp_mmshare_version>
43012

> <i_f3d_flags>
0

> <s_epik_input>
W0NIM11jMVtjSF1bY0hdYyhbY0hdW2NIXTEpT1tDSDJdW0NASF0oW09IXSlbQ0gyXW4oW2NIXW4yKWMoYzIzKVtjSF1bY0hdW2NIXVtjSF0z

> <s_epik_cmdline>
J2VwaWtfcHl0aG9uJywgJy1waCcsICc3LjAnLCAnLXRuJywgJzgnLCAnLW1hJywgJzIwMCcsICctbWV0YWxfYmluZGluZycsICctaW1hZScsICc8aW5maWxlLm1hZT4nLCAnLW9tYWUnLCAnPG91dGZpbGUubWFlPic=

> <r_lp_tautomer_probability>
1

> <r_epik_Ionization_Penalty>
0.0609831

> <r_epik_Ionization_Penalty_Charging>
0

> <r_epik_Ionization_Penalty_Neutral>
0.0609831

> <r_epik_State_Penalty>
0.0529032

> <r_epik_Charging_Adjusted_Penalty>
0.0529032

> <i_epik_Tot_Q>
0

> <i_epik_Tot_abs_Q>
0

> <r_epik_Metal_State_Penalty>
5.53344e-05

> <b_epik_Metal_Only>
0

> <s_lp_Force_Field>
OPLS_2005

> <r_lp_Energy>
15.928

> <b_lp_Chiralities_Consistent>
1

> <s_lp_Variant>
AV-unprocessed.smi:2195-1

> <Gold.Version>
5.8.1

> <Gold.Id.Protein>
6NUR|6NUR_protein|mol2

> <Gold.PLP.Fitness>
50.3425

> <Gold.PLP.PLP>
-48.0869

> <Gold.PLP.part.hbond>
-1.0000

> <Gold.PLP.part.metal>
0.0000

> <Gold.PLP.part.buried>
-2.3187

> <Gold.PLP.part.nonpolar>
-43.7277

> <Gold.PLP.part.repulsive>
0.1004

> <Gold.PLP.ligand.clash>
0.0000

> <Gold.PLP.ligand.torsion>
0.4051

> <Gold.PLP.Chemscore.Hbond>
1.0000

> <Gold.PLP.Chemscore.CHOScore>
0.0000

> <Gold.PLP.Chemscore.Metal>
0.0000

> <Gold.Chemscore.Hbonds>
donor molecule, donor type, donor heavy atom, donor atom, acceptor molecule, acceptor atom, score
      P1  H  7997  8009       L1     9  0.85

> <Gold.PLP.Chemscore.Internal.Correction>
0.0659

> <Gold.Rescore>
     Score         DG    S(hbond)    S(metal)    S(lipo)     H(rot)  DE(clash)    DE(int)     intcor
     18.52     -19.20       0.93        0.00     138.64       2.19       0.21       0.47       ----

> <Gold.Chemscore.Fitness>
18.5151

> <Gold.Chemscore.DG>
-19.1975

> <Gold.Chemscore.ZeroCoef>
-5.4800

> <Gold.Chemscore.Hbond>
0.9271

> <Gold.Chemscore.Metal>
0.0000

> <Gold.Chemscore.Lipo>
138.6447

> <Gold.Chemscore.Internal_Hbond>
0.0000

> <Gold.Chemscore.DEClash>
0.2145

> <Gold.Chemscore.DEInternal>
0.4679

> <Gold.Chemscore.Rot>
2.1877

> <Gold.Chemscore.Internal.Correction>
   9.000000E+99

> <Gold.Chemscore.Hbonds>
donor molecule, donor type, donor heavy atom, donor atom, acceptor molecule, acceptor atom, score
      P1  H  7997  8009       L1     9  0.14

> <Gold.Chemscore.Hbond.Weighted>
-3.0965

> <Gold.Chemscore.Metal.Weighted>
-0.0000

> <Gold.Chemscore.Lipo.Weighted>
-16.2214

> <Gold.Chemscore.Internal_Hbond.Weighted>
0.0000

> <Gold.Chemscore.DEClash.Weighted>
0.2145

> <Gold.Chemscore.DEInternal.Weighted>
0.4679

> <Gold.Chemscore.Rot.Weighted>
5.6005

> <Gold.Chemscore.Internal.Correction.Weighted>
   9.000000E+99

> <Gold.Protein.RotatedTorsions>
[ 6907 6896 6895 6894 ] final  163.18 input  -60.11 | X-H torsion
[ 7974 7965 7964 7962 ] final   11.51 input  175.53 | X-H torsion
[ 8008 7997 7996 7995 ] final -156.15 input   59.86 | X-H torsion
[ 10167 10162 10161 10158 ] final   93.92 input  -65.29 | X-H torsion
[ 10718 10713 10712 10709 ] final  113.38 input   66.30 | X-H torsion
[ 10763 10752 10751 10750 ] final   40.92 input  -60.55 | X-H torsion
[ 11005 11000 10999 10996 ] final  -80.73 input  -57.11 | X-H torsion

> <Gold.Protein.ActiveResidues>
 VAL166  LYS551  ARG553  GLY616  TRP617  ASP618  TYR619  PRO620  LYS621  CYS622 
 ASP623  PHE694  ASN695  SER759  ASP760  ASP761  ALA762  ILE779  LEU786  VAL792 
 PHE793  MET794  SER795  GLU796  ALA797  LYS798  CYS799  TRP800  GLU811  SER814 

> <Gold.Protein.RotatedAtoms>
  151.9291  133.3606  159.3924 H   0  0  0  0  0  0  0  0  0  0  0  0  # atno 6907 bound_to 6896
  150.7021  134.4556  159.5366 H   0  0  0  0  0  0  0  0  0  0  0  0  # atno 6908 bound_to 6896
  152.2193  134.8428  160.0539 H   0  0  0  0  0  0  0  0  0  0  0  0  # atno 6909 bound_to 6896
  146.2369  139.9474  142.8475 H   0  0  0  0  0  0  0  0  0  0  0  0  # atno 7974 bound_to 7965
  155.7128  140.0780  157.2364 H   0  0  0  0  0  0  0  0  0  0  0  0  # atno 8008 bound_to 7997
  154.4056  140.1627  156.2369 H   0  0  0  0  0  0  0  0  0  0  0  0  # atno 8009 bound_to 7997
  155.9267  140.3394  155.6219 H   0  0  0  0  0  0  0  0  0  0  0  0  # atno 8010 bound_to 7997
  139.8133  144.6764  150.9612 H   0  0  0  0  0  0  0  0  0  0  0  0  # atno 10167 bound_to 10162
  157.6341  131.0982  150.7032 H   0  0  0  0  0  0  0  0  0  0  0  0  # atno 10718 bound_to 10713
  152.9922  135.6177  154.2705 H   0  0  0  0  0  0  0  0  0  0  0  0  # atno 10763 bound_to 10752
  154.2438  135.2787  155.2845 H   0  0  0  0  0  0  0  0  0  0  0  0  # atno 10764 bound_to 10752
  154.5347  135.5778  153.6846 H   0  0  0  0  0  0  0  0  0  0  0  0  # atno 10765 bound_to 10752
  141.1667  133.7163  156.8316 H   0  0  0  0  0  0  0  0  0  0  0  0  # atno 11005 bound_to 11000
  145.1894  140.9804  143.4220 LP  0  0  0  0  0  0  0  0  0  0  0  0  # atno 17320 bound_to 7965
  144.9871  139.3726  143.6233 LP  0  0  0  0  0  0  0  0  0  0  0  0  # atno 17321 bound_to 7965
  140.7817  143.4163  151.0912 LP  0  0  0  0  0  0  0  0  0  0  0  0  # atno 17342 bound_to 10162
  139.7828  143.8330  152.3140 LP  0  0  0  0  0  0  0  0  0  0  0  0  # atno 17343 bound_to 10162
  156.7366  130.4726  149.5487 LP  0  0  0  0  0  0  0  0  0  0  0  0  # atno 17370 bound_to 10713
  156.1567  130.6346  151.0666 LP  0  0  0  0  0  0  0  0  0  0  0  0  # atno 17371 bound_to 10713
  140.2047  134.8871  157.3208 LP  0  0  0  0  0  0  0  0  0  0  0  0  # atno 17394 bound_to 11000
  140.2150  134.4092  155.7593 LP  0  0  0  0  0  0  0  0  0  0  0  0  # atno 17395 bound_to 11000

$$$$
