#       Name:                AV-unprocessed.smi:3076
#       Creating user name   scv26
#       Creation time:       Fri Mar 27 17:12:42 2020


#       File generated by GOLD software.
#

@<TRIPOS>MOLECULE
AV-unprocessed.smi:3076
    24    24     1
SMALL
NO_CHARGES


@<TRIPOS>ATOM
      1 ****        -2.0932   2.5376  -0.2285 N.3            1 S1                 0.0000
      2 ****        -1.5135   1.2253   0.0962 C.3            1 S1                 0.0000
      3 ****         0.0118   1.1808  -0.1007 C.3            1 S1                 0.0000
      4 ****         0.6171   1.9310   0.9340 O.3            1 S1                 0.0000
      5 ****         0.5163  -0.2534  -0.1081 C.ar           1 S1                 0.0000
      6 ****         0.5734  -1.0188   1.0772 C.ar           1 S1                 0.0000
      7 ****         1.0377  -2.3464   1.0089 C.ar           1 S1                 0.0000
      8 ****         1.4255  -2.8574  -0.2454 C.ar           1 S1                 0.0000
      9 ****         1.3735  -2.1379  -1.3867 N.ar           1 S1                 0.0000
     10 ****         0.9268  -0.8655  -1.3124 C.ar           1 S1                 0.0000
     11 ****        -1.8774   2.7944  -1.1906 H              1 S1                 0.0000
     12 ****        -3.1084   2.5085  -0.1466 H              1 S1                 0.0000
     13 ****        -1.7746   0.9336   1.1141 H              1 S1                 0.0000
     14 ****        -1.9699   0.4811  -0.5573 H              1 S1                 0.0000
     15 ****         0.2736   1.6466  -1.0521 H              1 S1                 0.0000
     16 ****         1.5433   1.9925   0.7578 H              1 S1                 0.0000
     17 ****         0.2644  -0.5985   2.0232 H              1 S1                 0.0000
     18 ****         1.0934  -2.9591   1.8964 H              1 S1                 0.0000
     19 ****         1.7851  -3.8718  -0.3344 H              1 S1                 0.0000
     20 ****         0.8948  -0.3219  -2.2453 H              1 S1                 0.0000
     21 ****        -1.7053   3.2019   0.4104 LP             1 S1                 0.0000
     22 ****         0.4704   1.4746   1.8116 LP             1 S1                 0.0000
     23 ****         0.2180   2.8474   0.9640 LP             1 S1                 0.0000
     24 ****         1.6569  -2.5348  -2.2597 LP             1 S1                 0.0000
@<TRIPOS>BOND
    1    1    2 1     
    2    1   11 1     
    3    1   12 1     
    4    2    3 1     
    5    2   13 1     
    6    2   14 1     
    7    3    4 1     
    8    3    5 1     
    9    3   15 1     
   10    4   16 1     
   11    5   10 ar    
   12    5    6 ar    
   13    6    7 ar    
   14    6   17 1     
   15    7    8 ar    
   16    7   18 1     
   17    8    9 ar    
   18    8   19 1     
   19    9   10 ar    
   20   10   20 1     
   21    1   21 1     
   22    4   22 1     
   23    4   23 1     
   24    9   24 1     
@<TRIPOS>SUBSTRUCTURE
      1 S1             1
@<TRIPOS>SET
LONE_PAIRS      STATIC     ATOMS    <user>   **** ""
4 21 22 23 24
DONOR_HYDROGENS      STATIC     ATOMS    <user>   **** ""
3 11 12 16
ATOM$BLUE        STATIC     ATOMS    COLORGROUP SYSTEM
4 21 22 23 24
ATOM$RED        STATIC     ATOMS    COLORGROUP SYSTEM
3 11 12 16
