AV-unprocessed.smi:3073|AV-procd|sdf|11719|dock2
  -GOLD-   2272017123D 1   1.00000     0.00000
 Structure written by MMmdl.
 24 25  0  0  0  0  0  0  0  0  2 V2000
  152.2791  138.6733  154.4164 C   0  0  0  0  0  0  0  0  0  0  0  0
  151.1803  137.8759  154.2226 C   0  0  0  0  0  0  0  0  0  0  0  0
  149.7281  138.6169  154.8370 S   0  0  0  0  0  0  0  0  0  0  0  0
  150.6857  140.0053  155.3436 C   0  0  0  0  0  0  0  0  0  0  0  0
  150.0990  141.1985  156.0298 C   0  0  2  0  0  0  0  0  0  0  0  0
  150.7645  141.4835  157.3891 C   0  0  0  0  0  0  0  0  0  0  0  0
  150.1284  142.7156  158.0510 C   0  0  0  0  0  0  0  0  0  0  0  0
  148.6013  142.5609  158.1482 C   0  0  0  0  0  0  0  0  0  0  0  0
  148.0145  142.3143  156.8131 N   0  3  0  0  0  0  0  0  0  0  0  0
  148.5643  141.1103  156.1514 C   0  0  0  0  0  0  0  0  0  0  0  0
  151.9850  139.8806  155.0547 N   0  0  0  0  0  0  0  0  0  0  0  0
  153.3003  138.4620  154.1346 H   0  0  0  0  0  0  0  0  0  0  0  0
  151.1373  136.9021  153.7573 H   0  0  0  0  0  0  0  0  0  0  0  0
  150.3155  142.0544  155.3882 H   0  0  0  0  0  0  0  0  0  0  0  0
  150.6514  140.6205  158.0469 H   0  0  0  0  0  0  0  0  0  0  0  0
  151.8363  141.6402  157.2613 H   0  0  0  0  0  0  0  0  0  0  0  0
  150.5526  142.8657  159.0443 H   0  0  0  0  0  0  0  0  0  0  0  0
  150.3706  143.6086  157.4732 H   0  0  0  0  0  0  0  0  0  0  0  0
  148.3441  141.7353  158.8132 H   0  0  0  0  0  0  0  0  0  0  0  0
  148.1559  143.4617  158.5709 H   0  0  0  0  0  0  0  0  0  0  0  0
  147.0146  142.2073  156.9085 H   0  0  0  0  0  0  0  0  0  0  0  0
  148.1089  141.0115  155.1657 H   0  0  0  0  0  0  0  0  0  0  0  0
  148.2755  140.2290  156.7260 H   0  0  0  0  0  0  0  0  0  0  0  0
  148.2014  143.1161  156.2279 H   0  0  0  0  0  0  0  0  0  0  0  0
  1 11  1  0  0  0  0
  1  2  2  0  0  0  0
  1 12  1  0  0  0  0
  2  3  1  0  0  0  0
  2 13  1  0  0  0  0
  3  4  1  0  0  0  0
  4  5  1  0  0  0  0
  4 11  2  0  0  0  0
  5 10  1  0  0  0  0
  5  6  1  0  0  0  0
  5 14  1  0  0  0  0
  6  7  1  0  0  0  0
  6 15  1  0  0  0  0
  6 16  1  0  0  0  0
  7  8  1  0  0  0  0
  7 17  1  0  0  0  0
  7 18  1  0  0  0  0
  8  9  1  0  0  0  0
  8 19  1  0  0  0  0
  8 20  1  0  0  0  0
  9 10  1  0  0  0  0
  9 21  1  0  0  0  0
  9 24  1  0  0  0  0
 10 22  1  0  0  0  0
 10 23  1  0  0  0  0
M  CHG  1   9   1
M  END
> <s_m_source_file>
AV-unprocessed.smi

> <i_m_source_file_index>
3073

> <i_lp_mmshare_version>
43012

> <i_f3d_flags>
0

> <s_epik_input>
bjFbY0hdW2NIXXNjMVtDQEBIXTJbQ0gyXVtDSDJdW0NIMl1bTkhdW0NIMl0y

> <s_epik_cmdline>
J2VwaWtfcHl0aG9uJywgJy1waCcsICc3LjAnLCAnLXRuJywgJzgnLCAnLW1hJywgJzIwMCcsICctbWV0YWxfYmluZGluZycsICctaW1hZScsICc8aW5maWxlLm1hZT4nLCAnLW9tYWUnLCAnPG91dGZpbGUubWFlPic=

> <r_lp_tautomer_probability>
1

> <r_epik_Ionization_Penalty>
0.00043192

> <r_epik_Ionization_Penalty_Charging>
0.000426856

> <r_epik_Ionization_Penalty_Neutral>
5.06388e-06

> <r_epik_State_Penalty>
-0

> <r_epik_Charging_Adjusted_Penalty>
0.000426856

> <i_epik_Tot_Q>
1

> <i_epik_Tot_abs_Q>
1

> <r_epik_Metal_State_Penalty>
-0

> <b_epik_Metal_Only>
0

> <s_lp_Force_Field>
OPLS_2005

> <r_lp_Energy>
4.76757

> <b_lp_Chiralities_Consistent>
1

> <s_lp_Variant>
AV-unprocessed.smi:3073-1

> <Gold.Version>
5.8.1

> <Gold.Id.Protein>
6NUR|6NUR_protein|mol2

> <Gold.PLP.Fitness>
31.1118

> <Gold.PLP.PLP>
-21.0833

> <Gold.PLP.part.hbond>
-2.0000

> <Gold.PLP.part.metal>
0.0000

> <Gold.PLP.part.buried>
-2.8428

> <Gold.PLP.part.nonpolar>
-16.2689

> <Gold.PLP.part.repulsive>
0.0419

> <Gold.PLP.ligand.clash>
0.0000

> <Gold.PLP.ligand.torsion>
0.0266

> <Gold.PLP.Chemscore.Hbond>
2.3366

> <Gold.PLP.Chemscore.CHOScore>
1.0062

> <Gold.PLP.Chemscore.Metal>
0.0000

> <Gold.Chemscore.Hbonds>
donor molecule, donor type, donor heavy atom, donor atom, acceptor molecule, acceptor atom, score
      L1  H     9    24       P1  8028  2.00
      P1  H  7989  7998       L1    11  0.28
      L1  C     2    13       P1  7948  0.01
      L1  C     2    13       P1  7949  1.00

> <Gold.PLP.Chemscore.Internal.Correction>
0.0531

> <Gold.Rescore>
     Score         DG    S(hbond)    S(metal)    S(lipo)     H(rot)  DE(clash)    DE(int)     intcor
     15.89     -16.17       1.73        0.00      63.77       1.00       0.18       0.10       ----

> <Gold.Chemscore.Fitness>
15.8921

> <Gold.Chemscore.DG>
-16.1719

> <Gold.Chemscore.ZeroCoef>
-5.4800

> <Gold.Chemscore.Hbond>
1.7338

> <Gold.Chemscore.Metal>
0.0000

> <Gold.Chemscore.Lipo>
63.7698

> <Gold.Chemscore.Internal_Hbond>
0.0000

> <Gold.Chemscore.DEClash>
0.1826

> <Gold.Chemscore.DEInternal>
0.0972

> <Gold.Chemscore.Rot>
1.0000

> <Gold.Chemscore.Internal.Correction>
   9.000000E+99

> <Gold.Chemscore.Hbonds>
donor molecule, donor type, donor heavy atom, donor atom, acceptor molecule, acceptor atom, score
      L1  H     9    24       P1  8028  0.60

> <Gold.Chemscore.Hbond.Weighted>
-5.7908

> <Gold.Chemscore.Metal.Weighted>
-0.0000

> <Gold.Chemscore.Lipo.Weighted>
-7.4611

> <Gold.Chemscore.Internal_Hbond.Weighted>
0.0000

> <Gold.Chemscore.DEClash.Weighted>
0.1826

> <Gold.Chemscore.DEInternal.Weighted>
0.0972

> <Gold.Chemscore.Rot.Weighted>
2.5600

> <Gold.Chemscore.Internal.Correction.Weighted>
   9.000000E+99

> <Gold.Protein.RotatedTorsions>
[ 6907 6896 6895 6894 ] final  169.40 input  -60.11 | X-H torsion
[ 7974 7965 7964 7962 ] final    1.84 input  175.53 | X-H torsion
[ 8008 7997 7996 7995 ] final    2.86 input   59.86 | X-H torsion
[ 10167 10162 10161 10158 ] final   15.39 input  -65.29 | X-H torsion
[ 10718 10713 10712 10709 ] final  -91.45 input   66.30 | X-H torsion
[ 10763 10752 10751 10750 ] final   92.33 input  -60.55 | X-H torsion
[ 11005 11000 10999 10996 ] final -121.25 input  -57.11 | X-H torsion

> <Gold.Protein.ActiveResidues>
 VAL166  LYS551  ARG553  GLY616  TRP617  ASP618  TYR619  PRO620  LYS621  CYS622 
 ASP623  PHE694  ASN695  SER759  ASP760  ASP761  ALA762  ILE779  LEU786  VAL792 
 PHE793  MET794  SER795  GLU796  ALA797  LYS798  CYS799  TRP800  GLU811  SER814 

> <Gold.Protein.RotatedAtoms>
  151.8326  133.3411  159.3617 H   0  0  0  0  0  0  0  0  0  0  0  0  # atno 6907 bound_to 6896
  150.7259  134.5468  159.5784 H   0  0  0  0  0  0  0  0  0  0  0  0  # atno 6908 bound_to 6896
  152.2925  134.7706  160.0426 H   0  0  0  0  0  0  0  0  0  0  0  0  # atno 6909 bound_to 6896
  146.2442  140.0926  142.8351 H   0  0  0  0  0  0  0  0  0  0  0  0  # atno 7974 bound_to 7965
  154.6967  140.2664  155.6759 H   0  0  0  0  0  0  0  0  0  0  0  0  # atno 8008 bound_to 7997
  156.2751  140.2780  156.1487 H   0  0  0  0  0  0  0  0  0  0  0  0  # atno 8009 bound_to 7997
  155.0821  140.0372  157.2632 H   0  0  0  0  0  0  0  0  0  0  0  0  # atno 8010 bound_to 7997
  140.5870  143.8869  150.6839 H   0  0  0  0  0  0  0  0  0  0  0  0  # atno 10167 bound_to 10162
  155.9994  130.4948  150.5476 H   0  0  0  0  0  0  0  0  0  0  0  0  # atno 10718 bound_to 10713
  153.2180  135.4365  155.0456 H   0  0  0  0  0  0  0  0  0  0  0  0  # atno 10763 bound_to 10752
  154.8235  135.3349  154.6970 H   0  0  0  0  0  0  0  0  0  0  0  0  # atno 10764 bound_to 10752
  153.7403  135.7005  153.5024 H   0  0  0  0  0  0  0  0  0  0  0  0  # atno 10765 bound_to 10752
  141.0084  134.0301  157.3447 H   0  0  0  0  0  0  0  0  0  0  0  0  # atno 11005 bound_to 11000
  145.0637  140.9106  143.4923 LP  0  0  0  0  0  0  0  0  0  0  0  0  # atno 17320 bound_to 7965
  145.1046  139.2798  143.5668 LP  0  0  0  0  0  0  0  0  0  0  0  0  # atno 17321 bound_to 7965
  140.2383  143.3683  152.1508 LP  0  0  0  0  0  0  0  0  0  0  0  0  # atno 17342 bound_to 10162
  139.5204  144.7032  151.5432 LP  0  0  0  0  0  0  0  0  0  0  0  0  # atno 17343 bound_to 10162
  157.3404  131.0715  151.1792 LP  0  0  0  0  0  0  0  0  0  0  0  0  # atno 17370 bound_to 10713
  157.2643  130.6674  149.5989 LP  0  0  0  0  0  0  0  0  0  0  0  0  # atno 17371 bound_to 10713
  139.9076  135.0183  156.7553 LP  0  0  0  0  0  0  0  0  0  0  0  0  # atno 17394 bound_to 11000
  140.6775  133.9504  155.7891 LP  0  0  0  0  0  0  0  0  0  0  0  0  # atno 17395 bound_to 11000

$$$$
