AV-unprocessed.smi:1174|AV-procd|sdf|4948|dock3
  -GOLD-   22720 3533D 1   1.00000     0.00000
 Structure written by MMmdl.
 41 42  0  0  0  0  0  0  0  0  1 V2000
  150.2510  141.7041  158.1349 C   0  0  0  0  0  0  0  0  0  0  0  0
  150.6993  142.1193  156.7273 C   0  0  2  0  0  0  0  0  0  0  0  0
  151.3099  143.5379  156.7275 C   0  0  0  0  0  0  0  0  0  0  0  0
  151.5917  144.0287  158.0652 N   0  0  0  0  0  0  0  0  0  0  0  0
  151.0220  145.0987  158.7231 C   0  0  0  0  0  0  0  0  0  0  0  0
  151.6238  145.1917  159.9449 C   0  0  0  0  0  0  0  0  0  0  0  0
  152.5552  144.1158  159.9447 C   0  0  0  0  0  0  0  0  0  0  0  0
  152.5308  143.4192  158.8199 N   0  0  0  0  0  0  0  0  0  0  0  0
  149.5507  142.0492  155.8243 N   0  0  0  0  0  0  0  0  0  0  0  0
  149.4377  141.2377  154.7601 C   0  0  0  0  0  0  0  0  0  0  0  0
  150.3015  140.4178  154.4483 O   0  0  0  0  0  0  0  0  0  0  0  0
  148.1658  141.4053  153.9079 C   0  0  1  0  0  0  0  0  0  0  0  0
  147.5556  140.0397  153.5070 C   0  0  0  0  0  0  0  0  0  0  0  0
  146.7236  139.3891  154.6304 C   0  0  0  0  0  0  0  0  0  0  0  0
  145.7150  140.3908  155.2179 C   0  0  0  0  0  0  0  0  0  0  0  0
  146.4375  141.5822  155.6975 N   0  0  0  0  0  0  0  0  0  0  0  0
  146.5506  141.9921  156.9870 C   0  0  0  0  0  0  0  0  0  0  0  0
  147.5376  142.8605  157.2282 N   0  0  0  0  0  0  0  0  0  0  0  0
  145.8074  141.6157  157.8920 O   0  0  0  0  0  0  0  0  0  0  0  0
  147.0960  142.2947  154.5905 C   0  0  0  0  0  0  0  0  0  0  0  0
  151.0896  141.7140  158.8317 H   0  0  0  0  0  0  0  0  0  0  0  0
  149.8376  140.6948  158.1338 H   0  0  0  0  0  0  0  0  0  0  0  0
  149.4867  142.3777  158.5244 H   0  0  0  0  0  0  0  0  0  0  0  0
  151.4642  141.4074  156.4113 H   0  0  0  0  0  0  0  0  0  0  0  0
  152.2331  143.5575  156.1467 H   0  0  0  0  0  0  0  0  0  0  0  0
  150.6274  144.2407  156.2474 H   0  0  0  0  0  0  0  0  0  0  0  0
  150.2534  145.7049  158.2667 H   0  0  0  0  0  0  0  0  0  0  0  0
  151.4308  145.9189  160.7193 H   0  0  0  0  0  0  0  0  0  0  0  0
  153.2443  143.8230  160.7231 H   0  0  0  0  0  0  0  0  0  0  0  0
  148.7924  142.6897  156.0081 H   0  0  0  0  0  0  0  0  0  0  0  0
  148.4652  141.9087  152.9870 H   0  0  0  0  0  0  0  0  0  0  0  0
  146.9103  140.1909  152.6409 H   0  0  0  0  0  0  0  0  0  0  0  0
  148.3351  139.3508  153.1782 H   0  0  0  0  0  0  0  0  0  0  0  0
  146.1986  138.5167  154.2410 H   0  0  0  0  0  0  0  0  0  0  0  0
  147.3782  139.0211  155.4208 H   0  0  0  0  0  0  0  0  0  0  0  0
  145.0055  140.6948  154.4471 H   0  0  0  0  0  0  0  0  0  0  0  0
  145.1152  139.8969  155.9818 H   0  0  0  0  0  0  0  0  0  0  0  0
  147.6873  143.2044  158.1651 H   0  0  0  0  0  0  0  0  0  0  0  0
  148.1330  143.1625  156.4711 H   0  0  0  0  0  0  0  0  0  0  0  0
  147.5474  143.2367  154.9063 H   0  0  0  0  0  0  0  0  0  0  0  0
  146.3366  142.5758  153.8596 H   0  0  0  0  0  0  0  0  0  0  0  0
  1  2  1  0  0  0  0
  1 21  1  0  0  0  0
  1 22  1  0  0  0  0
  1 23  1  0  0  0  0
  2  3  1  0  0  0  0
  2  9  1  0  0  0  0
  2 24  1  0  0  0  0
  3  4  1  0  0  0  0
  3 25  1  0  0  0  0
  3 26  1  0  0  0  0
  4  8  1  0  0  0  0
  4  5  1  0  0  0  0
  5  6  2  0  0  0  0
  5 27  1  0  0  0  0
  6  7  1  0  0  0  0
  6 28  1  0  0  0  0
  7  8  2  0  0  0  0
  7 29  1  0  0  0  0
  9 10  1  0  0  0  0
  9 30  1  0  0  0  0
 10 11  2  0  0  0  0
 10 12  1  0  0  0  0
 12 20  1  0  0  0  0
 12 13  1  0  0  0  0
 12 31  1  0  0  0  0
 13 14  1  0  0  0  0
 13 32  1  0  0  0  0
 13 33  1  0  0  0  0
 14 15  1  0  0  0  0
 14 34  1  0  0  0  0
 14 35  1  0  0  0  0
 15 16  1  0  0  0  0
 15 36  1  0  0  0  0
 15 37  1  0  0  0  0
 16 17  1  0  0  0  0
 16 20  1  0  0  0  0
 17 18  1  0  0  0  0
 17 19  2  0  0  0  0
 18 38  1  0  0  0  0
 18 39  1  0  0  0  0
 20 40  1  0  0  0  0
 20 41  1  0  0  0  0
M  END
> <s_m_source_file>
AV-unprocessed.smi

> <i_m_source_file_index>
1174

> <i_lp_mmshare_version>
43012

> <i_f3d_flags>
0

> <s_epik_input>
bjFbY0hdW2NIXVtjSF1uMVtDSDJdW0NAQEhdKFtDSDNdKVtOSF1DKD1PKVtDQEBIXTJbQ0gyXVtDSDJdW0NIMl1OKFtDSDJdMilDKD1PKVtOSDJd

> <s_epik_cmdline>
J2VwaWtfcHl0aG9uJywgJy1waCcsICc3LjAnLCAnLXRuJywgJzgnLCAnLW1hJywgJzIwMCcsICctbWV0YWxfYmluZGluZycsICctaW1hZScsICc8aW5maWxlLm1hZT4nLCAnLW9tYWUnLCAnPG91dGZpbGUubWFlPic=

> <r_lp_tautomer_probability>
1

> <r_epik_Ionization_Penalty>
0.000372452

> <r_epik_Ionization_Penalty_Charging>
0

> <r_epik_Ionization_Penalty_Neutral>
0.000372452

> <r_epik_State_Penalty>
-0

> <r_epik_Charging_Adjusted_Penalty>
0

> <i_epik_Tot_Q>
0

> <i_epik_Tot_abs_Q>
0

> <r_epik_Metal_State_Penalty>
-0

> <b_epik_Metal_Only>
0

> <s_lp_Force_Field>
OPLS_2005

> <r_lp_Energy>
23.1922

> <b_lp_Chiralities_Consistent>
1

> <s_lp_Variant>
AV-unprocessed.smi:1174-3

> <Gold.Version>
5.8.1

> <Gold.Id.Protein>
6NUR|6NUR_protein|mol2

> <Gold.PLP.Fitness>
45.3284

> <Gold.PLP.PLP>
-38.2657

> <Gold.PLP.part.hbond>
-3.8691

> <Gold.PLP.part.metal>
0.0000

> <Gold.PLP.part.buried>
-0.5117

> <Gold.PLP.part.nonpolar>
-33.5825

> <Gold.PLP.part.repulsive>
0.2594

> <Gold.PLP.ligand.clash>
0.5941

> <Gold.PLP.ligand.torsion>
1.1408

> <Gold.PLP.Chemscore.Hbond>
2.2915

> <Gold.PLP.Chemscore.CHOScore>
1.0000

> <Gold.PLP.Chemscore.Metal>
0.0000

> <Gold.Chemscore.Hbonds>
donor molecule, donor type, donor heavy atom, donor atom, acceptor molecule, acceptor atom, score
      L1  H     9    30       P1  8028  0.46
      L1  H    18    39       P1  8028  0.83
      P1  H  7989  7998       L1    11  0.98
      L1  C     5    27       P1  8029  0.97

> <Gold.PLP.Chemscore.Internal.Correction>
0.0640

> <Gold.Rescore>
     Score         DG    S(hbond)    S(metal)    S(lipo)     H(rot)  DE(clash)    DE(int)     intcor
     12.58     -16.16       1.65        0.00      84.16       1.82       0.79       2.80       ----

> <Gold.Chemscore.Fitness>
12.5755

> <Gold.Chemscore.DG>
-16.1638

> <Gold.Chemscore.ZeroCoef>
-5.4800

> <Gold.Chemscore.Hbond>
1.6461

> <Gold.Chemscore.Metal>
0.0000

> <Gold.Chemscore.Lipo>
84.1586

> <Gold.Chemscore.Internal_Hbond>
0.0000

> <Gold.Chemscore.DEClash>
0.7928

> <Gold.Chemscore.DEInternal>
2.7954

> <Gold.Chemscore.Rot>
1.8206

> <Gold.Chemscore.Internal.Correction>
   9.000000E+99

> <Gold.Chemscore.Hbonds>
donor molecule, donor type, donor heavy atom, donor atom, acceptor molecule, acceptor atom, score
      L1  H     9    30       P1  8028  0.44
      L1  H    18    39       P1  8028  0.29
      P1  H  7989  7998       L1    11  0.91

> <Gold.Chemscore.Hbond.Weighted>
-5.4979

> <Gold.Chemscore.Metal.Weighted>
-0.0000

> <Gold.Chemscore.Lipo.Weighted>
-9.8466

> <Gold.Chemscore.Internal_Hbond.Weighted>
0.0000

> <Gold.Chemscore.DEClash.Weighted>
0.7928

> <Gold.Chemscore.DEInternal.Weighted>
2.7954

> <Gold.Chemscore.Rot.Weighted>
4.6607

> <Gold.Chemscore.Internal.Correction.Weighted>
   9.000000E+99

> <Gold.Protein.RotatedTorsions>
[ 6907 6896 6895 6894 ] final   66.11 input  -60.11 | X-H torsion
[ 7974 7965 7964 7962 ] final  111.38 input  175.53 | X-H torsion
[ 8008 7997 7996 7995 ] final   43.33 input   59.86 | X-H torsion
[ 10167 10162 10161 10158 ] final  -12.09 input  -65.29 | X-H torsion
[ 10718 10713 10712 10709 ] final  131.83 input   66.30 | X-H torsion
[ 10763 10752 10751 10750 ] final  166.70 input  -60.55 | X-H torsion
[ 11005 11000 10999 10996 ] final  -82.82 input  -57.11 | X-H torsion

> <Gold.Protein.ActiveResidues>
 VAL166  LYS551  ARG553  GLY616  TRP617  ASP618  TYR619  PRO620  LYS621  CYS622 
 ASP623  PHE694  ASN695  SER759  ASP760  ASP761  ALA762  ILE779  LEU786  VAL792 
 PHE793  MET794  SER795  GLU796  ALA797  LYS798  CYS799  TRP800  GLU811  SER814 

> <Gold.Protein.RotatedAtoms>
  152.4457  134.5499  159.9863 H   0  0  0  0  0  0  0  0  0  0  0  0  # atno 6907 bound_to 6896
  151.5584  133.3401  159.2974 H   0  0  0  0  0  0  0  0  0  0  0  0  # atno 6908 bound_to 6896
  150.8373  134.7684  159.6967 H   0  0  0  0  0  0  0  0  0  0  0  0  # atno 6909 bound_to 6896
  145.2429  139.2771  143.4108 H   0  0  0  0  0  0  0  0  0  0  0  0  # atno 7974 bound_to 7965
  155.3009  140.3385  155.4248 H   0  0  0  0  0  0  0  0  0  0  0  0  # atno 8008 bound_to 7997
  156.2002  140.1730  156.7955 H   0  0  0  0  0  0  0  0  0  0  0  0  # atno 8009 bound_to 7997
  154.5549  140.0698  156.8711 H   0  0  0  0  0  0  0  0  0  0  0  0  # atno 8010 bound_to 7997
  140.7153  143.5569  150.9238 H   0  0  0  0  0  0  0  0  0  0  0  0  # atno 10167 bound_to 10162
  157.4930  131.1091  150.9531 H   0  0  0  0  0  0  0  0  0  0  0  0  # atno 10718 bound_to 10713
  154.3429  135.2754  155.2413 H   0  0  0  0  0  0  0  0  0  0  0  0  # atno 10763 bound_to 10752
  154.4676  135.5891  153.6302 H   0  0  0  0  0  0  0  0  0  0  0  0  # atno 10764 bound_to 10752
  152.9856  135.6080  154.3631 H   0  0  0  0  0  0  0  0  0  0  0  0  # atno 10765 bound_to 10752
  141.1661  133.7264  156.8629 H   0  0  0  0  0  0  0  0  0  0  0  0  # atno 11005 bound_to 11000
  146.3323  140.2798  142.8610 LP  0  0  0  0  0  0  0  0  0  0  0  0  # atno 17320 bound_to 7965
  144.9572  140.8239  143.5535 LP  0  0  0  0  0  0  0  0  0  0  0  0  # atno 17321 bound_to 7965
  139.9294  143.6511  152.3079 LP  0  0  0  0  0  0  0  0  0  0  0  0  # atno 17342 bound_to 10162
  139.6956  144.7641  151.1361 LP  0  0  0  0  0  0  0  0  0  0  0  0  # atno 17343 bound_to 10162
  157.0227  130.5680  149.5333 LP  0  0  0  0  0  0  0  0  0  0  0  0  # atno 17370 bound_to 10713
  156.0184  130.5278  150.8203 LP  0  0  0  0  0  0  0  0  0  0  0  0  # atno 17371 bound_to 10713
  140.1836  134.9016  157.2977 LP  0  0  0  0  0  0  0  0  0  0  0  0  # atno 17394 bound_to 11000
  140.2368  134.3843  155.7497 LP  0  0  0  0  0  0  0  0  0  0  0  0  # atno 17395 bound_to 11000

$$$$
