AV-unprocessed.smi:3117|AV-procd|sdf|11881|dock3
  -GOLD-   2272017263D 1   1.00000     0.00000
 Structure written by MMmdl.
 37 37  0  0  0  0  0  0  0  0  2 V2000
  148.7442  141.3702  156.9788 C   0  0  0  0  0  0  0  0  0  0  0  0
  148.4453  142.2469  158.2060 C   0  0  1  0  0  0  0  0  0  0  0  0
  149.3309  143.4333  158.1913 N   0  3  0  0  0  0  0  0  0  0  0  0
  150.7720  143.1439  158.3468 C   0  0  0  0  0  0  0  0  0  0  0  0
  151.5464  144.3427  158.9348 C   0  0  0  0  0  0  0  0  0  0  0  0
  152.0191  144.0214  160.3624 C   0  0  0  0  0  0  0  0  0  0  0  0
  152.7414  144.7579  158.0573 C   0  0  0  0  0  0  0  0  0  0  0  0
  150.6580  145.4391  159.0338 O   0  0  0  0  0  0  0  0  0  0  0  0
  146.9528  142.6573  158.3036 C   0  0  1  0  0  0  0  0  0  0  0  0
  145.9908  141.5209  157.9076 C   0  0  0  0  0  0  0  0  0  0  0  0
  146.6001  143.2403  159.5949 N   0  0  0  0  0  0  0  0  0  0  0  0
  146.2046  144.5352  159.8634 C   0  0  0  0  0  0  0  0  0  0  0  0
  145.9960  144.6303  161.2092 C   0  0  0  0  0  0  0  0  0  0  0  0
  146.2966  143.3263  161.6909 C   0  0  0  0  0  0  0  0  0  0  0  0
  146.6618  142.4990  160.7251 N   0  0  0  0  0  0  0  0  0  0  0  0
  148.1074  140.4855  156.9645 H   0  0  0  0  0  0  0  0  0  0  0  0
  149.7798  141.0286  156.9856 H   0  0  0  0  0  0  0  0  0  0  0  0
  148.5830  141.9115  156.0460 H   0  0  0  0  0  0  0  0  0  0  0  0
  148.6734  141.6487  159.0900 H   0  0  0  0  0  0  0  0  0  0  0  0
  149.1910  143.9303  157.3236 H   0  0  0  0  0  0  0  0  0  0  0  0
  150.8873  142.2728  158.9941 H   0  0  0  0  0  0  0  0  0  0  0  0
  151.1836  142.8736  157.3733 H   0  0  0  0  0  0  0  0  0  0  0  0
  152.7098  143.1774  160.3673 H   0  0  0  0  0  0  0  0  0  0  0  0
  151.1817  143.7641  161.0122 H   0  0  0  0  0  0  0  0  0  0  0  0
  152.5355  144.8699  160.8129 H   0  0  0  0  0  0  0  0  0  0  0  0
  153.4465  143.9344  157.9383 H   0  0  0  0  0  0  0  0  0  0  0  0
  153.2859  145.5929  158.5002 H   0  0  0  0  0  0  0  0  0  0  0  0
  152.4270  145.0697  157.0609 H   0  0  0  0  0  0  0  0  0  0  0  0
  151.0936  146.1408  159.4941 H   0  0  0  0  0  0  0  0  0  0  0  0
  146.8011  143.4468  157.5658 H   0  0  0  0  0  0  0  0  0  0  0  0
  146.2088  141.1569  156.9032 H   0  0  0  0  0  0  0  0  0  0  0  0
  144.9564  141.8655  157.9133 H   0  0  0  0  0  0  0  0  0  0  0  0
  146.0586  140.6712  158.5878 H   0  0  0  0  0  0  0  0  0  0  0  0
  146.1054  145.2750  159.0825 H   0  0  0  0  0  0  0  0  0  0  0  0
  145.6771  145.4997  161.7653 H   0  0  0  0  0  0  0  0  0  0  0  0
  146.2633  142.9598  162.7062 H   0  0  0  0  0  0  0  0  0  0  0  0
  149.0522  144.0403  158.9500 H   0  0  0  0  0  0  0  0  0  0  0  0
  1  2  1  0  0  0  0
  1 16  1  0  0  0  0
  1 17  1  0  0  0  0
  1 18  1  0  0  0  0
  2  3  1  0  0  0  0
  2  9  1  0  0  0  0
  2 19  1  0  0  0  0
  3  4  1  0  0  0  0
  3 20  1  0  0  0  0
  3 37  1  0  0  0  0
  4  5  1  0  0  0  0
  4 21  1  0  0  0  0
  4 22  1  0  0  0  0
  5  6  1  0  0  0  0
  5  7  1  0  0  0  0
  5  8  1  0  0  0  0
  6 23  1  0  0  0  0
  6 24  1  0  0  0  0
  6 25  1  0  0  0  0
  7 26  1  0  0  0  0
  7 27  1  0  0  0  0
  7 28  1  0  0  0  0
  8 29  1  0  0  0  0
  9 10  1  0  0  0  0
  9 11  1  0  0  0  0
  9 30  1  0  0  0  0
 10 31  1  0  0  0  0
 10 32  1  0  0  0  0
 10 33  1  0  0  0  0
 11 15  1  0  0  0  0
 11 12  1  0  0  0  0
 12 13  2  0  0  0  0
 12 34  1  0  0  0  0
 13 14  1  0  0  0  0
 13 35  1  0  0  0  0
 14 15  2  0  0  0  0
 14 36  1  0  0  0  0
M  CHG  1   3   1
M  END
> <s_m_source_file>
AV-unprocessed.smi

> <i_m_source_file_index>
3117

> <i_lp_mmshare_version>
43012

> <i_f3d_flags>
0

> <s_epik_input>
W0NIM11DKFtDSDNdKShbT0hdKVtDSDJdW05IXVtDQEBIXShbQ0gzXSlbQ0BIXShbQ0gzXSluMVtjSF1bY0hdW2NIXW4x

> <s_epik_cmdline>
J2VwaWtfcHl0aG9uJywgJy1waCcsICc3LjAnLCAnLXRuJywgJzgnLCAnLW1hJywgJzIwMCcsICctbWV0YWxfYmluZGluZycsICctaW1hZScsICc8aW5maWxlLm1hZT4nLCAnLW9tYWUnLCAnPG91dGZpbGUubWFlPic=

> <r_lp_tautomer_probability>
1

> <r_epik_Ionization_Penalty>
0.0164263

> <r_epik_Ionization_Penalty_Charging>
0.0164138

> <r_epik_Ionization_Penalty_Neutral>
1.24697e-05

> <r_epik_State_Penalty>
0.0129543

> <r_epik_Charging_Adjusted_Penalty>
0.0293681

> <i_epik_Tot_Q>
1

> <i_epik_Tot_abs_Q>
1

> <r_epik_Metal_State_Penalty>
0.0129806

> <b_epik_Metal_Only>
0

> <s_lp_Force_Field>
OPLS_2005

> <r_lp_Energy>
13.722

> <b_lp_Chiralities_Consistent>
1

> <s_lp_Variant>
AV-unprocessed.smi:3117-4

> <Gold.Version>
5.8.1

> <Gold.Id.Protein>
6NUR|6NUR_protein|mol2

> <Gold.PLP.Fitness>
42.5657

> <Gold.PLP.PLP>
-31.0935

> <Gold.PLP.part.hbond>
-5.1418

> <Gold.PLP.part.metal>
0.0000

> <Gold.PLP.part.buried>
-3.0507

> <Gold.PLP.part.nonpolar>
-22.8638

> <Gold.PLP.part.repulsive>
0.0623

> <Gold.PLP.ligand.clash>
0.0000

> <Gold.PLP.ligand.torsion>
1.5316

> <Gold.PLP.Chemscore.Hbond>
3.8240

> <Gold.PLP.Chemscore.CHOScore>
0.9618

> <Gold.PLP.Chemscore.Metal>
0.0000

> <Gold.Chemscore.Hbonds>
donor molecule, donor type, donor heavy atom, donor atom, acceptor molecule, acceptor atom, score
      L1  H     3    20       P1  8028  1.90
      P1  H  6933  6944       L1    15  0.42
      P1  H  6934  6946       L1    15  0.94
      L1  C    12    34       P1  8029  0.82

> <Gold.PLP.Chemscore.Internal.Correction>
0.1779

> <Gold.Rescore>
     Score         DG    S(hbond)    S(metal)    S(lipo)     H(rot)  DE(clash)    DE(int)     intcor
     12.51     -14.64       2.00        0.00      70.82       2.27       0.34       1.79       ----

> <Gold.Chemscore.Fitness>
12.5087

> <Gold.Chemscore.DG>
-14.6390

> <Gold.Chemscore.ZeroCoef>
-5.4800

> <Gold.Chemscore.Hbond>
2.0032

> <Gold.Chemscore.Metal>
0.0000

> <Gold.Chemscore.Lipo>
70.8202

> <Gold.Chemscore.Internal_Hbond>
0.0000

> <Gold.Chemscore.DEClash>
0.3357

> <Gold.Chemscore.DEInternal>
1.7946

> <Gold.Chemscore.Rot>
2.2725

> <Gold.Chemscore.Internal.Correction>
   9.000000E+99

> <Gold.Chemscore.Hbonds>
donor molecule, donor type, donor heavy atom, donor atom, acceptor molecule, acceptor atom, score
      L1  H     3    20       P1  8028  0.22
      P1  H  6933  6944       L1    15  0.03
      P1  H  6934  6946       L1    15  0.91

> <Gold.Chemscore.Hbond.Weighted>
-6.6907

> <Gold.Chemscore.Metal.Weighted>
-0.0000

> <Gold.Chemscore.Lipo.Weighted>
-8.2860

> <Gold.Chemscore.Internal_Hbond.Weighted>
0.0000

> <Gold.Chemscore.DEClash.Weighted>
0.3357

> <Gold.Chemscore.DEInternal.Weighted>
1.7946

> <Gold.Chemscore.Rot.Weighted>
5.8176

> <Gold.Chemscore.Internal.Correction.Weighted>
   9.000000E+99

> <Gold.Protein.RotatedTorsions>
[ 6907 6896 6895 6894 ] final  -72.60 input  -60.11 | X-H torsion
[ 7974 7965 7964 7962 ] final   44.44 input  175.53 | X-H torsion
[ 8008 7997 7996 7995 ] final -105.05 input   59.86 | X-H torsion
[ 10167 10162 10161 10158 ] final  -52.32 input  -65.29 | X-H torsion
[ 10718 10713 10712 10709 ] final -145.23 input   66.30 | X-H torsion
[ 10763 10752 10751 10750 ] final  -11.50 input  -60.55 | X-H torsion
[ 11005 11000 10999 10996 ] final  -95.97 input  -57.11 | X-H torsion

> <Gold.Protein.ActiveResidues>
 VAL166  LYS551  ARG553  GLY616  TRP617  ASP618  TYR619  PRO620  LYS621  CYS622 
 ASP623  PHE694  ASN695  SER759  ASP760  ASP761  ALA762  ILE779  LEU786  VAL792 
 PHE793  MET794  SER795  GLU796  ALA797  LYS798  CYS799  TRP800  GLU811  SER814 

> <Gold.Protein.RotatedAtoms>
  150.7163  134.5139  159.5620 H   0  0  0  0  0  0  0  0  0  0  0  0  # atno 6907 bound_to 6896
  152.2709  134.7931  160.0423 H   0  0  0  0  0  0  0  0  0  0  0  0  # atno 6908 bound_to 6896
  151.8611  133.3422  159.3741 H   0  0  0  0  0  0  0  0  0  0  0  0  # atno 6909 bound_to 6896
  146.0569  139.5075  142.9683 H   0  0  0  0  0  0  0  0  0  0  0  0  # atno 7974 bound_to 7965
  154.8942  140.0415  157.1856 H   0  0  0  0  0  0  0  0  0  0  0  0  # atno 8008 bound_to 7997
  154.8510  140.2929  155.5577 H   0  0  0  0  0  0  0  0  0  0  0  0  # atno 8009 bound_to 7997
  156.2996  140.2465  156.3468 H   0  0  0  0  0  0  0  0  0  0  0  0  # atno 8010 bound_to 7997
  140.6543  143.2588  151.4631 H   0  0  0  0  0  0  0  0  0  0  0  0  # atno 10167 bound_to 10162
  156.3799  130.7832  151.2023 H   0  0  0  0  0  0  0  0  0  0  0  0  # atno 10718 bound_to 10713
  153.4847  135.7017  153.5918 H   0  0  0  0  0  0  0  0  0  0  0  0  # atno 10763 bound_to 10752
  153.4116  135.3847  155.2054 H   0  0  0  0  0  0  0  0  0  0  0  0  # atno 10764 bound_to 10752
  154.8720  135.3906  154.4301 H   0  0  0  0  0  0  0  0  0  0  0  0  # atno 10765 bound_to 10752
  141.1426  133.8064  157.0508 H   0  0  0  0  0  0  0  0  0  0  0  0  # atno 11005 bound_to 11000
  145.6629  141.0236  143.1699 LP  0  0  0  0  0  0  0  0  0  0  0  0  # atno 17320 bound_to 7965
  144.7153  139.8221  143.7401 LP  0  0  0  0  0  0  0  0  0  0  0  0  # atno 17321 bound_to 7965
  139.5763  144.1811  152.1908 LP  0  0  0  0  0  0  0  0  0  0  0  0  # atno 17342 bound_to 10162
  140.1123  144.5446  150.6917 LP  0  0  0  0  0  0  0  0  0  0  0  0  # atno 17343 bound_to 10162
  157.7491  131.0347  150.4330 LP  0  0  0  0  0  0  0  0  0  0  0  0  # atno 17370 bound_to 10713
  156.4572  130.4024  149.6599 LP  0  0  0  0  0  0  0  0  0  0  0  0  # atno 17371 bound_to 10713
  140.0633  134.9743  157.1342 LP  0  0  0  0  0  0  0  0  0  0  0  0  # atno 17394 bound_to 11000
  140.3816  134.2280  155.7170 LP  0  0  0  0  0  0  0  0  0  0  0  0  # atno 17395 bound_to 11000

$$$$
