AV-unprocessed.smi:1419|AV-procd|sdf|5782|dock1
  -GOLD-   22720 5423D 1   1.00000     0.00000
 Structure written by MMmdl.
 41 42  0  0  0  0  0  0  0  0  1 V2000
  151.7230  140.0273  158.1251 C   0  0  0  0  0  0  0  0  0  0  0  0
  150.9100  140.8327  157.1030 C   0  0  2  0  0  0  0  0  0  0  0  0
  150.2878  142.0922  157.7399 C   0  0  0  0  0  0  0  0  0  0  0  0
  151.2900  143.0390  158.1963 N   0  0  0  0  0  0  0  0  0  0  0  0
  151.5419  144.3066  157.6883 C   0  0  0  0  0  0  0  0  0  0  0  0
  152.5678  144.8342  158.4394 C   0  0  0  0  0  0  0  0  0  0  0  0
  152.9652  143.9117  159.4045 N   0  0  0  0  0  0  0  0  0  0  0  0
  152.1654  142.8739  159.1977 C   0  0  0  0  0  0  0  0  0  0  0  0
  149.8621  139.9807  156.5432 N   0  0  0  0  0  0  0  0  0  0  0  0
  149.7413  139.6195  155.2538 C   0  0  0  0  0  0  0  0  0  0  0  0
  150.5990  139.8840  154.4102 O   0  0  0  0  0  0  0  0  0  0  0  0
  148.6091  138.9315  154.9671 N   0  0  0  0  0  0  0  0  0  0  0  0
  147.6054  138.4597  155.9299 C   0  0  0  0  0  0  0  0  0  0  0  0
  146.3769  139.3852  155.8310 C   0  0  2  0  0  0  0  0  0  0  0  0
  145.2442  138.9421  156.7630 C   0  0  0  0  0  0  0  0  0  0  0  0
  145.8784  139.3700  154.4908 O   0  0  0  0  0  0  0  0  0  0  0  0
  146.8247  139.7092  153.4713 C   0  0  1  0  0  0  0  0  0  0  0  0
  147.1236  141.2196  153.4640 C   0  0  0  0  0  0  0  0  0  0  0  0
  148.0800  138.8195  153.6055 C   0  0  0  0  0  0  0  0  0  0  0  0
  152.5230  140.6322  158.5526 H   0  0  0  0  0  0  0  0  0  0  0  0
  152.1834  139.1544  157.6607 H   0  0  0  0  0  0  0  0  0  0  0  0
  151.0961  139.6771  158.9461 H   0  0  0  0  0  0  0  0  0  0  0  0
  151.5995  141.1501  156.3187 H   0  0  0  0  0  0  0  0  0  0  0  0
  149.6291  142.5943  157.0294 H   0  0  0  0  0  0  0  0  0  0  0  0
  149.6711  141.8155  158.5959 H   0  0  0  0  0  0  0  0  0  0  0  0
  150.9810  144.7190  156.8624 H   0  0  0  0  0  0  0  0  0  0  0  0
  153.0466  145.7990  158.3600 H   0  0  0  0  0  0  0  0  0  0  0  0
  152.2120  141.9751  159.7950 H   0  0  0  0  0  0  0  0  0  0  0  0
  149.1274  139.6974  157.1749 H   0  0  0  0  0  0  0  0  0  0  0  0
  147.3255  137.4343  155.6839 H   0  0  0  0  0  0  0  0  0  0  0  0
  147.9632  138.4245  156.9589 H   0  0  0  0  0  0  0  0  0  0  0  0
  146.6611  140.4022  156.1030 H   0  0  0  0  0  0  0  0  0  0  0  0
  145.5654  138.9555  157.8047 H   0  0  0  0  0  0  0  0  0  0  0  0
  144.9120  137.9307  156.5272 H   0  0  0  0  0  0  0  0  0  0  0  0
  144.3835  139.6054  156.6722 H   0  0  0  0  0  0  0  0  0  0  0  0
  146.3478  139.4734  152.5197 H   0  0  0  0  0  0  0  0  0  0  0  0
  147.7750  141.4804  152.6296 H   0  0  0  0  0  0  0  0  0  0  0  0
  147.6187  141.5498  154.3757 H   0  0  0  0  0  0  0  0  0  0  0  0
  146.2049  141.7968  153.3590 H   0  0  0  0  0  0  0  0  0  0  0  0
  148.8146  139.0815  152.8425 H   0  0  0  0  0  0  0  0  0  0  0  0
  147.8168  137.7784  153.4130 H   0  0  0  0  0  0  0  0  0  0  0  0
  1  2  1  0  0  0  0
  1 20  1  0  0  0  0
  1 21  1  0  0  0  0
  1 22  1  0  0  0  0
  2  3  1  0  0  0  0
  2  9  1  0  0  0  0
  2 23  1  0  0  0  0
  3  4  1  0  0  0  0
  3 24  1  0  0  0  0
  3 25  1  0  0  0  0
  4  8  1  0  0  0  0
  4  5  1  0  0  0  0
  5  6  2  0  0  0  0
  5 26  1  0  0  0  0
  6  7  1  0  0  0  0
  6 27  1  0  0  0  0
  7  8  2  0  0  0  0
  8 28  1  0  0  0  0
  9 10  1  0  0  0  0
  9 29  1  0  0  0  0
 10 11  2  0  0  0  0
 10 12  1  0  0  0  0
 12 19  1  0  0  0  0
 12 13  1  0  0  0  0
 13 14  1  0  0  0  0
 13 30  1  0  0  0  0
 13 31  1  0  0  0  0
 14 15  1  0  0  0  0
 14 16  1  0  0  0  0
 14 32  1  0  0  0  0
 15 33  1  0  0  0  0
 15 34  1  0  0  0  0
 15 35  1  0  0  0  0
 16 17  1  0  0  0  0
 17 18  1  0  0  0  0
 17 19  1  0  0  0  0
 17 36  1  0  0  0  0
 18 37  1  0  0  0  0
 18 38  1  0  0  0  0
 18 39  1  0  0  0  0
 19 40  1  0  0  0  0
 19 41  1  0  0  0  0
M  END
> <s_m_source_file>
AV-unprocessed.smi

> <i_m_source_file_index>
1419

> <i_lp_mmshare_version>
43012

> <i_f3d_flags>
0

> <s_epik_input>
W2NIXTFuW2NIXVtjSF1uMVtDSDJdW0NAQEhdKFtDSDNdKVtOSF1DKD1PKU4yW0NIMl1bQ0BASF0oW0NIM10pT1tDQEBIXShbQ0gzXSlbQ0gyXTI=

> <s_epik_cmdline>
J2VwaWtfcHl0aG9uJywgJy1waCcsICc3LjAnLCAnLXRuJywgJzgnLCAnLW1hJywgJzIwMCcsICctbWV0YWxfYmluZGluZycsICctaW1hZScsICc8aW5maWxlLm1hZT4nLCAnLW9tYWUnLCAnPG91dGZpbGUubWFlPic=

> <r_lp_tautomer_probability>
1

> <r_epik_Ionization_Penalty>
0.625124

> <r_epik_Ionization_Penalty_Charging>
0.625093

> <r_epik_Ionization_Penalty_Neutral>
3.17415e-05

> <r_epik_State_Penalty>
0.641455

> <r_epik_Charging_Adjusted_Penalty>
1.26655

> <i_epik_Tot_Q>
0

> <i_epik_Tot_abs_Q>
0

> <r_epik_Metal_State_Penalty>
0.307717

> <b_epik_Metal_Only>
0

> <s_lp_Force_Field>
OPLS_2005

> <r_lp_Energy>
29.9288

> <b_lp_Chiralities_Consistent>
1

> <s_lp_Variant>
AV-unprocessed.smi:1419-9

> <Gold.Version>
5.8.1

> <Gold.Id.Protein>
6NUR|6NUR_protein|mol2

> <Gold.PLP.Fitness>
35.7685

> <Gold.PLP.PLP>
-29.9785

> <Gold.PLP.part.hbond>
-1.0000

> <Gold.PLP.part.metal>
0.0000

> <Gold.PLP.part.buried>
-4.0730

> <Gold.PLP.part.nonpolar>
-25.9326

> <Gold.PLP.part.repulsive>
0.2363

> <Gold.PLP.ligand.clash>
0.0000

> <Gold.PLP.ligand.torsion>
0.1624

> <Gold.PLP.Chemscore.Hbond>
1.0000

> <Gold.PLP.Chemscore.CHOScore>
1.0000

> <Gold.PLP.Chemscore.Metal>
0.0000

> <Gold.Chemscore.Hbonds>
donor molecule, donor type, donor heavy atom, donor atom, acceptor molecule, acceptor atom, score
      P1  H  7989  7998       L1    11  1.00
      L1  C     5    26       P1  8028  1.00

> <Gold.PLP.Chemscore.Internal.Correction>
0.1149

> <Gold.Rescore>
     Score         DG    S(hbond)    S(metal)    S(lipo)     H(rot)  DE(clash)    DE(int)     intcor
     12.32     -12.64       1.00        0.00      67.22       1.58       0.06       0.27       ----

> <Gold.Chemscore.Fitness>
12.3167

> <Gold.Chemscore.DG>
-12.6435

> <Gold.Chemscore.ZeroCoef>
-5.4800

> <Gold.Chemscore.Hbond>
0.9987

> <Gold.Chemscore.Metal>
0.0000

> <Gold.Chemscore.Lipo>
67.2212

> <Gold.Chemscore.Internal_Hbond>
0.0000

> <Gold.Chemscore.DEClash>
0.0594

> <Gold.Chemscore.DEInternal>
0.2675

> <Gold.Chemscore.Rot>
1.5769

> <Gold.Chemscore.Internal.Correction>
   9.000000E+99

> <Gold.Chemscore.Hbonds>
donor molecule, donor type, donor heavy atom, donor atom, acceptor molecule, acceptor atom, score
      P1  H  7989  7998       L1    11  1.00

> <Gold.Chemscore.Hbond.Weighted>
-3.3356

> <Gold.Chemscore.Metal.Weighted>
-0.0000

> <Gold.Chemscore.Lipo.Weighted>
-7.8649

> <Gold.Chemscore.Internal_Hbond.Weighted>
0.0000

> <Gold.Chemscore.DEClash.Weighted>
0.0594

> <Gold.Chemscore.DEInternal.Weighted>
0.2675

> <Gold.Chemscore.Rot.Weighted>
4.0369

> <Gold.Chemscore.Internal.Correction.Weighted>
   9.000000E+99

> <Gold.Protein.RotatedTorsions>
[ 6907 6896 6895 6894 ] final  140.42 input  -60.11 | X-H torsion
[ 7974 7965 7964 7962 ] final  -76.05 input  175.53 | X-H torsion
[ 8008 7997 7996 7995 ] final  -72.21 input   59.86 | X-H torsion
[ 10167 10162 10161 10158 ] final  -81.58 input  -65.29 | X-H torsion
[ 10718 10713 10712 10709 ] final  -84.33 input   66.30 | X-H torsion
[ 10763 10752 10751 10750 ] final   54.92 input  -60.55 | X-H torsion
[ 11005 11000 10999 10996 ] final  137.94 input  -57.11 | X-H torsion

> <Gold.Protein.ActiveResidues>
 VAL166  LYS551  ARG553  GLY616  TRP617  ASP618  TYR619  PRO620  LYS621  CYS622 
 ASP623  PHE694  ASN695  SER759  ASP760  ASP761  ALA762  ILE779  LEU786  VAL792 
 PHE793  MET794  SER795  GLU796  ALA797  LYS798  CYS799  TRP800  GLU811  SER814 

> <Gold.Protein.RotatedAtoms>
  152.2432  133.5153  159.5281 H   0  0  0  0  0  0  0  0  0  0  0  0  # atno 6907 bound_to 6896
  150.7070  134.1061  159.3992 H   0  0  0  0  0  0  0  0  0  0  0  0  # atno 6908 bound_to 6896
  151.8981  135.0389  160.0554 H   0  0  0  0  0  0  0  0  0  0  0  0  # atno 6909 bound_to 6896
  145.6180  140.9370  143.1153 H   0  0  0  0  0  0  0  0  0  0  0  0  # atno 7974 bound_to 7965
  154.5148  140.0801  156.8061 H   0  0  0  0  0  0  0  0  0  0  0  0  # atno 8008 bound_to 7997
  155.3704  140.3422  155.4225 H   0  0  0  0  0  0  0  0  0  0  0  0  # atno 8009 bound_to 7997
  156.1615  140.1590  156.8591 H   0  0  0  0  0  0  0  0  0  0  0  0  # atno 8010 bound_to 7997
  140.4399  143.2518  151.8640 H   0  0  0  0  0  0  0  0  0  0  0  0  # atno 10167 bound_to 10162
  156.0007  130.4694  150.4394 H   0  0  0  0  0  0  0  0  0  0  0  0  # atno 10718 bound_to 10713
  152.9810  135.5728  154.4983 H   0  0  0  0  0  0  0  0  0  0  0  0  # atno 10763 bound_to 10752
  154.4507  135.2778  155.1785 H   0  0  0  0  0  0  0  0  0  0  0  0  # atno 10764 bound_to 10752
  154.3414  135.6228  153.5652 H   0  0  0  0  0  0  0  0  0  0  0  0  # atno 10765 bound_to 10752
  140.0149  134.9423  157.0354 H   0  0  0  0  0  0  0  0  0  0  0  0  # atno 11005 bound_to 11000
  144.7243  139.7928  143.7371 LP  0  0  0  0  0  0  0  0  0  0  0  0  # atno 17320 bound_to 7965
  146.1453  139.4521  143.0083 LP  0  0  0  0  0  0  0  0  0  0  0  0  # atno 17321 bound_to 7965
  139.4789  144.5240  151.8761 LP  0  0  0  0  0  0  0  0  0  0  0  0  # atno 17342 bound_to 10162
  140.4330  144.2090  150.5888 LP  0  0  0  0  0  0  0  0  0  0  0  0  # atno 17343 bound_to 10162
  157.2436  131.0531  151.2421 LP  0  0  0  0  0  0  0  0  0  0  0  0  # atno 17370 bound_to 10713
  157.3596  130.7124  149.6493 LP  0  0  0  0  0  0  0  0  0  0  0  0  # atno 17371 bound_to 10713
  140.4489  134.1603  155.7180 LP  0  0  0  0  0  0  0  0  0  0  0  0  # atno 17394 bound_to 11000
  141.1736  133.8560  157.1493 LP  0  0  0  0  0  0  0  0  0  0  0  0  # atno 17395 bound_to 11000

$$$$
