#       Name:                AV-unprocessed.smi:213
#       Creating user name   scv26
#       Creation time:       Thu Mar 26 20:02:13 2020


#       File generated by GOLD software.
#

@<TRIPOS>MOLECULE
AV-unprocessed.smi:213
    68    71     1
SMALL
NO_CHARGES


@<TRIPOS>ATOM
      1 ****        -4.5295   0.4738   2.1510 C.3            1 S1                 0.0000
      2 ****        -3.3331   0.4232   1.1789 C.3            1 S1                 0.0000
      3 ****        -3.7589   0.0880  -0.2715 C.3            1 S1                 0.0000
      4 ****        -3.6203  -1.3136  -0.6708 N.3            1 S1                 0.0000
      5 ****        -3.8700  -1.4727  -2.0994 C.3            1 S1                 0.0000
      6 ****        -3.7067  -2.9320  -2.5551 C.3            1 S1                 0.0000
      7 ****        -4.5798  -3.7637  -1.7993 O.3            1 S1                 0.0000
      8 ****        -4.3368  -3.6791  -0.3992 C.3            1 S1                 0.0000
      9 ****        -4.4890  -2.2216   0.0716 C.3            1 S1                 0.0000
     10 ****        -2.6003   1.6919   1.2282 N.pl3          1 S1                 0.0000
     11 ****        -3.2734   2.9566   0.9369 C.3            1 S1                 0.0000
     12 ****        -1.2446   1.7135   1.3444 C.ar           1 S1                 0.0000
     13 ****        -0.6817   2.7912   1.9538 N.ar           1 S1                 0.0000
     14 ****         0.6425   2.8725   2.1086 C.ar           1 S1                 0.0000
     15 ****         1.5808   2.0044   1.7301 N.ar           1 S1                 0.0000
     16 ****         1.0298   0.9252   1.1060 C.ar           1 S1                 0.0000
     17 ****        -0.3578   0.6983   0.8715 C.ar           1 S1                 0.0000
     18 ****        -0.5183  -0.5049   0.1916 N.2            1 S1                 0.0000
     19 ****         0.6931  -0.9651   0.0462 C.2            1 S1                 0.0000
     20 ****         1.6846  -0.1671   0.5660 N.pl3          1 S1                 0.0000
     21 ****         3.1136  -0.4255   0.5442 C.3            1 S1                 0.0000
     22 ****         3.8435   0.3873  -0.5434 C.3            1 S1                 0.0000
     23 ****         3.3124   0.0507  -1.8115 O.3            1 S1                 0.0000
     24 ****         5.3599   0.1190  -0.5528 C.3            1 S1                 0.0000
     25 ****         6.1441   0.9503  -1.5665 C.3            1 S1                 0.0000
     26 ****         7.5524   0.8655  -1.0174 C.3            1 S1                 0.0000
     27 ****         7.3302   0.7883   0.4943 C.3            1 S1                 0.0000
     28 ****         5.9452   0.5085   0.6833 O.3            1 S1                 0.0000
     29 ****        -5.0532  -0.4784   2.2090 H              1 S1                 0.0000
     30 ****        -5.2632   1.2236   1.8549 H              1 S1                 0.0000
     31 ****        -4.1976   0.7182   3.1606 H              1 S1                 0.0000
     32 ****        -2.6765  -0.3639   1.5483 H              1 S1                 0.0000
     33 ****        -4.7783   0.4322  -0.4515 H              1 S1                 0.0000
     34 ****        -3.1355   0.6790  -0.9447 H              1 S1                 0.0000
     35 ****        -4.8786  -1.1322  -2.3385 H              1 S1                 0.0000
     36 ****        -3.1857  -0.8418  -2.6678 H              1 S1                 0.0000
     37 ****        -3.9489  -3.0290  -3.6133 H              1 S1                 0.0000
     38 ****        -2.6745  -3.2632  -2.4296 H              1 S1                 0.0000
     39 ****        -5.0437  -4.3224   0.1248 H              1 S1                 0.0000
     40 ****        -3.3366  -4.0530  -0.1751 H              1 S1                 0.0000
     41 ****        -4.2482  -2.1848   1.1327 H              1 S1                 0.0000
     42 ****        -5.5292  -1.9101  -0.0334 H              1 S1                 0.0000
     43 ****        -2.6721   3.5787   0.2726 H              1 S1                 0.0000
     44 ****        -3.4536   3.5093   1.8592 H              1 S1                 0.0000
     45 ****        -4.2330   2.7902   0.4478 H              1 S1                 0.0000
     46 ****         1.0009   3.7605   2.6079 H              1 S1                 0.0000
     47 ****         0.8966  -1.9013  -0.4526 H              1 S1                 0.0000
     48 ****         3.5143  -0.1856   1.5297 H              1 S1                 0.0000
     49 ****         3.2735  -1.4943   0.3955 H              1 S1                 0.0000
     50 ****         3.6676   1.4509  -0.3771 H              1 S1                 0.0000
     51 ****         3.4714  -0.8672  -1.9692 H              1 S1                 0.0000
     52 ****         5.5616  -0.9422  -0.7119 H              1 S1                 0.0000
     53 ****         6.0622   0.5715  -2.5858 H              1 S1                 0.0000
     54 ****         5.8020   1.9865  -1.5581 H              1 S1                 0.0000
     55 ****         8.0341  -0.0475  -1.3698 H              1 S1                 0.0000
     56 ****         8.1737   1.7115  -1.3128 H              1 S1                 0.0000
     57 ****         7.9438   0.0072   0.9442 H              1 S1                 0.0000
     58 ****         7.5727   1.7329   0.9819 H              1 S1                 0.0000
     59 ****        -2.6761  -1.5618  -0.4539 LP             1 S1                 0.0000
     60 ****        -4.4514  -4.7117  -2.0903 LP             1 S1                 0.0000
     61 ****        -5.5232  -3.4848  -1.9784 LP             1 S1                 0.0000
     62 ****        -1.2653   3.5306   2.2896 LP             1 S1                 0.0000
     63 ****         2.5611   2.1287   1.8841 LP             1 S1                 0.0000
     64 ****        -1.3724  -0.9235  -0.1168 LP             1 S1                 0.0000
     65 ****         3.7591   0.5970  -2.5200 LP             1 S1                 0.0000
     66 ****         2.3286   0.2296  -1.8234 LP             1 S1                 0.0000
     67 ****         5.8437  -0.2326   1.3470 LP             1 S1                 0.0000
     68 ****         5.4846   1.3276   1.0254 LP             1 S1                 0.0000
@<TRIPOS>BOND
    1    1    2 1     
    2    1   29 1     
    3    1   30 1     
    4    1   31 1     
    5    2    3 1     
    6    2   10 1     
    7    2   32 1     
    8    3    4 1     
    9    3   33 1     
   10    3   34 1     
   11    4    9 1     
   12    4    5 1     
   13    5    6 1     
   14    5   35 1     
   15    5   36 1     
   16    6    7 1     
   17    6   37 1     
   18    6   38 1     
   19    7    8 1     
   20    8    9 1     
   21    8   39 1     
   22    8   40 1     
   23    9   41 1     
   24    9   42 1     
   25   10   11 1     
   26   10   12 1     
   27   11   43 1     
   28   11   44 1     
   29   11   45 1     
   30   12   17 ar    
   31   12   13 ar    
   32   13   14 ar    
   33   14   15 ar    
   34   14   46 1     
   35   15   16 ar    
   36   16   20 1     
   37   16   17 ar    
   38   17   18 1     
   39   18   19 2     
   40   19   20 1     
   41   19   47 1     
   42   20   21 1     
   43   21   22 1     
   44   21   48 1     
   45   21   49 1     
   46   22   23 1     
   47   22   24 1     
   48   22   50 1     
   49   23   51 1     
   50   24   28 1     
   51   24   25 1     
   52   24   52 1     
   53   25   26 1     
   54   25   53 1     
   55   25   54 1     
   56   26   27 1     
   57   26   55 1     
   58   26   56 1     
   59   27   28 1     
   60   27   57 1     
   61   27   58 1     
   62    4   59 1     
   63    7   60 1     
   64    7   61 1     
   65   13   62 1     
   66   15   63 1     
   67   18   64 1     
   68   23   65 1     
   69   23   66 1     
   70   28   67 1     
   71   28   68 1     
@<TRIPOS>SUBSTRUCTURE
      1 S1             1
@<TRIPOS>SET
LONE_PAIRS      STATIC     ATOMS    <user>   **** ""
10 59 60 61 62 63 64 65 66 67 68
DONOR_HYDROGENS      STATIC     ATOMS    <user>   **** ""
1 51
ATOM$BLUE        STATIC     ATOMS    COLORGROUP SYSTEM
10 59 60 61 62 63 64 65 66 67 68
ATOM$RED        STATIC     ATOMS    COLORGROUP SYSTEM
1 51
