AV-unprocessed.smi:445|AV-procd|sdf|2592|dock1
  -GOLD-   2262022583D 1   1.00000     0.00000
 Structure written by MMmdl.
 44 45  0  0  0  0  0  0  0  0  3 V2000
  153.2528  141.3806  160.8954 C   0  0  0  0  0  0  0  0  0  0  0  0
  152.3106  142.2327  160.0253 C   0  0  1  0  0  0  0  0  0  0  0  0
  152.5681  143.7357  160.2543 C   0  0  0  0  0  0  0  0  0  0  0  0
  151.6249  144.6111  159.4151 C   0  0  0  0  0  0  0  0  0  0  0  0
  151.7374  144.2692  157.9232 C   0  0  0  0  0  0  0  0  0  0  0  0
  151.4735  142.7764  157.6780 C   0  0  0  0  0  0  0  0  0  0  0  0
  152.4137  141.8866  158.5188 C   0  0  2  0  0  0  0  0  0  0  0  0
  152.0924  140.4787  158.3063 N   0  0  0  0  0  0  0  0  0  0  0  0
  152.9608  139.4543  158.3536 C   0  0  0  0  0  0  0  0  0  0  0  0
  154.1620  139.6086  158.5698 O   0  0  0  0  0  0  0  0  0  0  0  0
  152.4175  138.0308  158.1380 C   0  0  0  0  0  0  0  0  0  0  0  0
  150.9771  137.9566  157.8222 N   0  0  0  0  0  0  0  0  0  0  0  0
  150.5936  138.4361  156.5572 C   0  0  0  0  0  0  0  0  0  0  0  0
  149.3151  138.4214  156.1413 C   0  0  0  0  0  0  0  0  0  0  0  0
  148.9481  138.9131  154.8306 N   0  3  0  0  0  0  0  0  0  0  0  0
  147.7805  138.8107  154.4682 O   0  0  0  0  0  0  0  0  0  0  0  0
  149.8126  139.4171  154.1200 O   0  5  0  0  0  0  0  0  0  0  0  0
  148.3160  137.8897  157.0449 C   0  0  0  0  0  0  0  0  0  0  0  0
  148.6634  137.4147  158.2684 C   0  0  0  0  0  0  0  0  0  0  0  0
  147.6772  136.8547  159.2197 C   0  0  0  0  0  0  0  0  0  0  0  0
  146.7706  136.0430  158.6610 N   0  0  0  0  0  0  0  0  0  0  0  0
  147.6185  137.0626  160.4314 O   0  0  0  0  0  0  0  0  0  0  0  0
  150.0831  137.4276  158.7155 C   0  0  0  0  0  0  0  0  0  0  0  0
  150.4838  136.9994  159.8009 O   0  0  0  0  0  0  0  0  0  0  0  0
  154.2942  141.5199  160.6036 H   0  0  0  0  0  0  0  0  0  0  0  0
  153.0246  140.3171  160.8180 H   0  0  0  0  0  0  0  0  0  0  0  0
  153.1642  141.6517  161.9477 H   0  0  0  0  0  0  0  0  0  0  0  0
  151.2902  142.0219  160.3501 H   0  0  0  0  0  0  0  0  0  0  0  0
  152.4434  143.9789  161.3100 H   0  0  0  0  0  0  0  0  0  0  0  0
  153.6028  143.9744  160.0040 H   0  0  0  0  0  0  0  0  0  0  0  0
  150.5964  144.4664  159.7483 H   0  0  0  0  0  0  0  0  0  0  0  0
  151.8559  145.6648  159.5733 H   0  0  0  0  0  0  0  0  0  0  0  0
  151.0319  144.8708  157.3495 H   0  0  0  0  0  0  0  0  0  0  0  0
  152.7328  144.5296  157.5613 H   0  0  0  0  0  0  0  0  0  0  0  0
  150.4345  142.5482  157.9212 H   0  0  0  0  0  0  0  0  0  0  0  0
  151.5955  142.5583  156.6164 H   0  0  0  0  0  0  0  0  0  0  0  0
  153.4424  142.0638  158.1982 H   0  0  0  0  0  0  0  0  0  0  0  0
  151.1240  140.2637  158.1188 H   0  0  0  0  0  0  0  0  0  0  0  0
  153.0094  137.5517  157.3563 H   0  0  0  0  0  0  0  0  0  0  0  0
  152.6321  137.4502  159.0365 H   0  0  0  0  0  0  0  0  0  0  0  0
  151.4098  138.8052  155.9525 H   0  0  0  0  0  0  0  0  0  0  0  0
  147.2887  137.8785  156.7127 H   0  0  0  0  0  0  0  0  0  0  0  0
  146.0576  135.6101  159.2294 H   0  0  0  0  0  0  0  0  0  0  0  0
  146.8062  135.8645  157.6677 H   0  0  0  0  0  0  0  0  0  0  0  0
  1  2  1  0  0  0  0
  1 25  1  0  0  0  0
  1 26  1  0  0  0  0
  1 27  1  0  0  0  0
  2  7  1  0  0  0  0
  2  3  1  0  0  0  0
  2 28  1  0  0  0  0
  3  4  1  0  0  0  0
  3 29  1  0  0  0  0
  3 30  1  0  0  0  0
  4  5  1  0  0  0  0
  4 31  1  0  0  0  0
  4 32  1  0  0  0  0
  5  6  1  0  0  0  0
  5 33  1  0  0  0  0
  5 34  1  0  0  0  0
  6  7  1  0  0  0  0
  6 35  1  0  0  0  0
  6 36  1  0  0  0  0
  7  8  1  0  0  0  0
  7 37  1  0  0  0  0
  8  9  1  0  0  0  0
  8 38  1  0  0  0  0
  9 10  2  0  0  0  0
  9 11  1  0  0  0  0
 11 12  1  0  0  0  0
 11 39  1  0  0  0  0
 11 40  1  0  0  0  0
 12 23  1  0  0  0  0
 12 13  1  0  0  0  0
 13 14  2  0  0  0  0
 13 41  1  0  0  0  0
 14 15  1  0  0  0  0
 14 18  1  0  0  0  0
 15 16  2  0  0  0  0
 15 17  1  0  0  0  0
 18 19  2  0  0  0  0
 18 42  1  0  0  0  0
 19 20  1  0  0  0  0
 19 23  1  0  0  0  0
 20 21  1  0  0  0  0
 20 22  2  0  0  0  0
 21 43  1  0  0  0  0
 21 44  1  0  0  0  0
 23 24  2  0  0  0  0
M  CHG  1  15   1
M  CHG  1  17  -1
M  END
> <s_m_source_file>
AV-unprocessed.smi

> <i_m_source_file_index>
445

> <i_lp_mmshare_version>
43012

> <i_f3d_flags>
0

> <s_epik_input>
W0NIM11bQ0BASF0xW0NIMl1bQ0gyXVtDSDJdW0NIMl1bQ0BIXTFbTkhdQyg9TylbQ0gyXW4yW2NIXWMoW04rXSg9TylbTy1dKVtjSF1jKGMyPU8pQyg9TylbTkgyXQ==

> <s_epik_cmdline>
J2VwaWtfcHl0aG9uJywgJy1waCcsICc3LjAnLCAnLXRuJywgJzgnLCAnLW1hJywgJzIwMCcsICctbWV0YWxfYmluZGluZycsICctaW1hZScsICc8aW5maWxlLm1hZT4nLCAnLW9tYWUnLCAnPG91dGZpbGUubWFlPic=

> <r_lp_tautomer_probability>
1

> <r_epik_Ionization_Penalty>
2.81321e-06

> <r_epik_Ionization_Penalty_Charging>
2.43777e-12

> <r_epik_Ionization_Penalty_Neutral>
2.81321e-06

> <r_epik_State_Penalty>
-0

> <r_epik_Charging_Adjusted_Penalty>
2.43777e-12

> <i_epik_Tot_Q>
0

> <i_epik_Tot_abs_Q>
2

> <r_epik_Metal_State_Penalty>
-0

> <b_epik_Metal_Only>
0

> <s_lp_Force_Field>
OPLS_2005

> <r_lp_Energy>
28.9067

> <b_lp_Chiralities_Consistent>
1

> <s_lp_Variant>
AV-unprocessed.smi:445-4

> <Gold.Version>
5.8.1

> <Gold.Id.Protein>
6NUR|6NUR_protein|mol2

> <Gold.PLP.Fitness>
44.9285

> <Gold.PLP.PLP>
-35.7416

> <Gold.PLP.part.hbond>
-4.8864

> <Gold.PLP.part.metal>
0.0000

> <Gold.PLP.part.buried>
-4.5818

> <Gold.PLP.part.nonpolar>
-27.6287

> <Gold.PLP.part.repulsive>
0.3475

> <Gold.PLP.ligand.clash>
0.0000

> <Gold.PLP.ligand.torsion>
1.1742

> <Gold.PLP.Chemscore.Hbond>
3.8153

> <Gold.PLP.Chemscore.CHOScore>
0.0000

> <Gold.PLP.Chemscore.Metal>
0.0000

> <Gold.Chemscore.Hbonds>
donor molecule, donor type, donor heavy atom, donor atom, acceptor molecule, acceptor atom, score
      P1  H  6896  6907       L1    24  1.00
      P1  H  6931  6943       L1    22  0.14
      P1  H  6934  6947       L1    22  0.89
      P1  H  7989  7998       L1    17  0.08
      P1  H  7997  8008       L1    10  1.00

> <Gold.PLP.Chemscore.Internal.Correction>
0.0894

> <Gold.Rescore>
     Score         DG    S(hbond)    S(metal)    S(lipo)     H(rot)  DE(clash)    DE(int)     intcor
     20.18     -22.34       3.28        0.00      87.80       1.71       0.01       2.15       ----

> <Gold.Chemscore.Fitness>
20.1783

> <Gold.Chemscore.DG>
-22.3390

> <Gold.Chemscore.ZeroCoef>
-5.4800

> <Gold.Chemscore.Hbond>
3.2844

> <Gold.Chemscore.Metal>
0.0000

> <Gold.Chemscore.Lipo>
87.7988

> <Gold.Chemscore.Internal_Hbond>
0.0000

> <Gold.Chemscore.DEClash>
0.0073

> <Gold.Chemscore.DEInternal>
2.1533

> <Gold.Chemscore.Rot>
1.7123

> <Gold.Chemscore.Internal.Correction>
   9.000000E+99

> <Gold.Chemscore.Hbonds>
donor molecule, donor type, donor heavy atom, donor atom, acceptor molecule, acceptor atom, score
      P1  H  6896  6907       L1    24  0.89
      P1  H  6931  6943       L1    22  0.15
      P1  H  6934  6947       L1    22  0.72
      P1  H  7989  7998       L1    17  0.11
      P1  H  7997  8008       L1    10  0.85

> <Gold.Chemscore.Hbond.Weighted>
-10.9700

> <Gold.Chemscore.Metal.Weighted>
-0.0000

> <Gold.Chemscore.Lipo.Weighted>
-10.2725

> <Gold.Chemscore.Internal_Hbond.Weighted>
0.0000

> <Gold.Chemscore.DEClash.Weighted>
0.0073

> <Gold.Chemscore.DEInternal.Weighted>
2.1533

> <Gold.Chemscore.Rot.Weighted>
4.3835

> <Gold.Chemscore.Internal.Correction.Weighted>
   9.000000E+99

> <Gold.Protein.RotatedTorsions>
[ 6907 6896 6895 6894 ] final  -27.63 input  -60.11 | X-H torsion
[ 7974 7965 7964 7962 ] final  122.82 input  175.53 | X-H torsion
[ 8008 7997 7996 7995 ] final -113.93 input   59.86 | X-H torsion
[ 10167 10162 10161 10158 ] final  -42.14 input  -65.29 | X-H torsion
[ 10718 10713 10712 10709 ] final  -72.31 input   66.30 | X-H torsion
[ 10763 10752 10751 10750 ] final -103.12 input  -60.55 | X-H torsion
[ 11005 11000 10999 10996 ] final  -68.99 input  -57.11 | X-H torsion

> <Gold.Protein.ActiveResidues>
 VAL166  LYS551  ARG553  GLY616  TRP617  ASP618  TYR619  PRO620  LYS621  CYS622 
 ASP623  PHE694  ASN695  SER759  ASP760  ASP761  ALA762  ILE779  LEU786  VAL792 
 PHE793  MET794  SER795  GLU796  ALA797  LYS798  CYS799  TRP800  GLU811  SER814 

> <Gold.Protein.RotatedAtoms>
  151.1442  135.0195  159.8638 H   0  0  0  0  0  0  0  0  0  0  0  0  # atno 6907 bound_to 6896
  152.5453  134.1464  159.8510 H   0  0  0  0  0  0  0  0  0  0  0  0  # atno 6908 bound_to 6896
  151.1542  133.4841  159.2627 H   0  0  0  0  0  0  0  0  0  0  0  0  # atno 6909 bound_to 6896
  145.1031  139.3504  143.4801 H   0  0  0  0  0  0  0  0  0  0  0  0  # atno 7974 bound_to 7965
  155.0283  140.0393  157.2464 H   0  0  0  0  0  0  0  0  0  0  0  0  # atno 8008 bound_to 7997
  154.7318  140.2732  155.6426 H   0  0  0  0  0  0  0  0  0  0  0  0  # atno 8009 bound_to 7997
  156.2843  140.2682  156.2020 H   0  0  0  0  0  0  0  0  0  0  0  0  # atno 8010 bound_to 7997
  140.6979  143.3054  151.3167 H   0  0  0  0  0  0  0  0  0  0  0  0  # atno 10167 bound_to 10162
  156.0325  130.4369  150.2574 H   0  0  0  0  0  0  0  0  0  0  0  0  # atno 10718 bound_to 10713
  154.7784  135.4835  153.9793 H   0  0  0  0  0  0  0  0  0  0  0  0  # atno 10763 bound_to 10752
  153.1460  135.6782  153.8961 H   0  0  0  0  0  0  0  0  0  0  0  0  # atno 10764 bound_to 10752
  153.8620  135.3154  155.3416 H   0  0  0  0  0  0  0  0  0  0  0  0  # atno 10765 bound_to 10752
  141.1544  133.6754  156.6531 H   0  0  0  0  0  0  0  0  0  0  0  0  # atno 11005 bound_to 11000
  146.3529  140.0918  142.8612 LP  0  0  0  0  0  0  0  0  0  0  0  0  # atno 17320 bound_to 7965
  145.0932  140.9298  143.4756 LP  0  0  0  0  0  0  0  0  0  0  0  0  # atno 17321 bound_to 7965
  139.6458  144.0454  152.2590 LP  0  0  0  0  0  0  0  0  0  0  0  0  # atno 17342 bound_to 10162
  139.9974  144.6318  150.7760 LP  0  0  0  0  0  0  0  0  0  0  0  0  # atno 17343 bound_to 10162
  157.0676  131.0107  151.3201 LP  0  0  0  0  0  0  0  0  0  0  0  0  # atno 17370 bound_to 10713
  157.5024  130.7888  149.7618 LP  0  0  0  0  0  0  0  0  0  0  0  0  # atno 17371 bound_to 10713
  140.3305  134.7933  157.4322 LP  0  0  0  0  0  0  0  0  0  0  0  0  # atno 17394 bound_to 11000
  140.1021  134.5459  155.8343 LP  0  0  0  0  0  0  0  0  0  0  0  0  # atno 17395 bound_to 11000

$$$$
