AV-unprocessed.smi:2786|AV-procd|sdf|10749|dock9
  -GOLD-   2272015183D 1   1.00000     0.00000
 Structure written by MMmdl.
 27 28  0  0  0  0  0  0  0  0  2 V2000
  152.4543  144.8253  158.2126 C   0  0  0  0  0  0  0  0  0  0  0  0
  152.3883  143.5986  158.9830 N   0  0  0  0  0  0  0  0  0  0  0  0
  153.2229  143.2567  160.0391 C   0  0  0  0  0  0  0  0  0  0  0  0
  152.8219  142.0167  160.4733 C   0  0  0  0  0  0  0  0  0  0  0  0
  151.7496  141.5832  159.7014 N   0  0  0  0  0  0  0  0  0  0  0  0
  151.5295  142.5705  158.8359 C   0  0  0  0  0  0  0  0  0  0  0  0
  150.4610  142.5385  157.7813 C   0  0  1  0  0  0  0  0  0  0  0  0
  151.0658  142.3370  156.3741 C   0  0  0  0  0  0  0  0  0  0  0  0
  150.0019  142.3524  155.3487 N   0  3  0  0  0  0  0  0  0  0  0  0
  148.9559  141.3542  155.6492 C   0  0  0  0  0  0  0  0  0  0  0  0
  148.4003  141.5865  157.0662 C   0  0  0  0  0  0  0  0  0  0  0  0
  149.4826  141.4816  158.0399 N   0  0  0  0  0  0  0  0  0  0  0  0
  153.3194  145.4149  158.5178 H   0  0  0  0  0  0  0  0  0  0  0  0
  151.5513  145.4133  158.3779 H   0  0  0  0  0  0  0  0  0  0  0  0
  152.5450  144.5925  157.1512 H   0  0  0  0  0  0  0  0  0  0  0  0
  154.0139  143.9060  160.3849 H   0  0  0  0  0  0  0  0  0  0  0  0
  153.2186  141.4083  161.2726 H   0  0  0  0  0  0  0  0  0  0  0  0
  149.9291  143.4902  157.8098 H   0  0  0  0  0  0  0  0  0  0  0  0
  151.7783  143.1311  156.1491 H   0  0  0  0  0  0  0  0  0  0  0  0
  151.6113  141.3934  156.3179 H   0  0  0  0  0  0  0  0  0  0  0  0
  149.5785  143.2691  155.3367 H   0  0  0  0  0  0  0  0  0  0  0  0
  148.1593  141.4387  154.9099 H   0  0  0  0  0  0  0  0  0  0  0  0
  149.3725  140.3498  155.5585 H   0  0  0  0  0  0  0  0  0  0  0  0
  147.9154  142.5608  157.1452 H   0  0  0  0  0  0  0  0  0  0  0  0
  147.6459  140.8344  157.2982 H   0  0  0  0  0  0  0  0  0  0  0  0
  149.9366  140.5879  157.9118 H   0  0  0  0  0  0  0  0  0  0  0  0
  150.4028  142.1604  154.4419 H   0  0  0  0  0  0  0  0  0  0  0  0
  1  2  1  0  0  0  0
  1 13  1  0  0  0  0
  1 14  1  0  0  0  0
  1 15  1  0  0  0  0
  2  6  1  0  0  0  0
  2  3  1  0  0  0  0
  3  4  2  0  0  0  0
  3 16  1  0  0  0  0
  4  5  1  0  0  0  0
  4 17  1  0  0  0  0
  5  6  2  0  0  0  0
  6  7  1  0  0  0  0
  7 12  1  0  0  0  0
  7  8  1  0  0  0  0
  7 18  1  0  0  0  0
  8  9  1  0  0  0  0
  8 19  1  0  0  0  0
  8 20  1  0  0  0  0
  9 10  1  0  0  0  0
  9 21  1  0  0  0  0
  9 27  1  0  0  0  0
 10 11  1  0  0  0  0
 10 22  1  0  0  0  0
 10 23  1  0  0  0  0
 11 12  1  0  0  0  0
 11 24  1  0  0  0  0
 11 25  1  0  0  0  0
 12 26  1  0  0  0  0
M  CHG  1   9   1
M  END
> <s_m_source_file>
AV-unprocessed.smi

> <i_m_source_file_index>
2786

> <i_lp_mmshare_version>
43012

> <i_f3d_flags>
0

> <s_epik_input>
W0NIM11uMVtjSF1bY0hdbmMxW0NAQEhdMltDSDJdW05IXVtDSDJdW0NIMl1bTkhdMg==

> <s_epik_cmdline>
J2VwaWtfcHl0aG9uJywgJy1waCcsICc3LjAnLCAnLXRuJywgJzgnLCAnLW1hJywgJzIwMCcsICctbWV0YWxfYmluZGluZycsICctaW1hZScsICc8aW5maWxlLm1hZT4nLCAnLW9tYWUnLCAnPG91dGZpbGUubWFlPic=

> <r_lp_tautomer_probability>
1

> <r_epik_Ionization_Penalty>
0.130484

> <r_epik_Ionization_Penalty_Charging>
0.130409

> <r_epik_Ionization_Penalty_Neutral>
7.57914e-05

> <r_epik_State_Penalty>
0.270147

> <r_epik_Charging_Adjusted_Penalty>
0.400555

> <i_epik_Tot_Q>
1

> <i_epik_Tot_abs_Q>
1

> <r_epik_Metal_State_Penalty>
0.136376

> <b_epik_Metal_Only>
0

> <s_lp_Force_Field>
OPLS_2005

> <r_lp_Energy>
9.37099

> <b_lp_Chiralities_Consistent>
1

> <s_lp_Variant>
AV-unprocessed.smi:2786-2

> <Gold.Version>
5.8.1

> <Gold.Id.Protein>
6NUR|6NUR_protein|mol2

> <Gold.PLP.Fitness>
33.7390

> <Gold.PLP.PLP>
-28.3457

> <Gold.PLP.part.hbond>
-1.5385

> <Gold.PLP.part.metal>
0.0000

> <Gold.PLP.part.buried>
-3.5263

> <Gold.PLP.part.nonpolar>
-23.0225

> <Gold.PLP.part.repulsive>
0.1876

> <Gold.PLP.ligand.clash>
0.0000

> <Gold.PLP.ligand.torsion>
0.3070

> <Gold.PLP.Chemscore.Hbond>
2.0000

> <Gold.PLP.Chemscore.CHOScore>
0.0000

> <Gold.PLP.Chemscore.Metal>
0.0000

> <Gold.Chemscore.Hbonds>
donor molecule, donor type, donor heavy atom, donor atom, acceptor molecule, acceptor atom, score
      L1  H     9    21       P1  8028  2.00

> <Gold.PLP.Chemscore.Internal.Correction>
0.0075

> <Gold.Rescore>
     Score         DG    S(hbond)    S(metal)    S(lipo)     H(rot)  DE(clash)    DE(int)     intcor
     12.90     -13.39       1.00        0.00      60.97       1.00       0.04       0.45       ----

> <Gold.Chemscore.Fitness>
12.8986

> <Gold.Chemscore.DG>
-13.3851

> <Gold.Chemscore.ZeroCoef>
-5.4800

> <Gold.Chemscore.Hbond>
0.9974

> <Gold.Chemscore.Metal>
0.0000

> <Gold.Chemscore.Lipo>
60.9730

> <Gold.Chemscore.Internal_Hbond>
0.0000

> <Gold.Chemscore.DEClash>
0.0403

> <Gold.Chemscore.DEInternal>
0.4462

> <Gold.Chemscore.Rot>
1.0000

> <Gold.Chemscore.Internal.Correction>
   9.000000E+99

> <Gold.Chemscore.Hbonds>
donor molecule, donor type, donor heavy atom, donor atom, acceptor molecule, acceptor atom, score
      L1  H     9    21       P1  8028  1.00

> <Gold.Chemscore.Hbond.Weighted>
-3.3313

> <Gold.Chemscore.Metal.Weighted>
-0.0000

> <Gold.Chemscore.Lipo.Weighted>
-7.1338

> <Gold.Chemscore.Internal_Hbond.Weighted>
0.0000

> <Gold.Chemscore.DEClash.Weighted>
0.0403

> <Gold.Chemscore.DEInternal.Weighted>
0.4462

> <Gold.Chemscore.Rot.Weighted>
2.5600

> <Gold.Chemscore.Internal.Correction.Weighted>
   9.000000E+99

> <Gold.Protein.RotatedTorsions>
[ 6907 6896 6895 6894 ] final  127.08 input  -60.11 | X-H torsion
[ 7974 7965 7964 7962 ] final   -0.77 input  175.53 | X-H torsion
[ 8008 7997 7996 7995 ] final  150.35 input   59.86 | X-H torsion
[ 10167 10162 10161 10158 ] final   19.08 input  -65.29 | X-H torsion
[ 10718 10713 10712 10709 ] final  178.38 input   66.30 | X-H torsion
[ 10763 10752 10751 10750 ] final -112.27 input  -60.55 | X-H torsion
[ 11005 11000 10999 10996 ] final  132.91 input  -57.11 | X-H torsion

> <Gold.Protein.ActiveResidues>
 VAL166  LYS551  ARG553  GLY616  TRP617  ASP618  TYR619  PRO620  LYS621  CYS622 
 ASP623  PHE694  ASN695  SER759  ASP760  ASP761  ALA762  ILE779  LEU786  VAL792 
 PHE793  MET794  SER795  GLU796  ALA797  LYS798  CYS799  TRP800  GLU811  SER814 

> <Gold.Protein.RotatedAtoms>
  152.3845  133.6592  159.6187 H   0  0  0  0  0  0  0  0  0  0  0  0  # atno 6907 bound_to 6896
  150.7768  133.9058  159.3363 H   0  0  0  0  0  0  0  0  0  0  0  0  # atno 6908 bound_to 6896
  151.6857  135.0956  160.0275 H   0  0  0  0  0  0  0  0  0  0  0  0  # atno 6909 bound_to 6896
  146.2424  140.1320  142.8337 H   0  0  0  0  0  0  0  0  0  0  0  0  # atno 7974 bound_to 7965
  156.2719  140.2077  156.6004 H   0  0  0  0  0  0  0  0  0  0  0  0  # atno 8008 bound_to 7997
  154.6911  140.0530  157.0388 H   0  0  0  0  0  0  0  0  0  0  0  0  # atno 8009 bound_to 7997
  155.0865  140.3192  155.4589 H   0  0  0  0  0  0  0  0  0  0  0  0  # atno 8010 bound_to 7997
  140.5605  143.9345  150.6639 H   0  0  0  0  0  0  0  0  0  0  0  0  # atno 10167 bound_to 10162
  156.8914  130.9848  151.3049 H   0  0  0  0  0  0  0  0  0  0  0  0  # atno 10718 bound_to 10713
  154.8341  135.4497  154.1168 H   0  0  0  0  0  0  0  0  0  0  0  0  # atno 10763 bound_to 10752
  153.2415  135.6917  153.7784 H   0  0  0  0  0  0  0  0  0  0  0  0  # atno 10764 bound_to 10752
  153.7130  135.3353  155.3226 H   0  0  0  0  0  0  0  0  0  0  0  0  # atno 10765 bound_to 10752
  139.9819  134.9545  156.9649 H   0  0  0  0  0  0  0  0  0  0  0  0  # atno 11005 bound_to 11000
  145.0318  140.8876  143.5105 LP  0  0  0  0  0  0  0  0  0  0  0  0  # atno 17320 bound_to 7965
  145.1386  139.2586  143.5502 LP  0  0  0  0  0  0  0  0  0  0  0  0  # atno 17321 bound_to 7965
  140.2795  143.3399  152.1164 LP  0  0  0  0  0  0  0  0  0  0  0  0  # atno 17342 bound_to 10162
  139.5068  144.6820  151.5984 LP  0  0  0  0  0  0  0  0  0  0  0  0  # atno 17343 bound_to 10162
  157.6081  130.8562  149.8908 LP  0  0  0  0  0  0  0  0  0  0  0  0  # atno 17370 bound_to 10713
  156.0627  130.3697  150.0946 LP  0  0  0  0  0  0  0  0  0  0  0  0  # atno 17371 bound_to 10713
  140.5079  134.1031  155.7264 LP  0  0  0  0  0  0  0  0  0  0  0  0  # atno 17394 bound_to 11000
  141.1490  133.9003  157.2145 LP  0  0  0  0  0  0  0  0  0  0  0  0  # atno 17395 bound_to 11000

$$$$
