AV-unprocessed.smi:2863|AV-procd|sdf|11012|dock4
  -GOLD-   2272015473D 1   1.00000     0.00000
 Structure written by MMmdl.
 42 43  0  0  0  0  0  0  0  0  1 V2000
  154.1622  132.5455  159.8935 C   0  0  0  0  0  0  0  0  0  0  0  0
  153.9817  133.7313  160.7767 C   0  0  0  0  0  0  0  0  0  0  0  0
  153.4795  134.9186  160.4441 N   0  0  0  0  0  0  0  0  0  0  0  0
  153.5288  135.6639  161.6140 C   0  0  0  0  0  0  0  0  0  0  0  0
  153.0399  137.0783  161.6795 C   0  0  0  0  0  0  0  0  0  0  0  0
  154.1010  138.0771  161.1901 C   0  0  0  0  0  0  0  0  0  0  0  0
  153.5999  139.4463  161.2010 N   0  0  0  0  0  0  0  0  0  0  0  0
  153.4861  140.2302  160.1198 C   0  0  0  0  0  0  0  0  0  0  0  0
  153.7864  139.8787  158.9786 O   0  0  0  0  0  0  0  0  0  0  0  0
  153.0046  141.4414  160.4325 N   0  0  0  0  0  0  0  0  0  0  0  0
  152.7701  142.5257  159.4835 C   0  0  0  0  0  0  0  0  0  0  0  0
  152.5617  143.8457  160.2499 C   0  0  0  0  0  0  0  0  0  0  0  0
  152.2511  145.0088  159.2939 C   0  0  0  0  0  0  0  0  0  0  0  0
  151.0355  144.6925  158.4087 C   0  0  0  0  0  0  0  0  0  0  0  0
  151.2388  143.3788  157.6374 C   0  0  0  0  0  0  0  0  0  0  0  0
  151.5515  142.2134  158.5899 C   0  0  0  0  0  0  0  0  0  0  0  0
  154.0592  134.8740  162.6019 C   0  0  0  0  0  0  0  0  0  0  0  0
  154.3465  135.1061  164.0465 C   0  0  0  0  0  0  0  0  0  0  0  0
  154.3548  133.6427  162.0818 O   0  0  0  0  0  0  0  0  0  0  0  0
  153.8028  132.7628  158.8872 H   0  0  0  0  0  0  0  0  0  0  0  0
  153.6042  131.6974  160.2899 H   0  0  0  0  0  0  0  0  0  0  0  0
  155.2176  132.2787  159.8392 H   0  0  0  0  0  0  0  0  0  0  0  0
  152.1324  137.1816  161.0836 H   0  0  0  0  0  0  0  0  0  0  0  0
  152.7539  137.3233  162.7031 H   0  0  0  0  0  0  0  0  0  0  0  0
  154.9784  138.0340  161.8360 H   0  0  0  0  0  0  0  0  0  0  0  0
  154.4405  137.8118  160.1872 H   0  0  0  0  0  0  0  0  0  0  0  0
  153.3259  139.8242  162.0962 H   0  0  0  0  0  0  0  0  0  0  0  0
  152.7875  141.6308  161.3999 H   0  0  0  0  0  0  0  0  0  0  0  0
  153.6520  142.6390  158.8497 H   0  0  0  0  0  0  0  0  0  0  0  0
  151.7417  143.7356  160.9612 H   0  0  0  0  0  0  0  0  0  0  0  0
  153.4502  144.0817  160.8368 H   0  0  0  0  0  0  0  0  0  0  0  0
  152.0689  145.9202  159.8644 H   0  0  0  0  0  0  0  0  0  0  0  0
  153.1199  145.2066  158.6650 H   0  0  0  0  0  0  0  0  0  0  0  0
  150.1410  144.6184  159.0284 H   0  0  0  0  0  0  0  0  0  0  0  0
  150.8611  145.5112  157.7099 H   0  0  0  0  0  0  0  0  0  0  0  0
  150.3487  143.1504  157.0506 H   0  0  0  0  0  0  0  0  0  0  0  0
  152.0564  143.4967  156.9251 H   0  0  0  0  0  0  0  0  0  0  0  0
  151.7315  141.3078  158.0093 H   0  0  0  0  0  0  0  0  0  0  0  0
  150.6788  142.0117  159.2126 H   0  0  0  0  0  0  0  0  0  0  0  0
  153.6582  135.8400  164.4663 H   0  0  0  0  0  0  0  0  0  0  0  0
  155.3621  135.4779  164.1824 H   0  0  0  0  0  0  0  0  0  0  0  0
  154.2430  134.1832  164.6176 H   0  0  0  0  0  0  0  0  0  0  0  0
  1  2  1  0  0  0  0
  1 20  1  0  0  0  0
  1 21  1  0  0  0  0
  1 22  1  0  0  0  0
  2 19  1  0  0  0  0
  2  3  2  0  0  0  0
  3  4  1  0  0  0  0
  4  5  1  0  0  0  0
  4 17  2  0  0  0  0
  5  6  1  0  0  0  0
  5 23  1  0  0  0  0
  5 24  1  0  0  0  0
  6  7  1  0  0  0  0
  6 25  1  0  0  0  0
  6 26  1  0  0  0  0
  7  8  1  0  0  0  0
  7 27  1  0  0  0  0
  8  9  2  0  0  0  0
  8 10  1  0  0  0  0
 10 11  1  0  0  0  0
 10 28  1  0  0  0  0
 11 16  1  0  0  0  0
 11 12  1  0  0  0  0
 11 29  1  0  0  0  0
 12 13  1  0  0  0  0
 12 30  1  0  0  0  0
 12 31  1  0  0  0  0
 13 14  1  0  0  0  0
 13 32  1  0  0  0  0
 13 33  1  0  0  0  0
 14 15  1  0  0  0  0
 14 34  1  0  0  0  0
 14 35  1  0  0  0  0
 15 16  1  0  0  0  0
 15 36  1  0  0  0  0
 15 37  1  0  0  0  0
 16 38  1  0  0  0  0
 16 39  1  0  0  0  0
 17 18  1  0  0  0  0
 17 19  1  0  0  0  0
 18 40  1  0  0  0  0
 18 41  1  0  0  0  0
 18 42  1  0  0  0  0
M  END
> <s_m_source_file>
AV-unprocessed.smi

> <i_m_source_file_index>
2863

> <i_lp_mmshare_version>
43012

> <i_f3d_flags>
0

> <s_epik_input>
W0NIM11jMW5jKGMobzEpW0NIM10pW0NIMl1bQ0gyXVtOSF1DKD1PKVtOSF1bQ0hdMltDSDJdW0NIMl1bQ0gyXVtDSDJdW0NIMl0y

> <s_epik_cmdline>
J2VwaWtfcHl0aG9uJywgJy1waCcsICc3LjAnLCAnLXRuJywgJzgnLCAnLW1hJywgJzIwMCcsICctbWV0YWxfYmluZGluZycsICctaW1hZScsICc8aW5maWxlLm1hZT4nLCAnLW9tYWUnLCAnPG91dGZpbGUubWFlPic=

> <r_lp_tautomer_probability>
1

> <r_epik_Ionization_Penalty>
0.000108106

> <r_epik_Ionization_Penalty_Charging>
0

> <r_epik_Ionization_Penalty_Neutral>
0.000108106

> <r_epik_State_Penalty>
-0

> <r_epik_Charging_Adjusted_Penalty>
0

> <i_epik_Tot_Q>
0

> <i_epik_Tot_abs_Q>
0

> <r_epik_Metal_State_Penalty>
-0

> <b_epik_Metal_Only>
0

> <s_lp_Force_Field>
OPLS_2005

> <r_lp_Energy>
1.15326

> <b_lp_Chiralities_Consistent>
1

> <s_lp_Variant>
AV-unprocessed.smi:2863-1

> <Gold.Version>
5.8.1

> <Gold.Id.Protein>
6NUR|6NUR_protein|mol2

> <Gold.PLP.Fitness>
41.3409

> <Gold.PLP.PLP>
-36.2943

> <Gold.PLP.part.hbond>
-2.0000

> <Gold.PLP.part.metal>
0.0000

> <Gold.PLP.part.buried>
-4.6049

> <Gold.PLP.part.nonpolar>
-30.3674

> <Gold.PLP.part.repulsive>
0.0896

> <Gold.PLP.ligand.clash>
0.0000

> <Gold.PLP.ligand.torsion>
0.4721

> <Gold.PLP.Chemscore.Hbond>
1.9913

> <Gold.PLP.Chemscore.CHOScore>
0.0000

> <Gold.PLP.Chemscore.Metal>
0.0000

> <Gold.Chemscore.Hbonds>
donor molecule, donor type, donor heavy atom, donor atom, acceptor molecule, acceptor atom, score
      P1  H  7997  8009       L1     9  0.89

> <Gold.PLP.Chemscore.Internal.Correction>
0.0170

> <Gold.Rescore>
     Score         DG    S(hbond)    S(metal)    S(lipo)     H(rot)  DE(clash)    DE(int)     intcor
     18.75     -19.50       1.89        0.00     101.11       1.61       0.12       0.64       ----

> <Gold.Chemscore.Fitness>
18.7466

> <Gold.Chemscore.DG>
-19.5036

> <Gold.Chemscore.ZeroCoef>
-5.4800

> <Gold.Chemscore.Hbond>
1.8930

> <Gold.Chemscore.Metal>
0.0000

> <Gold.Chemscore.Lipo>
101.1130

> <Gold.Chemscore.Internal_Hbond>
0.0000

> <Gold.Chemscore.DEClash>
0.1175

> <Gold.Chemscore.DEInternal>
0.6396

> <Gold.Chemscore.Rot>
1.6130

> <Gold.Chemscore.Internal.Correction>
   9.000000E+99

> <Gold.Chemscore.Hbonds>
donor molecule, donor type, donor heavy atom, donor atom, acceptor molecule, acceptor atom, score
      P1  H  6896  6908       L1     3  0.01
      P1  H  7997  8009       L1     9  0.82

> <Gold.Chemscore.Hbond.Weighted>
-6.3227

> <Gold.Chemscore.Metal.Weighted>
-0.0000

> <Gold.Chemscore.Lipo.Weighted>
-11.8302

> <Gold.Chemscore.Internal_Hbond.Weighted>
0.0000

> <Gold.Chemscore.DEClash.Weighted>
0.1175

> <Gold.Chemscore.DEInternal.Weighted>
0.6396

> <Gold.Chemscore.Rot.Weighted>
4.1293

> <Gold.Chemscore.Internal.Correction.Weighted>
   9.000000E+99

> <Gold.Protein.RotatedTorsions>
[ 6907 6896 6895 6894 ] final  -52.34 input  -60.11 | X-H torsion
[ 7974 7965 7964 7962 ] final  151.61 input  175.53 | X-H torsion
[ 8008 7997 7996 7995 ] final  125.02 input   59.86 | X-H torsion
[ 10167 10162 10161 10158 ] final   12.68 input  -65.29 | X-H torsion
[ 10718 10713 10712 10709 ] final  150.97 input   66.30 | X-H torsion
[ 10763 10752 10751 10750 ] final  133.62 input  -60.55 | X-H torsion
[ 11005 11000 10999 10996 ] final   -9.43 input  -57.11 | X-H torsion

> <Gold.Protein.ActiveResidues>
 VAL166  LYS551  ARG553  GLY616  TRP617  ASP618  TYR619  PRO620  LYS621  CYS622 
 ASP623  PHE694  ASN695  SER759  ASP760  ASP761  ALA762  ILE779  LEU786  VAL792 
 PHE793  MET794  SER795  GLU796  ALA797  LYS798  CYS799  TRP800  GLU811  SER814 

> <Gold.Protein.RotatedAtoms>
  150.8527  134.7856  159.7020 H   0  0  0  0  0  0  0  0  0  0  0  0  # atno 6907 bound_to 6896
  152.4587  134.5230  159.9798 H   0  0  0  0  0  0  0  0  0  0  0  0  # atno 6908 bound_to 6896
  151.5348  133.3405  159.2960 H   0  0  0  0  0  0  0  0  0  0  0  0  # atno 6909 bound_to 6896
  144.8280  139.6560  143.6071 H   0  0  0  0  0  0  0  0  0  0  0  0  # atno 7974 bound_to 7965
  156.2821  140.2726  156.1883 H   0  0  0  0  0  0  0  0  0  0  0  0  # atno 8008 bound_to 7997
  155.0485  140.0386  157.2553 H   0  0  0  0  0  0  0  0  0  0  0  0  # atno 8009 bound_to 7997
  154.7215  140.2688  155.6543 H   0  0  0  0  0  0  0  0  0  0  0  0  # atno 8010 bound_to 7997
  140.6052  143.8522  150.7006 H   0  0  0  0  0  0  0  0  0  0  0  0  # atno 10167 bound_to 10162
  157.2767  131.0827  151.1561 H   0  0  0  0  0  0  0  0  0  0  0  0  # atno 10718 bound_to 10713
  153.8101  135.3130  155.3400 H   0  0  0  0  0  0  0  0  0  0  0  0  # atno 10763 bound_to 10752
  154.8054  135.4700  154.0383 H   0  0  0  0  0  0  0  0  0  0  0  0  # atno 10764 bound_to 10752
  153.1759  135.6885  153.8632 H   0  0  0  0  0  0  0  0  0  0  0  0  # atno 10765 bound_to 10752
  140.7341  133.8725  155.8916 H   0  0  0  0  0  0  0  0  0  0  0  0  # atno 11005 bound_to 11000
  146.2585  139.6355  142.9378 LP  0  0  0  0  0  0  0  0  0  0  0  0  # atno 17320 bound_to 7965
  145.4957  141.0438  143.2568 LP  0  0  0  0  0  0  0  0  0  0  0  0  # atno 17321 bound_to 7965
  140.2078  143.3908  152.1742 LP  0  0  0  0  0  0  0  0  0  0  0  0  # atno 17342 bound_to 10162
  139.5320  144.7169  151.5024 LP  0  0  0  0  0  0  0  0  0  0  0  0  # atno 17343 bound_to 10162
  157.3011  130.6843  149.6165 LP  0  0  0  0  0  0  0  0  0  0  0  0  # atno 17370 bound_to 10713
  155.9664  130.4392  150.5247 LP  0  0  0  0  0  0  0  0  0  0  0  0  # atno 17371 bound_to 10713
  140.9895  134.1297  157.4421 LP  0  0  0  0  0  0  0  0  0  0  0  0  # atno 17394 bound_to 11000
  139.8820  135.0036  156.6197 LP  0  0  0  0  0  0  0  0  0  0  0  0  # atno 17395 bound_to 11000

$$$$
