#       Name:                AV-unprocessed.smi:3181
#       Creating user name   scv26
#       Creation time:       Fri Mar 27 17:58:29 2020


#       File generated by GOLD software.
#

@<TRIPOS>MOLECULE
AV-unprocessed.smi:3181
    44    45     1
SMALL
NO_CHARGES


@<TRIPOS>ATOM
      1 ****        -2.1377  -1.0962   0.7115 C.3            1 S1                 0.0000
      2 ****        -1.6390  -0.3971  -0.5650 C.3            1 S1                 0.0000
      3 ****        -2.1056  -1.1045  -1.8538 C.3            1 S1                 0.0000
      4 ****        -3.5492  -1.2301  -1.9424 N.pl3          1 S1                 0.0000
      5 ****        -4.3302  -2.3116  -1.9272 C.2            1 S1                 0.0000
      6 ****        -5.6227  -2.0393  -2.0395 N.2            1 S1                 0.0000
      7 ****        -5.5625  -0.6776  -2.1347 C.2            1 S1                 0.0000
      8 ****        -4.3422  -0.1423  -2.0856 N.2            1 S1                 0.0000
      9 ****        -0.1605  -0.3181  -0.5510 N.4            1 S1                 1.0000
     10 ****         0.4190   1.0446  -0.4810 C.3            1 S1                 0.0000
     11 ****         0.1982   1.7094   0.8919 C.3            1 S1                 0.0000
     12 ****         1.0336   1.0412   1.9940 C.3            1 S1                 0.0000
     13 ****         2.5370   1.0250   1.6532 C.3            1 S1                 0.0000
     14 ****         3.3228   0.3624   2.7988 C.3            1 S1                 0.0000
     15 ****         2.7803   0.3468   0.2789 C.3            1 S1                 0.0000
     16 ****         4.2611   0.3614  -0.1413 C.3            1 S1                 0.0000
     17 ****         1.9202   1.0099  -0.8207 C.3            1 S1                 0.0000
     18 ****        -3.2266  -1.1002   0.7668 H              1 S1                 0.0000
     19 ****        -1.7735  -0.5918   1.6066 H              1 S1                 0.0000
     20 ****        -1.7996  -2.1321   0.7538 H              1 S1                 0.0000
     21 ****        -2.0517   0.6131  -0.5739 H              1 S1                 0.0000
     22 ****        -1.7584  -0.5583  -2.7322 H              1 S1                 0.0000
     23 ****        -1.6710  -2.1035  -1.9152 H              1 S1                 0.0000
     24 ****        -3.9476  -3.3171  -1.8288 H              1 S1                 0.0000
     25 ****        -6.4438  -0.0629  -2.2443 H              1 S1                 0.0000
     26 ****         0.1909  -0.8619   0.2242 H              1 S1                 0.0000
     27 ****        -0.0760   1.6444  -1.2464 H              1 S1                 0.0000
     28 ****         0.4820   2.7606   0.8255 H              1 S1                 0.0000
     29 ****        -0.8564   1.7052   1.1668 H              1 S1                 0.0000
     30 ****         0.8730   1.5709   2.9337 H              1 S1                 0.0000
     31 ****         0.6804   0.0221   2.1560 H              1 S1                 0.0000
     32 ****         2.8718   2.0612   1.5838 H              1 S1                 0.0000
     33 ****         3.0894  -0.6997   2.8795 H              1 S1                 0.0000
     34 ****         3.0835   0.8268   3.7558 H              1 S1                 0.0000
     35 ****         4.3992   0.4612   2.6627 H              1 S1                 0.0000
     36 ****         2.4769  -0.6981   0.3581 H              1 S1                 0.0000
     37 ****         4.6563   1.3774  -0.1691 H              1 S1                 0.0000
     38 ****         4.3907  -0.0706  -1.1338 H              1 S1                 0.0000
     39 ****         4.8813  -0.2217   0.5386 H              1 S1                 0.0000
     40 ****         2.0691   0.4987  -1.7728 H              1 S1                 0.0000
     41 ****         2.2683   2.0326  -0.9740 H              1 S1                 0.0000
     42 ****         0.1688  -0.7409  -1.4070 H              1 S1                 0.0000
     43 ****        -6.4125  -2.6525  -2.0512 LP             1 S1                 0.0000
     44 ****        -4.0789   0.8209  -2.1407 LP             1 S1                 0.0000
@<TRIPOS>BOND
    1    1    2 1     
    2    1   18 1     
    3    1   19 1     
    4    1   20 1     
    5    2    3 1     
    6    2    9 1     
    7    2   21 1     
    8    3    4 1     
    9    3   22 1     
   10    3   23 1     
   11    4    8 1     
   12    4    5 1     
   13    5    6 2     
   14    5   24 1     
   15    6    7 1     
   16    7    8 2     
   17    7   25 1     
   18    9   10 1     
   19    9   26 1     
   20    9   42 1     
   21   10   17 1     
   22   10   11 1     
   23   10   27 1     
   24   11   12 1     
   25   11   28 1     
   26   11   29 1     
   27   12   13 1     
   28   12   30 1     
   29   12   31 1     
   30   13   14 1     
   31   13   15 1     
   32   13   32 1     
   33   14   33 1     
   34   14   34 1     
   35   14   35 1     
   36   15   16 1     
   37   15   17 1     
   38   15   36 1     
   39   16   37 1     
   40   16   38 1     
   41   16   39 1     
   42   17   40 1     
   43   17   41 1     
   44    6   43 1     
   45    8   44 1     
@<TRIPOS>SUBSTRUCTURE
      1 S1             1
@<TRIPOS>SET
LONE_PAIRS      STATIC     ATOMS    <user>   **** ""
2 43 44
DONOR_HYDROGENS      STATIC     ATOMS    <user>   **** ""
2 26 42
ATOM$BLUE        STATIC     ATOMS    COLORGROUP SYSTEM
2 43 44
ATOM$RED        STATIC     ATOMS    COLORGROUP SYSTEM
2 26 42
