AV-unprocessed.smi:1703|AV-procd|sdf|6873|dock5
  -GOLD-   22720 8 73D 1   1.00000     0.00000
 Structure written by MMmdl.
 50 52  0  0  0  0  0  0  0  0  3 V2000
  149.5600  132.2445  154.2098 C   0  0  0  0  0  0  0  0  0  0  0  0
  149.2108  133.7366  154.2217 C   0  0  2  0  0  0  0  0  0  0  0  0
  150.4192  134.6099  154.6055 C   0  0  0  0  0  0  0  0  0  0  0  0
  150.0201  136.0332  154.6910 N   0  3  2  0  0  0  0  0  0  0  0  0
  151.1718  136.9380  154.9373 C   0  0  0  0  0  0  0  0  0  0  0  0
  150.7751  138.4266  154.8814 C   0  0  2  0  0  0  0  0  0  0  0  0
  151.9097  139.1876  154.5128 O   0  0  0  0  0  0  0  0  0  0  0  0
  150.2348  138.9275  156.2356 C   0  0  0  0  0  0  0  0  0  0  0  0
  150.3918  140.3817  156.4086 N   0  0  0  0  0  0  0  0  0  0  0  0
  149.8710  141.4110  155.6789 C   0  0  0  0  0  0  0  0  0  0  0  0
  148.9812  141.2954  154.4819 C   0  0  0  0  0  0  0  0  0  0  0  0
  149.6806  140.9830  153.2957 O   0  0  0  0  0  0  0  0  0  0  0  0
  150.3272  142.5697  156.2350 N   0  3  0  0  0  0  0  0  0  0  0  0
  151.1410  142.2822  157.3305 C   0  0  0  0  0  0  0  0  0  0  0  0
  151.8249  143.1248  158.2013 C   0  0  0  0  0  0  0  0  0  0  0  0
  152.5759  142.5057  159.2217 C   0  0  0  0  0  0  0  0  0  0  0  0
  152.6261  141.1024  159.3468 C   0  0  0  0  0  0  0  0  0  0  0  0
  151.9281  140.2584  158.4579 C   0  0  0  0  0  0  0  0  0  0  0  0
  151.1869  140.8777  157.4508 C   0  0  0  0  0  0  0  0  0  0  0  0
  148.9118  136.1981  155.6631 C   0  0  0  0  0  0  0  0  0  0  0  0
  147.7227  135.2856  155.3038 C   0  0  1  0  0  0  0  0  0  0  0  0
  146.9284  135.7691  154.0774 C   0  0  0  0  0  0  0  0  0  0  0  0
  148.1626  133.9342  155.1670 O   0  0  0  0  0  0  0  0  0  0  0  0
  150.3546  132.0322  153.4943 H   0  0  0  0  0  0  0  0  0  0  0  0
  148.6937  131.6440  153.9308 H   0  0  0  0  0  0  0  0  0  0  0  0
  149.8949  131.9086  155.1916 H   0  0  0  0  0  0  0  0  0  0  0  0
  148.8643  134.0095  153.2248 H   0  0  0  0  0  0  0  0  0  0  0  0
  150.8346  134.2895  155.5626 H   0  0  0  0  0  0  0  0  0  0  0  0
  151.2049  134.4909  153.8582 H   0  0  0  0  0  0  0  0  0  0  0  0
  151.6195  136.6955  155.9024 H   0  0  0  0  0  0  0  0  0  0  0  0
  151.9469  136.7587  154.1903 H   0  0  0  0  0  0  0  0  0  0  0  0
  150.0062  138.5833  154.1255 H   0  0  0  0  0  0  0  0  0  0  0  0
  152.6880  138.6950  154.7240 H   0  0  0  0  0  0  0  0  0  0  0  0
  149.1704  138.7054  156.3150 H   0  0  0  0  0  0  0  0  0  0  0  0
  150.7089  138.4087  157.0687 H   0  0  0  0  0  0  0  0  0  0  0  0
  148.2371  140.5209  154.6681 H   0  0  0  0  0  0  0  0  0  0  0  0
  148.4446  142.2321  154.3320 H   0  0  0  0  0  0  0  0  0  0  0  0
  149.3632  140.1557  152.9664 H   0  0  0  0  0  0  0  0  0  0  0  0
  151.7888  144.2003  158.1068 H   0  0  0  0  0  0  0  0  0  0  0  0
  153.1248  143.1191  159.9216 H   0  0  0  0  0  0  0  0  0  0  0  0
  153.2130  140.6639  160.1408 H   0  0  0  0  0  0  0  0  0  0  0  0
  151.9795  139.1857  158.5662 H   0  0  0  0  0  0  0  0  0  0  0  0
  149.2745  135.9477  156.6612 H   0  0  0  0  0  0  0  0  0  0  0  0
  148.5781  137.2345  155.7029 H   0  0  0  0  0  0  0  0  0  0  0  0
  147.0326  135.2931  156.1481 H   0  0  0  0  0  0  0  0  0  0  0  0
  146.4950  136.7523  154.2617 H   0  0  0  0  0  0  0  0  0  0  0  0
  146.1088  135.0865  153.8510 H   0  0  0  0  0  0  0  0  0  0  0  0
  147.5501  135.8534  153.1866 H   0  0  0  0  0  0  0  0  0  0  0  0
  149.6559  136.2792  153.7812 H   0  0  0  0  0  0  0  0  0  0  0  0
  150.0976  143.4904  155.8829 H   0  0  0  0  0  0  0  0  0  0  0  0
  1  2  1  0  0  0  0
  1 24  1  0  0  0  0
  1 25  1  0  0  0  0
  1 26  1  0  0  0  0
  2 23  1  0  0  0  0
  2  3  1  0  0  0  0
  2 27  1  0  0  0  0
  3  4  1  0  0  0  0
  3 28  1  0  0  0  0
  3 29  1  0  0  0  0
  4  5  1  0  0  0  0
  4 20  1  0  0  0  0
  4 49  1  0  0  0  0
  5  6  1  0  0  0  0
  5 30  1  0  0  0  0
  5 31  1  0  0  0  0
  6  7  1  0  0  0  0
  6  8  1  0  0  0  0
  6 32  1  0  0  0  0
  7 33  1  0  0  0  0
  8  9  1  0  0  0  0
  8 34  1  0  0  0  0
  8 35  1  0  0  0  0
  9 19  1  0  0  0  0
  9 10  1  0  0  0  0
 10 11  1  0  0  0  0
 10 13  2  0  0  0  0
 11 12  1  0  0  0  0
 11 36  1  0  0  0  0
 11 37  1  0  0  0  0
 12 38  1  0  0  0  0
 13 14  1  0  0  0  0
 13 50  1  0  0  0  0
 14 19  2  0  0  0  0
 14 15  1  0  0  0  0
 15 16  2  0  0  0  0
 15 39  1  0  0  0  0
 16 17  1  0  0  0  0
 16 40  1  0  0  0  0
 17 18  2  0  0  0  0
 17 41  1  0  0  0  0
 18 19  1  0  0  0  0
 18 42  1  0  0  0  0
 20 21  1  0  0  0  0
 20 43  1  0  0  0  0
 20 44  1  0  0  0  0
 21 22  1  0  0  0  0
 21 23  1  0  0  0  0
 21 45  1  0  0  0  0
 22 46  1  0  0  0  0
 22 47  1  0  0  0  0
 22 48  1  0  0  0  0
M  CHG  1   4   1
M  CHG  1  13   1
M  END
> <s_m_source_file>
AV-unprocessed.smi

> <i_m_source_file_index>
1703

> <i_lp_mmshare_version>
43012

> <i_f3d_flags>
0

> <s_epik_input>
W0NIM11bQ0BASF0xW0NIMl1OKFtDSDJdW0NASF0oTzEpW0NIM10pW0NIMl1bQ0BIXShbT0hdKVtDSDJdbihjKG4yKVtDSDJdW09IXSljKGMyMylbY0hdW2NIXVtjSF1bY0hdMw==

> <s_epik_cmdline>
J2VwaWtfcHl0aG9uJywgJy1waCcsICc3LjAnLCAnLXRuJywgJzgnLCAnLW1hJywgJzIwMCcsICctbWV0YWxfYmluZGluZycsICctaW1hZScsICc8aW5maWxlLm1hZT4nLCAnLW9tYWUnLCAnPG91dGZpbGUubWFlPic=

> <r_epik_Ionization_Penalty>
2.22579

> <r_epik_Ionization_Penalty_Charging>
2.22492

> <r_epik_Ionization_Penalty_Neutral>
0.000870007

> <r_epik_State_Penalty>
2.3141

> <r_epik_Charging_Adjusted_Penalty>
4.53902

> <i_epik_Tot_Q>
2

> <i_epik_Tot_abs_Q>
2

> <r_epik_Metal_State_Penalty>
6.36517

> <b_epik_Metal_Only>
0

> <s_lp_Force_Field>
OPLS_2005

> <r_lp_Energy>
31.3711

> <b_lp_Chiralities_Consistent>
1

> <s_lp_Variant>
AV-unprocessed.smi:1703-21

> <Gold.Version>
5.8.1

> <Gold.Id.Protein>
6NUR|6NUR_protein|mol2

> <Gold.PLP.Fitness>
57.7111

> <Gold.PLP.PLP>
-40.7289

> <Gold.PLP.part.hbond>
-5.9289

> <Gold.PLP.part.metal>
0.0000

> <Gold.PLP.part.buried>
-5.5221

> <Gold.PLP.part.nonpolar>
-30.8741

> <Gold.PLP.part.repulsive>
0.1752

> <Gold.PLP.ligand.clash>
0.0000

> <Gold.PLP.ligand.torsion>
0.8582

> <Gold.PLP.Chemscore.Hbond>
6.2240

> <Gold.PLP.Chemscore.CHOScore>
0.0000

> <Gold.PLP.Chemscore.Metal>
0.0000

> <Gold.Chemscore.Hbonds>
donor molecule, donor type, donor heavy atom, donor atom, acceptor molecule, acceptor atom, score
      L1  H     4    49       P1  7948  2.00
      L1  H    12    38       P1  7957  0.21
      L1  H    13    50       P1  8028  1.95
      P1  H  7989  7998       L1     7  0.94
      P1  H  8011  8017       L1    12  1.00

> <Gold.PLP.Chemscore.Internal.Correction>
0.0265

> <Gold.Rescore>
     Score         DG    S(hbond)    S(metal)    S(lipo)     H(rot)  DE(clash)    DE(int)     intcor
     21.14     -22.06       4.07        0.00      92.07       3.04       0.01       0.91       ----

> <Gold.Chemscore.Fitness>
21.1410

> <Gold.Chemscore.DG>
-22.0626

> <Gold.Chemscore.ZeroCoef>
-5.4800

> <Gold.Chemscore.Hbond>
4.0679

> <Gold.Chemscore.Metal>
0.0000

> <Gold.Chemscore.Lipo>
92.0717

> <Gold.Chemscore.Internal_Hbond>
0.0000

> <Gold.Chemscore.DEClash>
0.0077

> <Gold.Chemscore.DEInternal>
0.9138

> <Gold.Chemscore.Rot>
3.0378

> <Gold.Chemscore.Internal.Correction>
   9.000000E+99

> <Gold.Chemscore.Hbonds>
donor molecule, donor type, donor heavy atom, donor atom, acceptor molecule, acceptor atom, score
      L1  H     4    49       P1  7948  0.48
      L1  H    12    38       P1  7957  0.22
      L1  H    13    50       P1  8028  0.93
      P1  H  7989  7998       L1     7  0.87
      P1  H  8011  8017       L1    12  0.69

> <Gold.Chemscore.Hbond.Weighted>
-13.5869

> <Gold.Chemscore.Metal.Weighted>
-0.0000

> <Gold.Chemscore.Lipo.Weighted>
-10.7724

> <Gold.Chemscore.Internal_Hbond.Weighted>
0.0000

> <Gold.Chemscore.DEClash.Weighted>
0.0077

> <Gold.Chemscore.DEInternal.Weighted>
0.9138

> <Gold.Chemscore.Rot.Weighted>
7.7767

> <Gold.Chemscore.Internal.Correction.Weighted>
   9.000000E+99

> <Gold.Protein.RotatedTorsions>
[ 6907 6896 6895 6894 ] final -164.69 input  -60.11 | X-H torsion
[ 7974 7965 7964 7962 ] final  -54.05 input  175.53 | X-H torsion
[ 8008 7997 7996 7995 ] final -152.78 input   59.86 | X-H torsion
[ 10167 10162 10161 10158 ] final  141.79 input  -65.29 | X-H torsion
[ 10718 10713 10712 10709 ] final  167.31 input   66.30 | X-H torsion
[ 10763 10752 10751 10750 ] final  -42.58 input  -60.55 | X-H torsion
[ 11005 11000 10999 10996 ] final  107.84 input  -57.11 | X-H torsion

> <Gold.Protein.ActiveResidues>
 VAL166  LYS551  ARG553  GLY616  TRP617  ASP618  TYR619  PRO620  LYS621  CYS622 
 ASP623  PHE694  ASN695  SER759  ASP760  ASP761  ALA762  ILE779  LEU786  VAL792 
 PHE793  MET794  SER795  GLU796  ALA797  LYS798  CYS799  TRP800  GLU811  SER814 

> <Gold.Protein.RotatedAtoms>
  151.4159  133.3713  159.2749 H   0  0  0  0  0  0  0  0  0  0  0  0  # atno 6907 bound_to 6896
  150.9329  134.8744  159.7573 H   0  0  0  0  0  0  0  0  0  0  0  0  # atno 6908 bound_to 6896
  152.5036  134.4105  159.9499 H   0  0  0  0  0  0  0  0  0  0  0  0  # atno 6909 bound_to 6896
  145.8900  140.8078  142.9796 H   0  0  0  0  0  0  0  0  0  0  0  0  # atno 7974 bound_to 7965
  155.6605  140.0722  157.2555 H   0  0  0  0  0  0  0  0  0  0  0  0  # atno 8008 bound_to 7997
  154.4143  140.1717  156.1822 H   0  0  0  0  0  0  0  0  0  0  0  0  # atno 8009 bound_to 7997
  155.9701  140.3362  155.6571 H   0  0  0  0  0  0  0  0  0  0  0  0  # atno 8010 bound_to 7997
  139.5011  144.6149  151.6187 H   0  0  0  0  0  0  0  0  0  0  0  0  # atno 10167 bound_to 10162
  157.0534  131.0320  151.2673 H   0  0  0  0  0  0  0  0  0  0  0  0  # atno 10718 bound_to 10713
  153.9813  135.6716  153.4750 H   0  0  0  0  0  0  0  0  0  0  0  0  # atno 10763 bound_to 10752
  153.0747  135.4955  154.8375 H   0  0  0  0  0  0  0  0  0  0  0  0  # atno 10764 bound_to 10752
  154.7162  135.3107  154.9081 H   0  0  0  0  0  0  0  0  0  0  0  0  # atno 10765 bound_to 10752
  139.8834  134.9413  156.5880 H   0  0  0  0  0  0  0  0  0  0  0  0  # atno 11005 bound_to 11000
  144.6730  140.1514  143.7429 LP  0  0  0  0  0  0  0  0  0  0  0  0  # atno 17320 bound_to 7965
  145.8920  139.2381  143.1544 LP  0  0  0  0  0  0  0  0  0  0  0  0  # atno 17321 bound_to 7965
  140.5834  143.9906  150.6281 LP  0  0  0  0  0  0  0  0  0  0  0  0  # atno 17342 bound_to 10162
  140.3063  143.3227  152.0923 LP  0  0  0  0  0  0  0  0  0  0  0  0  # atno 17343 bound_to 10162
  157.5012  130.7881  149.7607 LP  0  0  0  0  0  0  0  0  0  0  0  0  # atno 17370 bound_to 10713
  156.0000  130.3885  150.2641 LP  0  0  0  0  0  0  0  0  0  0  0  0  # atno 17371 bound_to 10713
  140.7977  133.8531  155.8699 LP  0  0  0  0  0  0  0  0  0  0  0  0  # atno 17394 bound_to 11000
  140.9621  134.1642  157.4646 LP  0  0  0  0  0  0  0  0  0  0  0  0  # atno 17395 bound_to 11000

$$$$
