AV-unprocessed.smi:3040|AV-procd|sdf|11596|dock3
  -GOLD-   2272016573D 1   1.00000     0.00000
 Structure written by MMmdl.
 39 40  0  0  0  0  0  0  0  0  1 V2000
  139.0088  136.6821  153.8969 C   0  0  0  0  0  0  0  0  0  0  0  0
  140.4503  136.6983  153.6407 N   0  0  0  0  0  0  0  0  0  0  0  0
  141.0495  138.0373  153.5476 C   0  0  0  0  0  0  0  0  0  0  0  0
  142.4175  138.0482  152.8538 C   0  0  0  0  0  0  0  0  0  0  0  0
  143.3158  136.9562  153.4485 C   0  0  2  0  0  0  0  0  0  0  0  0
  144.7048  136.9688  152.7978 C   0  0  0  0  0  0  0  0  0  0  0  0
  145.3583  135.9287  152.7098 O   0  0  0  0  0  0  0  0  0  0  0  0
  145.1582  138.1624  152.3812 N   0  0  0  0  0  0  0  0  0  0  0  0
  146.5111  138.4316  151.8967 C   0  0  0  0  0  0  0  0  0  0  0  0
  146.7800  139.9428  151.7451 C   0  0  0  0  0  0  0  0  0  0  0  0
  147.2443  140.5860  153.0262 C   0  0  0  0  0  0  0  0  0  0  0  0
  146.4774  141.3474  153.9541 C   0  0  0  0  0  0  0  0  0  0  0  0
  147.2028  141.8204  154.9546 N   0  0  0  0  0  0  0  0  0  0  0  0
  148.4512  141.3754  154.7044 N   0  0  0  0  0  0  0  0  0  0  0  0
  149.5316  141.7314  155.5990 C   0  0  0  0  0  0  0  0  0  0  0  0
  148.5039  140.6172  153.5556 C   0  0  0  0  0  0  0  0  0  0  0  0
  142.6539  135.5747  153.2650 C   0  0  0  0  0  0  0  0  0  0  0  0
  141.1481  135.5388  153.5721 C   0  0  0  0  0  0  0  0  0  0  0  0
  140.6166  134.4377  153.7198 O   0  0  0  0  0  0  0  0  0  0  0  0
  138.7770  136.0968  154.7880 H   0  0  0  0  0  0  0  0  0  0  0  0
  138.4780  136.2421  153.0516 H   0  0  0  0  0  0  0  0  0  0  0  0
  138.6076  137.6837  154.0563 H   0  0  0  0  0  0  0  0  0  0  0  0
  140.3784  138.7122  153.0146 H   0  0  0  0  0  0  0  0  0  0  0  0
  141.1498  138.4316  154.5597 H   0  0  0  0  0  0  0  0  0  0  0  0
  142.2793  137.8835  151.7838 H   0  0  0  0  0  0  0  0  0  0  0  0
  142.8785  139.0309  152.9617 H   0  0  0  0  0  0  0  0  0  0  0  0
  143.4300  137.1497  154.5170 H   0  0  0  0  0  0  0  0  0  0  0  0
  144.5471  138.9596  152.4833 H   0  0  0  0  0  0  0  0  0  0  0  0
  147.2530  137.9894  152.5638 H   0  0  0  0  0  0  0  0  0  0  0  0
  146.6392  137.9366  150.9339 H   0  0  0  0  0  0  0  0  0  0  0  0
  147.5139  140.0937  150.9533 H   0  0  0  0  0  0  0  0  0  0  0  0
  145.8686  140.4261  151.3913 H   0  0  0  0  0  0  0  0  0  0  0  0
  145.4244  141.5849  153.9187 H   0  0  0  0  0  0  0  0  0  0  0  0
  150.3717  141.0512  155.4570 H   0  0  0  0  0  0  0  0  0  0  0  0
  149.1971  141.6685  156.6352 H   0  0  0  0  0  0  0  0  0  0  0  0
  149.8595  142.7498  155.3879 H   0  0  0  0  0  0  0  0  0  0  0  0
  149.4286  140.1878  153.1989 H   0  0  0  0  0  0  0  0  0  0  0  0
  142.7762  135.2252  152.2383 H   0  0  0  0  0  0  0  0  0  0  0  0
  143.1551  134.8412  153.8981 H   0  0  0  0  0  0  0  0  0  0  0  0
  1  2  1  0  0  0  0
  1 20  1  0  0  0  0
  1 21  1  0  0  0  0
  1 22  1  0  0  0  0
  2 18  1  0  0  0  0
  2  3  1  0  0  0  0
  3  4  1  0  0  0  0
  3 23  1  0  0  0  0
  3 24  1  0  0  0  0
  4  5  1  0  0  0  0
  4 25  1  0  0  0  0
  4 26  1  0  0  0  0
  5  6  1  0  0  0  0
  5 17  1  0  0  0  0
  5 27  1  0  0  0  0
  6  7  2  0  0  0  0
  6  8  1  0  0  0  0
  8  9  1  0  0  0  0
  8 28  1  0  0  0  0
  9 10  1  0  0  0  0
  9 29  1  0  0  0  0
  9 30  1  0  0  0  0
 10 11  1  0  0  0  0
 10 31  1  0  0  0  0
 10 32  1  0  0  0  0
 11 16  2  0  0  0  0
 11 12  1  0  0  0  0
 12 13  2  0  0  0  0
 12 33  1  0  0  0  0
 13 14  1  0  0  0  0
 14 15  1  0  0  0  0
 14 16  1  0  0  0  0
 15 34  1  0  0  0  0
 15 35  1  0  0  0  0
 15 36  1  0  0  0  0
 16 37  1  0  0  0  0
 17 18  1  0  0  0  0
 17 38  1  0  0  0  0
 17 39  1  0  0  0  0
 18 19  2  0  0  0  0
M  END
> <s_m_source_file>
AV-unprocessed.smi

> <i_m_source_file_index>
3040

> <i_lp_mmshare_version>
43012

> <i_f3d_flags>
0

> <s_epik_input>
W0NIM11OMVtDSDJdW0NIMl1bQ0BIXShbQ0gyXUMxPU8pQyg9TylbTkhdW0NIMl1bQ0gyXWMyW2NIXW5uKFtDSDNdKVtjSF0y

> <s_epik_cmdline>
J2VwaWtfcHl0aG9uJywgJy1waCcsICc3LjAnLCAnLXRuJywgJzgnLCAnLW1hJywgJzIwMCcsICctbWV0YWxfYmluZGluZycsICctaW1hZScsICc8aW5maWxlLm1hZT4nLCAnLW9tYWUnLCAnPG91dGZpbGUubWFlPic=

> <r_lp_tautomer_probability>
1

> <r_epik_Ionization_Penalty>
0.000456436

> <r_epik_Ionization_Penalty_Charging>
0

> <r_epik_Ionization_Penalty_Neutral>
0.000456436

> <r_epik_State_Penalty>
-0

> <r_epik_Charging_Adjusted_Penalty>
0

> <i_epik_Tot_Q>
0

> <i_epik_Tot_abs_Q>
0

> <r_epik_Metal_State_Penalty>
-0

> <b_epik_Metal_Only>
0

> <s_lp_Force_Field>
OPLS_2005

> <r_lp_Energy>
9.8739

> <b_lp_Chiralities_Consistent>
1

> <s_lp_Variant>
AV-unprocessed.smi:3040-2

> <Gold.Version>
5.8.1

> <Gold.Id.Protein>
6NUR|6NUR_protein|mol2

> <Gold.PLP.Fitness>
43.2941

> <Gold.PLP.PLP>
-34.6476

> <Gold.PLP.part.hbond>
-4.0000

> <Gold.PLP.part.metal>
0.0000

> <Gold.PLP.part.buried>
5.6780

> <Gold.PLP.part.nonpolar>
-38.9590

> <Gold.PLP.part.repulsive>
0.4873

> <Gold.PLP.ligand.clash>
0.0000

> <Gold.PLP.ligand.torsion>
1.2371

> <Gold.PLP.Chemscore.Hbond>
2.0518

> <Gold.PLP.Chemscore.CHOScore>
1.6481

> <Gold.PLP.Chemscore.Metal>
0.0000

> <Gold.Chemscore.Hbonds>
donor molecule, donor type, donor heavy atom, donor atom, acceptor molecule, acceptor atom, score
      L1  H     8    28       P1 10175  1.00
      P1  H 10995 11001       L1    19  0.15
      P1  H 11000 11005       L1    19  1.00
      L1  C    12    33       P1 10175  0.95
      L1  C    16    37       P1  7957  0.71

> <Gold.PLP.Chemscore.Internal.Correction>
0.0210

> <Gold.Rescore>
     Score         DG    S(hbond)    S(metal)    S(lipo)     H(rot)  DE(clash)    DE(int)     intcor
     12.72     -16.38       1.95        0.00      73.59       1.65       2.50       1.16       ----

> <Gold.Chemscore.Fitness>
12.7233

> <Gold.Chemscore.DG>
-16.3795

> <Gold.Chemscore.ZeroCoef>
-5.4800

> <Gold.Chemscore.Hbond>
1.9530

> <Gold.Chemscore.Metal>
0.0000

> <Gold.Chemscore.Lipo>
73.5883

> <Gold.Chemscore.Internal_Hbond>
0.0000

> <Gold.Chemscore.DEClash>
2.5008

> <Gold.Chemscore.DEInternal>
1.1554

> <Gold.Chemscore.Rot>
1.6536

> <Gold.Chemscore.Internal.Correction>
   9.000000E+99

> <Gold.Chemscore.Hbonds>
donor molecule, donor type, donor heavy atom, donor atom, acceptor molecule, acceptor atom, score
      L1  H     8    28       P1 10175  1.00
      P1  H 10995 11001       L1    19  0.15
      P1  H 11000 11005       L1    19  0.58

> <Gold.Chemscore.Hbond.Weighted>
-6.5229

> <Gold.Chemscore.Metal.Weighted>
-0.0000

> <Gold.Chemscore.Lipo.Weighted>
-8.6098

> <Gold.Chemscore.Internal_Hbond.Weighted>
0.0000

> <Gold.Chemscore.DEClash.Weighted>
2.5008

> <Gold.Chemscore.DEInternal.Weighted>
1.1554

> <Gold.Chemscore.Rot.Weighted>
4.2332

> <Gold.Chemscore.Internal.Correction.Weighted>
   9.000000E+99

> <Gold.Protein.RotatedTorsions>
[ 6907 6896 6895 6894 ] final   47.13 input  -60.11 | X-H torsion
[ 7974 7965 7964 7962 ] final -112.18 input  175.53 | X-H torsion
[ 8008 7997 7996 7995 ] final   97.47 input   59.86 | X-H torsion
[ 10167 10162 10161 10158 ] final  109.40 input  -65.29 | X-H torsion
[ 10718 10713 10712 10709 ] final  -80.23 input   66.30 | X-H torsion
[ 10763 10752 10751 10750 ] final -141.46 input  -60.55 | X-H torsion
[ 11005 11000 10999 10996 ] final   16.17 input  -57.11 | X-H torsion

> <Gold.Protein.ActiveResidues>
 VAL166  LYS551  ARG553  GLY616  TRP617  ASP618  TYR619  PRO620  LYS621  CYS622 
 ASP623  PHE694  ASN695  SER759  ASP760  ASP761  ALA762  ILE779  LEU786  VAL792 
 PHE793  MET794  SER795  GLU796  ALA797  LYS798  CYS799  TRP800  GLU811  SER814 

> <Gold.Protein.RotatedAtoms>
  152.2645  134.7999  160.0424 H   0  0  0  0  0  0  0  0  0  0  0  0  # atno 6907 bound_to 6896
  151.8633  133.3456  159.3719 H   0  0  0  0  0  0  0  0  0  0  0  0  # atno 6908 bound_to 6896
  150.7129  134.5112  159.5652 H   0  0  0  0  0  0  0  0  0  0  0  0  # atno 6909 bound_to 6896
  145.1471  140.8809  143.3668 H   0  0  0  0  0  0  0  0  0  0  0  0  # atno 7974 bound_to 7965
  156.0905  140.3258  155.7809 H   0  0  0  0  0  0  0  0  0  0  0  0  # atno 8008 bound_to 7997
  155.5005  140.0569  157.2957 H   0  0  0  0  0  0  0  0  0  0  0  0  # atno 8009 bound_to 7997
  154.4635  140.1978  156.0197 H   0  0  0  0  0  0  0  0  0  0  0  0  # atno 8010 bound_to 7997
  139.6769  144.7121  151.1585 H   0  0  0  0  0  0  0  0  0  0  0  0  # atno 10167 bound_to 10162
  156.0075  130.4568  150.3768 H   0  0  0  0  0  0  0  0  0  0  0  0  # atno 10718 bound_to 10713
  154.8544  135.3524  154.5871 H   0  0  0  0  0  0  0  0  0  0  0  0  # atno 10763 bound_to 10752
  153.6481  135.6995  153.5223 H   0  0  0  0  0  0  0  0  0  0  0  0  # atno 10764 bound_to 10752
  153.2916  135.4233  155.1130 H   0  0  0  0  0  0  0  0  0  0  0  0  # atno 10765 bound_to 10752
  140.4501  134.1232  155.7701 H   0  0  0  0  0  0  0  0  0  0  0  0  # atno 11005 bound_to 11000
  145.0470  139.3212  143.5948 LP  0  0  0  0  0  0  0  0  0  0  0  0  # atno 17320 bound_to 7965
  146.3499  139.9865  142.8690 LP  0  0  0  0  0  0  0  0  0  0  0  0  # atno 17321 bound_to 7965
  140.7639  143.5758  150.8947 LP  0  0  0  0  0  0  0  0  0  0  0  0  # atno 17342 bound_to 10162
  139.9427  143.6363  152.3049 LP  0  0  0  0  0  0  0  0  0  0  0  0  # atno 17343 bound_to 10162
  157.1850  131.0401  151.2729 LP  0  0  0  0  0  0  0  0  0  0  0  0  # atno 17370 bound_to 10713
  157.4112  130.7386  149.6840 LP  0  0  0  0  0  0  0  0  0  0  0  0  # atno 17371 bound_to 10713
  141.1667  133.8688  157.1692 LP  0  0  0  0  0  0  0  0  0  0  0  0  # atno 17394 bound_to 11000
  140.0012  135.0027  157.0194 LP  0  0  0  0  0  0  0  0  0  0  0  0  # atno 17395 bound_to 11000

$$$$
