#       Name:                AV-unprocessed.smi:34
#       Creating user name   scv26
#       Creation time:       Thu Mar 26 15:52:32 2020


#       File generated by GOLD software.
#

@<TRIPOS>MOLECULE
AV-unprocessed.smi:34
    66    70     1
SMALL
NO_CHARGES


@<TRIPOS>ATOM
      1 ****        -5.2606   2.5856  -0.1492 O.2            1 S1                 0.0000
      2 ****        -5.6361   1.4132  -0.1771 C.2            1 S1                 0.0000
      3 ****        -4.7021   0.3015  -0.1579 N.am           1 S1                 0.0000
      4 ****        -3.3516   0.3441  -0.0786 C.ar           1 S1                 0.0000
      5 ****        -2.6630   1.5100   0.0348 N.ar           1 S1                 0.0000
      6 ****        -1.3286   1.4992   0.0912 C.ar           1 S1                 0.0000
      7 ****        -0.5016   0.4529   0.0476 N.ar           1 S1                 0.0000
      8 ****        -1.1835  -0.7237  -0.0580 C.ar           1 S1                 0.0000
      9 ****        -2.5990  -0.8580  -0.1214 C.ar           1 S1                 0.0000
     10 ****        -2.9413  -2.1996  -0.2212 N.2            1 S1                 0.0000
     11 ****        -1.7916  -2.8180  -0.2228 C.2            1 S1                 0.0000
     12 ****        -0.6806  -2.0078  -0.1400 N.pl3          1 S1                 0.0000
     13 ****         0.7510  -2.4436  -0.1398 C.3            1 S1                 0.0000
     14 ****         1.3977  -1.8590   0.9557 O.3            1 S1                 0.0000
     15 ****         2.4505  -1.0077   0.5048 C.3            1 S1                 0.0000
     16 ****         3.5863  -0.9414   1.5338 C.3            1 S1                 0.0000
     17 ****         4.5871  -0.0529   1.0636 O.3            1 S1                 0.0000
     18 ****         5.7438   0.0829   1.7398 C.2            1 S1                 0.0000
     19 ****         5.9960  -0.5159   2.7873 O.2            1 S1                 0.0000
     20 ****         6.6899   1.0321   1.0846 C.ar           1 S1                 0.0000
     21 ****         7.9510   1.2744   1.6777 C.ar           1 S1                 0.0000
     22 ****         8.8658   2.1640   1.0811 C.ar           1 S1                 0.0000
     23 ****         8.5306   2.8226  -0.1162 C.ar           1 S1                 0.0000
     24 ****         7.2796   2.5898  -0.7168 C.ar           1 S1                 0.0000
     25 ****         6.3636   1.7002  -0.1219 C.ar           1 S1                 0.0000
     26 ****         2.8366  -1.5997  -0.8500 C.3            1 S1                 0.0000
     27 ****         3.5823  -2.6917  -0.6533 F              1 S1                 0.0000
     28 ****         1.4745  -1.9719  -1.4091 C.3            1 S1                 0.0000
     29 ****         1.6015  -2.9730  -2.3988 O.3            1 S1                 0.0000
     30 ****        -7.0864   1.0518  -0.3169 C.ar           1 S1                 0.0000
     31 ****        -7.9772   1.9415  -0.9587 C.ar           1 S1                 0.0000
     32 ****        -9.3415   1.6158  -1.0878 C.ar           1 S1                 0.0000
     33 ****        -9.8284   0.4013  -0.5690 C.ar           1 S1                 0.0000
     34 ****        -8.9508  -0.4854   0.0830 C.ar           1 S1                 0.0000
     35 ****        -7.5861  -0.1609   0.2126 C.ar           1 S1                 0.0000
     36 ****        -5.1111  -0.6194  -0.2205 H              1 S1                 0.0000
     37 ****        -0.8570   2.4667   0.1812 H              1 S1                 0.0000
     38 ****        -1.7222  -3.8937  -0.2959 H              1 S1                 0.0000
     39 ****         0.7273  -3.5275  -0.0194 H              1 S1                 0.0000
     40 ****         2.0493  -0.0059   0.3557 H              1 S1                 0.0000
     41 ****         3.2038  -0.5821   2.4899 H              1 S1                 0.0000
     42 ****         4.0071  -1.9337   1.7028 H              1 S1                 0.0000
     43 ****         8.2311   0.7799   2.5969 H              1 S1                 0.0000
     44 ****         9.8259   2.3404   1.5430 H              1 S1                 0.0000
     45 ****         9.2323   3.5049  -0.5732 H              1 S1                 0.0000
     46 ****         7.0212   3.0936  -1.6366 H              1 S1                 0.0000
     47 ****         5.4127   1.5440  -0.6099 H              1 S1                 0.0000
     48 ****         3.3988  -0.9129  -1.4835 H              1 S1                 0.0000
     49 ****         0.9832  -1.0894  -1.8209 H              1 S1                 0.0000
     50 ****         2.0833  -3.6977  -2.0302 H              1 S1                 0.0000
     51 ****        -7.6188   2.8775  -1.3632 H              1 S1                 0.0000
     52 ****       -10.0144   2.2984  -1.5859 H              1 S1                 0.0000
     53 ****       -10.8743   0.1512  -0.6686 H              1 S1                 0.0000
     54 ****        -9.3252  -1.4152   0.4852 H              1 S1                 0.0000
     55 ****        -6.9316  -0.8528   0.7227 H              1 S1                 0.0000
     56 ****        -4.2839   2.7971  -0.1120 LP             1 S1                 0.0000
     57 ****        -5.9323   3.3263  -0.1638 LP             1 S1                 0.0000
     58 ****        -3.1567   2.3786   0.0761 LP             1 S1                 0.0000
     59 ****         0.4952   0.5228   0.0874 LP             1 S1                 0.0000
     60 ****        -3.8561  -2.5994  -0.2786 LP             1 S1                 0.0000
     61 ****         1.7792  -2.5777   1.5370 LP             1 S1                 0.0000
     62 ****         0.7385  -1.3205   1.4805 LP             1 S1                 0.0000
     63 ****         5.3230  -1.1432   3.1791 LP             1 S1                 0.0000
     64 ****         6.8737  -0.3744   3.2452 LP             1 S1                 0.0000
     65 ****         2.0940  -2.6068  -3.1884 LP             1 S1                 0.0000
     66 ****         0.6945  -3.2814  -2.6855 LP             1 S1                 0.0000
@<TRIPOS>BOND
    1    1    2 2     
    2    2    3 am    
    3    2   30 1     
    4    3    4 1     
    5    3   36 1     
    6    4    9 ar    
    7    4    5 ar    
    8    5    6 ar    
    9    6    7 ar    
   10    6   37 1     
   11    7    8 ar    
   12    8   12 1     
   13    8    9 ar    
   14    9   10 1     
   15   10   11 2     
   16   11   12 1     
   17   11   38 1     
   18   12   13 1     
   19   13   28 1     
   20   13   14 1     
   21   13   39 1     
   22   14   15 1     
   23   15   16 1     
   24   15   26 1     
   25   15   40 1     
   26   16   17 1     
   27   16   41 1     
   28   16   42 1     
   29   17   18 1     
   30   18   19 2     
   31   18   20 1     
   32   20   25 ar    
   33   20   21 ar    
   34   21   22 ar    
   35   21   43 1     
   36   22   23 ar    
   37   22   44 1     
   38   23   24 ar    
   39   23   45 1     
   40   24   25 ar    
   41   24   46 1     
   42   25   47 1     
   43   26   27 1     
   44   26   28 1     
   45   26   48 1     
   46   28   29 1     
   47   28   49 1     
   48   29   50 1     
   49   30   35 ar    
   50   30   31 ar    
   51   31   32 ar    
   52   31   51 1     
   53   32   33 ar    
   54   32   52 1     
   55   33   34 ar    
   56   33   53 1     
   57   34   35 ar    
   58   34   54 1     
   59   35   55 1     
   60    1   56 1     
   61    1   57 1     
   62    5   58 1     
   63    7   59 1     
   64   10   60 1     
   65   14   61 1     
   66   14   62 1     
   67   19   63 1     
   68   19   64 1     
   69   29   65 1     
   70   29   66 1     
@<TRIPOS>SUBSTRUCTURE
      1 S1             1
@<TRIPOS>SET
LONE_PAIRS      STATIC     ATOMS    <user>   **** ""
11 56 57 58 59 60 61 62 63 64 65 66
DONOR_HYDROGENS      STATIC     ATOMS    <user>   **** ""
2 36 50
ATOM$BLUE        STATIC     ATOMS    COLORGROUP SYSTEM
11 56 57 58 59 60 61 62 63 64 65 66
ATOM$RED        STATIC     ATOMS    COLORGROUP SYSTEM
2 36 50
