AV-unprocessed.smi:744|AV-procd|sdf|3568|dock1
  -GOLD-   22720 0563D 1   1.00000     0.00000
 Structure written by MMmdl.
 34 35  0  0  0  0  0  0  0  0  1 V2000
  146.2690  139.0221  154.0672 O   0  0  0  0  0  0  0  0  0  0  0  0
  147.1242  138.3542  153.4852 C   0  0  0  0  0  0  0  0  0  0  0  0
  146.8344  137.3579  152.6359 N   0  0  0  0  0  0  0  0  0  0  0  0
  145.4916  136.9166  152.2711 C   0  0  0  0  0  0  0  0  0  0  0  0
  145.5048  135.6127  151.4459 C   0  0  2  0  0  0  0  0  0  0  0  0
  144.1320  135.3023  150.8199 C   0  0  0  0  0  0  0  0  0  0  0  0
  143.9405  133.7792  150.8823 C   0  0  0  0  0  0  0  0  0  0  0  0
  145.2638  133.2095  151.3922 C   0  0  0  0  0  0  0  0  0  0  0  0
  145.8614  134.3384  152.2301 C   0  0  1  0  0  0  0  0  0  0  0  0
  147.2543  134.1568  152.3824 O   0  0  0  0  0  0  0  0  0  0  0  0
  148.4536  138.5068  153.6164 N   0  0  0  0  0  0  0  0  0  0  0  0
  149.1561  139.4355  154.4294 C   0  0  0  0  0  0  0  0  0  0  0  0
  150.4371  139.0121  154.8502 C   0  0  0  0  0  0  0  0  0  0  0  0
  151.2160  139.8608  155.6603 C   0  0  0  0  0  0  0  0  0  0  0  0
  150.6926  141.1125  156.0300 C   0  0  0  0  0  0  0  0  0  0  0  0
  149.4085  141.4565  155.5692 C   0  0  0  0  0  0  0  0  0  0  0  0
  148.6604  140.6448  154.7923 N   0  0  0  0  0  0  0  0  0  0  0  0
  147.6028  136.8622  152.2081 H   0  0  0  0  0  0  0  0  0  0  0  0
  144.8598  136.8044  153.1540 H   0  0  0  0  0  0  0  0  0  0  0  0
  145.0409  137.7132  151.6786 H   0  0  0  0  0  0  0  0  0  0  0  0
  146.2170  135.7203  150.6254 H   0  0  0  0  0  0  0  0  0  0  0  0
  143.3258  135.7931  151.3669 H   0  0  0  0  0  0  0  0  0  0  0  0
  144.0877  135.6662  149.7928 H   0  0  0  0  0  0  0  0  0  0  0  0
  143.1423  133.5405  151.5864 H   0  0  0  0  0  0  0  0  0  0  0  0
  143.6615  133.3571  149.9164 H   0  0  0  0  0  0  0  0  0  0  0  0
  145.1352  132.2866  151.9587 H   0  0  0  0  0  0  0  0  0  0  0  0
  145.9120  132.9899  150.5423 H   0  0  0  0  0  0  0  0  0  0  0  0
  145.3874  134.3546  153.2127 H   0  0  0  0  0  0  0  0  0  0  0  0
  147.6764  134.9966  152.2828 H   0  0  0  0  0  0  0  0  0  0  0  0
  149.0318  137.8820  153.0746 H   0  0  0  0  0  0  0  0  0  0  0  0
  150.8236  138.0468  154.5570 H   0  0  0  0  0  0  0  0  0  0  0  0
  152.1976  139.5558  155.9915 H   0  0  0  0  0  0  0  0  0  0  0  0
  151.2595  141.7910  156.6500 H   0  0  0  0  0  0  0  0  0  0  0  0
  148.9699  142.4083  155.8304 H   0  0  0  0  0  0  0  0  0  0  0  0
  1  2  2  0  0  0  0
  2  3  1  0  0  0  0
  2 11  1  0  0  0  0
  3  4  1  0  0  0  0
  3 18  1  0  0  0  0
  4  5  1  0  0  0  0
  4 19  1  0  0  0  0
  4 20  1  0  0  0  0
  5  9  1  0  0  0  0
  5  6  1  0  0  0  0
  5 21  1  0  0  0  0
  6  7  1  0  0  0  0
  6 22  1  0  0  0  0
  6 23  1  0  0  0  0
  7  8  1  0  0  0  0
  7 24  1  0  0  0  0
  7 25  1  0  0  0  0
  8  9  1  0  0  0  0
  8 26  1  0  0  0  0
  8 27  1  0  0  0  0
  9 10  1  0  0  0  0
  9 28  1  0  0  0  0
 10 29  1  0  0  0  0
 11 12  1  0  0  0  0
 11 30  1  0  0  0  0
 12 17  1  0  0  0  0
 12 13  2  0  0  0  0
 13 14  1  0  0  0  0
 13 31  1  0  0  0  0
 14 15  2  0  0  0  0
 14 32  1  0  0  0  0
 15 16  1  0  0  0  0
 15 33  1  0  0  0  0
 16 17  2  0  0  0  0
 16 34  1  0  0  0  0
M  END
> <s_m_source_file>
AV-unprocessed.smi

> <i_m_source_file_index>
744

> <i_lp_mmshare_version>
43012

> <i_f3d_flags>
0

> <s_epik_input>
bjFbY0hdW2NIXVtjSF1bY0hdYzFbTkhdQyg9TylbTkhdW0NIMl1bQ0BASF0yW0NIMl1bQ0gyXVtDSDJdW0NASF0yW09IXQ==

> <s_epik_cmdline>
J2VwaWtfcHl0aG9uJywgJy1waCcsICc3LjAnLCAnLXRuJywgJzgnLCAnLW1hJywgJzIwMCcsICctbWV0YWxfYmluZGluZycsICctaW1hZScsICc8aW5maWxlLm1hZT4nLCAnLW9tYWUnLCAnPG91dGZpbGUubWFlPic=

> <r_lp_tautomer_probability>
1

> <r_epik_Ionization_Penalty>
5.04769e-05

> <r_epik_Ionization_Penalty_Charging>
0

> <r_epik_Ionization_Penalty_Neutral>
5.04769e-05

> <r_epik_State_Penalty>
-0

> <r_epik_Charging_Adjusted_Penalty>
0

> <i_epik_Tot_Q>
0

> <i_epik_Tot_abs_Q>
0

> <r_epik_Metal_State_Penalty>
-0

> <b_epik_Metal_Only>
0

> <s_lp_Force_Field>
OPLS_2005

> <r_lp_Energy>
24.8684

> <b_lp_Chiralities_Consistent>
1

> <s_lp_Variant>
AV-unprocessed.smi:744-1

> <Gold.Version>
5.8.1

> <Gold.Id.Protein>
6NUR|6NUR_protein|mol2

> <Gold.PLP.Fitness>
41.8034

> <Gold.PLP.PLP>
-30.7065

> <Gold.PLP.part.hbond>
-3.9600

> <Gold.PLP.part.metal>
0.0000

> <Gold.PLP.part.buried>
-3.5899

> <Gold.PLP.part.nonpolar>
-25.1661

> <Gold.PLP.part.repulsive>
0.3408

> <Gold.PLP.ligand.clash>
0.0000

> <Gold.PLP.ligand.torsion>
0.2718

> <Gold.PLP.Chemscore.Hbond>
2.8800

> <Gold.PLP.Chemscore.CHOScore>
1.0000

> <Gold.PLP.Chemscore.Metal>
0.0000

> <Gold.Chemscore.Hbonds>
donor molecule, donor type, donor heavy atom, donor atom, acceptor molecule, acceptor atom, score
      L1  H     3    18       P1  7948  0.98
      L1  H    10    29       P1  7948  1.00
      L1  H    11    30       P1  7948  0.88
      L1  C    16    34       P1  8028  1.00

> <Gold.PLP.Chemscore.Internal.Correction>
0.0006

> <Gold.Rescore>
     Score         DG    S(hbond)    S(metal)    S(lipo)     H(rot)  DE(clash)    DE(int)     intcor
     16.30     -17.78       2.84        0.00      63.71       1.81       0.15       1.34       ----

> <Gold.Chemscore.Fitness>
16.3001

> <Gold.Chemscore.DG>
-17.7837

> <Gold.Chemscore.ZeroCoef>
-5.4800

> <Gold.Chemscore.Hbond>
2.8357

> <Gold.Chemscore.Metal>
0.0000

> <Gold.Chemscore.Lipo>
63.7074

> <Gold.Chemscore.Internal_Hbond>
0.0000

> <Gold.Chemscore.DEClash>
0.1483

> <Gold.Chemscore.DEInternal>
1.3353

> <Gold.Chemscore.Rot>
1.8052

> <Gold.Chemscore.Internal.Correction>
   9.000000E+99

> <Gold.Chemscore.Hbonds>
donor molecule, donor type, donor heavy atom, donor atom, acceptor molecule, acceptor atom, score
      L1  H     3    18       P1  7948  0.91
      L1  H    10    29       P1  7948  0.92
      L1  H    11    30       P1  7948  0.81

> <Gold.Chemscore.Hbond.Weighted>
-9.4711

> <Gold.Chemscore.Metal.Weighted>
-0.0000

> <Gold.Chemscore.Lipo.Weighted>
-7.4538

> <Gold.Chemscore.Internal_Hbond.Weighted>
0.0000

> <Gold.Chemscore.DEClash.Weighted>
0.1483

> <Gold.Chemscore.DEInternal.Weighted>
1.3353

> <Gold.Chemscore.Rot.Weighted>
4.6212

> <Gold.Chemscore.Internal.Correction.Weighted>
   9.000000E+99

> <Gold.Protein.RotatedTorsions>
[ 6907 6896 6895 6894 ] final  -22.33 input  -60.11 | X-H torsion
[ 7974 7965 7964 7962 ] final  153.18 input  175.53 | X-H torsion
[ 8008 7997 7996 7995 ] final   18.52 input   59.86 | X-H torsion
[ 10167 10162 10161 10158 ] final   74.92 input  -65.29 | X-H torsion
[ 10718 10713 10712 10709 ] final -170.67 input   66.30 | X-H torsion
[ 10763 10752 10751 10750 ] final   -9.41 input  -60.55 | X-H torsion
[ 11005 11000 10999 10996 ] final   28.21 input  -57.11 | X-H torsion

> <Gold.Protein.ActiveResidues>
 VAL166  LYS551  ARG553  GLY616  TRP617  ASP618  TYR619  PRO620  LYS621  CYS622 
 ASP623  PHE694  ASN695  SER759  ASP760  ASP761  ALA762  ILE779  LEU786  VAL792 
 PHE793  MET794  SER795  GLU796  ALA797  LYS798  CYS799  TRP800  GLU811  SER814 

> <Gold.Protein.RotatedAtoms>
  151.2202  135.0515  159.8946 H   0  0  0  0  0  0  0  0  0  0  0  0  # atno 6907 bound_to 6896
  152.5416  134.0649  159.8179 H   0  0  0  0  0  0  0  0  0  0  0  0  # atno 6908 bound_to 6896
  151.0814  133.5339  159.2652 H   0  0  0  0  0  0  0  0  0  0  0  0  # atno 6909 bound_to 6896
  144.8172  139.6766  143.6116 H   0  0  0  0  0  0  0  0  0  0  0  0  # atno 7974 bound_to 7965
  154.9072  140.3009  155.5286 H   0  0  0  0  0  0  0  0  0  0  0  0  # atno 8008 bound_to 7997
  156.3016  140.2396  156.4042 H   0  0  0  0  0  0  0  0  0  0  0  0  # atno 8009 bound_to 7997
  154.8462  140.0411  157.1563 H   0  0  0  0  0  0  0  0  0  0  0  0  # atno 8010 bound_to 7997
  140.0085  144.5632  150.7678 H   0  0  0  0  0  0  0  0  0  0  0  0  # atno 10167 bound_to 10162
  156.7296  130.9301  151.3103 H   0  0  0  0  0  0  0  0  0  0  0  0  # atno 10718 bound_to 10713
  153.4543  135.7015  153.6089 H   0  0  0  0  0  0  0  0  0  0  0  0  # atno 10763 bound_to 10752
  153.4411  135.3780  155.2228 H   0  0  0  0  0  0  0  0  0  0  0  0  # atno 10764 bound_to 10752
  154.8728  135.3974  154.3960 H   0  0  0  0  0  0  0  0  0  0  0  0  # atno 10765 bound_to 10752
  140.3180  134.2575  155.7722 H   0  0  0  0  0  0  0  0  0  0  0  0  # atno 11005 bound_to 11000
  146.2476  139.6130  142.9449 LP  0  0  0  0  0  0  0  0  0  0  0  0  # atno 17320 bound_to 7965
  145.5187  141.0433  143.2447 LP  0  0  0  0  0  0  0  0  0  0  0  0  # atno 17321 bound_to 7965
  140.7391  143.2786  151.3665 LP  0  0  0  0  0  0  0  0  0  0  0  0  # atno 17342 bound_to 10162
  139.6221  144.0886  152.2401 LP  0  0  0  0  0  0  0  0  0  0  0  0  # atno 17343 bound_to 10162
  157.6864  130.9190  150.0399 LP  0  0  0  0  0  0  0  0  0  0  0  0  # atno 17370 bound_to 10713
  156.1538  130.3643  149.9399 LP  0  0  0  0  0  0  0  0  0  0  0  0  # atno 17371 bound_to 10713
  141.2093  133.7753  157.0005 LP  0  0  0  0  0  0  0  0  0  0  0  0  # atno 17394 bound_to 11000
  140.0966  134.9560  157.1859 LP  0  0  0  0  0  0  0  0  0  0  0  0  # atno 17395 bound_to 11000

$$$$
