AV-unprocessed.smi:1308|AV-procd|sdf|5440|dock10
  -GOLD-   22720 5 03D 1   1.00000     0.00000
 Structure written by MMmdl.
 45 45  0  0  0  0  0  0  0  0  1 V2000
  149.4500  132.8956  153.6808 C   0  0  0  0  0  0  0  0  0  0  0  0
  149.5034  133.7436  154.9328 C   0  0  0  0  0  0  0  0  0  0  0  0
  149.6172  135.1009  154.6806 N   0  0  0  0  0  0  0  0  0  0  0  0
  149.6813  135.9576  155.7653 C   0  0  0  0  0  0  0  0  0  0  0  0
  149.8051  137.4271  155.4027 C   0  0  0  0  0  0  0  0  0  0  0  0
  149.6307  135.4857  157.0368 C   0  0  0  0  0  0  0  0  0  0  0  0
  149.6918  136.3955  158.2633 C   0  0  0  0  0  0  0  0  0  0  0  0
  151.0157  137.1271  158.4999 C   0  0  0  0  0  0  0  0  0  0  0  0
  152.0716  136.5004  158.5920 O   0  0  0  0  0  0  0  0  0  0  0  0
  150.9363  138.4641  158.5845 N   0  0  0  0  0  0  0  0  0  0  0  0
  152.0607  139.3828  158.7581 C   0  0  2  0  0  0  0  0  0  0  0  0
  153.0043  138.8311  159.8357 C   0  0  0  0  0  0  0  0  0  0  0  0
  151.5517  140.7932  159.1138 C   0  0  0  0  0  0  0  0  0  0  0  0
  152.3253  141.9263  158.4112 C   0  0  0  0  0  0  0  0  0  0  0  0
  152.1542  143.3103  159.0699 C   0  0  0  0  0  0  0  0  0  0  0  0
  152.7419  144.4452  158.2142 C   0  0  0  0  0  0  0  0  0  0  0  0
  152.7768  143.3215  160.4742 C   0  0  0  0  0  0  0  0  0  0  0  0
  149.4957  134.0245  157.2433 C   0  0  0  0  0  0  0  0  0  0  0  0
  149.4236  133.5384  158.3712 O   0  0  0  0  0  0  0  0  0  0  0  0
  149.4451  133.1974  156.1093 N   0  0  0  0  0  0  0  0  0  0  0  0
  149.6565  135.4939  153.7513 H   0  0  0  0  0  0  0  0  0  0  0  0
  149.2853  131.8462  153.9277 H   0  0  0  0  0  0  0  0  0  0  0  0
  150.3877  132.9733  153.1297 H   0  0  0  0  0  0  0  0  0  0  0  0
  148.6372  133.2243  153.0324 H   0  0  0  0  0  0  0  0  0  0  0  0
  148.9819  137.9960  155.8350 H   0  0  0  0  0  0  0  0  0  0  0  0
  149.7855  137.5780  154.3226 H   0  0  0  0  0  0  0  0  0  0  0  0
  150.7430  137.8348  155.7800 H   0  0  0  0  0  0  0  0  0  0  0  0
  149.4781  135.8011  159.1516 H   0  0  0  0  0  0  0  0  0  0  0  0
  148.8888  137.1325  158.2230 H   0  0  0  0  0  0  0  0  0  0  0  0
  150.0217  138.8836  158.4990 H   0  0  0  0  0  0  0  0  0  0  0  0
  152.6336  139.4585  157.8320 H   0  0  0  0  0  0  0  0  0  0  0  0
  153.8673  139.4834  159.9721 H   0  0  0  0  0  0  0  0  0  0  0  0
  153.3790  137.8442  159.5623 H   0  0  0  0  0  0  0  0  0  0  0  0
  152.4997  138.7416  160.7984 H   0  0  0  0  0  0  0  0  0  0  0  0
  150.4911  140.8615  158.8702 H   0  0  0  0  0  0  0  0  0  0  0  0
  151.6252  140.9322  160.1931 H   0  0  0  0  0  0  0  0  0  0  0  0
  153.3847  141.6661  158.4097 H   0  0  0  0  0  0  0  0  0  0  0  0
  152.0303  141.9872  157.3630 H   0  0  0  0  0  0  0  0  0  0  0  0
  151.0867  143.4995  159.1893 H   0  0  0  0  0  0  0  0  0  0  0  0
  153.8003  144.2805  158.0103 H   0  0  0  0  0  0  0  0  0  0  0  0
  152.6473  145.4064  158.7204 H   0  0  0  0  0  0  0  0  0  0  0  0
  152.2270  144.5367  157.2582 H   0  0  0  0  0  0  0  0  0  0  0  0
  153.8499  143.1309  160.4331 H   0  0  0  0  0  0  0  0  0  0  0  0
  152.3279  142.5584  161.1110 H   0  0  0  0  0  0  0  0  0  0  0  0
  152.6280  144.2840  160.9644 H   0  0  0  0  0  0  0  0  0  0  0  0
  1 22  1  0  0  0  0
  1 23  1  0  0  0  0
  1 24  1  0  0  0  0
  1  2  1  0  0  0  0
  2  3  1  0  0  0  0
  2 20  2  0  0  0  0
  3  4  1  0  0  0  0
  3 21  1  0  0  0  0
  4  6  2  0  0  0  0
  4  5  1  0  0  0  0
  5 25  1  0  0  0  0
  5 26  1  0  0  0  0
  5 27  1  0  0  0  0
  6 18  1  0  0  0  0
  6  7  1  0  0  0  0
  7  8  1  0  0  0  0
  7 28  1  0  0  0  0
  7 29  1  0  0  0  0
  8  9  2  0  0  0  0
  8 10  1  0  0  0  0
 10 11  1  0  0  0  0
 10 30  1  0  0  0  0
 11 12  1  0  0  0  0
 11 13  1  0  0  0  0
 11 31  1  0  0  0  0
 12 32  1  0  0  0  0
 12 33  1  0  0  0  0
 12 34  1  0  0  0  0
 13 14  1  0  0  0  0
 13 35  1  0  0  0  0
 13 36  1  0  0  0  0
 14 15  1  0  0  0  0
 14 37  1  0  0  0  0
 14 38  1  0  0  0  0
 15 16  1  0  0  0  0
 15 17  1  0  0  0  0
 15 39  1  0  0  0  0
 16 40  1  0  0  0  0
 16 41  1  0  0  0  0
 16 42  1  0  0  0  0
 17 43  1  0  0  0  0
 17 44  1  0  0  0  0
 17 45  1  0  0  0  0
 18 19  2  0  0  0  0
 18 20  1  0  0  0  0
M  END
> <s_m_source_file>
AV-unprocessed.smi

> <i_m_source_file_index>
1308

> <i_lp_mmshare_version>
43012

> <i_f3d_flags>
0

> <s_epik_input>
W0NIM11jMW5jKFtDSDNdKWMoYyg9TylbbkhdMSlbQ0gyXUMoPU8pW05IXVtDQEhdKFtDSDNdKVtDSDJdW0NIMl1bQ0hdKFtDSDNdKVtDSDNd

> <s_epik_cmdline>
J2VwaWtfcHl0aG9uJywgJy1waCcsICc3LjAnLCAnLXRuJywgJzgnLCAnLW1hJywgJzIwMCcsICctbWV0YWxfYmluZGluZycsICctaW1hZScsICc8aW5maWxlLm1hZT4nLCAnLW9tYWUnLCAnPG91dGZpbGUubWFlPic=

> <r_lp_tautomer_probability>
0.156392

> <r_epik_Ionization_Penalty>
0.0141156

> <r_epik_Ionization_Penalty_Charging>
0.0139937

> <r_epik_Ionization_Penalty_Neutral>
0.00012188

> <r_epik_State_Penalty>
1.52994

> <r_epik_Charging_Adjusted_Penalty>
1.54393

> <i_epik_Tot_Q>
0

> <i_epik_Tot_abs_Q>
0

> <r_epik_Metal_State_Penalty>
1.70663

> <b_epik_Metal_Only>
0

> <s_lp_Force_Field>
OPLS_2005

> <r_lp_Energy>
10.8122

> <b_lp_Chiralities_Consistent>
1

> <s_lp_Variant>
AV-unprocessed.smi:1308-3

> <Gold.Version>
5.8.1

> <Gold.Id.Protein>
6NUR|6NUR_protein|mol2

> <Gold.PLP.Fitness>
38.9075

> <Gold.PLP.PLP>
-32.9014

> <Gold.PLP.part.hbond>
-3.0000

> <Gold.PLP.part.metal>
0.0000

> <Gold.PLP.part.buried>
-5.2369

> <Gold.PLP.part.nonpolar>
-25.6027

> <Gold.PLP.part.repulsive>
0.1586

> <Gold.PLP.ligand.clash>
0.0000

> <Gold.PLP.ligand.torsion>
0.8898

> <Gold.PLP.Chemscore.Hbond>
2.5863

> <Gold.PLP.Chemscore.CHOScore>
0.0000

> <Gold.PLP.Chemscore.Metal>
0.0000

> <Gold.Chemscore.Hbonds>
donor molecule, donor type, donor heavy atom, donor atom, acceptor molecule, acceptor atom, score
      L1  H     3    21       P1  7948  0.65
      P1  H  6896  6908       L1    19  1.00
      P1  H  6896  6909       L1     9  0.62

> <Gold.PLP.Chemscore.Internal.Correction>
0.0268

> <Gold.Rescore>
     Score         DG    S(hbond)    S(metal)    S(lipo)     H(rot)  DE(clash)    DE(int)     intcor
     16.37     -18.70       2.61        0.00      81.91       1.98       0.01       2.32       ----

> <Gold.Chemscore.Fitness>
16.3669

> <Gold.Chemscore.DG>
-18.6950

> <Gold.Chemscore.ZeroCoef>
-5.4800

> <Gold.Chemscore.Hbond>
2.6076

> <Gold.Chemscore.Metal>
0.0000

> <Gold.Chemscore.Lipo>
81.9080

> <Gold.Chemscore.Internal_Hbond>
0.0000

> <Gold.Chemscore.DEClash>
0.0117

> <Gold.Chemscore.DEInternal>
2.3165

> <Gold.Chemscore.Rot>
1.9835

> <Gold.Chemscore.Internal.Correction>
   9.000000E+99

> <Gold.Chemscore.Hbonds>
donor molecule, donor type, donor heavy atom, donor atom, acceptor molecule, acceptor atom, score
      L1  H     3    21       P1  7948  0.09
      P1  H  6896  6908       L1    19  0.85
      P1  H  6896  6909       L1     9  0.18

> <Gold.Chemscore.Hbond.Weighted>
-8.7095

> <Gold.Chemscore.Metal.Weighted>
-0.0000

> <Gold.Chemscore.Lipo.Weighted>
-9.5832

> <Gold.Chemscore.Internal_Hbond.Weighted>
0.0000

> <Gold.Chemscore.DEClash.Weighted>
0.0117

> <Gold.Chemscore.DEInternal.Weighted>
2.3165

> <Gold.Chemscore.Rot.Weighted>
5.0778

> <Gold.Chemscore.Internal.Correction.Weighted>
   9.000000E+99

> <Gold.Protein.RotatedTorsions>
[ 6907 6896 6895 6894 ] final  121.45 input  -60.11 | X-H torsion
[ 7974 7965 7964 7962 ] final -119.03 input  175.53 | X-H torsion
[ 8008 7997 7996 7995 ] final   45.55 input   59.86 | X-H torsion
[ 10167 10162 10161 10158 ] final  143.37 input  -65.29 | X-H torsion
[ 10718 10713 10712 10709 ] final  -83.37 input   66.30 | X-H torsion
[ 10763 10752 10751 10750 ] final -167.63 input  -60.55 | X-H torsion
[ 11005 11000 10999 10996 ] final   81.49 input  -57.11 | X-H torsion

> <Gold.Protein.ActiveResidues>
 VAL166  LYS551  ARG553  GLY616  TRP617  ASP618  TYR619  PRO620  LYS621  CYS622 
 ASP623  PHE694  ASN695  SER759  ASP760  ASP761  ALA762  ILE779  LEU786  VAL792 
 PHE793  MET794  SER795  GLU796  ALA797  LYS798  CYS799  TRP800  GLU811  SER814 

> <Gold.Protein.RotatedAtoms>
  152.4321  133.7295  159.6579 H   0  0  0  0  0  0  0  0  0  0  0  0  # atno 6907 bound_to 6896
  150.8201  133.8258  159.3149 H   0  0  0  0  0  0  0  0  0  0  0  0  # atno 6908 bound_to 6896
  151.5942  135.1054  160.0097 H   0  0  0  0  0  0  0  0  0  0  0  0  # atno 6909 bound_to 6896
  145.0671  140.8332  143.4118 H   0  0  0  0  0  0  0  0  0  0  0  0  # atno 7974 bound_to 7965
  155.3378  140.3406  155.4239 H   0  0  0  0  0  0  0  0  0  0  0  0  # atno 8008 bound_to 7997
  156.1829  140.1670  156.8277 H   0  0  0  0  0  0  0  0  0  0  0  0  # atno 8009 bound_to 7997
  154.5353  140.0736  156.8400 H   0  0  0  0  0  0  0  0  0  0  0  0  # atno 8010 bound_to 7997
  139.4971  144.6045  151.6409 H   0  0  0  0  0  0  0  0  0  0  0  0  # atno 10167 bound_to 10162
  156.0019  130.4663  150.4246 H   0  0  0  0  0  0  0  0  0  0  0  0  # atno 10718 bound_to 10713
  154.6712  135.2939  154.9739 H   0  0  0  0  0  0  0  0  0  0  0  0  # atno 10763 bound_to 10752
  154.0765  135.6610  153.4835 H   0  0  0  0  0  0  0  0  0  0  0  0  # atno 10764 bound_to 10752
  153.0488  135.5187  154.7709 H   0  0  0  0  0  0  0  0  0  0  0  0  # atno 10765 bound_to 10752
  139.9096  134.8000  156.2048 H   0  0  0  0  0  0  0  0  0  0  0  0  # atno 11005 bound_to 11000
  145.1338  139.2615  143.5525 LP  0  0  0  0  0  0  0  0  0  0  0  0  # atno 17320 bound_to 7965
  146.3527  140.0996  142.8608 LP  0  0  0  0  0  0  0  0  0  0  0  0  # atno 17321 bound_to 7965
  140.5703  144.0120  150.6213 LP  0  0  0  0  0  0  0  0  0  0  0  0  # atno 17342 bound_to 10162
  140.3235  143.3122  152.0759 LP  0  0  0  0  0  0  0  0  0  0  0  0  # atno 17343 bound_to 10162
  157.2300  131.0502  151.2498 LP  0  0  0  0  0  0  0  0  0  0  0  0  # atno 17370 bound_to 10713
  157.3720  130.7186  149.6571 LP  0  0  0  0  0  0  0  0  0  0  0  0  # atno 17371 bound_to 10713
  141.0502  133.6892  156.1758 LP  0  0  0  0  0  0  0  0  0  0  0  0  # atno 17394 bound_to 11000
  140.6822  134.4755  157.5589 LP  0  0  0  0  0  0  0  0  0  0  0  0  # atno 17395 bound_to 11000

$$$$
