AV-unprocessed.smi:2280|AV-procd|sdf|9192|dock2
  -GOLD-   2272012403D 1   1.00000     0.00000
 Structure written by MMmdl.
 41 42  0  0  0  0  0  0  0  0  1 V2000
  144.2363  136.6868  153.1238 C   0  0  0  0  0  0  0  0  0  0  0  0
  145.1928  137.8152  153.4673 C   0  0  0  0  0  0  0  0  0  0  0  0
  146.1703  138.0913  152.5070 N   0  0  0  0  0  0  0  0  0  0  0  0
  147.0278  139.0368  152.7134 C   0  0  0  0  0  0  0  0  0  0  0  0
  147.0062  139.8099  153.8856 N   0  0  0  0  0  0  0  0  0  0  0  0
  148.0382  140.8548  153.9975 C   0  0  0  0  0  0  0  0  0  0  0  0
  149.2828  140.3625  154.7714 C   0  0  1  0  0  0  0  0  0  0  0  0
  150.2182  139.8802  153.8265 O   0  0  0  0  0  0  0  0  0  0  0  0
  149.9671  141.5020  155.5455 C   0  0  0  0  0  0  0  0  0  0  0  0
  150.6892  140.9423  156.6342 O   0  0  0  0  0  0  0  0  0  0  0  0
  151.3731  141.7888  157.4827 C   0  0  0  0  0  0  0  0  0  0  0  0
  151.3534  143.2020  157.3603 C   0  0  0  0  0  0  0  0  0  0  0  0
  152.0738  144.0093  158.2598 C   0  0  0  0  0  0  0  0  0  0  0  0
  152.8217  143.4180  159.2921 C   0  0  0  0  0  0  0  0  0  0  0  0
  152.8482  142.0181  159.4244 C   0  0  0  0  0  0  0  0  0  0  0  0
  152.1285  141.1978  158.5259 C   0  0  0  0  0  0  0  0  0  0  0  0
  152.1612  139.6800  158.6766 C   0  0  0  0  0  0  0  0  0  0  0  0
  152.9081  139.2973  159.7132 F   0  0  0  0  0  0  0  0  0  0  0  0
  150.9243  139.2185  158.8630 F   0  0  0  0  0  0  0  0  0  0  0  0
  152.6674  139.1265  157.5743 F   0  0  0  0  0  0  0  0  0  0  0  0
  146.0923  139.6010  154.8773 C   0  0  0  0  0  0  0  0  0  0  0  0
  146.0909  140.2765  155.9083 O   0  0  0  0  0  0  0  0  0  0  0  0
  145.1224  138.5221  154.6283 C   0  0  0  0  0  0  0  0  0  0  0  0
  144.0807  138.2658  155.7101 C   0  0  0  0  0  0  0  0  0  0  0  0
  143.2071  137.0470  153.1133 H   0  0  0  0  0  0  0  0  0  0  0  0
  144.3177  135.8820  153.8551 H   0  0  0  0  0  0  0  0  0  0  0  0
  144.4533  136.2675  152.1403 H   0  0  0  0  0  0  0  0  0  0  0  0
  147.8143  139.2874  151.9996 H   0  0  0  0  0  0  0  0  0  0  0  0
  148.3245  141.2579  153.0235 H   0  0  0  0  0  0  0  0  0  0  0  0
  147.5985  141.7085  154.5164 H   0  0  0  0  0  0  0  0  0  0  0  0
  149.0107  139.5660  155.4654 H   0  0  0  0  0  0  0  0  0  0  0  0
  150.5828  139.0708  154.1498 H   0  0  0  0  0  0  0  0  0  0  0  0
  150.6130  142.0867  154.8877 H   0  0  0  0  0  0  0  0  0  0  0  0
  149.2085  142.1724  155.9526 H   0  0  0  0  0  0  0  0  0  0  0  0
  150.7906  143.6955  156.5830 H   0  0  0  0  0  0  0  0  0  0  0  0
  152.0516  145.0841  158.1566 H   0  0  0  0  0  0  0  0  0  0  0  0
  153.3745  144.0375  159.9828 H   0  0  0  0  0  0  0  0  0  0  0  0
  153.4279  141.5824  160.2244 H   0  0  0  0  0  0  0  0  0  0  0  0
  144.5702  138.0331  156.6564 H   0  0  0  0  0  0  0  0  0  0  0  0
  143.4122  137.4390  155.4761 H   0  0  0  0  0  0  0  0  0  0  0  0
  143.4661  139.1549  155.8567 H   0  0  0  0  0  0  0  0  0  0  0  0
  1  2  1  0  0  0  0
  1 25  1  0  0  0  0
  1 26  1  0  0  0  0
  1 27  1  0  0  0  0
  2 23  2  0  0  0  0
  2  3  1  0  0  0  0
  3  4  2  0  0  0  0
  4  5  1  0  0  0  0
  4 28  1  0  0  0  0
  5  6  1  0  0  0  0
  5 21  1  0  0  0  0
  6  7  1  0  0  0  0
  6 29  1  0  0  0  0
  6 30  1  0  0  0  0
  7  8  1  0  0  0  0
  7  9  1  0  0  0  0
  7 31  1  0  0  0  0
  8 32  1  0  0  0  0
  9 10  1  0  0  0  0
  9 33  1  0  0  0  0
  9 34  1  0  0  0  0
 10 11  1  0  0  0  0
 11 16  1  0  0  0  0
 11 12  2  0  0  0  0
 12 13  1  0  0  0  0
 12 35  1  0  0  0  0
 13 14  2  0  0  0  0
 13 36  1  0  0  0  0
 14 15  1  0  0  0  0
 14 37  1  0  0  0  0
 15 16  2  0  0  0  0
 15 38  1  0  0  0  0
 16 17  1  0  0  0  0
 17 18  1  0  0  0  0
 17 19  1  0  0  0  0
 17 20  1  0  0  0  0
 21 22  2  0  0  0  0
 21 23  1  0  0  0  0
 23 24  1  0  0  0  0
 24 39  1  0  0  0  0
 24 40  1  0  0  0  0
 24 41  1  0  0  0  0
M  END
> <s_m_source_file>
AV-unprocessed.smi

> <i_m_source_file_index>
2280

> <i_lp_mmshare_version>
43012

> <i_f3d_flags>
0

> <s_epik_input>
W0NIM11jMW5bY0hdbihjKD1PKWMxW0NIM10pW0NIMl1bQ0BIXShbT0hdKVtDSDJdT2MyW2NIXVtjSF1bY0hdW2NIXWMyQyhGKShGKUY=

> <s_epik_cmdline>
J2VwaWtfcHl0aG9uJywgJy1waCcsICc3LjAnLCAnLXRuJywgJzgnLCAnLW1hJywgJzIwMCcsICctbWV0YWxfYmluZGluZycsICctaW1hZScsICc8aW5maWxlLm1hZT4nLCAnLW9tYWUnLCAnPG91dGZpbGUubWFlPic=

> <r_lp_tautomer_probability>
1

> <r_epik_Ionization_Penalty>
3.7476e-05

> <r_epik_Ionization_Penalty_Charging>
8.44705e-08

> <r_epik_Ionization_Penalty_Neutral>
3.73915e-05

> <r_epik_State_Penalty>
-0

> <r_epik_Charging_Adjusted_Penalty>
8.44705e-08

> <i_epik_Tot_Q>
0

> <i_epik_Tot_abs_Q>
0

> <r_epik_Metal_State_Penalty>
-0

> <b_epik_Metal_Only>
0

> <s_lp_Force_Field>
OPLS_2005

> <r_lp_Energy>
26.5065

> <b_lp_Chiralities_Consistent>
1

> <s_lp_Variant>
AV-unprocessed.smi:2280-2

> <Gold.Version>
5.8.1

> <Gold.Id.Protein>
6NUR|6NUR_protein|mol2

> <Gold.PLP.Fitness>
43.8575

> <Gold.PLP.PLP>
-40.0400

> <Gold.PLP.part.hbond>
-2.0000

> <Gold.PLP.part.metal>
0.0000

> <Gold.PLP.part.buried>
-2.6517

> <Gold.PLP.part.nonpolar>
-36.2618

> <Gold.PLP.part.repulsive>
0.3687

> <Gold.PLP.ligand.clash>
0.4809

> <Gold.PLP.ligand.torsion>
1.0753

> <Gold.PLP.Chemscore.Hbond>
0.9120

> <Gold.PLP.Chemscore.CHOScore>
1.0000

> <Gold.PLP.Chemscore.Metal>
0.0000

> <Gold.Chemscore.Hbonds>
donor molecule, donor type, donor heavy atom, donor atom, acceptor molecule, acceptor atom, score
      P1  H  7989  7998       L1     8  0.93
      L1  C     4    28       P1  7957  1.00

> <Gold.PLP.Chemscore.Internal.Correction>
0.7130

> <Gold.Rescore>
     Score         DG    S(hbond)    S(metal)    S(lipo)     H(rot)  DE(clash)    DE(int)     intcor
      8.91     -12.45       0.97        0.00      91.53       2.73       0.00       3.54       ----

> <Gold.Chemscore.Fitness>
8.9080

> <Gold.Chemscore.DG>
-12.4531

> <Gold.Chemscore.ZeroCoef>
-5.4800

> <Gold.Chemscore.Hbond>
0.9741

> <Gold.Chemscore.Metal>
0.0000

> <Gold.Chemscore.Lipo>
91.5250

> <Gold.Chemscore.Internal_Hbond>
0.0000

> <Gold.Chemscore.DEClash>
0.0011

> <Gold.Chemscore.DEInternal>
3.5441

> <Gold.Chemscore.Rot>
2.7300

> <Gold.Chemscore.Internal.Correction>
   9.000000E+99

> <Gold.Chemscore.Hbonds>
donor molecule, donor type, donor heavy atom, donor atom, acceptor molecule, acceptor atom, score
      P1  H  7989  7998       L1     8  0.38

> <Gold.Chemscore.Hbond.Weighted>
-3.2535

> <Gold.Chemscore.Metal.Weighted>
-0.0000

> <Gold.Chemscore.Lipo.Weighted>
-10.7084

> <Gold.Chemscore.Internal_Hbond.Weighted>
0.0000

> <Gold.Chemscore.DEClash.Weighted>
0.0011

> <Gold.Chemscore.DEInternal.Weighted>
3.5441

> <Gold.Chemscore.Rot.Weighted>
6.9888

> <Gold.Chemscore.Internal.Correction.Weighted>
   9.000000E+99

> <Gold.Protein.RotatedTorsions>
[ 6907 6896 6895 6894 ] final  128.96 input  -60.11 | X-H torsion
[ 7974 7965 7964 7962 ] final  176.91 input  175.53 | X-H torsion
[ 8008 7997 7996 7995 ] final   28.75 input   59.86 | X-H torsion
[ 10167 10162 10161 10158 ] final   33.83 input  -65.29 | X-H torsion
[ 10718 10713 10712 10709 ] final   74.07 input   66.30 | X-H torsion
[ 10763 10752 10751 10750 ] final   33.50 input  -60.55 | X-H torsion
[ 11005 11000 10999 10996 ] final   54.75 input  -57.11 | X-H torsion

> <Gold.Protein.ActiveResidues>
 VAL166  LYS551  ARG553  GLY616  TRP617  ASP618  TYR619  PRO620  LYS621  CYS622 
 ASP623  PHE694  ASN695  SER759  ASP760  ASP761  ALA762  ILE779  LEU786  VAL792 
 PHE793  MET794  SER795  GLU796  ALA797  LYS798  CYS799  TRP800  GLU811  SER814 

> <Gold.Protein.RotatedAtoms>
  152.3670  133.6369  159.6057 H   0  0  0  0  0  0  0  0  0  0  0  0  # atno 6907 bound_to 6896
  150.7641  133.9332  159.3442 H   0  0  0  0  0  0  0  0  0  0  0  0  # atno 6908 bound_to 6896
  151.7161  135.0904  160.0327 H   0  0  0  0  0  0  0  0  0  0  0  0  # atno 6909 bound_to 6896
  144.7177  140.0168  143.6440 H   0  0  0  0  0  0  0  0  0  0  0  0  # atno 7974 bound_to 7965
  155.0637  140.3193  155.4652 H   0  0  0  0  0  0  0  0  0  0  0  0  # atno 8008 bound_to 7997
  156.2807  140.2124  156.5708 H   0  0  0  0  0  0  0  0  0  0  0  0  # atno 8009 bound_to 7997
  154.7111  140.0498  157.0539 H   0  0  0  0  0  0  0  0  0  0  0  0  # atno 8010 bound_to 7997
  140.4371  144.1241  150.6168 H   0  0  0  0  0  0  0  0  0  0  0  0  # atno 10167 bound_to 10162
  157.6576  130.9660  150.1159 H   0  0  0  0  0  0  0  0  0  0  0  0  # atno 10718 bound_to 10713
  153.0209  135.6385  154.1521 H   0  0  0  0  0  0  0  0  0  0  0  0  # atno 10763 bound_to 10752
  154.1256  135.2844  155.3199 H   0  0  0  0  0  0  0  0  0  0  0  0  # atno 10764 bound_to 10752
  154.6232  135.5518  153.7660 H   0  0  0  0  0  0  0  0  0  0  0  0  # atno 10765 bound_to 10752
  140.0661  134.5534  155.9097 H   0  0  0  0  0  0  0  0  0  0  0  0  # atno 11005 bound_to 11000
  146.0213  139.3253  143.0811 LP  0  0  0  0  0  0  0  0  0  0  0  0  # atno 17320 bound_to 7965
  145.8565  140.9500  143.0722 LP  0  0  0  0  0  0  0  0  0  0  0  0  # atno 17321 bound_to 7965
  140.4361  143.2547  151.9533 LP  0  0  0  0  0  0  0  0  0  0  0  0  # atno 17342 bound_to 10162
  139.4787  144.5699  151.8105 LP  0  0  0  0  0  0  0  0  0  0  0  0  # atno 17343 bound_to 10162
  156.2043  130.3662  149.8749 LP  0  0  0  0  0  0  0  0  0  0  0  0  # atno 17370 bound_to 10713
  156.6644  130.8795  151.3552 LP  0  0  0  0  0  0  0  0  0  0  0  0  # atno 17371 bound_to 10713
  141.1993  133.6606  156.5838 LP  0  0  0  0  0  0  0  0  0  0  0  0  # atno 17394 bound_to 11000
  140.3696  134.7617  157.4590 LP  0  0  0  0  0  0  0  0  0  0  0  0  # atno 17395 bound_to 11000

$$$$
