AV-unprocessed.smi:21|AV-procd|sdf|144|dock2
  -GOLD-   2262015353D 1   1.00000     0.00000
 Structure written by MMmdl.
 62 65  0  0  0  0  0  0  0  0  2 V2000
  145.2466  130.6354  151.4091 C   0  0  0  0  0  0  0  0  0  0  0  0
  145.6247  131.8781  151.9805 O   0  0  0  0  0  0  0  0  0  0  0  0
  145.1710  133.0091  151.2480 C   0  0  2  0  0  0  0  0  0  0  0  0
  145.6592  134.3204  151.8654 C   0  0  0  0  0  0  0  0  0  0  0  0
  144.6639  134.6302  152.9987 C   0  0  2  0  0  0  0  0  0  0  0  0
  145.2011  134.2973  154.4070 C   0  0  0  0  0  0  0  0  0  0  0  0
  146.5438  134.8303  154.6553 N   0  0  0  0  0  0  0  0  0  0  0  0
  147.6472  133.8954  154.8419 C   0  0  0  0  0  0  0  0  0  0  0  0
  146.7733  136.1768  154.6307 C   0  0  0  0  0  0  0  0  0  0  0  0
  145.9504  136.9564  153.8768 N   0  0  0  0  0  0  0  0  0  0  0  0
  146.1250  138.2781  153.8075 C   0  0  0  0  0  0  0  0  0  0  0  0
  147.0516  139.0267  154.4034 N   0  0  0  0  0  0  0  0  0  0  0  0
  147.8847  138.2631  155.1646 C   0  0  0  0  0  0  0  0  0  0  0  0
  147.8221  136.8481  155.3356 C   0  0  0  0  0  0  0  0  0  0  0  0
  148.8529  136.4453  156.1809 N   0  0  0  0  0  0  0  0  0  0  0  0
  149.4780  137.5475  156.4901 C   0  0  0  0  0  0  0  0  0  0  0  0
  148.9589  138.6879  155.9252 N   0  0  0  0  0  0  0  0  0  0  0  0
  149.4504  140.0446  156.0860 C   0  0  0  0  0  0  0  0  0  0  0  0
  150.7760  140.1429  156.8871 C   0  0  1  0  0  0  0  0  0  0  0  0
  151.9741  139.5311  156.1164 C   0  0  0  0  0  0  0  0  0  0  0  0
  151.8867  139.7715  154.7271 O   0  0  0  0  0  0  0  0  0  0  0  0
  151.0654  141.6141  157.2839 C   0  0  2  0  0  0  0  0  0  0  0  0
  152.1836  141.7922  158.3124 C   0  0  0  0  0  0  0  0  0  0  0  0
  151.7139  142.9368  159.2152 C   0  0  0  0  0  0  0  0  0  0  0  0
  150.5343  143.4349  158.6049 O   0  0  0  0  0  0  0  0  0  0  0  0
  149.9024  142.3423  157.9631 C   0  0  0  0  0  0  0  0  0  0  0  0
  143.4626  133.8065  152.7195 N   0  3  1  0  0  0  0  0  0  0  0  0
  142.1797  134.5337  152.8267 C   0  0  0  0  0  0  0  0  0  0  0  0
  143.6593  133.1141  151.4291 C   0  0  0  0  0  0  0  0  0  0  0  0
  145.4345  132.9161  150.1930 H   0  0  0  0  0  0  0  0  0  0  0  0
  144.4022  135.6882  152.9480 H   0  0  0  0  0  0  0  0  0  0  0  0
  145.6155  129.8218  152.0335 H   0  0  0  0  0  0  0  0  0  0  0  0
  145.6637  130.5021  150.4111 H   0  0  0  0  0  0  0  0  0  0  0  0
  144.1615  130.5438  151.3490 H   0  0  0  0  0  0  0  0  0  0  0  0
  146.6991  134.2931  152.1850 H   0  0  0  0  0  0  0  0  0  0  0  0
  145.5877  135.1064  151.1124 H   0  0  0  0  0  0  0  0  0  0  0  0
  144.5165  134.6730  155.1682 H   0  0  0  0  0  0  0  0  0  0  0  0
  145.2090  133.2157  154.5459 H   0  0  0  0  0  0  0  0  0  0  0  0
  148.1942  134.1226  155.7574 H   0  0  0  0  0  0  0  0  0  0  0  0
  148.3367  133.9392  153.9987 H   0  0  0  0  0  0  0  0  0  0  0  0
  147.2891  132.8687  154.9208 H   0  0  0  0  0  0  0  0  0  0  0  0
  145.4221  138.8120  153.1853 H   0  0  0  0  0  0  0  0  0  0  0  0
  150.3366  137.5591  157.1457 H   0  0  0  0  0  0  0  0  0  0  0  0
  149.5752  140.4872  155.0969 H   0  0  0  0  0  0  0  0  0  0  0  0
  148.6596  140.6109  156.5774 H   0  0  0  0  0  0  0  0  0  0  0  0
  150.6521  139.5832  157.8158 H   0  0  0  0  0  0  0  0  0  0  0  0
  152.9192  139.9205  156.4962 H   0  0  0  0  0  0  0  0  0  0  0  0
  152.0130  138.4494  156.2379 H   0  0  0  0  0  0  0  0  0  0  0  0
  152.1062  138.9742  154.2695 H   0  0  0  0  0  0  0  0  0  0  0  0
  151.3335  142.1799  156.3899 H   0  0  0  0  0  0  0  0  0  0  0  0
  152.3359  140.8913  158.9084 H   0  0  0  0  0  0  0  0  0  0  0  0
  153.1291  142.0298  157.8240 H   0  0  0  0  0  0  0  0  0  0  0  0
  151.4721  142.5640  160.2116 H   0  0  0  0  0  0  0  0  0  0  0  0
  152.4615  143.7236  159.3184 H   0  0  0  0  0  0  0  0  0  0  0  0
  149.1481  142.6902  157.2569 H   0  0  0  0  0  0  0  0  0  0  0  0
  149.4156  141.7101  158.7080 H   0  0  0  0  0  0  0  0  0  0  0  0
  142.1250  135.3461  152.1009 H   0  0  0  0  0  0  0  0  0  0  0  0
  142.0665  134.9578  153.8249 H   0  0  0  0  0  0  0  0  0  0  0  0
  141.3426  133.8579  152.6498 H   0  0  0  0  0  0  0  0  0  0  0  0
  143.2433  133.7221  150.6238 H   0  0  0  0  0  0  0  0  0  0  0  0
  143.1588  132.1453  151.4083 H   0  0  0  0  0  0  0  0  0  0  0  0
  143.4566  133.0829  153.4242 H   0  0  0  0  0  0  0  0  0  0  0  0
  1  2  1  0  0  0  0
  1 32  1  0  0  0  0
  1 33  1  0  0  0  0
  1 34  1  0  0  0  0
  2  3  1  0  0  0  0
  3 30  1  0  0  0  0
  3 29  1  0  0  0  0
  3  4  1  0  0  0  0
  4  5  1  0  0  0  0
  4 35  1  0  0  0  0
  4 36  1  0  0  0  0
  5 31  1  0  0  0  0
  5  6  1  0  0  0  0
  5 27  1  0  0  0  0
  6  7  1  0  0  0  0
  6 37  1  0  0  0  0
  6 38  1  0  0  0  0
  7  8  1  0  0  0  0
  7  9  1  0  0  0  0
  8 39  1  0  0  0  0
  8 40  1  0  0  0  0
  8 41  1  0  0  0  0
  9 14  1  0  0  0  0
  9 10  2  0  0  0  0
 10 11  1  0  0  0  0
 11 12  2  0  0  0  0
 11 42  1  0  0  0  0
 12 13  1  0  0  0  0
 13 17  1  0  0  0  0
 13 14  2  0  0  0  0
 14 15  1  0  0  0  0
 15 16  2  0  0  0  0
 16 17  1  0  0  0  0
 16 43  1  0  0  0  0
 17 18  1  0  0  0  0
 18 19  1  0  0  0  0
 18 44  1  0  0  0  0
 18 45  1  0  0  0  0
 19 20  1  0  0  0  0
 19 22  1  0  0  0  0
 19 46  1  0  0  0  0
 20 21  1  0  0  0  0
 20 47  1  0  0  0  0
 20 48  1  0  0  0  0
 21 49  1  0  0  0  0
 22 26  1  0  0  0  0
 22 23  1  0  0  0  0
 22 50  1  0  0  0  0
 23 24  1  0  0  0  0
 23 51  1  0  0  0  0
 23 52  1  0  0  0  0
 24 25  1  0  0  0  0
 24 53  1  0  0  0  0
 24 54  1  0  0  0  0
 25 26  1  0  0  0  0
 26 55  1  0  0  0  0
 26 56  1  0  0  0  0
 27 28  1  0  0  0  0
 27 29  1  0  0  0  0
 27 62  1  0  0  0  0
 28 57  1  0  0  0  0
 28 58  1  0  0  0  0
 28 59  1  0  0  0  0
 29 60  1  0  0  0  0
 29 61  1  0  0  0  0
M  CHG  1  27   1
M  END
> <s_m_source_file>
AV-unprocessed.smi

> <i_m_source_file_index>
21

> <i_lp_mmshare_version>
43012

> <i_f3d_flags>
0

> <s_epik_input>
W0NIM11PW0NASF0xW0NIMl1bQ0BIXShOKFtDSDNdKVtDSDJdMSlbQ0gyXU4oW0NIM10pYyhuW2NIXW4yKWMoYzIzKW5bY0hdbjNbQ0gyXVtDQEhdKFtDSDJdW09IXSlbQ0BASF00W0NIMl1bQ0gyXU9bQ0gyXTQ=

> <s_epik_cmdline>
J2VwaWtfcHl0aG9uJywgJy1waCcsICc3LjAnLCAnLXRuJywgJzgnLCAnLW1hJywgJzIwMCcsICctbWV0YWxfYmluZGluZycsICctaW1hZScsICc8aW5maWxlLm1hZT4nLCAnLW9tYWUnLCAnPG91dGZpbGUubWFlPic=

> <r_lp_tautomer_probability>
1

> <r_epik_Ionization_Penalty>
0.0157465

> <r_epik_Ionization_Penalty_Charging>
0.015354

> <r_epik_Ionization_Penalty_Neutral>
0.000392529

> <r_epik_State_Penalty>
0.0120612

> <r_epik_Charging_Adjusted_Penalty>
0.0274152

> <i_epik_Tot_Q>
1

> <i_epik_Tot_abs_Q>
1

> <r_epik_Metal_State_Penalty>
0.0121253

> <b_epik_Metal_Only>
0

> <s_lp_Force_Field>
OPLS_2005

> <r_lp_Energy>
59.4837

> <b_lp_Chiralities_Consistent>
1

> <s_lp_Variant>
AV-unprocessed.smi:21-24

> <Gold.Version>
5.8.1

> <Gold.Id.Protein>
6NUR|6NUR_protein|mol2

> <Gold.PLP.Fitness>
42.2367

> <Gold.PLP.PLP>
-31.5241

> <Gold.PLP.part.hbond>
-1.9725

> <Gold.PLP.part.metal>
0.0000

> <Gold.PLP.part.buried>
-7.7305

> <Gold.PLP.part.nonpolar>
-22.7060

> <Gold.PLP.part.repulsive>
0.5172

> <Gold.PLP.ligand.clash>
0.0000

> <Gold.PLP.ligand.torsion>
0.9209

> <Gold.PLP.Chemscore.Hbond>
2.9920

> <Gold.PLP.Chemscore.CHOScore>
1.0000

> <Gold.PLP.Chemscore.Metal>
0.0000

> <Gold.Chemscore.Hbonds>
donor molecule, donor type, donor heavy atom, donor atom, acceptor molecule, acceptor atom, score
      L1  H    27    62       P1 10957  1.92
      P1  H  7989  7998       L1    21  0.96
      L1  C    11    42       P1 10175  1.00

> <Gold.PLP.Chemscore.Internal.Correction>
0.5785

> <Gold.Rescore>
     Score         DG    S(hbond)    S(metal)    S(lipo)     H(rot)  DE(clash)    DE(int)     intcor
     11.75     -14.29       1.89        0.00      88.67       3.08       0.10       2.44       ----

> <Gold.Chemscore.Fitness>
11.7481

> <Gold.Chemscore.DG>
-14.2890

> <Gold.Chemscore.ZeroCoef>
-5.4800

> <Gold.Chemscore.Hbond>
1.8888

> <Gold.Chemscore.Metal>
0.0000

> <Gold.Chemscore.Lipo>
88.6707

> <Gold.Chemscore.Internal_Hbond>
0.0000

> <Gold.Chemscore.DEClash>
0.1036

> <Gold.Chemscore.DEInternal>
2.4373

> <Gold.Chemscore.Rot>
3.0758

> <Gold.Chemscore.Internal.Correction>
   9.000000E+99

> <Gold.Chemscore.Hbonds>
donor molecule, donor type, donor heavy atom, donor atom, acceptor molecule, acceptor atom, score
      L1  H    27    62       P1 10957  0.80
      P1  H  7989  7998       L1    21  0.36

> <Gold.Chemscore.Hbond.Weighted>
-6.3086

> <Gold.Chemscore.Metal.Weighted>
-0.0000

> <Gold.Chemscore.Lipo.Weighted>
-10.3745

> <Gold.Chemscore.Internal_Hbond.Weighted>
0.0000

> <Gold.Chemscore.DEClash.Weighted>
0.1036

> <Gold.Chemscore.DEInternal.Weighted>
2.4373

> <Gold.Chemscore.Rot.Weighted>
7.8741

> <Gold.Chemscore.Internal.Correction.Weighted>
   9.000000E+99

> <Gold.Protein.RotatedTorsions>
[ 6907 6896 6895 6894 ] final  147.68 input  -60.11 | X-H torsion
[ 7974 7965 7964 7962 ] final   45.26 input  175.53 | X-H torsion
[ 8008 7997 7996 7995 ] final   47.16 input   59.86 | X-H torsion
[ 10167 10162 10161 10158 ] final -153.11 input  -65.29 | X-H torsion
[ 10718 10713 10712 10709 ] final  172.59 input   66.30 | X-H torsion
[ 10763 10752 10751 10750 ] final  -30.29 input  -60.55 | X-H torsion
[ 11005 11000 10999 10996 ] final -135.47 input  -57.11 | X-H torsion

> <Gold.Protein.ActiveResidues>
 VAL166  LYS551  ARG553  GLY616  TRP617  ASP618  TYR619  PRO620  LYS621  CYS622 
 ASP623  PHE694  ASN695  SER759  ASP760  ASP761  ALA762  ILE779  LEU786  VAL792 
 PHE793  MET794  SER795  GLU796  ALA797  LYS798  CYS799  TRP800  GLU811  SER814 

> <Gold.Protein.RotatedAtoms>
  152.1516  133.4525  159.4816 H   0  0  0  0  0  0  0  0  0  0  0  0  # atno 6907 bound_to 6896
  150.6896  134.2182  159.4395 H   0  0  0  0  0  0  0  0  0  0  0  0  # atno 6908 bound_to 6896
  152.0079  134.9892  160.0618 H   0  0  0  0  0  0  0  0  0  0  0  0  # atno 6909 bound_to 6896
  146.0496  139.4984  142.9727 H   0  0  0  0  0  0  0  0  0  0  0  0  # atno 7974 bound_to 7965
  155.3645  140.3420  155.4241 H   0  0  0  0  0  0  0  0  0  0  0  0  # atno 8008 bound_to 7997
  156.1696  140.1627  156.8506 H   0  0  0  0  0  0  0  0  0  0  0  0  # atno 8009 bound_to 7997
  154.5219  140.0765  156.8170 H   0  0  0  0  0  0  0  0  0  0  0  0  # atno 8010 bound_to 7997
  139.7124  143.9087  152.2473 H   0  0  0  0  0  0  0  0  0  0  0  0  # atno 10167 bound_to 10162
  156.9767  131.0106  151.2892 H   0  0  0  0  0  0  0  0  0  0  0  0  # atno 10718 bound_to 10713
  153.7785  135.6907  153.4893 H   0  0  0  0  0  0  0  0  0  0  0  0  # atno 10763 bound_to 10752
  153.1827  135.4500  155.0047 H   0  0  0  0  0  0  0  0  0  0  0  0  # atno 10764 bound_to 10752
  154.8091  135.3369  154.7290 H   0  0  0  0  0  0  0  0  0  0  0  0  # atno 10765 bound_to 10752
  140.8895  134.1830  157.4537 H   0  0  0  0  0  0  0  0  0  0  0  0  # atno 11005 bound_to 11000
  145.6747  141.0207  143.1639 LP  0  0  0  0  0  0  0  0  0  0  0  0  # atno 17320 bound_to 7965
  144.7115  139.8351  143.7413 LP  0  0  0  0  0  0  0  0  0  0  0  0  # atno 17321 bound_to 7965
  139.8960  144.6939  150.8718 LP  0  0  0  0  0  0  0  0  0  0  0  0  # atno 17342 bound_to 10162
  140.7736  143.3550  151.1939 LP  0  0  0  0  0  0  0  0  0  0  0  0  # atno 17343 bound_to 10162
  157.5555  130.8210  149.8198 LP  0  0  0  0  0  0  0  0  0  0  0  0  # atno 17370 bound_to 10713
  156.0261  130.3779  150.1820 LP  0  0  0  0  0  0  0  0  0  0  0  0  # atno 17371 bound_to 10713
  139.8728  134.9852  156.5273 LP  0  0  0  0  0  0  0  0  0  0  0  0  # atno 17394 bound_to 11000
  140.8364  133.8239  155.9033 LP  0  0  0  0  0  0  0  0  0  0  0  0  # atno 17395 bound_to 11000

$$$$
