AV-unprocessed.smi:2931|AV-procd|sdf|11242|dock4
  -GOLD-   2272016133D 1   1.00000     0.00000
 Structure written by MMmdl.
 42 43  0  0  0  0  0  0  0  0  2 V2000
  145.8645  135.5734  153.5742 C   0  0  0  0  0  0  0  0  0  0  0  0
  146.6835  136.7724  153.2950 N   0  3  1  0  0  0  0  0  0  0  0  0
  145.9059  137.8479  152.6304 C   0  0  0  0  0  0  0  0  0  0  0  0
  146.8178  139.0203  152.2330 C   0  0  0  0  0  0  0  0  0  0  0  0
  147.5838  139.5615  153.4482 C   0  0  0  0  0  0  0  0  0  0  0  0
  148.3475  138.4220  154.1475 C   0  0  1  0  0  0  0  0  0  0  0  0
  149.0003  138.9123  155.3572 N   0  0  0  0  0  0  0  0  0  0  0  0
  150.2885  139.2702  155.4468 C   0  0  0  0  0  0  0  0  0  0  0  0
  151.0925  139.1936  154.5181 O   0  0  0  0  0  0  0  0  0  0  0  0
  150.5889  139.7408  156.6647 N   0  0  0  0  0  0  0  0  0  0  0  0
  151.8926  140.2624  157.0650 C   0  0  0  0  0  0  0  0  0  0  0  0
  151.9483  140.6765  158.5500 C   0  0  0  0  0  0  0  0  0  0  0  0
  151.7964  142.1721  158.7716 C   0  0  0  0  0  0  0  0  0  0  0  0
  152.1479  142.7588  160.0054 C   0  0  0  0  0  0  0  0  0  0  0  0
  151.9970  144.1518  160.1542 C   0  0  0  0  0  0  0  0  0  0  0  0
  151.5336  144.9566  159.1738 N   0  0  0  0  0  0  0  0  0  0  0  0
  151.1976  144.3878  157.9961 C   0  0  0  0  0  0  0  0  0  0  0  0
  151.3095  143.0056  157.7439 C   0  0  0  0  0  0  0  0  0  0  0  0
  147.3927  137.2662  154.5016 C   0  0  0  0  0  0  0  0  0  0  0  0
  145.0697  135.7993  154.2862 H   0  0  0  0  0  0  0  0  0  0  0  0
  146.4804  134.7752  153.9897 H   0  0  0  0  0  0  0  0  0  0  0  0
  145.4075  135.1971  152.6584 H   0  0  0  0  0  0  0  0  0  0  0  0
  145.4170  137.4496  151.7405 H   0  0  0  0  0  0  0  0  0  0  0  0
  145.1160  138.1951  153.2986 H   0  0  0  0  0  0  0  0  0  0  0  0
  147.5260  138.6912  151.4714 H   0  0  0  0  0  0  0  0  0  0  0  0
  146.2260  139.8170  151.7810 H   0  0  0  0  0  0  0  0  0  0  0  0
  148.2732  140.3462  153.1337 H   0  0  0  0  0  0  0  0  0  0  0  0
  146.8824  140.0236  154.1447 H   0  0  0  0  0  0  0  0  0  0  0  0
  149.1043  138.0333  153.4628 H   0  0  0  0  0  0  0  0  0  0  0  0
  148.4224  139.0184  156.1781 H   0  0  0  0  0  0  0  0  0  0  0  0
  149.8575  139.7671  157.3602 H   0  0  0  0  0  0  0  0  0  0  0  0
  152.6235  139.4740  156.8835 H   0  0  0  0  0  0  0  0  0  0  0  0
  152.1770  141.0985  156.4247 H   0  0  0  0  0  0  0  0  0  0  0  0
  151.1657  140.1581  159.1047 H   0  0  0  0  0  0  0  0  0  0  0  0
  152.8916  140.3477  158.9878 H   0  0  0  0  0  0  0  0  0  0  0  0
  152.5284  142.1590  160.8193 H   0  0  0  0  0  0  0  0  0  0  0  0
  152.2579  144.6325  161.0854 H   0  0  0  0  0  0  0  0  0  0  0  0
  150.8301  145.0543  157.2302 H   0  0  0  0  0  0  0  0  0  0  0  0
  151.0307  142.5981  156.7832 H   0  0  0  0  0  0  0  0  0  0  0  0
  146.6625  137.5879  155.2463 H   0  0  0  0  0  0  0  0  0  0  0  0
  147.9601  136.4471  154.9461 H   0  0  0  0  0  0  0  0  0  0  0  0
  147.3961  136.4850  152.6392 H   0  0  0  0  0  0  0  0  0  0  0  0
  1  2  1  0  0  0  0
  1 20  1  0  0  0  0
  1 21  1  0  0  0  0
  1 22  1  0  0  0  0
  2 19  1  0  0  0  0
  2  3  1  0  0  0  0
  2 42  1  0  0  0  0
  3  4  1  0  0  0  0
  3 23  1  0  0  0  0
  3 24  1  0  0  0  0
  4  5  1  0  0  0  0
  4 25  1  0  0  0  0
  4 26  1  0  0  0  0
  5  6  1  0  0  0  0
  5 27  1  0  0  0  0
  5 28  1  0  0  0  0
  6  7  1  0  0  0  0
  6 19  1  0  0  0  0
  6 29  1  0  0  0  0
  7  8  1  0  0  0  0
  7 30  1  0  0  0  0
  8  9  2  0  0  0  0
  8 10  1  0  0  0  0
 10 11  1  0  0  0  0
 10 31  1  0  0  0  0
 11 12  1  0  0  0  0
 11 32  1  0  0  0  0
 11 33  1  0  0  0  0
 12 13  1  0  0  0  0
 12 34  1  0  0  0  0
 12 35  1  0  0  0  0
 13 18  1  0  0  0  0
 13 14  2  0  0  0  0
 14 15  1  0  0  0  0
 14 36  1  0  0  0  0
 15 16  2  0  0  0  0
 15 37  1  0  0  0  0
 16 17  1  0  0  0  0
 17 18  2  0  0  0  0
 17 38  1  0  0  0  0
 18 39  1  0  0  0  0
 19 40  1  0  0  0  0
 19 41  1  0  0  0  0
M  CHG  1   2   1
M  END
> <s_m_source_file>
AV-unprocessed.smi

> <i_m_source_file_index>
2931

> <i_lp_mmshare_version>
43012

> <i_f3d_flags>
0

> <s_epik_input>
W0NIM11OMVtDSDJdW0NIMl1bQ0gyXVtDQEhdKFtDSDJdMSlbTkhdQyg9TylbTkhdW0NIMl1bQ0gyXWMyW2NIXVtjSF1uW2NIXVtjSF0y

> <s_epik_cmdline>
J2VwaWtfcHl0aG9uJywgJy1waCcsICc3LjAnLCAnLXRuJywgJzgnLCAnLW1hJywgJzIwMCcsICctbWV0YWxfYmluZGluZycsICctaW1hZScsICc8aW5maWxlLm1hZT4nLCAnLW9tYWUnLCAnPG91dGZpbGUubWFlPic=

> <r_epik_Ionization_Penalty>
0.0573876

> <r_epik_Ionization_Penalty_Charging>
0.00229982

> <r_epik_Ionization_Penalty_Neutral>
0.0550878

> <r_epik_State_Penalty>
0.0473925

> <r_epik_Charging_Adjusted_Penalty>
0.0496923

> <i_epik_Tot_Q>
1

> <i_epik_Tot_abs_Q>
1

> <r_epik_Metal_State_Penalty>
0.0433388

> <b_epik_Metal_Only>
0

> <s_lp_Force_Field>
OPLS_2005

> <r_lp_Energy>
13.6108

> <b_lp_Chiralities_Consistent>
1

> <s_lp_Variant>
AV-unprocessed.smi:2931-1

> <Gold.Version>
5.8.1

> <Gold.Id.Protein>
6NUR|6NUR_protein|mol2

> <Gold.PLP.Fitness>
42.1663

> <Gold.PLP.PLP>
-31.6914

> <Gold.PLP.part.hbond>
-2.0000

> <Gold.PLP.part.metal>
0.0000

> <Gold.PLP.part.buried>
-1.4130

> <Gold.PLP.part.nonpolar>
-28.3059

> <Gold.PLP.part.repulsive>
0.2954

> <Gold.PLP.ligand.clash>
0.0000

> <Gold.PLP.ligand.torsion>
0.7731

> <Gold.PLP.Chemscore.Hbond>
3.0000

> <Gold.PLP.Chemscore.CHOScore>
1.0000

> <Gold.PLP.Chemscore.Metal>
0.0000

> <Gold.Chemscore.Hbonds>
donor molecule, donor type, donor heavy atom, donor atom, acceptor molecule, acceptor atom, score
      L1  H     2    42       P1  7948  2.00
      P1  H  7989  7998       L1     9  1.00
      L1  C    17    38       P1  8028  1.00

> <Gold.PLP.Chemscore.Internal.Correction>
0.0211

> <Gold.Rescore>
     Score         DG    S(hbond)    S(metal)    S(lipo)     H(rot)  DE(clash)    DE(int)     intcor
     18.95     -19.67       1.98        0.00      98.83       1.56       0.08       0.63       ----

> <Gold.Chemscore.Fitness>
18.9500

> <Gold.Chemscore.DG>
-19.6662

> <Gold.Chemscore.ZeroCoef>
-5.4800

> <Gold.Chemscore.Hbond>
1.9803

> <Gold.Chemscore.Metal>
0.0000

> <Gold.Chemscore.Lipo>
98.8323

> <Gold.Chemscore.Internal_Hbond>
0.0000

> <Gold.Chemscore.DEClash>
0.0848

> <Gold.Chemscore.DEInternal>
0.6314

> <Gold.Chemscore.Rot>
1.5592

> <Gold.Chemscore.Internal.Correction>
   9.000000E+99

> <Gold.Chemscore.Hbonds>
donor molecule, donor type, donor heavy atom, donor atom, acceptor molecule, acceptor atom, score
      L1  H     2    42       P1  7948  1.00
      P1  H  7989  7998       L1     9  0.92

> <Gold.Chemscore.Hbond.Weighted>
-6.6143

> <Gold.Chemscore.Metal.Weighted>
-0.0000

> <Gold.Chemscore.Lipo.Weighted>
-11.5634

> <Gold.Chemscore.Internal_Hbond.Weighted>
0.0000

> <Gold.Chemscore.DEClash.Weighted>
0.0848

> <Gold.Chemscore.DEInternal.Weighted>
0.6314

> <Gold.Chemscore.Rot.Weighted>
3.9915

> <Gold.Chemscore.Internal.Correction.Weighted>
   9.000000E+99

> <Gold.Protein.RotatedTorsions>
[ 6907 6896 6895 6894 ] final  162.02 input  -60.11 | X-H torsion
[ 7974 7965 7964 7962 ] final   45.77 input  175.53 | X-H torsion
[ 8008 7997 7996 7995 ] final  130.64 input   59.86 | X-H torsion
[ 10167 10162 10161 10158 ] final -147.64 input  -65.29 | X-H torsion
[ 10718 10713 10712 10709 ] final  -55.40 input   66.30 | X-H torsion
[ 10763 10752 10751 10750 ] final   39.22 input  -60.55 | X-H torsion
[ 11005 11000 10999 10996 ] final  171.27 input  -57.11 | X-H torsion

> <Gold.Protein.ActiveResidues>
 VAL166  LYS551  ARG553  GLY616  TRP617  ASP618  TYR619  PRO620  LYS621  CYS622 
 ASP623  PHE694  ASN695  SER759  ASP760  ASP761  ALA762  ILE779  LEU786  VAL792 
 PHE793  MET794  SER795  GLU796  ALA797  LYS798  CYS799  TRP800  GLU811  SER814 

> <Gold.Protein.RotatedAtoms>
  151.9468  133.3654  159.3985 H   0  0  0  0  0  0  0  0  0  0  0  0  # atno 6907 bound_to 6896
  150.6988  134.4382  159.5289 H   0  0  0  0  0  0  0  0  0  0  0  0  # atno 6908 bound_to 6896
  152.2048  134.8555  160.0555 H   0  0  0  0  0  0  0  0  0  0  0  0  # atno 6909 bound_to 6896
  146.0450  139.4928  142.9754 H   0  0  0  0  0  0  0  0  0  0  0  0  # atno 7974 bound_to 7965
  156.2957  140.2591  156.2794 H   0  0  0  0  0  0  0  0  0  0  0  0  # atno 8008 bound_to 7997
  154.9617  140.0392  157.2211 H   0  0  0  0  0  0  0  0  0  0  0  0  # atno 8009 bound_to 7997
  154.7941  140.2817  155.5974 H   0  0  0  0  0  0  0  0  0  0  0  0  # atno 8010 bound_to 7997
  139.7603  143.8386  152.2606 H   0  0  0  0  0  0  0  0  0  0  0  0  # atno 10167 bound_to 10162
  156.1372  130.4156  150.0165 H   0  0  0  0  0  0  0  0  0  0  0  0  # atno 10718 bound_to 10713
  152.9974  135.6227  154.2430 H   0  0  0  0  0  0  0  0  0  0  0  0  # atno 10763 bound_to 10752
  154.2170  135.2797  155.2940 H   0  0  0  0  0  0  0  0  0  0  0  0  # atno 10764 bound_to 10752
  154.5560  135.5719  153.7023 H   0  0  0  0  0  0  0  0  0  0  0  0  # atno 10765 bound_to 10752
  140.3172  134.7468  157.4036 H   0  0  0  0  0  0  0  0  0  0  0  0  # atno 11005 bound_to 11000
  145.6821  141.0188  143.1601 LP  0  0  0  0  0  0  0  0  0  0  0  0  # atno 17320 bound_to 7965
  144.7093  139.8433  143.7420 LP  0  0  0  0  0  0  0  0  0  0  0  0  # atno 17321 bound_to 7965
  139.8390  144.7218  150.9354 LP  0  0  0  0  0  0  0  0  0  0  0  0  # atno 17342 bound_to 10162
  140.7806  143.4000  151.1165 LP  0  0  0  0  0  0  0  0  0  0  0  0  # atno 17343 bound_to 10162
  156.8061  130.9308  151.3645 LP  0  0  0  0  0  0  0  0  0  0  0  0  # atno 17370 bound_to 10713
  157.6543  130.8911  149.9696 LP  0  0  0  0  0  0  0  0  0  0  0  0  # atno 17371 bound_to 10713
  140.0973  134.5519  155.8386 LP  0  0  0  0  0  0  0  0  0  0  0  0  # atno 17394 bound_to 11000
  141.2095  133.6684  156.6443 LP  0  0  0  0  0  0  0  0  0  0  0  0  # atno 17395 bound_to 11000

$$$$
