#       Name:                AV-unprocessed.smi:65
#       Creating user name   scv26
#       Creation time:       Thu Mar 26 16:50:43 2020


#       File generated by GOLD software.
#

@<TRIPOS>MOLECULE
AV-unprocessed.smi:65
    30    31     1
SMALL
NO_CHARGES


@<TRIPOS>ATOM
      1 ****        -3.0647   1.8334   0.1046 N.pl3          1 S1                 0.0000
      2 ****        -2.5014   0.5797   0.1092 C.ar           1 S1                 0.0000
      3 ****        -3.3100  -0.4872   0.1902 N.pl3          1 S1                 1.0000
      4 ****        -2.7744  -1.7326   0.1957 C.ar           1 S1                 0.0000
      5 ****        -1.3805  -1.9068   0.1140 C.ar           1 S1                 0.0000
      6 ****        -0.5968  -0.7431   0.0268 C.ar           1 S1                 0.0000
      7 ****         0.8006  -0.8495  -0.0441 N.3            1 S1                 0.0000
      8 ****         1.4956  -0.3898   1.1560 C.3            1 S1                 0.0000
      9 ****         2.4406   0.7283   0.7117 C.3            1 S1                 0.0000
     10 ****         2.7522   0.3399  -0.7281 C.3            1 S1                 0.0000
     11 ****         3.1807   1.4376  -1.5049 O.3            1 S1                 0.0000
     12 ****         1.4178  -0.2258  -1.2130 C.3            1 S1                 0.0000
     13 ****        -1.1696   0.4830   0.0325 N.ar           1 S1                 0.0000
     14 ****        -2.4805   2.6551   0.0445 H              1 S1                 0.0000
     15 ****        -4.0680   1.9470   0.1144 H              1 S1                 0.0000
     16 ****        -3.4788  -2.5487   0.2660 H              1 S1                 0.0000
     17 ****        -0.9352  -2.8912   0.1185 H              1 S1                 0.0000
     18 ****         0.8181  -0.0511   1.9415 H              1 S1                 0.0000
     19 ****         2.0665  -1.2280   1.5569 H              1 S1                 0.0000
     20 ****         1.9140   1.6837   0.7410 H              1 S1                 0.0000
     21 ****         3.3295   0.8098   1.3380 H              1 S1                 0.0000
     22 ****         3.5144  -0.4408  -0.7443 H              1 S1                 0.0000
     23 ****         3.9990   1.7543  -1.1532 H              1 S1                 0.0000
     24 ****         1.5627  -0.9548  -2.0105 H              1 S1                 0.0000
     25 ****         0.7916   0.5739  -1.6111 H              1 S1                 0.0000
     26 ****        -4.3226  -0.3755   0.2488 H              1 S1                 0.0000
     27 ****         0.9191  -1.8386  -0.1315 LP             1 S1                 0.0000
     28 ****         2.4947   2.1642  -1.4688 LP             1 S1                 0.0000
     29 ****         3.3108   1.1489  -2.4535 LP             1 S1                 0.0000
     30 ****        -0.6043   1.3062  -0.0200 LP             1 S1                 0.0000
@<TRIPOS>BOND
    1    1    2 1     
    2    1   14 1     
    3    1   15 1     
    4    2   13 ar    
    5    2    3 ar    
    6    3    4 ar    
    7    3   26 1     
    8    4    5 ar    
    9    4   16 1     
   10    5    6 ar    
   11    5   17 1     
   12    6    7 1     
   13    6   13 ar    
   14    7   12 1     
   15    7    8 1     
   16    8    9 1     
   17    8   18 1     
   18    8   19 1     
   19    9   10 1     
   20    9   20 1     
   21    9   21 1     
   22   10   11 1     
   23   10   12 1     
   24   10   22 1     
   25   11   23 1     
   26   12   24 1     
   27   12   25 1     
   28    7   27 1     
   29   11   28 1     
   30   11   29 1     
   31   13   30 1     
@<TRIPOS>SUBSTRUCTURE
      1 S1             1
@<TRIPOS>SET
LONE_PAIRS      STATIC     ATOMS    <user>   **** ""
4 27 28 29 30
DONOR_HYDROGENS      STATIC     ATOMS    <user>   **** ""
4 14 15 26 23
ATOM$BLUE        STATIC     ATOMS    COLORGROUP SYSTEM
4 27 28 29 30
ATOM$RED        STATIC     ATOMS    COLORGROUP SYSTEM
4 14 15 26 23
