AV-unprocessed.smi:938|AV-procd|sdf|4217|dock7
  -GOLD-   22720 2123D 1   1.00000     0.00000
 Structure written by MMmdl.
 42 43  0  0  0  0  0  0  0  0  1 V2000
  157.0002  136.9167  165.2926 C   0  0  0  0  0  0  0  0  0  0  0  0
  157.5571  138.3441  165.2152 C   0  0  0  0  0  0  0  0  0  0  0  0
  157.6156  139.0121  166.5959 C   0  0  0  0  0  0  0  0  0  0  0  0
  156.7267  139.1425  164.3179 N   0  0  0  0  0  0  0  0  0  0  0  0
  156.4723  138.8775  163.0243 C   0  0  0  0  0  0  0  0  0  0  0  0
  156.9350  137.9047  162.4270 O   0  0  0  0  0  0  0  0  0  0  0  0
  155.5981  139.8752  162.3112 C   0  0  0  0  0  0  0  0  0  0  0  0
  155.1643  139.6213  160.9914 C   0  0  0  0  0  0  0  0  0  0  0  0
  154.3433  140.5797  160.3735 C   0  0  0  0  0  0  0  0  0  0  0  0
  154.0087  141.7282  161.1153 C   0  0  0  0  0  0  0  0  0  0  0  0
  153.1956  142.7091  160.5312 N   0  0  0  0  0  0  0  0  0  0  0  0
  152.2201  143.2762  161.4508 C   0  0  0  0  0  0  0  0  0  0  0  0
  151.4933  144.4509  160.7799 C   0  0  0  0  0  0  0  0  0  0  0  0
  150.9142  144.0270  159.5460 O   0  0  0  0  0  0  0  0  0  0  0  0
  151.8293  143.4555  158.6031 C   0  0  0  0  0  0  0  0  0  0  0  0
  150.9581  142.9176  157.4573 C   0  0  0  0  0  0  0  0  0  0  0  0
  152.7919  144.5274  158.0482 C   0  0  0  0  0  0  0  0  0  0  0  0
  152.5880  142.2867  159.2753 C   0  0  0  0  0  0  0  0  0  0  0  0
  154.4510  141.9180  162.3828 N   0  0  0  0  0  0  0  0  0  0  0  0
  155.2307  141.0042  162.9703 N   0  0  0  0  0  0  0  0  0  0  0  0
  157.6151  136.2906  165.9397 H   0  0  0  0  0  0  0  0  0  0  0  0
  156.9799  136.4504  164.3070 H   0  0  0  0  0  0  0  0  0  0  0  0
  155.9836  136.9070  165.6874 H   0  0  0  0  0  0  0  0  0  0  0  0
  158.5763  138.2808  164.8307 H   0  0  0  0  0  0  0  0  0  0  0  0
  158.2463  138.4436  167.2799 H   0  0  0  0  0  0  0  0  0  0  0  0
  156.6239  139.0886  167.0432 H   0  0  0  0  0  0  0  0  0  0  0  0
  158.0290  140.0191  166.5277 H   0  0  0  0  0  0  0  0  0  0  0  0
  156.3047  139.9720  164.7106 H   0  0  0  0  0  0  0  0  0  0  0  0
  155.4486  138.7238  160.4615 H   0  0  0  0  0  0  0  0  0  0  0  0
  153.9846  140.4375  159.3646 H   0  0  0  0  0  0  0  0  0  0  0  0
  151.4979  142.5115  161.7407 H   0  0  0  0  0  0  0  0  0  0  0  0
  152.7179  143.6128  162.3610 H   0  0  0  0  0  0  0  0  0  0  0  0
  150.6991  144.8164  161.4306 H   0  0  0  0  0  0  0  0  0  0  0  0
  152.1710  145.2897  160.6202 H   0  0  0  0  0  0  0  0  0  0  0  0
  151.5658  142.4458  156.6845 H   0  0  0  0  0  0  0  0  0  0  0  0
  150.3859  143.7180  156.9869 H   0  0  0  0  0  0  0  0  0  0  0  0
  150.2457  142.1744  157.8170 H   0  0  0  0  0  0  0  0  0  0  0  0
  153.4102  144.1192  157.2482 H   0  0  0  0  0  0  0  0  0  0  0  0
  153.4717  144.9108  158.8085 H   0  0  0  0  0  0  0  0  0  0  0  0
  152.2423  145.3757  157.6392 H   0  0  0  0  0  0  0  0  0  0  0  0
  153.3541  141.8963  158.6035 H   0  0  0  0  0  0  0  0  0  0  0  0
  151.8970  141.4662  159.4770 H   0  0  0  0  0  0  0  0  0  0  0  0
  1  2  1  0  0  0  0
  1 21  1  0  0  0  0
  1 22  1  0  0  0  0
  1 23  1  0  0  0  0
  2  3  1  0  0  0  0
  2  4  1  0  0  0  0
  2 24  1  0  0  0  0
  3 25  1  0  0  0  0
  3 26  1  0  0  0  0
  3 27  1  0  0  0  0
  4  5  1  0  0  0  0
  4 28  1  0  0  0  0
  5  6  2  0  0  0  0
  5  7  1  0  0  0  0
  7 20  1  0  0  0  0
  7  8  2  0  0  0  0
  8  9  1  0  0  0  0
  8 29  1  0  0  0  0
  9 10  2  0  0  0  0
  9 30  1  0  0  0  0
 10 11  1  0  0  0  0
 10 19  1  0  0  0  0
 11 18  1  0  0  0  0
 11 12  1  0  0  0  0
 12 13  1  0  0  0  0
 12 31  1  0  0  0  0
 12 32  1  0  0  0  0
 13 14  1  0  0  0  0
 13 33  1  0  0  0  0
 13 34  1  0  0  0  0
 14 15  1  0  0  0  0
 15 16  1  0  0  0  0
 15 17  1  0  0  0  0
 15 18  1  0  0  0  0
 16 35  1  0  0  0  0
 16 36  1  0  0  0  0
 16 37  1  0  0  0  0
 17 38  1  0  0  0  0
 17 39  1  0  0  0  0
 17 40  1  0  0  0  0
 18 41  1  0  0  0  0
 18 42  1  0  0  0  0
 19 20  2  0  0  0  0
M  END
> <s_m_source_file>
AV-unprocessed.smi

> <i_m_source_file_index>
938

> <i_lp_mmshare_version>
43012

> <i_f3d_flags>
0

> <s_epik_input>
W0NIM11bQ0hdKFtDSDNdKVtOSF1DKD1PKWMxW2NIXVtjSF1jKG5uMSlOKFtDSDJdMilbQ0gyXVtDSDJdT0MyKFtDSDNdKVtDSDNd

> <s_epik_cmdline>
J2VwaWtfcHl0aG9uJywgJy1waCcsICc3LjAnLCAnLXRuJywgJzgnLCAnLW1hJywgJzIwMCcsICctbWV0YWxfYmluZGluZycsICctaW1hZScsICc8aW5maWxlLm1hZT4nLCAnLW9tYWUnLCAnPG91dGZpbGUubWFlPic=

> <r_lp_tautomer_probability>
1

> <r_epik_Ionization_Penalty>
1.44833e-06

> <r_epik_Ionization_Penalty_Charging>
0

> <r_epik_Ionization_Penalty_Neutral>
1.44833e-06

> <r_epik_State_Penalty>
-0

> <r_epik_Charging_Adjusted_Penalty>
0

> <i_epik_Tot_Q>
0

> <i_epik_Tot_abs_Q>
0

> <r_epik_Metal_State_Penalty>
-0

> <b_epik_Metal_Only>
0

> <s_lp_Force_Field>
OPLS_2005

> <r_lp_Energy>
32.4644

> <b_lp_Chiralities_Consistent>
1

> <s_lp_Variant>
AV-unprocessed.smi:938-1

> <Gold.Version>
5.8.1

> <Gold.Id.Protein>
6NUR|6NUR_protein|mol2

> <Gold.PLP.Fitness>
33.2076

> <Gold.PLP.PLP>
-36.3235

> <Gold.PLP.part.hbond>
-2.0000

> <Gold.PLP.part.metal>
0.0000

> <Gold.PLP.part.buried>
-3.5891

> <Gold.PLP.part.nonpolar>
-29.8306

> <Gold.PLP.part.repulsive>
0.0913

> <Gold.PLP.ligand.clash>
2.3896

> <Gold.PLP.ligand.torsion>
0.4130

> <Gold.PLP.Chemscore.Hbond>
0.0000

> <Gold.PLP.Chemscore.CHOScore>
0.0000

> <Gold.PLP.Chemscore.Metal>
0.0000

> <Gold.PLP.Chemscore.Internal.Correction>
0.0997

> <Gold.Rescore>
     Score         DG    S(hbond)    S(metal)    S(lipo)     H(rot)  DE(clash)    DE(int)     intcor
     13.85     -14.33       0.00        0.00     101.37       1.17       0.13       0.36       ----

> <Gold.Chemscore.Fitness>
13.8497

> <Gold.Chemscore.DG>
-14.3331

> <Gold.Chemscore.ZeroCoef>
-5.4800

> <Gold.Chemscore.Hbond>
0.0000

> <Gold.Chemscore.Metal>
0.0000

> <Gold.Chemscore.Lipo>
101.3737

> <Gold.Chemscore.Internal_Hbond>
0.0000

> <Gold.Chemscore.DEClash>
0.1257

> <Gold.Chemscore.DEInternal>
0.3577

> <Gold.Chemscore.Rot>
1.1749

> <Gold.Chemscore.Internal.Correction>
   9.000000E+99

> <Gold.Chemscore.Hbond.Weighted>
-0.0000

> <Gold.Chemscore.Metal.Weighted>
-0.0000

> <Gold.Chemscore.Lipo.Weighted>
-11.8607

> <Gold.Chemscore.Internal_Hbond.Weighted>
0.0000

> <Gold.Chemscore.DEClash.Weighted>
0.1257

> <Gold.Chemscore.DEInternal.Weighted>
0.3577

> <Gold.Chemscore.Rot.Weighted>
3.0076

> <Gold.Chemscore.Internal.Correction.Weighted>
   9.000000E+99

> <Gold.Protein.RotatedTorsions>
[ 6907 6896 6895 6894 ] final -134.76 input  -60.11 | X-H torsion
[ 7974 7965 7964 7962 ] final -100.57 input  175.53 | X-H torsion
[ 8008 7997 7996 7995 ] final  116.21 input   59.86 | X-H torsion
[ 10167 10162 10161 10158 ] final  166.83 input  -65.29 | X-H torsion
[ 10718 10713 10712 10709 ] final  117.46 input   66.30 | X-H torsion
[ 10763 10752 10751 10750 ] final   50.19 input  -60.55 | X-H torsion
[ 11005 11000 10999 10996 ] final  -76.90 input  -57.11 | X-H torsion

> <Gold.Protein.ActiveResidues>
 VAL166  LYS551  ARG553  GLY616  TRP617  ASP618  TYR619  PRO620  LYS621  CYS622 
 ASP623  PHE694  ASN695  SER759  ASP760  ASP761  ALA762  ILE779  LEU786  VAL792 
 PHE793  MET794  SER795  GLU796  ALA797  LYS798  CYS799  TRP800  GLU811  SER814 

> <Gold.Protein.RotatedAtoms>
  150.9897  133.6162  159.2709 H   0  0  0  0  0  0  0  0  0  0  0  0  # atno 6907 bound_to 6896
  151.3387  135.0857  159.9373 H   0  0  0  0  0  0  0  0  0  0  0  0  # atno 6908 bound_to 6896
  152.5242  133.9513  159.7727 H   0  0  0  0  0  0  0  0  0  0  0  0  # atno 6909 bound_to 6896
  145.2929  140.9357  143.2868 H   0  0  0  0  0  0  0  0  0  0  0  0  # atno 7974 bound_to 7965
  156.2426  140.2922  156.0488 H   0  0  0  0  0  0  0  0  0  0  0  0  # atno 8008 bound_to 7997
  155.1904  140.0406  157.2916 H   0  0  0  0  0  0  0  0  0  0  0  0  # atno 8009 bound_to 7997
  154.6198  140.2473  155.7570 H   0  0  0  0  0  0  0  0  0  0  0  0  # atno 8010 bound_to 7997
  139.4932  144.3986  151.9436 H   0  0  0  0  0  0  0  0  0  0  0  0  # atno 10167 bound_to 10162
  157.6095  131.1037  150.7618 H   0  0  0  0  0  0  0  0  0  0  0  0  # atno 10718 bound_to 10713
  152.9785  135.5887  154.4212 H   0  0  0  0  0  0  0  0  0  0  0  0  # atno 10763 bound_to 10752
  154.3836  135.2767  155.2198 H   0  0  0  0  0  0  0  0  0  0  0  0  # atno 10764 bound_to 10752
  154.4101  135.6083  153.6002 H   0  0  0  0  0  0  0  0  0  0  0  0  # atno 10765 bound_to 10752
  141.1657  133.7001  156.7739 H   0  0  0  0  0  0  0  0  0  0  0  0  # atno 11005 bound_to 11000
  144.9158  139.4472  143.6565 LP  0  0  0  0  0  0  0  0  0  0  0  0  # atno 17320 bound_to 7965
  146.3179  139.7991  142.8969 LP  0  0  0  0  0  0  0  0  0  0  0  0  # atno 17321 bound_to 7965
  140.3424  144.3187  150.5964 LP  0  0  0  0  0  0  0  0  0  0  0  0  # atno 17342 bound_to 10162
  140.5554  143.2200  151.7856 LP  0  0  0  0  0  0  0  0  0  0  0  0  # atno 17343 bound_to 10162
  156.7999  130.4917  149.5371 LP  0  0  0  0  0  0  0  0  0  0  0  0  # atno 17370 bound_to 10713
  156.1192  130.6098  151.0168 LP  0  0  0  0  0  0  0  0  0  0  0  0  # atno 17371 bound_to 10713
  140.2444  134.8589  157.3605 LP  0  0  0  0  0  0  0  0  0  0  0  0  # atno 17394 bound_to 11000
  140.1764  134.4544  155.7799 LP  0  0  0  0  0  0  0  0  0  0  0  0  # atno 17395 bound_to 11000

$$$$
