#       Name:                AV-unprocessed.smi:2547
#       Creating user name   scv26
#       Creation time:       Fri Mar 27 14:05:22 2020


#       File generated by GOLD software.
#

@<TRIPOS>MOLECULE
AV-unprocessed.smi:2547
    47    48     1
SMALL
NO_CHARGES


@<TRIPOS>ATOM
      1 ****        -0.7190  -6.0252  -0.0001 C.3            1 S1                 0.0000
      2 ****        -1.4335  -4.7305  -0.0001 N.4            1 S1                 1.0000
      3 ****        -1.1749  -3.9428  -1.2310 C.3            1 S1                 0.0000
      4 ****        -2.0313  -2.6635  -1.2605 C.3            1 S1                 0.0000
      5 ****        -1.8282  -1.8041   0.0001 C.3            1 S1                 0.0000
      6 ****        -0.4963  -1.1975  -0.0000 N.am           1 S1                 0.0000
      7 ****        -0.2116   0.1135  -0.0001 C.2            1 S1                 0.0000
      8 ****        -1.1009   0.9698  -0.0003 O.2            1 S1                 0.0000
      9 ****         1.1679   0.2889  -0.0001 N.2            1 S1                 0.0000
     10 ****         1.7305   1.4629  -0.0001 C.2            1 S1                 0.0000
     11 ****         3.1799   1.5686  -0.0000 C.2            1 S1                 0.0000
     12 ****         3.7897   2.7715   0.0002 C.2            1 S1                 0.0000
     13 ****         3.0212   3.9988   0.0002 C.2            1 S1                 0.0000
     14 ****         1.6760   3.9403  -0.0000 C.2            1 S1                 0.0000
     15 ****         0.9470   5.1139  -0.0000 N.pl3          1 S1                 0.0000
     16 ****         1.6031   6.4105   0.0002 C.3            1 S1                 0.0000
     17 ****        -0.4757   5.1195  -0.2959 C.3            1 S1                 0.0000
     18 ****         1.0496   2.6952  -0.0001 N.pl3          1 S1                 0.0000
     19 ****        -2.0314  -2.6634   1.2605 C.3            1 S1                 0.0000
     20 ****        -1.1750  -3.9428   1.2310 C.3            1 S1                 0.0000
     21 ****         0.3618  -5.8763  -0.0000 H              1 S1                 0.0000
     22 ****        -0.9843  -6.6113  -0.8805 H              1 S1                 0.0000
     23 ****        -0.9843  -6.6114   0.8805 H              1 S1                 0.0000
     24 ****        -0.1147  -3.6918  -1.2895 H              1 S1                 0.0000
     25 ****        -1.4029  -4.5506  -2.1074 H              1 S1                 0.0000
     26 ****        -1.8066  -2.0810  -2.1551 H              1 S1                 0.0000
     27 ****        -3.0835  -2.9417  -1.3370 H              1 S1                 0.0000
     28 ****        -2.5903  -1.0234  -0.0000 H              1 S1                 0.0000
     29 ****         0.2876  -1.8338   0.0001 H              1 S1                 0.0000
     30 ****         3.8067   0.6885   0.0001 H              1 S1                 0.0000
     31 ****         4.8686   2.8217   0.0002 H              1 S1                 0.0000
     32 ****         3.5305   4.9518   0.0003 H              1 S1                 0.0000
     33 ****         2.5909   6.3443   0.4572 H              1 S1                 0.0000
     34 ****         1.0197   7.1408   0.5617 H              1 S1                 0.0000
     35 ****         1.7222   6.7740  -1.0207 H              1 S1                 0.0000
     36 ****        -0.9270   4.1590  -0.0443 H              1 S1                 0.0000
     37 ****        -0.6401   5.3068  -1.3572 H              1 S1                 0.0000
     38 ****        -0.9882   5.8934   0.2757 H              1 S1                 0.0000
     39 ****        -1.8065  -2.0810   2.1551 H              1 S1                 0.0000
     40 ****        -3.0834  -2.9417   1.3370 H              1 S1                 0.0000
     41 ****        -1.4029  -4.5506   2.1074 H              1 S1                 0.0000
     42 ****        -0.1146  -3.6918   1.2895 H              1 S1                 0.0000
     43 ****        -2.4197  -4.9489  -0.0000 H              1 S1                 0.0000
     44 ****         0.0399   2.7185  -0.0002 H              1 S1                 0.0000
     45 ****        -2.0618   0.6928  -0.0004 LP             1 S1                 0.0000
     46 ****        -0.8604   1.9405  -0.0004 LP             1 S1                 0.0000
     47 ****         1.7531  -0.5219  -0.0001 LP             1 S1                 0.0000
@<TRIPOS>BOND
    1    1    2 1     
    2    1   21 1     
    3    1   22 1     
    4    1   23 1     
    5    2   20 1     
    6    2    3 1     
    7    2   43 1     
    8    3    4 1     
    9    3   24 1     
   10    3   25 1     
   11    4    5 1     
   12    4   26 1     
   13    4   27 1     
   14    5    6 1     
   15    5   19 1     
   16    5   28 1     
   17    6    7 am    
   18    6   29 1     
   19    7    8 2     
   20    7    9 1     
   21    9   10 2     
   22   10   18 1     
   23   10   11 1     
   24   11   12 2     
   25   11   30 1     
   26   12   13 1     
   27   12   31 1     
   28   13   14 2     
   29   13   32 1     
   30   14   15 1     
   31   14   18 1     
   32   15   16 1     
   33   15   17 1     
   34   16   33 1     
   35   16   34 1     
   36   16   35 1     
   37   17   36 1     
   38   17   37 1     
   39   17   38 1     
   40   18   44 1     
   41   19   20 1     
   42   19   39 1     
   43   19   40 1     
   44   20   41 1     
   45   20   42 1     
   46    8   45 1     
   47    8   46 1     
   48    9   47 1     
@<TRIPOS>SUBSTRUCTURE
      1 S1             1
@<TRIPOS>SET
LONE_PAIRS      STATIC     ATOMS    <user>   **** ""
3 45 46 47
DONOR_HYDROGENS      STATIC     ATOMS    <user>   **** ""
3 43 29 44
ATOM$BLUE        STATIC     ATOMS    COLORGROUP SYSTEM
3 45 46 47
ATOM$RED        STATIC     ATOMS    COLORGROUP SYSTEM
3 43 29 44
