AV-unprocessed.smi:246|AV-procd|sdf|1880|dock9
  -GOLD-   2262020523D 1   1.00000     0.00000
 Structure written by MMmdl.
 57 60  0  0  0  0  0  0  0  0  1 V2000
  151.7777  145.5509  159.8559 C   0  0  0  0  0  0  0  0  0  0  0  0
  152.0359  144.7503  158.5722 C   0  0  0  0  0  0  0  0  0  0  0  0
  151.1995  143.6053  158.4853 O   0  0  0  0  0  0  0  0  0  0  0  0
  151.6860  142.4688  159.1849 C   0  0  0  0  0  0  0  0  0  0  0  0
  150.9680  141.2231  158.6582 C   0  0  0  0  0  0  0  0  0  0  0  0
  151.0020  141.2328  157.2388 O   0  0  0  0  0  0  0  0  0  0  0  0
  149.7204  141.3537  156.6384 C   0  0  1  0  0  0  0  0  0  0  0  0
  149.7622  141.2412  155.1158 C   0  0  0  0  0  0  0  0  0  0  0  0
  148.3499  140.7689  154.7807 C   0  0  0  0  0  0  0  0  0  0  0  0
  147.9153  139.9508  155.9101 N   0  0  0  0  0  0  0  0  0  0  0  0
  147.6873  138.6399  155.6665 C   0  0  0  0  0  0  0  0  0  0  0  0
  148.1815  137.6900  156.5046 N   0  0  0  0  0  0  0  0  0  0  0  0
  147.9340  136.3977  156.2698 C   0  0  0  0  0  0  0  0  0  0  0  0
  147.2312  135.8493  155.2759 N   0  0  0  0  0  0  0  0  0  0  0  0
  146.7320  136.8023  154.4370 C   0  0  0  0  0  0  0  0  0  0  0  0
  146.9059  138.2088  154.5627 C   0  0  0  0  0  0  0  0  0  0  0  0
  146.2484  138.8654  153.5305 N   0  0  0  0  0  0  0  0  0  0  0  0
  145.7213  137.9000  152.8274 C   0  0  0  0  0  0  0  0  0  0  0  0
  145.9770  136.6281  153.2902 N   0  0  0  0  0  0  0  0  0  0  0  0
  145.5141  135.3816  152.7057 C   0  0  0  0  0  0  0  0  0  0  0  0
  145.0127  135.5215  151.2497 C   0  0  2  0  0  0  0  0  0  0  0  0
  143.7606  136.1708  151.3421 O   0  0  0  0  0  0  0  0  0  0  0  0
  144.7817  134.1911  150.4950 C   0  0  2  0  0  0  0  0  0  0  0  0
  143.7928  133.2122  151.1390 C   0  0  0  0  0  0  0  0  0  0  0  0
  144.2799  131.8370  150.7072 C   0  0  0  0  0  0  0  0  0  0  0  0
  145.6473  132.1102  150.0843 C   0  0  0  0  0  0  0  0  0  0  0  0
  145.9744  133.4192  150.5225 O   0  0  0  0  0  0  0  0  0  0  0  0
  148.8223  140.1773  157.0327 C   0  0  0  0  0  0  0  0  0  0  0  0
  149.2352  142.2862  156.9332 H   0  0  0  0  0  0  0  0  0  0  0  0
  152.4934  146.3677  159.9494 H   0  0  0  0  0  0  0  0  0  0  0  0
  151.8790  144.9180  160.7377 H   0  0  0  0  0  0  0  0  0  0  0  0
  150.7803  145.9895  159.8686 H   0  0  0  0  0  0  0  0  0  0  0  0
  151.9300  145.3797  157.6875 H   0  0  0  0  0  0  0  0  0  0  0  0
  153.0684  144.4000  158.5795 H   0  0  0  0  0  0  0  0  0  0  0  0
  152.7650  142.3573  159.0770 H   0  0  0  0  0  0  0  0  0  0  0  0
  151.4721  142.5850  160.2483 H   0  0  0  0  0  0  0  0  0  0  0  0
  151.4756  140.3276  159.0197 H   0  0  0  0  0  0  0  0  0  0  0  0
  149.9457  141.1948  159.0366 H   0  0  0  0  0  0  0  0  0  0  0  0
  150.0237  142.1757  154.6191 H   0  0  0  0  0  0  0  0  0  0  0  0
  150.4855  140.4811  154.8169 H   0  0  0  0  0  0  0  0  0  0  0  0
  147.6772  141.6242  154.7096 H   0  0  0  0  0  0  0  0  0  0  0  0
  148.3124  140.2508  153.8214 H   0  0  0  0  0  0  0  0  0  0  0  0
  148.3602  135.7042  156.9796 H   0  0  0  0  0  0  0  0  0  0  0  0
  145.1336  138.0902  151.9409 H   0  0  0  0  0  0  0  0  0  0  0  0
  146.3117  134.6399  152.7625 H   0  0  0  0  0  0  0  0  0  0  0  0
  144.7075  135.0144  153.3422 H   0  0  0  0  0  0  0  0  0  0  0  0
  145.6871  136.1637  150.6825 H   0  0  0  0  0  0  0  0  0  0  0  0
  143.8162  136.9972  150.8871 H   0  0  0  0  0  0  0  0  0  0  0  0
  144.4921  134.3777  149.4587 H   0  0  0  0  0  0  0  0  0  0  0  0
  143.8400  133.2828  152.2262 H   0  0  0  0  0  0  0  0  0  0  0  0
  142.7640  133.3963  150.8314 H   0  0  0  0  0  0  0  0  0  0  0  0
  144.3621  131.1735  151.5688 H   0  0  0  0  0  0  0  0  0  0  0  0
  143.6065  131.3715  149.9866 H   0  0  0  0  0  0  0  0  0  0  0  0
  146.4028  131.3865  150.3905 H   0  0  0  0  0  0  0  0  0  0  0  0
  145.5838  132.0996  148.9951 H   0  0  0  0  0  0  0  0  0  0  0  0
  149.4311  139.2898  157.2177 H   0  0  0  0  0  0  0  0  0  0  0  0
  148.2663  140.3898  157.9461 H   0  0  0  0  0  0  0  0  0  0  0  0
  1  2  1  0  0  0  0
  1 30  1  0  0  0  0
  1 31  1  0  0  0  0
  1 32  1  0  0  0  0
  2  3  1  0  0  0  0
  2 33  1  0  0  0  0
  2 34  1  0  0  0  0
  3  4  1  0  0  0  0
  4  5  1  0  0  0  0
  4 35  1  0  0  0  0
  4 36  1  0  0  0  0
  5  6  1  0  0  0  0
  5 37  1  0  0  0  0
  5 38  1  0  0  0  0
  6  7  1  0  0  0  0
  7 29  1  0  0  0  0
  7 28  1  0  0  0  0
  7  8  1  0  0  0  0
  8  9  1  0  0  0  0
  8 39  1  0  0  0  0
  8 40  1  0  0  0  0
  9 10  1  0  0  0  0
  9 41  1  0  0  0  0
  9 42  1  0  0  0  0
 10 11  1  0  0  0  0
 10 28  1  0  0  0  0
 11 16  1  0  0  0  0
 11 12  2  0  0  0  0
 12 13  1  0  0  0  0
 13 14  2  0  0  0  0
 13 43  1  0  0  0  0
 14 15  1  0  0  0  0
 15 19  1  0  0  0  0
 15 16  2  0  0  0  0
 16 17  1  0  0  0  0
 17 18  2  0  0  0  0
 18 19  1  0  0  0  0
 18 44  1  0  0  0  0
 19 20  1  0  0  0  0
 20 21  1  0  0  0  0
 20 45  1  0  0  0  0
 20 46  1  0  0  0  0
 21 22  1  0  0  0  0
 21 23  1  0  0  0  0
 21 47  1  0  0  0  0
 22 48  1  0  0  0  0
 23 27  1  0  0  0  0
 23 24  1  0  0  0  0
 23 49  1  0  0  0  0
 24 25  1  0  0  0  0
 24 50  1  0  0  0  0
 24 51  1  0  0  0  0
 25 26  1  0  0  0  0
 25 52  1  0  0  0  0
 25 53  1  0  0  0  0
 26 27  1  0  0  0  0
 26 54  1  0  0  0  0
 26 55  1  0  0  0  0
 28 56  1  0  0  0  0
 28 57  1  0  0  0  0
M  END
> <s_m_source_file>
AV-unprocessed.smi

> <i_m_source_file_index>
246

> <i_lp_mmshare_version>
43012

> <i_f3d_flags>
0

> <s_epik_input>
W0NIM11bQ0gyXU9bQ0gyXVtDSDJdT1tDQEhdMVtDSDJdW0NIMl1OKFtDSDJdMSljKG5bY0hdbjIpYyhjMjMpbltjSF1uM1tDSDJdW0NASF0oW09IXSlbQ0BASF00W0NIMl1bQ0gyXVtDSDJdTzQ=

> <s_epik_cmdline>
J2VwaWtfcHl0aG9uJywgJy1waCcsICc3LjAnLCAnLXRuJywgJzgnLCAnLW1hJywgJzIwMCcsICctbWV0YWxfYmluZGluZycsICctaW1hZScsICc8aW5maWxlLm1hZT4nLCAnLW9tYWUnLCAnPG91dGZpbGUubWFlPic=

> <r_lp_tautomer_probability>
1

> <r_epik_Ionization_Penalty>
0.0024631

> <r_epik_Ionization_Penalty_Charging>
0

> <r_epik_Ionization_Penalty_Neutral>
0.0024631

> <r_epik_State_Penalty>
0.00162428

> <r_epik_Charging_Adjusted_Penalty>
0.00162428

> <i_epik_Tot_Q>
0

> <i_epik_Tot_abs_Q>
0

> <r_epik_Metal_State_Penalty>
-0

> <b_epik_Metal_Only>
0

> <s_lp_Force_Field>
OPLS_2005

> <r_lp_Energy>
54.9549

> <b_lp_Chiralities_Consistent>
1

> <s_lp_Variant>
AV-unprocessed.smi:246-1

> <Gold.Version>
5.8.1

> <Gold.Id.Protein>
6NUR|6NUR_protein|mol2

> <Gold.PLP.Fitness>
45.3613

> <Gold.PLP.PLP>
-40.5285

> <Gold.PLP.part.hbond>
-1.0000

> <Gold.PLP.part.metal>
0.0000

> <Gold.PLP.part.buried>
-6.1726

> <Gold.PLP.part.nonpolar>
-34.7730

> <Gold.PLP.part.repulsive>
0.6120

> <Gold.PLP.ligand.clash>
0.0000

> <Gold.PLP.ligand.torsion>
1.0908

> <Gold.PLP.Chemscore.Hbond>
1.0000

> <Gold.PLP.Chemscore.CHOScore>
1.1316

> <Gold.PLP.Chemscore.Metal>
0.0000

> <Gold.Chemscore.Hbonds>
donor molecule, donor type, donor heavy atom, donor atom, acceptor molecule, acceptor atom, score
      L1  H    22    48       P1 10171  1.00
      L1  C    18    44       P1 10171  1.00
      L1  C    18    44       P1 10175  0.15

> <Gold.PLP.Chemscore.Internal.Correction>
0.6197

> <Gold.Rescore>
     Score         DG    S(hbond)    S(metal)    S(lipo)     H(rot)  DE(clash)    DE(int)     intcor
     11.69     -12.94       1.00        0.00     109.08       3.37       0.08       1.17       ----

> <Gold.Chemscore.Fitness>
11.6891

> <Gold.Chemscore.DG>
-12.9367

> <Gold.Chemscore.ZeroCoef>
-5.4800

> <Gold.Chemscore.Hbond>
0.9975

> <Gold.Chemscore.Metal>
0.0000

> <Gold.Chemscore.Lipo>
109.0785

> <Gold.Chemscore.Internal_Hbond>
0.0000

> <Gold.Chemscore.DEClash>
0.0821

> <Gold.Chemscore.DEInternal>
1.1655

> <Gold.Chemscore.Rot>
3.3739

> <Gold.Chemscore.Internal.Correction>
   9.000000E+99

> <Gold.Chemscore.Hbonds>
donor molecule, donor type, donor heavy atom, donor atom, acceptor molecule, acceptor atom, score
      L1  H    22    48       P1 10171  1.00

> <Gold.Chemscore.Hbond.Weighted>
-3.3316

> <Gold.Chemscore.Metal.Weighted>
-0.0000

> <Gold.Chemscore.Lipo.Weighted>
-12.7622

> <Gold.Chemscore.Internal_Hbond.Weighted>
0.0000

> <Gold.Chemscore.DEClash.Weighted>
0.0821

> <Gold.Chemscore.DEInternal.Weighted>
1.1655

> <Gold.Chemscore.Rot.Weighted>
8.6371

> <Gold.Chemscore.Internal.Correction.Weighted>
   9.000000E+99

> <Gold.Protein.RotatedTorsions>
[ 6907 6896 6895 6894 ] final   -6.68 input  -60.11 | X-H torsion
[ 7974 7965 7964 7962 ] final   78.59 input  175.53 | X-H torsion
[ 8008 7997 7996 7995 ] final  -32.05 input   59.86 | X-H torsion
[ 10167 10162 10161 10158 ] final  100.50 input  -65.29 | X-H torsion
[ 10718 10713 10712 10709 ] final   94.56 input   66.30 | X-H torsion
[ 10763 10752 10751 10750 ] final  -69.42 input  -60.55 | X-H torsion
[ 11005 11000 10999 10996 ] final -174.75 input  -57.11 | X-H torsion

> <Gold.Protein.ActiveResidues>
 VAL166  LYS551  ARG553  GLY616  TRP617  ASP618  TYR619  PRO620  LYS621  CYS622 
 ASP623  PHE694  ASN695  SER759  ASP760  ASP761  ALA762  ILE779  LEU786  VAL792 
 PHE793  MET794  SER795  GLU796  ALA797  LYS798  CYS799  TRP800  GLU811  SER814 

> <Gold.Protein.RotatedAtoms>
  151.4616  135.1039  159.9726 H   0  0  0  0  0  0  0  0  0  0  0  0  # atno 6907 bound_to 6896
  152.4850  133.8347  159.7132 H   0  0  0  0  0  0  0  0  0  0  0  0  # atno 6908 bound_to 6896
  150.8953  133.7129  159.2920 H   0  0  0  0  0  0  0  0  0  0  0  0  # atno 6909 bound_to 6896
  145.6752  139.2508  143.1846 H   0  0  0  0  0  0  0  0  0  0  0  0  # atno 7974 bound_to 7965
  154.4193  140.1748  156.1665 H   0  0  0  0  0  0  0  0  0  0  0  0  # atno 8008 bound_to 7997
  155.9796  140.3378  155.6626 H   0  0  0  0  0  0  0  0  0  0  0  0  # atno 8009 bound_to 7997
  155.6518  140.0691  157.2575 H   0  0  0  0  0  0  0  0  0  0  0  0  # atno 8010 bound_to 7997
  139.7521  144.6980  151.0416 H   0  0  0  0  0  0  0  0  0  0  0  0  # atno 10167 bound_to 10162
  157.6947  131.0516  150.4205 H   0  0  0  0  0  0  0  0  0  0  0  0  # atno 10718 bound_to 10713
  154.4032  135.6026  153.5909 H   0  0  0  0  0  0  0  0  0  0  0  0  # atno 10763 bound_to 10752
  152.9788  135.5911  154.4159 H   0  0  0  0  0  0  0  0  0  0  0  0  # atno 10764 bound_to 10752
  154.3960  135.2842  155.2104 H   0  0  0  0  0  0  0  0  0  0  0  0  # atno 10765 bound_to 10752
  140.4710  134.6165  157.4882 H   0  0  0  0  0  0  0  0  0  0  0  0  # atno 11005 bound_to 11000
  146.1012  140.7542  142.9548 LP  0  0  0  0  0  0  0  0  0  0  0  0  # atno 17320 bound_to 7965
  144.7044  140.3790  143.7130 LP  0  0  0  0  0  0  0  0  0  0  0  0  # atno 17321 bound_to 7965
  140.7799  143.4796  151.0036 LP  0  0  0  0  0  0  0  0  0  0  0  0  # atno 17342 bound_to 10162
  139.8483  143.7471  152.3179 LP  0  0  0  0  0  0  0  0  0  0  0  0  # atno 17343 bound_to 10162
  156.4581  130.4026  149.6593 LP  0  0  0  0  0  0  0  0  0  0  0  0  # atno 17370 bound_to 10713
  156.3719  130.7534  151.2519 LP  0  0  0  0  0  0  0  0  0  0  0  0  # atno 17371 bound_to 10713
  139.9885  134.7023  155.9731 LP  0  0  0  0  0  0  0  0  0  0  0  0  # atno 17394 bound_to 11000
  141.1577  133.6541  156.4215 LP  0  0  0  0  0  0  0  0  0  0  0  0  # atno 17395 bound_to 11000

$$$$
