AV-unprocessed.smi:2028|AV-procd|sdf|8221|dock9
  -GOLD-   2272010493D 1   1.00000     0.00000
 Structure written by MMmdl.
 38 39  0  0  0  0  0  0  0  0  1 V2000
  148.5645  135.5581  156.3591 C   0  0  0  0  0  0  0  0  0  0  0  0
  149.3547  134.8944  155.2178 C   0  0  0  0  0  0  0  0  0  0  0  0
  150.2655  133.7978  155.8084 C   0  0  0  0  0  0  0  0  0  0  0  0
  148.3598  134.2891  154.2049 C   0  0  0  0  0  0  0  0  0  0  0  0
  150.1626  135.9477  154.5931 N   0  0  0  0  0  0  0  0  0  0  0  0
  151.2297  136.5953  155.0951 C   0  0  0  0  0  0  0  0  0  0  0  0
  151.7261  136.3600  156.1963 O   0  0  0  0  0  0  0  0  0  0  0  0
  151.8213  137.6976  154.2157 C   0  0  0  0  0  0  0  0  0  0  0  0
  151.3407  139.0391  154.6869 C   0  0  0  0  0  0  0  0  0  0  0  0
  150.3901  139.8287  154.0873 C   0  0  0  0  0  0  0  0  0  0  0  0
  150.1376  141.3194  154.9531 S   0  0  0  0  0  0  0  0  0  0  0  0
  151.3544  140.8054  156.1255 C   0  0  0  0  0  0  0  0  0  0  0  0
  151.7994  141.5435  157.2621 N   0  0  0  0  0  0  0  0  0  0  0  0
  151.4873  142.9598  157.4280 C   0  0  0  0  0  0  0  0  0  0  0  0
  151.9284  143.3244  158.8497 C   0  0  0  0  0  0  0  0  0  0  0  0
  152.8203  142.1709  159.3051 C   0  0  0  0  0  0  0  0  0  0  0  0
  152.5471  141.0825  158.2803 C   0  0  0  0  0  0  0  0  0  0  0  0
  152.9906  139.9436  158.4192 O   0  0  0  0  0  0  0  0  0  0  0  0
  151.8747  139.6047  155.8505 N   0  0  0  0  0  0  0  0  0  0  0  0
  147.9358  134.8354  156.8805 H   0  0  0  0  0  0  0  0  0  0  0  0
  147.9125  136.3485  155.9845 H   0  0  0  0  0  0  0  0  0  0  0  0
  149.2313  136.0050  157.0977 H   0  0  0  0  0  0  0  0  0  0  0  0
  150.9925  134.2184  156.5045 H   0  0  0  0  0  0  0  0  0  0  0  0
  150.8203  133.2659  155.0354 H   0  0  0  0  0  0  0  0  0  0  0  0
  149.6827  133.0544  156.3534 H   0  0  0  0  0  0  0  0  0  0  0  0
  147.6911  133.5778  154.6907 H   0  0  0  0  0  0  0  0  0  0  0  0
  148.8647  133.7518  153.4022 H   0  0  0  0  0  0  0  0  0  0  0  0
  147.7397  135.0606  153.7470 H   0  0  0  0  0  0  0  0  0  0  0  0
  149.8548  136.2396  153.6767 H   0  0  0  0  0  0  0  0  0  0  0  0
  152.9096  137.6409  154.2577 H   0  0  0  0  0  0  0  0  0  0  0  0
  151.5450  137.5304  153.1734 H   0  0  0  0  0  0  0  0  0  0  0  0
  149.8296  139.6264  153.1867 H   0  0  0  0  0  0  0  0  0  0  0  0
  152.0441  143.5392  156.6898 H   0  0  0  0  0  0  0  0  0  0  0  0
  150.4238  143.1560  157.2823 H   0  0  0  0  0  0  0  0  0  0  0  0
  152.4488  144.2823  158.8790 H   0  0  0  0  0  0  0  0  0  0  0  0
  151.0594  143.4017  159.5046 H   0  0  0  0  0  0  0  0  0  0  0  0
  153.8752  142.4450  159.2679 H   0  0  0  0  0  0  0  0  0  0  0  0
  152.5800  141.8379  160.3153 H   0  0  0  0  0  0  0  0  0  0  0  0
  1  2  1  0  0  0  0
  1 20  1  0  0  0  0
  1 21  1  0  0  0  0
  1 22  1  0  0  0  0
  2  3  1  0  0  0  0
  2  4  1  0  0  0  0
  2  5  1  0  0  0  0
  3 23  1  0  0  0  0
  3 24  1  0  0  0  0
  3 25  1  0  0  0  0
  4 26  1  0  0  0  0
  4 27  1  0  0  0  0
  4 28  1  0  0  0  0
  5  6  1  0  0  0  0
  5 29  1  0  0  0  0
  6  7  2  0  0  0  0
  6  8  1  0  0  0  0
  8  9  1  0  0  0  0
  8 30  1  0  0  0  0
  8 31  1  0  0  0  0
  9 19  1  0  0  0  0
  9 10  2  0  0  0  0
 10 11  1  0  0  0  0
 10 32  1  0  0  0  0
 11 12  1  0  0  0  0
 12 13  1  0  0  0  0
 12 19  2  0  0  0  0
 13 17  1  0  0  0  0
 13 14  1  0  0  0  0
 14 15  1  0  0  0  0
 14 33  1  0  0  0  0
 14 34  1  0  0  0  0
 15 16  1  0  0  0  0
 15 35  1  0  0  0  0
 15 36  1  0  0  0  0
 16 17  1  0  0  0  0
 16 37  1  0  0  0  0
 16 38  1  0  0  0  0
 17 18  2  0  0  0  0
M  END
> <s_m_source_file>
AV-unprocessed.smi

> <i_m_source_file_index>
2028

> <i_lp_mmshare_version>
43012

> <i_f3d_flags>
0

> <s_epik_input>
W0NIM11DKFtDSDNdKShbQ0gzXSlbTkhdQyg9TylbQ0gyXWMxW2NIXXNjKG4xKU4yW0NIMl1bQ0gyXVtDSDJdQzI9Tw==

> <s_epik_cmdline>
J2VwaWtfcHl0aG9uJywgJy1waCcsICc3LjAnLCAnLXRuJywgJzgnLCAnLW1hJywgJzIwMCcsICctbWV0YWxfYmluZGluZycsICctaW1hZScsICc8aW5maWxlLm1hZT4nLCAnLW9tYWUnLCAnPG91dGZpbGUubWFlPic=

> <r_lp_tautomer_probability>
1

> <r_epik_Ionization_Penalty>
2.98188e-05

> <r_epik_Ionization_Penalty_Charging>
0

> <r_epik_Ionization_Penalty_Neutral>
2.98188e-05

> <r_epik_State_Penalty>
-0

> <r_epik_Charging_Adjusted_Penalty>
0

> <i_epik_Tot_Q>
0

> <i_epik_Tot_abs_Q>
0

> <r_epik_Metal_State_Penalty>
-0

> <b_epik_Metal_Only>
0

> <s_lp_Force_Field>
OPLS_2005

> <r_lp_Energy>
17.4642

> <b_lp_Chiralities_Consistent>
1

> <s_lp_Variant>
AV-unprocessed.smi:2028-1

> <Gold.Version>
5.8.1

> <Gold.Id.Protein>
6NUR|6NUR_protein|mol2

> <Gold.PLP.Fitness>
45.9743

> <Gold.PLP.PLP>
-35.6434

> <Gold.PLP.part.hbond>
-3.0573

> <Gold.PLP.part.metal>
0.0000

> <Gold.PLP.part.buried>
-1.8816

> <Gold.PLP.part.nonpolar>
-29.5345

> <Gold.PLP.part.repulsive>
0.0768

> <Gold.PLP.ligand.clash>
0.0000

> <Gold.PLP.ligand.torsion>
0.6856

> <Gold.PLP.Chemscore.Hbond>
2.9500

> <Gold.PLP.Chemscore.CHOScore>
0.9454

> <Gold.PLP.Chemscore.Metal>
0.0000

> <Gold.Chemscore.Hbonds>
donor molecule, donor type, donor heavy atom, donor atom, acceptor molecule, acceptor atom, score
      L1  H     5    29       P1  7948  0.95
      P1  H  7997  8009       L1    18  0.74
      P1  H 10752 10764       L1     7  0.10
      L1  C    10    32       P1  7957  1.00

> <Gold.PLP.Chemscore.Internal.Correction>
0.0156

> <Gold.Rescore>
     Score         DG    S(hbond)    S(metal)    S(lipo)     H(rot)  DE(clash)    DE(int)     intcor
     16.22     -18.48       2.19        0.00      80.07       1.44       0.32       1.95       ----

> <Gold.Chemscore.Fitness>
16.2170

> <Gold.Chemscore.DG>
-18.4828

> <Gold.Chemscore.ZeroCoef>
-5.4800

> <Gold.Chemscore.Hbond>
2.1898

> <Gold.Chemscore.Metal>
0.0000

> <Gold.Chemscore.Lipo>
80.0670

> <Gold.Chemscore.Internal_Hbond>
0.0000

> <Gold.Chemscore.DEClash>
0.3152

> <Gold.Chemscore.DEInternal>
1.9507

> <Gold.Chemscore.Rot>
1.4371

> <Gold.Chemscore.Internal.Correction>
   9.000000E+99

> <Gold.Chemscore.Hbonds>
donor molecule, donor type, donor heavy atom, donor atom, acceptor molecule, acceptor atom, score
      L1  H     5    29       P1  7948  0.21
      P1  H  7997  8009       L1    18  0.16

> <Gold.Chemscore.Hbond.Weighted>
-7.3139

> <Gold.Chemscore.Metal.Weighted>
-0.0000

> <Gold.Chemscore.Lipo.Weighted>
-9.3678

> <Gold.Chemscore.Internal_Hbond.Weighted>
0.0000

> <Gold.Chemscore.DEClash.Weighted>
0.3152

> <Gold.Chemscore.DEInternal.Weighted>
1.9507

> <Gold.Chemscore.Rot.Weighted>
3.6789

> <Gold.Chemscore.Internal.Correction.Weighted>
   9.000000E+99

> <Gold.Protein.RotatedTorsions>
[ 6907 6896 6895 6894 ] final  158.91 input  -60.11 | X-H torsion
[ 7974 7965 7964 7962 ] final   22.98 input  175.53 | X-H torsion
[ 8008 7997 7996 7995 ] final  152.86 input   59.86 | X-H torsion
[ 10167 10162 10161 10158 ] final  177.26 input  -65.29 | X-H torsion
[ 10718 10713 10712 10709 ] final  -29.55 input   66.30 | X-H torsion
[ 10763 10752 10751 10750 ] final  -29.77 input  -60.55 | X-H torsion
[ 11005 11000 10999 10996 ] final  -67.63 input  -57.11 | X-H torsion

> <Gold.Protein.ActiveResidues>
 VAL166  LYS551  ARG553  GLY616  TRP617  ASP618  TYR619  PRO620  LYS621  CYS622 
 ASP623  PHE694  ASN695  SER759  ASP760  ASP761  ALA762  ILE779  LEU786  VAL792 
 PHE793  MET794  SER795  GLU796  ALA797  LYS798  CYS799  TRP800  GLU811  SER814 

> <Gold.Protein.RotatedAtoms>
  151.9934  133.3799  159.4153 H   0  0  0  0  0  0  0  0  0  0  0  0  # atno 6907 bound_to 6896
  150.6919  134.3912  159.5086 H   0  0  0  0  0  0  0  0  0  0  0  0  # atno 6908 bound_to 6896
  152.1649  134.8882  160.0589 H   0  0  0  0  0  0  0  0  0  0  0  0  # atno 6909 bound_to 6896
  146.2005  139.7809  142.8765 H   0  0  0  0  0  0  0  0  0  0  0  0  # atno 7974 bound_to 7965
  156.2609  140.2009  156.6400 H   0  0  0  0  0  0  0  0  0  0  0  0  # atno 8008 bound_to 7997
  154.6617  140.0560  157.0093 H   0  0  0  0  0  0  0  0  0  0  0  0  # atno 8009 bound_to 7997
  155.1267  140.3230  155.4487 H   0  0  0  0  0  0  0  0  0  0  0  0  # atno 8010 bound_to 7997
  139.5246  144.2819  152.0539 H   0  0  0  0  0  0  0  0  0  0  0  0  # atno 10167 bound_to 10162
  156.4110  130.4408  149.7252 H   0  0  0  0  0  0  0  0  0  0  0  0  # atno 10718 bound_to 10713
  153.7700  135.6913  153.4908 H   0  0  0  0  0  0  0  0  0  0  0  0  # atno 10763 bound_to 10752
  153.1881  135.4481  155.0113 H   0  0  0  0  0  0  0  0  0  0  0  0  # atno 10764 bound_to 10752
  154.8121  135.3382  154.7210 H   0  0  0  0  0  0  0  0  0  0  0  0  # atno 10765 bound_to 10752
  141.1513  133.6723  156.6322 H   0  0  0  0  0  0  0  0  0  0  0  0  # atno 11005 bound_to 11000
  145.3501  141.0305  143.3343 LP  0  0  0  0  0  0  0  0  0  0  0  0  # atno 17320 bound_to 7965
  144.8672  139.5090  143.6784 LP  0  0  0  0  0  0  0  0  0  0  0  0  # atno 17321 bound_to 7965
  140.2274  144.4404  150.6315 LP  0  0  0  0  0  0  0  0  0  0  0  0  # atno 17342 bound_to 10162
  140.6378  143.2198  151.6357 LP  0  0  0  0  0  0  0  0  0  0  0  0  # atno 17343 bound_to 10162
  156.4230  130.7778  151.2796 LP  0  0  0  0  0  0  0  0  0  0  0  0  # atno 17370 bound_to 10713
  157.7507  131.0177  150.3595 LP  0  0  0  0  0  0  0  0  0  0  0  0  # atno 17371 bound_to 10713
  140.3458  134.7810  157.4431 LP  0  0  0  0  0  0  0  0  0  0  0  0  # atno 17394 bound_to 11000
  140.0901  134.5613  155.8453 LP  0  0  0  0  0  0  0  0  0  0  0  0  # atno 17395 bound_to 11000

$$$$
