AV-unprocessed.smi:826|AV-procd|sdf|3852|dock5
  -GOLD-   22720 1303D 1   1.00000     0.00000
 Structure written by MMmdl.
 39 40  0  0  0  0  0  0  0  0  1 V2000
  143.8046  131.8344  150.4729 C   0  0  0  0  0  0  0  0  0  0  0  0
  144.2421  133.1202  151.0866 C   0  0  0  0  0  0  0  0  0  0  0  0
  143.4121  133.9039  151.7852 N   0  0  0  0  0  0  0  0  0  0  0  0
  144.0409  135.0482  152.2564 N   0  0  0  0  0  0  0  0  0  0  0  0
  145.3315  135.0929  151.8984 C   0  0  0  0  0  0  0  0  0  0  0  0
  146.2094  136.1552  152.2397 N   0  0  0  0  0  0  0  0  0  0  0  0
  145.9322  137.2784  152.9246 C   0  0  0  0  0  0  0  0  0  0  0  0
  144.8371  137.5668  153.4089 O   0  0  0  0  0  0  0  0  0  0  0  0
  147.0140  138.0656  153.0235 N   0  0  0  0  0  0  0  0  0  0  0  0
  147.0600  139.3490  153.7222 C   0  0  2  0  0  0  0  0  0  0  0  0
  147.1094  140.4655  152.6659 C   0  0  0  0  0  0  0  0  0  0  0  0
  148.3307  139.4437  154.5809 C   0  0  0  0  0  0  0  0  0  0  0  0
  148.2526  139.6037  155.8002 O   0  0  0  0  0  0  0  0  0  0  0  0
  149.4969  139.3337  153.9271 N   0  0  0  0  0  0  0  0  0  0  0  0
  150.8157  139.4084  154.5488 C   0  0  0  0  0  0  0  0  0  0  0  0
  151.1778  138.0982  155.2802 C   0  0  0  0  0  0  0  0  0  0  0  0
  151.6352  138.5066  156.6817 C   0  0  0  0  0  0  0  0  0  0  0  0
  150.8705  139.7953  156.9659 C   0  0  0  0  0  0  0  0  0  0  0  0
  150.8477  140.5158  155.6179 C   0  0  0  0  0  0  0  0  0  0  0  0
  145.8891  133.7245  150.9511 S   0  0  0  0  0  0  0  0  0  0  0  0
  142.8774  131.9786  149.9179 H   0  0  0  0  0  0  0  0  0  0  0  0
  143.6379  131.0878  151.2496 H   0  0  0  0  0  0  0  0  0  0  0  0
  144.5658  131.4621  149.7869 H   0  0  0  0  0  0  0  0  0  0  0  0
  147.1586  136.0536  151.9126 H   0  0  0  0  0  0  0  0  0  0  0  0
  147.8752  137.7476  152.6041 H   0  0  0  0  0  0  0  0  0  0  0  0
  146.1698  139.4707  154.3428 H   0  0  0  0  0  0  0  0  0  0  0  0
  147.1483  141.4507  153.1323 H   0  0  0  0  0  0  0  0  0  0  0  0
  146.2205  140.4421  152.0345 H   0  0  0  0  0  0  0  0  0  0  0  0
  147.9791  140.3712  152.0133 H   0  0  0  0  0  0  0  0  0  0  0  0
  149.4700  139.2066  152.9257 H   0  0  0  0  0  0  0  0  0  0  0  0
  151.5616  139.6346  153.7846 H   0  0  0  0  0  0  0  0  0  0  0  0
  150.3033  137.4510  155.3678 H   0  0  0  0  0  0  0  0  0  0  0  0
  151.9439  137.5310  154.7509 H   0  0  0  0  0  0  0  0  0  0  0  0
  151.4482  137.7328  157.4266 H   0  0  0  0  0  0  0  0  0  0  0  0
  152.7069  138.7105  156.6738 H   0  0  0  0  0  0  0  0  0  0  0  0
  149.8514  139.5581  157.2748 H   0  0  0  0  0  0  0  0  0  0  0  0
  151.3291  140.3927  157.7545 H   0  0  0  0  0  0  0  0  0  0  0  0
  151.7668  141.0930  155.5079 H   0  0  0  0  0  0  0  0  0  0  0  0
  150.0183  141.2200  155.5407 H   0  0  0  0  0  0  0  0  0  0  0  0
  1  2  1  0  0  0  0
  1 21  1  0  0  0  0
  1 22  1  0  0  0  0
  1 23  1  0  0  0  0
  2 20  1  0  0  0  0
  2  3  2  0  0  0  0
  3  4  1  0  0  0  0
  4  5  2  0  0  0  0
  5  6  1  0  0  0  0
  5 20  1  0  0  0  0
  6  7  1  0  0  0  0
  6 24  1  0  0  0  0
  7  8  2  0  0  0  0
  7  9  1  0  0  0  0
  9 10  1  0  0  0  0
  9 25  1  0  0  0  0
 10 11  1  0  0  0  0
 10 12  1  0  0  0  0
 10 26  1  0  0  0  0
 11 27  1  0  0  0  0
 11 28  1  0  0  0  0
 11 29  1  0  0  0  0
 12 13  2  0  0  0  0
 12 14  1  0  0  0  0
 14 15  1  0  0  0  0
 14 30  1  0  0  0  0
 15 19  1  0  0  0  0
 15 16  1  0  0  0  0
 15 31  1  0  0  0  0
 16 17  1  0  0  0  0
 16 32  1  0  0  0  0
 16 33  1  0  0  0  0
 17 18  1  0  0  0  0
 17 34  1  0  0  0  0
 17 35  1  0  0  0  0
 18 19  1  0  0  0  0
 18 36  1  0  0  0  0
 18 37  1  0  0  0  0
 19 38  1  0  0  0  0
 19 39  1  0  0  0  0
M  END
> <s_m_source_file>
AV-unprocessed.smi

> <i_m_source_file_index>
826

> <i_lp_mmshare_version>
43012

> <i_f3d_flags>
0

> <s_epik_input>
W0NIM11jMW5uYyhzMSlbTkhdQyg9TylbTkhdW0NASF0oW0NIM10pQyg9TylbTkhdW0NIXTJbQ0gyXVtDSDJdW0NIMl1bQ0gyXTI=

> <s_epik_cmdline>
J2VwaWtfcHl0aG9uJywgJy1waCcsICc3LjAnLCAnLXRuJywgJzgnLCAnLW1hJywgJzIwMCcsICctbWV0YWxfYmluZGluZycsICctaW1hZScsICc8aW5maWxlLm1hZT4nLCAnLW9tYWUnLCAnPG91dGZpbGUubWFlPic=

> <r_lp_tautomer_probability>
1

> <r_epik_Ionization_Penalty>
0.00368568

> <r_epik_Ionization_Penalty_Charging>
0

> <r_epik_Ionization_Penalty_Neutral>
0.00368568

> <r_epik_State_Penalty>
-0

> <r_epik_Charging_Adjusted_Penalty>
0

> <i_epik_Tot_Q>
0

> <i_epik_Tot_abs_Q>
0

> <r_epik_Metal_State_Penalty>
0.369753

> <b_epik_Metal_Only>
0

> <s_lp_Force_Field>
OPLS_2005

> <r_lp_Energy>
15.7146

> <b_lp_Chiralities_Consistent>
1

> <s_lp_Variant>
AV-unprocessed.smi:826-1

> <Gold.Version>
5.8.1

> <Gold.Id.Protein>
6NUR|6NUR_protein|mol2

> <Gold.PLP.Fitness>
35.8566

> <Gold.PLP.PLP>
-27.8251

> <Gold.PLP.part.hbond>
-3.0000

> <Gold.PLP.part.metal>
0.0000

> <Gold.PLP.part.buried>
-2.3300

> <Gold.PLP.part.nonpolar>
-23.0725

> <Gold.PLP.part.repulsive>
0.6355

> <Gold.PLP.ligand.clash>
0.0000

> <Gold.PLP.ligand.torsion>
0.4237

> <Gold.PLP.Chemscore.Hbond>
2.9520

> <Gold.PLP.Chemscore.CHOScore>
0.0000

> <Gold.PLP.Chemscore.Metal>
0.0000

> <Gold.Chemscore.Hbonds>
donor molecule, donor type, donor heavy atom, donor atom, acceptor molecule, acceptor atom, score
      L1  H     6    24       P1  7948  1.00
      L1  H     9    25       P1  7948  0.99
      L1  H    14    30       P1  7957  0.96

> <Gold.PLP.Chemscore.Internal.Correction>
0.0229

> <Gold.Rescore>
     Score         DG    S(hbond)    S(metal)    S(lipo)     H(rot)  DE(clash)    DE(int)     intcor
     13.70     -18.45       2.77        0.00      67.78       1.65       0.30       4.46       ----

> <Gold.Chemscore.Fitness>
13.6959

> <Gold.Chemscore.DG>
-18.4543

> <Gold.Chemscore.ZeroCoef>
-5.4800

> <Gold.Chemscore.Hbond>
2.7716

> <Gold.Chemscore.Metal>
0.0000

> <Gold.Chemscore.Lipo>
67.7826

> <Gold.Chemscore.Internal_Hbond>
0.0000

> <Gold.Chemscore.DEClash>
0.2995

> <Gold.Chemscore.DEInternal>
4.4589

> <Gold.Chemscore.Rot>
1.6458

> <Gold.Chemscore.Internal.Correction>
   9.000000E+99

> <Gold.Chemscore.Hbonds>
donor molecule, donor type, donor heavy atom, donor atom, acceptor molecule, acceptor atom, score
      L1  H     6    24       P1  7948  1.00
      L1  H     9    25       P1  7948  0.91
      L1  H    14    30       P1  7957  0.91

> <Gold.Chemscore.Hbond.Weighted>
-9.2571

> <Gold.Chemscore.Metal.Weighted>
-0.0000

> <Gold.Chemscore.Lipo.Weighted>
-7.9306

> <Gold.Chemscore.Internal_Hbond.Weighted>
0.0000

> <Gold.Chemscore.DEClash.Weighted>
0.2995

> <Gold.Chemscore.DEInternal.Weighted>
4.4589

> <Gold.Chemscore.Rot.Weighted>
4.2133

> <Gold.Chemscore.Internal.Correction.Weighted>
   9.000000E+99

> <Gold.Protein.RotatedTorsions>
[ 6907 6896 6895 6894 ] final  162.89 input  -60.11 | X-H torsion
[ 7974 7965 7964 7962 ] final  101.14 input  175.53 | X-H torsion
[ 8008 7997 7996 7995 ] final -155.99 input   59.86 | X-H torsion
[ 10167 10162 10161 10158 ] final  -89.21 input  -65.29 | X-H torsion
[ 10718 10713 10712 10709 ] final  -99.02 input   66.30 | X-H torsion
[ 10763 10752 10751 10750 ] final  -47.43 input  -60.55 | X-H torsion
[ 11005 11000 10999 10996 ] final -162.66 input  -57.11 | X-H torsion

> <Gold.Protein.ActiveResidues>
 VAL166  LYS551  ARG553  GLY616  TRP617  ASP618  TYR619  PRO620  LYS621  CYS622 
 ASP623  PHE694  ASN695  SER759  ASP760  ASP761  ALA762  ILE779  LEU786  VAL792 
 PHE793  MET794  SER795  GLU796  ALA797  LYS798  CYS799  TRP800  GLU811  SER814 

> <Gold.Protein.RotatedAtoms>
  151.9335  133.3618  159.3939 H   0  0  0  0  0  0  0  0  0  0  0  0  # atno 6907 bound_to 6896
  150.7012  134.4513  159.5347 H   0  0  0  0  0  0  0  0  0  0  0  0  # atno 6908 bound_to 6896
  152.2157  134.8460  160.0543 H   0  0  0  0  0  0  0  0  0  0  0  0  # atno 6909 bound_to 6896
  145.3762  139.2388  143.3428 H   0  0  0  0  0  0  0  0  0  0  0  0  # atno 7974 bound_to 7965
  155.7103  140.0777  157.2374 H   0  0  0  0  0  0  0  0  0  0  0  0  # atno 8008 bound_to 7997
  154.4059  140.1631  156.2342 H   0  0  0  0  0  0  0  0  0  0  0  0  # atno 8009 bound_to 7997
  155.9288  140.3392  155.6235 H   0  0  0  0  0  0  0  0  0  0  0  0  # atno 8010 bound_to 7997
  140.3671  143.2813  151.9545 H   0  0  0  0  0  0  0  0  0  0  0  0  # atno 10167 bound_to 10162
  156.0123  130.5264  150.6609 H   0  0  0  0  0  0  0  0  0  0  0  0  # atno 10718 bound_to 10713
  154.0613  135.6617  153.4812 H   0  0  0  0  0  0  0  0  0  0  0  0  # atno 10763 bound_to 10752
  153.0426  135.5135  154.7656 H   0  0  0  0  0  0  0  0  0  0  0  0  # atno 10764 bound_to 10752
  154.6693  135.3027  154.9730 H   0  0  0  0  0  0  0  0  0  0  0  0  # atno 10765 bound_to 10752
  140.6067  134.4891  157.5211 H   0  0  0  0  0  0  0  0  0  0  0  0  # atno 11005 bound_to 11000
  146.2863  140.4422  142.8757 LP  0  0  0  0  0  0  0  0  0  0  0  0  # atno 17320 bound_to 7965
  144.8540  140.7043  143.6150 LP  0  0  0  0  0  0  0  0  0  0  0  0  # atno 17321 bound_to 7965
  139.4807  144.5941  151.7721 LP  0  0  0  0  0  0  0  0  0  0  0  0  # atno 17342 bound_to 10162
  140.5070  144.1082  150.5985 LP  0  0  0  0  0  0  0  0  0  0  0  0  # atno 17343 bound_to 10162
  157.4351  131.0854  151.0999 LP  0  0  0  0  0  0  0  0  0  0  0  0  # atno 17370 bound_to 10713
  157.1560  130.6205  149.5596 LP  0  0  0  0  0  0  0  0  0  0  0  0  # atno 17371 bound_to 10713
  139.9209  134.8150  156.1214 LP  0  0  0  0  0  0  0  0  0  0  0  0  # atno 17394 bound_to 11000
  141.0835  133.6744  156.2387 LP  0  0  0  0  0  0  0  0  0  0  0  0  # atno 17395 bound_to 11000

$$$$
