AV-unprocessed.smi:1978|AV-procd|sdf|7998|dock10
  -GOLD-   2272010183D 1   1.00000     0.00000
 Structure written by MMmdl.
 45 46  0  0  0  0  0  0  0  0  2 V2000
  143.0826  129.8434  161.2597 C   0  0  0  0  0  0  0  0  0  0  0  0
  143.4065  130.9250  160.2872 C   0  0  0  0  0  0  0  0  0  0  0  0
  142.7063  131.4915  159.2593 C   0  0  0  0  0  0  0  0  0  0  0  0
  143.6102  132.4639  158.7548 C   0  0  0  0  0  0  0  0  0  0  0  0
  143.2528  133.2927  157.6608 N   0  0  0  0  0  0  0  0  0  0  0  0
  144.0746  133.8536  156.7576 C   0  0  0  0  0  0  0  0  0  0  0  0
  145.2979  133.7172  156.7277 O   0  0  0  0  0  0  0  0  0  0  0  0
  143.3955  134.6012  155.8755 N   0  0  0  0  0  0  0  0  0  0  0  0
  144.0007  135.3518  154.7782 C   0  0  0  0  0  0  0  0  0  0  0  0
  143.4201  134.9810  153.3820 C   0  0  2  0  0  0  0  0  0  0  0  0
  141.8722  134.9325  153.4711 C   0  0  0  0  0  0  0  0  0  0  0  0
  144.0135  133.7012  152.8565 N   0  3  2  0  0  0  0  0  0  0  0  0
  145.4771  133.5543  153.1263 C   0  0  0  0  0  0  0  0  0  0  0  0
  145.9787  132.1391  152.7940 C   0  0  0  0  0  0  0  0  0  0  0  0
  145.6725  131.7625  151.3432 C   0  0  0  0  0  0  0  0  0  0  0  0
  144.1752  131.9448  151.0730 C   0  0  0  0  0  0  0  0  0  0  0  0
  143.6866  133.3650  151.4293 C   0  0  2  0  0  0  0  0  0  0  0  0
  144.1907  134.4189  150.4168 C   0  0  0  0  0  0  0  0  0  0  0  0
  144.7592  132.4869  159.4126 N   0  0  0  0  0  0  0  0  0  0  0  0
  144.6349  131.5000  160.3976 O   0  0  0  0  0  0  0  0  0  0  0  0
  142.0055  129.6870  161.3228 H   0  0  0  0  0  0  0  0  0  0  0  0
  143.4452  130.0959  162.2565 H   0  0  0  0  0  0  0  0  0  0  0  0
  143.5444  128.9032  160.9586 H   0  0  0  0  0  0  0  0  0  0  0  0
  141.7081  131.2480  158.9271 H   0  0  0  0  0  0  0  0  0  0  0  0
  142.2672  133.4871  157.5631 H   0  0  0  0  0  0  0  0  0  0  0  0
  142.3918  134.6581  155.9700 H   0  0  0  0  0  0  0  0  0  0  0  0
  143.8742  136.4051  155.0201 H   0  0  0  0  0  0  0  0  0  0  0  0
  145.0744  135.1617  154.7939 H   0  0  0  0  0  0  0  0  0  0  0  0
  143.6850  135.7724  152.6793 H   0  0  0  0  0  0  0  0  0  0  0  0
  141.4577  135.8473  153.8937 H   0  0  0  0  0  0  0  0  0  0  0  0
  141.5382  134.1049  154.0976 H   0  0  0  0  0  0  0  0  0  0  0  0
  141.3962  134.8324  152.4970 H   0  0  0  0  0  0  0  0  0  0  0  0
  146.0397  134.3015  152.5661 H   0  0  0  0  0  0  0  0  0  0  0  0
  145.7139  133.7227  154.1726 H   0  0  0  0  0  0  0  0  0  0  0  0
  147.0521  132.0720  152.9752 H   0  0  0  0  0  0  0  0  0  0  0  0
  145.5076  131.4193  153.4648 H   0  0  0  0  0  0  0  0  0  0  0  0
  146.2597  132.3810  150.6638 H   0  0  0  0  0  0  0  0  0  0  0  0
  145.9663  130.7299  151.1528 H   0  0  0  0  0  0  0  0  0  0  0  0
  143.9555  131.7197  150.0286 H   0  0  0  0  0  0  0  0  0  0  0  0
  143.6167  131.2155  151.6618 H   0  0  0  0  0  0  0  0  0  0  0  0
  142.6039  133.3081  151.3282 H   0  0  0  0  0  0  0  0  0  0  0  0
  143.8958  134.1475  149.4028 H   0  0  0  0  0  0  0  0  0  0  0  0
  145.2758  134.5139  150.4195 H   0  0  0  0  0  0  0  0  0  0  0  0
  143.7774  135.4078  150.6108 H   0  0  0  0  0  0  0  0  0  0  0  0
  143.5697  132.9726  153.3970 H   0  0  0  0  0  0  0  0  0  0  0  0
  1  2  1  0  0  0  0
  1 21  1  0  0  0  0
  1 22  1  0  0  0  0
  1 23  1  0  0  0  0
  2 20  1  0  0  0  0
  2  3  2  0  0  0  0
  3  4  1  0  0  0  0
  3 24  1  0  0  0  0
  4  5  1  0  0  0  0
  4 19  2  0  0  0  0
  5  6  1  0  0  0  0
  5 25  1  0  0  0  0
  6  7  2  0  0  0  0
  6  8  1  0  0  0  0
  8  9  1  0  0  0  0
  8 26  1  0  0  0  0
  9 10  1  0  0  0  0
  9 27  1  0  0  0  0
  9 28  1  0  0  0  0
 10 11  1  0  0  0  0
 10 12  1  0  0  0  0
 10 29  1  0  0  0  0
 11 30  1  0  0  0  0
 11 31  1  0  0  0  0
 11 32  1  0  0  0  0
 12 17  1  0  0  0  0
 12 13  1  0  0  0  0
 12 45  1  0  0  0  0
 13 14  1  0  0  0  0
 13 33  1  0  0  0  0
 13 34  1  0  0  0  0
 14 15  1  0  0  0  0
 14 35  1  0  0  0  0
 14 36  1  0  0  0  0
 15 16  1  0  0  0  0
 15 37  1  0  0  0  0
 15 38  1  0  0  0  0
 16 17  1  0  0  0  0
 16 39  1  0  0  0  0
 16 40  1  0  0  0  0
 17 18  1  0  0  0  0
 17 41  1  0  0  0  0
 18 42  1  0  0  0  0
 18 43  1  0  0  0  0
 18 44  1  0  0  0  0
 19 20  1  0  0  0  0
M  CHG  1  12   1
M  END
> <s_m_source_file>
AV-unprocessed.smi

> <i_m_source_file_index>
1978

> <i_lp_mmshare_version>
43012

> <i_f3d_flags>
0

> <s_epik_input>
W0NIM11jMVtjSF1jKG5vMSlbTkhdQyg9TylbTkhdW0NIMl1bQ0BIXShbQ0gzXSlOMltDSDJdW0NIMl1bQ0gyXVtDSDJdW0NASF0yW0NIM10=

> <s_epik_cmdline>
J2VwaWtfcHl0aG9uJywgJy1waCcsICc3LjAnLCAnLXRuJywgJzgnLCAnLW1hJywgJzIwMCcsICctbWV0YWxfYmluZGluZycsICctaW1hZScsICc8aW5maWxlLm1hZT4nLCAnLW9tYWUnLCAnPG91dGZpbGUubWFlPic=

> <r_epik_Ionization_Penalty>
0.00265971

> <r_epik_Ionization_Penalty_Charging>
0.00262393

> <r_epik_Ionization_Penalty_Neutral>
3.57846e-05

> <r_epik_State_Penalty>
0.00182566

> <r_epik_Charging_Adjusted_Penalty>
0.00444959

> <i_epik_Tot_Q>
1

> <i_epik_Tot_abs_Q>
1

> <r_epik_Metal_State_Penalty>
0.0216344

> <b_epik_Metal_Only>
0

> <s_lp_Force_Field>
OPLS_2005

> <r_lp_Energy>
22.9215

> <b_lp_Chiralities_Consistent>
1

> <s_lp_Variant>
AV-unprocessed.smi:1978-7

> <Gold.Version>
5.8.1

> <Gold.Id.Protein>
6NUR|6NUR_protein|mol2

> <Gold.PLP.Fitness>
41.4536

> <Gold.PLP.PLP>
-30.3864

> <Gold.PLP.part.hbond>
-4.8953

> <Gold.PLP.part.metal>
0.0000

> <Gold.PLP.part.buried>
-4.2938

> <Gold.PLP.part.nonpolar>
-22.1537

> <Gold.PLP.part.repulsive>
0.1532

> <Gold.PLP.ligand.clash>
0.0000

> <Gold.PLP.ligand.torsion>
0.5048

> <Gold.PLP.Chemscore.Hbond>
4.0000

> <Gold.PLP.Chemscore.CHOScore>
0.0000

> <Gold.PLP.Chemscore.Metal>
0.0000

> <Gold.Chemscore.Hbonds>
donor molecule, donor type, donor heavy atom, donor atom, acceptor molecule, acceptor atom, score
      L1  H     5    25       P1 11000  0.70
      L1  H     8    26       P1 11000  0.57
      L1  H    12    45       P1 10957  1.95

> <Gold.PLP.Chemscore.Internal.Correction>
0.0768

> <Gold.Rescore>
     Score         DG    S(hbond)    S(metal)    S(lipo)     H(rot)  DE(clash)    DE(int)     intcor
     13.17     -14.98       1.65        0.00      68.01       1.55       0.39       1.42       ----

> <Gold.Chemscore.Fitness>
13.1684

> <Gold.Chemscore.DG>
-14.9814

> <Gold.Chemscore.ZeroCoef>
-5.4800

> <Gold.Chemscore.Hbond>
1.6483

> <Gold.Chemscore.Metal>
0.0000

> <Gold.Chemscore.Lipo>
68.0102

> <Gold.Chemscore.Internal_Hbond>
0.0000

> <Gold.Chemscore.DEClash>
0.3899

> <Gold.Chemscore.DEInternal>
1.4231

> <Gold.Chemscore.Rot>
1.5474

> <Gold.Chemscore.Internal.Correction>
   9.000000E+99

> <Gold.Chemscore.Hbonds>
donor molecule, donor type, donor heavy atom, donor atom, acceptor molecule, acceptor atom, score
      L1  H     5    25       P1 11000  0.40
      L1  H     8    26       P1 11000  0.14
      L1  H    12    45       P1 10957  0.72

> <Gold.Chemscore.Hbond.Weighted>
-5.5054

> <Gold.Chemscore.Metal.Weighted>
-0.0000

> <Gold.Chemscore.Lipo.Weighted>
-7.9572

> <Gold.Chemscore.Internal_Hbond.Weighted>
0.0000

> <Gold.Chemscore.DEClash.Weighted>
0.3899

> <Gold.Chemscore.DEInternal.Weighted>
1.4231

> <Gold.Chemscore.Rot.Weighted>
3.9612

> <Gold.Chemscore.Internal.Correction.Weighted>
   9.000000E+99

> <Gold.Protein.RotatedTorsions>
[ 6907 6896 6895 6894 ] final  -37.18 input  -60.11 | X-H torsion
[ 7974 7965 7964 7962 ] final  159.17 input  175.53 | X-H torsion
[ 8008 7997 7996 7995 ] final  -64.27 input   59.86 | X-H torsion
[ 10167 10162 10161 10158 ] final -163.16 input  -65.29 | X-H torsion
[ 10718 10713 10712 10709 ] final  -46.52 input   66.30 | X-H torsion
[ 10763 10752 10751 10750 ] final   18.12 input  -60.55 | X-H torsion
[ 11005 11000 10999 10996 ] final  140.12 input  -57.11 | X-H torsion

> <Gold.Protein.ActiveResidues>
 VAL166  LYS551  ARG553  GLY616  TRP617  ASP618  TYR619  PRO620  LYS621  CYS622 
 ASP623  PHE694  ASN695  SER759  ASP760  ASP761  ALA762  ILE779  LEU786  VAL792 
 PHE793  MET794  SER795  GLU796  ALA797  LYS798  CYS799  TRP800  GLU811  SER814 

> <Gold.Protein.RotatedAtoms>
  151.0179  134.9447  159.8043 H   0  0  0  0  0  0  0  0  0  0  0  0  # atno 6907 bound_to 6896
  152.5318  134.2942  159.9064 H   0  0  0  0  0  0  0  0  0  0  0  0  # atno 6908 bound_to 6896
  151.2949  133.4107  159.2670 H   0  0  0  0  0  0  0  0  0  0  0  0  # atno 6909 bound_to 6896
  144.7805  139.7580  143.6261 H   0  0  0  0  0  0  0  0  0  0  0  0  # atno 7974 bound_to 7965
  154.4602  140.0957  156.6871 H   0  0  0  0  0  0  0  0  0  0  0  0  # atno 8008 bound_to 7997
  155.5017  140.3474  155.4354 H   0  0  0  0  0  0  0  0  0  0  0  0  # atno 8009 bound_to 7997
  156.0856  140.1384  156.9646 H   0  0  0  0  0  0  0  0  0  0  0  0  # atno 8010 bound_to 7997
  139.6341  144.0384  152.2039 H   0  0  0  0  0  0  0  0  0  0  0  0  # atno 10167 bound_to 10162
  156.2174  130.4164  149.9036 H   0  0  0  0  0  0  0  0  0  0  0  0  # atno 10718 bound_to 10713
  153.1277  135.6733  153.9229 H   0  0  0  0  0  0  0  0  0  0  0  0  # atno 10763 bound_to 10752
  153.8725  135.3068  155.3444 H   0  0  0  0  0  0  0  0  0  0  0  0  # atno 10764 bound_to 10752
  154.7679  135.4954  153.9672 H   0  0  0  0  0  0  0  0  0  0  0  0  # atno 10765 bound_to 10752
  140.0304  134.9354  157.0651 H   0  0  0  0  0  0  0  0  0  0  0  0  # atno 11005 bound_to 11000
  146.2010  139.5305  142.9743 LP  0  0  0  0  0  0  0  0  0  0  0  0  # atno 17320 bound_to 7965
  145.6064  141.0347  143.1990 LP  0  0  0  0  0  0  0  0  0  0  0  0  # atno 17321 bound_to 7965
  140.0057  144.6261  150.7691 LP  0  0  0  0  0  0  0  0  0  0  0  0  # atno 17342 bound_to 10162
  140.7455  143.2877  151.3418 LP  0  0  0  0  0  0  0  0  0  0  0  0  # atno 17343 bound_to 10162
  156.6694  130.8814  151.3560 LP  0  0  0  0  0  0  0  0  0  0  0  0  # atno 17370 bound_to 10713
  157.7070  130.9396  150.0964 LP  0  0  0  0  0  0  0  0  0  0  0  0  # atno 17371 bound_to 10713
  140.4235  134.1855  155.7165 LP  0  0  0  0  0  0  0  0  0  0  0  0  # atno 17394 bound_to 11000
  141.1827  133.8378  157.1198 LP  0  0  0  0  0  0  0  0  0  0  0  0  # atno 17395 bound_to 11000

$$$$
