AV-unprocessed.smi:1388|AV-procd|sdf|5642|dock4
  -GOLD-   22720 5263D 1   1.00000     0.00000
 Structure written by MMmdl.
 46 47  0  0  0  0  0  0  0  0  2 V2000
  143.4222  137.0809  152.5727 C   0  0  0  0  0  0  0  0  0  0  0  0
  144.5047  137.8623  151.9938 N   0  0  0  0  0  0  0  0  0  0  0  0
  145.8004  137.6914  152.2906 C   0  0  0  0  0  0  0  0  0  0  0  0
  146.2028  136.8516  153.0967 O   0  0  0  0  0  0  0  0  0  0  0  0
  146.7856  138.6243  151.5783 C   0  0  0  0  0  0  0  0  0  0  0  0
  147.4739  139.5635  152.5014 N   0  3  2  0  0  0  0  0  0  0  0  0
  148.2088  138.8565  153.5811 C   0  0  0  0  0  0  0  0  0  0  0  0
  149.0237  139.8406  154.4363 C   0  0  0  0  0  0  0  0  0  0  0  0
  148.1229  140.9417  155.0258 C   0  0  1  0  0  0  0  0  0  0  0  0
  148.9089  141.9239  155.7668 N   0  0  0  0  0  0  0  0  0  0  0  0
  149.6914  141.6456  156.8201 C   0  0  0  0  0  0  0  0  0  0  0  0
  149.8362  140.5092  157.2720 O   0  0  0  0  0  0  0  0  0  0  0  0
  150.2773  142.7569  157.2997 N   0  0  0  0  0  0  0  0  0  0  0  0
  151.1909  142.8776  158.3849 C   0  0  0  0  0  0  0  0  0  0  0  0
  151.2310  141.9888  159.4092 N   0  0  0  0  0  0  0  0  0  0  0  0
  152.1251  142.1598  160.4042 C   0  0  0  0  0  0  0  0  0  0  0  0
  153.0375  143.2281  160.4411 C   0  0  0  0  0  0  0  0  0  0  0  0
  153.0096  144.1580  159.3878 C   0  0  0  0  0  0  0  0  0  0  0  0
  152.0772  143.9872  158.3423 C   0  0  0  0  0  0  0  0  0  0  0  0
  152.0453  144.9925  157.2026 C   0  0  0  0  0  0  0  0  0  0  0  0
  147.3522  141.6338  153.8904 C   0  0  0  0  0  0  0  0  0  0  0  0
  146.5702  140.6107  153.0499 C   0  0  0  0  0  0  0  0  0  0  0  0
  142.4642  137.4288  152.1857 H   0  0  0  0  0  0  0  0  0  0  0  0
  143.4074  137.1812  153.6591 H   0  0  0  0  0  0  0  0  0  0  0  0
  143.5282  136.0245  152.3216 H   0  0  0  0  0  0  0  0  0  0  0  0
  144.2507  138.5781  151.3281 H   0  0  0  0  0  0  0  0  0  0  0  0
  147.5209  138.0466  151.0156 H   0  0  0  0  0  0  0  0  0  0  0  0
  146.2047  139.1882  150.8473 H   0  0  0  0  0  0  0  0  0  0  0  0
  147.5017  138.3095  154.2069 H   0  0  0  0  0  0  0  0  0  0  0  0
  148.8846  138.1192  153.1463 H   0  0  0  0  0  0  0  0  0  0  0  0
  149.5291  139.2957  155.2344 H   0  0  0  0  0  0  0  0  0  0  0  0
  149.8078  140.2898  153.8247 H   0  0  0  0  0  0  0  0  0  0  0  0
  147.3979  140.4856  155.7032 H   0  0  0  0  0  0  0  0  0  0  0  0
  148.8466  142.8841  155.4611 H   0  0  0  0  0  0  0  0  0  0  0  0
  150.0482  143.6216  156.8327 H   0  0  0  0  0  0  0  0  0  0  0  0
  152.1122  141.4230  161.1937 H   0  0  0  0  0  0  0  0  0  0  0  0
  153.7391  143.3310  161.2555 H   0  0  0  0  0  0  0  0  0  0  0  0
  153.6970  144.9912  159.3858 H   0  0  0  0  0  0  0  0  0  0  0  0
  152.7929  145.7741  157.3411 H   0  0  0  0  0  0  0  0  0  0  0  0
  151.0674  145.4714  157.1433 H   0  0  0  0  0  0  0  0  0  0  0  0
  152.2490  144.4985  156.2521 H   0  0  0  0  0  0  0  0  0  0  0  0
  146.6649  142.3743  154.3012 H   0  0  0  0  0  0  0  0  0  0  0  0
  148.0449  142.1779  153.2461 H   0  0  0  0  0  0  0  0  0  0  0  0
  146.0605  141.1316  152.2390 H   0  0  0  0  0  0  0  0  0  0  0  0
  145.7951  140.1419  153.6583 H   0  0  0  0  0  0  0  0  0  0  0  0
  148.1726  140.0383  151.9469 H   0  0  0  0  0  0  0  0  0  0  0  0
  1  2  1  0  0  0  0
  1 23  1  0  0  0  0
  1 24  1  0  0  0  0
  1 25  1  0  0  0  0
  2  3  1  0  0  0  0
  2 26  1  0  0  0  0
  3  4  2  0  0  0  0
  3  5  1  0  0  0  0
  5  6  1  0  0  0  0
  5 27  1  0  0  0  0
  5 28  1  0  0  0  0
  6 22  1  0  0  0  0
  6  7  1  0  0  0  0
  6 46  1  0  0  0  0
  7  8  1  0  0  0  0
  7 29  1  0  0  0  0
  7 30  1  0  0  0  0
  8  9  1  0  0  0  0
  8 31  1  0  0  0  0
  8 32  1  0  0  0  0
  9 10  1  0  0  0  0
  9 21  1  0  0  0  0
  9 33  1  0  0  0  0
 10 11  1  0  0  0  0
 10 34  1  0  0  0  0
 11 12  2  0  0  0  0
 11 13  1  0  0  0  0
 13 14  1  0  0  0  0
 13 35  1  0  0  0  0
 14 19  1  0  0  0  0
 14 15  2  0  0  0  0
 15 16  1  0  0  0  0
 16 17  2  0  0  0  0
 16 36  1  0  0  0  0
 17 18  1  0  0  0  0
 17 37  1  0  0  0  0
 18 19  2  0  0  0  0
 18 38  1  0  0  0  0
 19 20  1  0  0  0  0
 20 39  1  0  0  0  0
 20 40  1  0  0  0  0
 20 41  1  0  0  0  0
 21 22  1  0  0  0  0
 21 42  1  0  0  0  0
 21 43  1  0  0  0  0
 22 44  1  0  0  0  0
 22 45  1  0  0  0  0
M  CHG  1   6   1
M  END
> <s_m_source_file>
AV-unprocessed.smi

> <i_m_source_file_index>
1388

> <i_lp_mmshare_version>
43012

> <i_f3d_flags>
0

> <s_epik_input>
W0NIM11bTkhdQyg9TylbQ0gyXU4xW0NIMl1bQ0gyXVtDSF0oW0NIMl1bQ0gyXTEpW05IXUMoPU8pW05IXWMybltjSF1bY0hdW2NIXWMyW0NIM10=

> <s_epik_cmdline>
J2VwaWtfcHl0aG9uJywgJy1waCcsICc3LjAnLCAnLXRuJywgJzgnLCAnLW1hJywgJzIwMCcsICctbWV0YWxfYmluZGluZycsICctaW1hZScsICc8aW5maWxlLm1hZT4nLCAnLW9tYWUnLCAnPG91dGZpbGUubWFlPic=

> <r_epik_Ionization_Penalty>
0.83891

> <r_epik_Ionization_Penalty_Charging>
0.838844

> <r_epik_Ionization_Penalty_Neutral>
6.58477e-05

> <r_epik_State_Penalty>
0.8734

> <r_epik_Charging_Adjusted_Penalty>
1.71224

> <i_epik_Tot_Q>
1

> <i_epik_Tot_abs_Q>
1

> <r_epik_Metal_State_Penalty>
0.877924

> <b_epik_Metal_Only>
0

> <s_lp_Force_Field>
OPLS_2005

> <r_lp_Energy>
15.763

> <b_lp_Chiralities_Consistent>
1

> <s_lp_Variant>
AV-unprocessed.smi:1388-2

> <Gold.Version>
5.8.1

> <Gold.Id.Protein>
6NUR|6NUR_protein|mol2

> <Gold.PLP.Fitness>
51.1287

> <Gold.PLP.PLP>
-40.3623

> <Gold.PLP.part.hbond>
-4.9251

> <Gold.PLP.part.metal>
0.0000

> <Gold.PLP.part.buried>
-0.1637

> <Gold.PLP.part.nonpolar>
-35.2997

> <Gold.PLP.part.repulsive>
0.8120

> <Gold.PLP.ligand.clash>
0.0000

> <Gold.PLP.ligand.torsion>
0.2061

> <Gold.PLP.Chemscore.Hbond>
3.7200

> <Gold.PLP.Chemscore.CHOScore>
0.0000

> <Gold.PLP.Chemscore.Metal>
0.0000

> <Gold.Chemscore.Hbonds>
donor molecule, donor type, donor heavy atom, donor atom, acceptor molecule, acceptor atom, score
      L1  H     2    26       P1 10171  0.72
      L1  H     6    46       P1  7957  1.00
      L1  H    10    34       P1  8028  1.00
      L1  H    13    35       P1  8028  1.00

> <Gold.PLP.Chemscore.Internal.Correction>
0.0185

> <Gold.Rescore>
     Score         DG    S(hbond)    S(metal)    S(lipo)     H(rot)  DE(clash)    DE(int)     intcor
     20.57     -25.86       3.78        0.00     103.18       1.69       2.84       2.45       ----

> <Gold.Chemscore.Fitness>
20.5729

> <Gold.Chemscore.DG>
-25.8575

> <Gold.Chemscore.ZeroCoef>
-5.4800

> <Gold.Chemscore.Hbond>
3.7783

> <Gold.Chemscore.Metal>
0.0000

> <Gold.Chemscore.Lipo>
103.1816

> <Gold.Chemscore.Internal_Hbond>
0.0000

> <Gold.Chemscore.DEClash>
2.8394

> <Gold.Chemscore.DEInternal>
2.4452

> <Gold.Chemscore.Rot>
1.6853

> <Gold.Chemscore.Internal.Correction>
   9.000000E+99

> <Gold.Chemscore.Hbonds>
donor molecule, donor type, donor heavy atom, donor atom, acceptor molecule, acceptor atom, score
      L1  H     2    26       P1 10171  0.68
      L1  H     6    46       P1  7957  0.94
      L1  H    10    34       P1  8028  0.99
      L1  H    13    35       P1  8028  0.95

> <Gold.Chemscore.Hbond.Weighted>
-12.6195

> <Gold.Chemscore.Metal.Weighted>
-0.0000

> <Gold.Chemscore.Lipo.Weighted>
-12.0722

> <Gold.Chemscore.Internal_Hbond.Weighted>
0.0000

> <Gold.Chemscore.DEClash.Weighted>
2.8394

> <Gold.Chemscore.DEInternal.Weighted>
2.4452

> <Gold.Chemscore.Rot.Weighted>
4.3143

> <Gold.Chemscore.Internal.Correction.Weighted>
   9.000000E+99

> <Gold.Protein.RotatedTorsions>
[ 6907 6896 6895 6894 ] final   82.59 input  -60.11 | X-H torsion
[ 7974 7965 7964 7962 ] final -135.07 input  175.53 | X-H torsion
[ 8008 7997 7996 7995 ] final   28.01 input   59.86 | X-H torsion
[ 10167 10162 10161 10158 ] final   63.29 input  -65.29 | X-H torsion
[ 10718 10713 10712 10709 ] final  -33.92 input   66.30 | X-H torsion
[ 10763 10752 10751 10750 ] final -165.94 input  -60.55 | X-H torsion
[ 11005 11000 10999 10996 ] final   63.16 input  -57.11 | X-H torsion

> <Gold.Protein.ActiveResidues>
 VAL166  LYS551  ARG553  GLY616  TRP617  ASP618  TYR619  PRO620  LYS621  CYS622 
 ASP623  PHE694  ASN695  SER759  ASP760  ASP761  ALA762  ILE779  LEU786  VAL792 
 PHE793  MET794  SER795  GLU796  ALA797  LYS798  CYS799  TRP800  GLU811  SER814 

> <Gold.Protein.RotatedAtoms>
  152.5303  134.3026  159.9083 H   0  0  0  0  0  0  0  0  0  0  0  0  # atno 6907 bound_to 6896
  151.2976  133.4130  159.2645 H   0  0  0  0  0  0  0  0  0  0  0  0  # atno 6908 bound_to 6896
  151.0146  134.9439  159.8083 H   0  0  0  0  0  0  0  0  0  0  0  0  # atno 6909 bound_to 6896
  144.9046  140.6816  143.5063 H   0  0  0  0  0  0  0  0  0  0  0  0  # atno 7974 bound_to 7965
  155.0519  140.3180  155.4689 H   0  0  0  0  0  0  0  0  0  0  0  0  # atno 8008 bound_to 7997
  156.2832  140.2144  156.5588 H   0  0  0  0  0  0  0  0  0  0  0  0  # atno 8009 bound_to 7997
  154.7204  140.0490  157.0621 H   0  0  0  0  0  0  0  0  0  0  0  0  # atno 8010 bound_to 7997
  140.1347  144.4610  150.6845 H   0  0  0  0  0  0  0  0  0  0  0  0  # atno 10167 bound_to 10162
  156.3568  130.4317  149.7657 H   0  0  0  0  0  0  0  0  0  0  0  0  # atno 10718 bound_to 10713
  154.6882  135.2966  154.9517 H   0  0  0  0  0  0  0  0  0  0  0  0  # atno 10763 bound_to 10752
  154.0488  135.6647  153.4802 H   0  0  0  0  0  0  0  0  0  0  0  0  # atno 10764 bound_to 10752
  153.0594  135.5125  154.7961 H   0  0  0  0  0  0  0  0  0  0  0  0  # atno 10765 bound_to 10752
  140.0044  134.6393  155.9879 H   0  0  0  0  0  0  0  0  0  0  0  0  # atno 11005 bound_to 11000
  145.3557  139.1694  143.4410 LP  0  0  0  0  0  0  0  0  0  0  0  0  # atno 17320 bound_to 7965
  146.3127  140.3614  142.8665 LP  0  0  0  0  0  0  0  0  0  0  0  0  # atno 17321 bound_to 7965
  140.6796  143.2320  151.5418 LP  0  0  0  0  0  0  0  0  0  0  0  0  # atno 17342 bound_to 10162
  139.5502  144.2416  152.1516 LP  0  0  0  0  0  0  0  0  0  0  0  0  # atno 17343 bound_to 10162
  156.4837  130.8053  151.3066 LP  0  0  0  0  0  0  0  0  0  0  0  0  # atno 17370 bound_to 10713
  157.7468  130.9997  150.2901 LP  0  0  0  0  0  0  0  0  0  0  0  0  # atno 17371 bound_to 10713
  141.1665  133.6537  156.4500 LP  0  0  0  0  0  0  0  0  0  0  0  0  # atno 17394 bound_to 11000
  140.4669  134.6789  157.5111 LP  0  0  0  0  0  0  0  0  0  0  0  0  # atno 17395 bound_to 11000

$$$$
