AV-unprocessed.smi:2895|AV-procd|sdf|11134|dock9
  -GOLD-   2272016 13D 1   1.00000     0.00000
 Structure written by MMmdl.
 54 57  0  0  0  0  0  0  0  0  3 V2000
  149.7969  138.1611  154.3662 O   0  0  0  0  0  0  0  0  0  0  0  0
  149.0445  138.6146  155.2294 C   0  0  0  0  0  0  0  0  0  0  0  0
  147.7497  138.2614  155.3020 N   0  0  0  0  0  0  0  0  0  0  0  0
  147.0792  137.3369  154.3945 C   0  0  0  0  0  0  0  0  0  0  0  0
  146.0002  138.0433  153.5570 C   0  0  0  0  0  0  0  0  0  0  0  0
  145.1195  137.0578  152.8131 C   0  0  0  0  0  0  0  0  0  0  0  0
  145.6127  136.3741  151.6799 C   0  0  0  0  0  0  0  0  0  0  0  0
  144.7749  135.4599  151.0089 C   0  0  0  0  0  0  0  0  0  0  0  0
  143.5167  135.2488  151.4540 N   0  3  0  0  0  0  0  0  0  0  0  0
  143.0065  135.8814  152.5336 C   0  0  0  0  0  0  0  0  0  0  0  0
  143.7985  136.8061  153.2451 C   0  0  0  0  0  0  0  0  0  0  0  0
  149.4616  139.4519  156.2125 N   0  0  0  0  0  0  0  0  0  0  0  0
  148.5943  140.1830  157.1496 C   0  0  0  0  0  0  0  0  0  0  0  0
  148.6263  141.6894  156.8111 C   0  0  0  0  0  0  0  0  0  0  0  0
  150.0149  142.2412  156.8011 N   0  3  0  0  0  0  0  0  0  0  0  0
  150.5584  142.5042  158.1727 C   0  0  2  0  0  0  0  0  0  0  0  0
  149.8689  143.7139  158.8617 C   0  0  0  0  0  0  0  0  0  0  0  0
  151.0409  144.6084  159.2942 C   0  0  1  0  0  0  0  0  0  0  0  0
  151.8302  143.9222  160.4216 C   0  0  0  0  0  0  0  0  0  0  0  0
  152.5558  142.7880  159.6771 C   0  0  0  0  0  0  0  0  0  0  0  0
  152.0502  142.9458  158.2293 C   0  0  2  0  0  0  0  0  0  0  0  0
  151.9765  144.4632  158.1031 C   0  0  0  0  0  0  0  0  0  0  0  0
  150.8920  141.4204  155.9156 C   0  0  0  0  0  0  0  0  0  0  0  0
  150.8476  139.9260  156.2879 C   0  0  0  0  0  0  0  0  0  0  0  0
  147.1942  138.6473  156.0518 H   0  0  0  0  0  0  0  0  0  0  0  0
  147.8134  136.8547  153.7466 H   0  0  0  0  0  0  0  0  0  0  0  0
  146.6264  136.5451  154.9921 H   0  0  0  0  0  0  0  0  0  0  0  0
  145.3771  138.6675  154.1991 H   0  0  0  0  0  0  0  0  0  0  0  0
  146.4611  138.7147  152.8314 H   0  0  0  0  0  0  0  0  0  0  0  0
  146.6207  136.5456  151.3300 H   0  0  0  0  0  0  0  0  0  0  0  0
  145.0714  134.8951  150.1370 H   0  0  0  0  0  0  0  0  0  0  0  0
  141.9886  135.6299  152.7939 H   0  0  0  0  0  0  0  0  0  0  0  0
  143.3961  137.3126  154.1105 H   0  0  0  0  0  0  0  0  0  0  0  0
  147.5586  139.8441  157.1476 H   0  0  0  0  0  0  0  0  0  0  0  0
  148.9487  140.0115  158.1664 H   0  0  0  0  0  0  0  0  0  0  0  0
  148.2018  141.8364  155.8170 H   0  0  0  0  0  0  0  0  0  0  0  0
  147.9718  142.2344  157.4890 H   0  0  0  0  0  0  0  0  0  0  0  0
  150.4241  141.6057  158.7753 H   0  0  0  0  0  0  0  0  0  0  0  0
  149.2439  144.2784  158.1686 H   0  0  0  0  0  0  0  0  0  0  0  0
  149.2424  143.4121  159.7019 H   0  0  0  0  0  0  0  0  0  0  0  0
  150.7465  145.6324  159.5262 H   0  0  0  0  0  0  0  0  0  0  0  0
  152.5493  144.6089  160.8698 H   0  0  0  0  0  0  0  0  0  0  0  0
  151.1793  143.5518  161.2146 H   0  0  0  0  0  0  0  0  0  0  0  0
  153.6360  142.9319  159.7263 H   0  0  0  0  0  0  0  0  0  0  0  0
  152.3349  141.8048  160.0945 H   0  0  0  0  0  0  0  0  0  0  0  0
  152.7281  142.4709  157.5249 H   0  0  0  0  0  0  0  0  0  0  0  0
  151.5388  144.7989  157.1614 H   0  0  0  0  0  0  0  0  0  0  0  0
  152.9392  144.9575  158.2471 H   0  0  0  0  0  0  0  0  0  0  0  0
  150.5274  141.5356  154.8938 H   0  0  0  0  0  0  0  0  0  0  0  0
  151.9174  141.7769  155.8826 H   0  0  0  0  0  0  0  0  0  0  0  0
  151.2285  139.7700  157.2978 H   0  0  0  0  0  0  0  0  0  0  0  0
  151.5192  139.3656  155.6361 H   0  0  0  0  0  0  0  0  0  0  0  0
  149.9551  143.1513  156.3667 H   0  0  0  0  0  0  0  0  0  0  0  0
  142.9270  134.5830  150.9538 H   0  0  0  0  0  0  0  0  0  0  0  0
  1  2  2  0  0  0  0
  2  3  1  0  0  0  0
  2 12  1  0  0  0  0
  3  4  1  0  0  0  0
  3 25  1  0  0  0  0
  4  5  1  0  0  0  0
  4 26  1  0  0  0  0
  4 27  1  0  0  0  0
  5  6  1  0  0  0  0
  5 28  1  0  0  0  0
  5 29  1  0  0  0  0
  6 11  1  0  0  0  0
  6  7  2  0  0  0  0
  7  8  1  0  0  0  0
  7 30  1  0  0  0  0
  8  9  2  0  0  0  0
  8 31  1  0  0  0  0
  9 10  1  0  0  0  0
  9 54  1  0  0  0  0
 10 11  2  0  0  0  0
 10 32  1  0  0  0  0
 11 33  1  0  0  0  0
 12 24  1  0  0  0  0
 12 13  1  0  0  0  0
 13 14  1  0  0  0  0
 13 34  1  0  0  0  0
 13 35  1  0  0  0  0
 14 15  1  0  0  0  0
 14 36  1  0  0  0  0
 14 37  1  0  0  0  0
 15 16  1  0  0  0  0
 15 23  1  0  0  0  0
 15 53  1  0  0  0  0
 16 21  1  0  0  0  0
 16 17  1  0  0  0  0
 16 38  1  0  0  0  0
 17 18  1  0  0  0  0
 17 39  1  0  0  0  0
 17 40  1  0  0  0  0
 18 22  1  0  0  0  0
 18 19  1  0  0  0  0
 18 41  1  0  0  0  0
 19 20  1  0  0  0  0
 19 42  1  0  0  0  0
 19 43  1  0  0  0  0
 20 21  1  0  0  0  0
 20 44  1  0  0  0  0
 20 45  1  0  0  0  0
 21 22  1  0  0  0  0
 21 46  1  0  0  0  0
 22 47  1  0  0  0  0
 22 48  1  0  0  0  0
 23 24  1  0  0  0  0
 23 49  1  0  0  0  0
 23 50  1  0  0  0  0
 24 51  1  0  0  0  0
 24 52  1  0  0  0  0
M  CHG  1   9   1
M  CHG  1  15   1
M  END
> <s_m_source_file>
AV-unprocessed.smi

> <i_m_source_file_index>
2895

> <i_lp_mmshare_version>
43012

> <i_f3d_flags>
0

> <s_epik_input>
W0NIMl0xW0NIMl1bQ0BASF0oW0NIMl0yKVtDQEBIXShbQ0gyXVtDQEhdMTIpTihbQ0gyXVtDSDJdMylbQ0gyXVtDSDJdTjNDKD1PKVtOSF1bQ0gyXVtDSDJdYzRbY0hdW2NIXW5bY0hdW2NIXTQ=

> <s_epik_cmdline>
J2VwaWtfcHl0aG9uJywgJy1waCcsICc3LjAnLCAnLXRuJywgJzgnLCAnLW1hJywgJzIwMCcsICctbWV0YWxfYmluZGluZycsICctaW1hZScsICc8aW5maWxlLm1hZT4nLCAnLW9tYWUnLCAnPG91dGZpbGUubWFlPic=

> <r_epik_Ionization_Penalty>
1.44916

> <r_epik_Ionization_Penalty_Charging>
1.44913

> <r_epik_Ionization_Penalty_Neutral>
2.64641e-05

> <r_epik_State_Penalty>
1.53218

> <r_epik_Charging_Adjusted_Penalty>
2.98131

> <i_epik_Tot_Q>
2

> <i_epik_Tot_abs_Q>
2

> <r_epik_Metal_State_Penalty>
1.58241

> <b_epik_Metal_Only>
0

> <s_lp_Force_Field>
OPLS_2005

> <r_lp_Energy>
108.082

> <b_lp_Chiralities_Consistent>
1

> <s_lp_Variant>
AV-unprocessed.smi:2895-7

> <Gold.Version>
5.8.1

> <Gold.Id.Protein>
6NUR|6NUR_protein|mol2

> <Gold.PLP.Fitness>
46.8279

> <Gold.PLP.PLP>
-40.2989

> <Gold.PLP.part.hbond>
-1.4102

> <Gold.PLP.part.metal>
0.0000

> <Gold.PLP.part.buried>
-6.5053

> <Gold.PLP.part.nonpolar>
-33.7594

> <Gold.PLP.part.repulsive>
0.2787

> <Gold.PLP.ligand.clash>
0.0000

> <Gold.PLP.ligand.torsion>
0.4204

> <Gold.PLP.Chemscore.Hbond>
2.4208

> <Gold.PLP.Chemscore.CHOScore>
0.0000

> <Gold.PLP.Chemscore.Metal>
0.0000

> <Gold.Chemscore.Hbonds>
donor molecule, donor type, donor heavy atom, donor atom, acceptor molecule, acceptor atom, score
      L1  H     9    54       P1 10186  0.22
      L1  H    15    53       P1  8028  2.00

> <Gold.PLP.Chemscore.Internal.Correction>
0.1075

> <Gold.Rescore>
     Score         DG    S(hbond)    S(metal)    S(lipo)     H(rot)  DE(clash)    DE(int)     intcor
     18.84     -19.29       1.00        0.00     121.33       1.46       0.07       0.38       ----

> <Gold.Chemscore.Fitness>
18.8352

> <Gold.Chemscore.DG>
-19.2941

> <Gold.Chemscore.ZeroCoef>
-5.4800

> <Gold.Chemscore.Hbond>
1.0026

> <Gold.Chemscore.Metal>
0.0000

> <Gold.Chemscore.Lipo>
121.3323

> <Gold.Chemscore.Internal_Hbond>
0.0000

> <Gold.Chemscore.DEClash>
0.0741

> <Gold.Chemscore.DEInternal>
0.3848

> <Gold.Chemscore.Rot>
1.4572

> <Gold.Chemscore.Internal.Correction>
   9.000000E+99

> <Gold.Chemscore.Hbonds>
donor molecule, donor type, donor heavy atom, donor atom, acceptor molecule, acceptor atom, score
      L1  H     9    54       P1 10186  0.03
      L1  H    15    53       P1  8028  0.90

> <Gold.Chemscore.Hbond.Weighted>
-3.3487

> <Gold.Chemscore.Metal.Weighted>
-0.0000

> <Gold.Chemscore.Lipo.Weighted>
-14.1959

> <Gold.Chemscore.Internal_Hbond.Weighted>
0.0000

> <Gold.Chemscore.DEClash.Weighted>
0.0741

> <Gold.Chemscore.DEInternal.Weighted>
0.3848

> <Gold.Chemscore.Rot.Weighted>
3.7305

> <Gold.Chemscore.Internal.Correction.Weighted>
   9.000000E+99

> <Gold.Protein.RotatedTorsions>
[ 6907 6896 6895 6894 ] final   71.37 input  -60.11 | X-H torsion
[ 7974 7965 7964 7962 ] final  -10.27 input  175.53 | X-H torsion
[ 8008 7997 7996 7995 ] final   -8.53 input   59.86 | X-H torsion
[ 10167 10162 10161 10158 ] final  141.92 input  -65.29 | X-H torsion
[ 10718 10713 10712 10709 ] final  -10.45 input   66.30 | X-H torsion
[ 10763 10752 10751 10750 ] final   -9.56 input  -60.55 | X-H torsion
[ 11005 11000 10999 10996 ] final  -12.02 input  -57.11 | X-H torsion

> <Gold.Protein.ActiveResidues>
 VAL166  LYS551  ARG553  GLY616  TRP617  ASP618  TYR619  PRO620  LYS621  CYS622 
 ASP623  PHE694  ASN695  SER759  ASP760  ASP761  ALA762  ILE779  LEU786  VAL792 
 PHE793  MET794  SER795  GLU796  ALA797  LYS798  CYS799  TRP800  GLU811  SER814 

> <Gold.Protein.RotatedAtoms>
  152.4805  134.4731  159.9641 H   0  0  0  0  0  0  0  0  0  0  0  0  # atno 6907 bound_to 6896
  151.4738  133.3557  159.2835 H   0  0  0  0  0  0  0  0  0  0  0  0  # atno 6908 bound_to 6896
  150.8875  134.8300  159.7330 H   0  0  0  0  0  0  0  0  0  0  0  0  # atno 6909 bound_to 6896
  146.2226  140.2739  142.8358 H   0  0  0  0  0  0  0  0  0  0  0  0  # atno 7974 bound_to 7965
  154.5732  140.2378  155.8161 H   0  0  0  0  0  0  0  0  0  0  0  0  # atno 8008 bound_to 7997
  156.2123  140.3022  155.9717 H   0  0  0  0  0  0  0  0  0  0  0  0  # atno 8009 bound_to 7997
  155.2674  140.0417  157.2994 H   0  0  0  0  0  0  0  0  0  0  0  0  # atno 8010 bound_to 7997
  139.5007  144.6140  151.6206 H   0  0  0  0  0  0  0  0  0  0  0  0  # atno 10167 bound_to 10162
  156.6734  130.5016  149.5993 H   0  0  0  0  0  0  0  0  0  0  0  0  # atno 10718 bound_to 10713
  153.4565  135.7015  153.6077 H   0  0  0  0  0  0  0  0  0  0  0  0  # atno 10763 bound_to 10752
  153.4389  135.3785  155.2216 H   0  0  0  0  0  0  0  0  0  0  0  0  # atno 10764 bound_to 10752
  154.8728  135.3969  154.3984 H   0  0  0  0  0  0  0  0  0  0  0  0  # atno 10765 bound_to 10752
  140.7613  133.8512  155.9127 H   0  0  0  0  0  0  0  0  0  0  0  0  # atno 11005 bound_to 11000
  144.9247  140.7908  143.5726 LP  0  0  0  0  0  0  0  0  0  0  0  0  # atno 17320 bound_to 7965
  145.2678  139.1966  143.4858 LP  0  0  0  0  0  0  0  0  0  0  0  0  # atno 17321 bound_to 7965
  140.5823  143.9924  150.6275 LP  0  0  0  0  0  0  0  0  0  0  0  0  # atno 17342 bound_to 10162
  140.3078  143.3218  152.0909 LP  0  0  0  0  0  0  0  0  0  0  0  0  # atno 17343 bound_to 10162
  156.1922  130.6567  151.1074 LP  0  0  0  0  0  0  0  0  0  0  0  0  # atno 17370 bound_to 10713
  157.7069  131.0752  150.6635 LP  0  0  0  0  0  0  0  0  0  0  0  0  # atno 17371 bound_to 10713
  140.9660  134.1593  157.4615 LP  0  0  0  0  0  0  0  0  0  0  0  0  # atno 17394 bound_to 11000
  139.8770  134.9962  156.5781 LP  0  0  0  0  0  0  0  0  0  0  0  0  # atno 17395 bound_to 11000

$$$$
