AV-unprocessed.smi:1473|AV-procd|sdf|5972|dock4
  -GOLD-   22720 6 63D 1   1.00000     0.00000
 Structure written by MMmdl.
 33 34  0  0  0  0  0  0  0  0  4 V2000
  154.6626  138.3301  158.0124 N   0  5  0  0  0  0  0  0  0  0  0  0
  153.3161  137.6892  157.3810 S   0  0  0  0  0  0  0  0  0  0  0  0
  153.5240  136.2551  157.1322 O   0  0  0  0  0  0  0  0  0  0  0  0
  152.1333  138.0219  158.1946 O   0  0  0  0  0  0  0  0  0  0  0  0
  153.3759  138.5096  155.9695 N   0  5  0  0  0  0  0  0  0  0  0  0
  152.2129  138.6850  155.1006 C   0  0  0  0  0  0  0  0  0  0  0  0
  151.3610  139.8825  155.4999 C   0  0  0  0  0  0  0  0  0  0  0  0
  150.2759  140.2996  154.6929 C   0  0  0  0  0  0  0  0  0  0  0  0
  149.5409  141.4422  155.0666 C   0  0  0  0  0  0  0  0  0  0  0  0
  149.8785  142.1267  156.1808 N   0  3  0  0  0  0  0  0  0  0  0  0
  150.9032  141.7678  156.9849 C   0  0  0  0  0  0  0  0  0  0  0  0
  151.1725  142.5868  158.0885 N   0  0  0  0  0  0  0  0  0  0  0  0
  152.1560  142.0320  159.0100 C   0  0  0  0  0  0  0  0  0  0  0  0
  152.3069  142.9548  160.2313 C   0  0  0  0  0  0  0  0  0  0  0  0
  152.6573  144.2655  159.7961 O   0  0  0  0  0  0  0  0  0  0  0  0
  151.6637  144.8334  158.9469 C   0  0  0  0  0  0  0  0  0  0  0  0
  151.4875  143.9545  157.6964 C   0  0  0  0  0  0  0  0  0  0  0  0
  151.6654  140.6214  156.6674 C   0  0  0  0  0  0  0  0  0  0  0  0
  154.4652  138.6091  158.9805 H   0  0  0  0  0  0  0  0  0  0  0  0
  152.5177  138.8314  154.0637 H   0  0  0  0  0  0  0  0  0  0  0  0
  151.5789  137.7976  155.0845 H   0  0  0  0  0  0  0  0  0  0  0  0
  150.0125  139.7720  153.7860 H   0  0  0  0  0  0  0  0  0  0  0  0
  148.7078  141.8345  154.5023 H   0  0  0  0  0  0  0  0  0  0  0  0
  151.8437  141.0364  159.3274 H   0  0  0  0  0  0  0  0  0  0  0  0
  153.1199  141.9260  158.5108 H   0  0  0  0  0  0  0  0  0  0  0  0
  151.3838  142.9874  160.8123 H   0  0  0  0  0  0  0  0  0  0  0  0
  153.0877  142.5792  160.8929 H   0  0  0  0  0  0  0  0  0  0  0  0
  150.7216  144.9320  159.4884 H   0  0  0  0  0  0  0  0  0  0  0  0
  151.9731  145.8384  158.6596 H   0  0  0  0  0  0  0  0  0  0  0  0
  152.4026  143.9663  157.1020 H   0  0  0  0  0  0  0  0  0  0  0  0
  150.6906  144.3532  157.0672 H   0  0  0  0  0  0  0  0  0  0  0  0
  152.5002  140.3429  157.2965 H   0  0  0  0  0  0  0  0  0  0  0  0
  149.3418  142.9603  156.4201 H   0  0  0  0  0  0  0  0  0  0  0  0
  1  2  1  0  0  0  0
  1 19  1  0  0  0  0
  2  3  2  0  0  0  0
  2  4  2  0  0  0  0
  2  5  1  0  0  0  0
  5  6  1  0  0  0  0
  6  7  1  0  0  0  0
  6 20  1  0  0  0  0
  6 21  1  0  0  0  0
  7 18  1  0  0  0  0
  7  8  2  0  0  0  0
  8  9  1  0  0  0  0
  8 22  1  0  0  0  0
  9 10  2  0  0  0  0
  9 23  1  0  0  0  0
 10 11  1  0  0  0  0
 10 33  1  0  0  0  0
 11 12  1  0  0  0  0
 11 18  2  0  0  0  0
 12 17  1  0  0  0  0
 12 13  1  0  0  0  0
 13 14  1  0  0  0  0
 13 24  1  0  0  0  0
 13 25  1  0  0  0  0
 14 15  1  0  0  0  0
 14 26  1  0  0  0  0
 14 27  1  0  0  0  0
 15 16  1  0  0  0  0
 16 17  1  0  0  0  0
 16 28  1  0  0  0  0
 16 29  1  0  0  0  0
 17 30  1  0  0  0  0
 17 31  1  0  0  0  0
 18 32  1  0  0  0  0
M  CHG  1   1  -1
M  CHG  1   5  -1
M  CHG  1  10   1
M  END
> <s_m_source_file>
AV-unprocessed.smi

> <i_m_source_file_index>
1473

> <i_lp_mmshare_version>
43012

> <i_f3d_flags>
0

> <s_epik_input>
W05IMl1TKD1PKSg9TylbTkhdW0NIMl1jMVtjSF1bY0hdbmMoW2NIXTEpTjJbQ0gyXVtDSDJdT1tDSDJdW0NIMl0y

> <s_epik_cmdline>
J2VwaWtfcHl0aG9uJywgJy1waCcsICc3LjAnLCAnLXRuJywgJzgnLCAnLW1hJywgJzIwMCcsICctbWV0YWxfYmluZGluZycsICctaW1hZScsICc8aW5maWxlLm1hZT4nLCAnLW9tYWUnLCAnPG91dGZpbGUubWFlPic=

> <r_epik_Ionization_Penalty>
8.27174

> <r_epik_Ionization_Penalty_Charging>
8.27174

> <r_epik_Ionization_Penalty_Neutral>
3.18726e-12

> <r_epik_State_Penalty>
4.90783

> <r_epik_Charging_Adjusted_Penalty>
13.1796

> <i_epik_Tot_Q>
-1

> <i_epik_Tot_abs_Q>
3

> <r_epik_Metal_State_Penalty>
1.75942

> <b_epik_Metal_Only>
1

> <s_lp_Force_Field>
OPLS_2005

> <r_lp_Energy>
13.3583

> <b_lp_Chiralities_Consistent>
1

> <s_lp_Variant>
AV-unprocessed.smi:1473-7

> <Gold.Version>
5.8.1

> <Gold.Id.Protein>
6NUR|6NUR_protein|mol2

> <Gold.PLP.Fitness>
50.6155

> <Gold.PLP.PLP>
-35.2369

> <Gold.PLP.part.hbond>
-4.0000

> <Gold.PLP.part.metal>
0.0000

> <Gold.PLP.part.buried>
-1.2696

> <Gold.PLP.part.nonpolar>
-30.5848

> <Gold.PLP.part.repulsive>
0.1737

> <Gold.PLP.ligand.clash>
0.0000

> <Gold.PLP.ligand.torsion>
0.8946

> <Gold.PLP.Chemscore.Hbond>
5.3520

> <Gold.PLP.Chemscore.CHOScore>
0.0000

> <Gold.PLP.Chemscore.Metal>
0.0000

> <Gold.Chemscore.Hbonds>
donor molecule, donor type, donor heavy atom, donor atom, acceptor molecule, acceptor atom, score
      L1  H    10    33       P1  8028  1.60
      P1  H  7997  8008       L1     1  1.22
      P1  H  7997  8009       L1     5  1.47
      P1  H 10752 10764       L1     3  1.00

> <Gold.PLP.Chemscore.Internal.Correction>
1.1118

> <Gold.Rescore>
     Score         DG    S(hbond)    S(metal)    S(lipo)     H(rot)  DE(clash)    DE(int)     intcor
     17.34     -19.38       2.70        0.00      83.15       1.89       1.18       0.86       ----

> <Gold.Chemscore.Fitness>
17.3429

> <Gold.Chemscore.DG>
-19.3813

> <Gold.Chemscore.ZeroCoef>
-5.4800

> <Gold.Chemscore.Hbond>
2.6996

> <Gold.Chemscore.Metal>
0.0000

> <Gold.Chemscore.Lipo>
83.1512

> <Gold.Chemscore.Internal_Hbond>
0.0000

> <Gold.Chemscore.DEClash>
1.1831

> <Gold.Chemscore.DEInternal>
0.8552

> <Gold.Chemscore.Rot>
1.8922

> <Gold.Chemscore.Internal.Correction>
   9.000000E+99

> <Gold.Chemscore.Hbonds>
donor molecule, donor type, donor heavy atom, donor atom, acceptor molecule, acceptor atom, score
      L1  H    10    33       P1  8028  0.78
      P1  H  7997  8008       L1     1  0.15
      P1  H  7997  8009       L1     5  0.50
      P1  H 10752 10764       L1     3  0.94

> <Gold.Chemscore.Hbond.Weighted>
-9.0167

> <Gold.Chemscore.Metal.Weighted>
-0.0000

> <Gold.Chemscore.Lipo.Weighted>
-9.7287

> <Gold.Chemscore.Internal_Hbond.Weighted>
0.0000

> <Gold.Chemscore.DEClash.Weighted>
1.1831

> <Gold.Chemscore.DEInternal.Weighted>
0.8552

> <Gold.Chemscore.Rot.Weighted>
4.8441

> <Gold.Chemscore.Internal.Correction.Weighted>
   9.000000E+99

> <Gold.Protein.RotatedTorsions>
[ 6907 6896 6895 6894 ] final  150.23 input  -60.11 | X-H torsion
[ 7974 7965 7964 7962 ] final   56.28 input  175.53 | X-H torsion
[ 8008 7997 7996 7995 ] final -140.54 input   59.86 | X-H torsion
[ 10167 10162 10161 10158 ] final   30.41 input  -65.29 | X-H torsion
[ 10718 10713 10712 10709 ] final  137.11 input   66.30 | X-H torsion
[ 10763 10752 10751 10750 ] final   -3.82 input  -60.55 | X-H torsion
[ 11005 11000 10999 10996 ] final  107.50 input  -57.11 | X-H torsion

> <Gold.Protein.ActiveResidues>
 VAL166  LYS551  ARG553  GLY616  TRP617  ASP618  TYR619  PRO620  LYS621  CYS622 
 ASP623  PHE694  ASN695  SER759  ASP760  ASP761  ALA762  ILE779  LEU786  VAL792 
 PHE793  MET794  SER795  GLU796  ALA797  LYS798  CYS799  TRP800  GLU811  SER814 

> <Gold.Protein.RotatedAtoms>
  152.1173  133.4333  159.4658 H   0  0  0  0  0  0  0  0  0  0  0  0  # atno 6907 bound_to 6896
  150.6870  134.2577  159.4546 H   0  0  0  0  0  0  0  0  0  0  0  0  # atno 6908 bound_to 6896
  152.0451  134.9687  160.0625 H   0  0  0  0  0  0  0  0  0  0  0  0  # atno 6909 bound_to 6896
  145.9415  139.3892  143.0361 H   0  0  0  0  0  0  0  0  0  0  0  0  # atno 7974 bound_to 7965
  155.4630  140.0547  157.2988 H   0  0  0  0  0  0  0  0  0  0  0  0  # atno 8008 bound_to 7997
  154.4729  140.2048  155.9903 H   0  0  0  0  0  0  0  0  0  0  0  0  # atno 8009 bound_to 7997
  156.1086  140.3208  155.8045 H   0  0  0  0  0  0  0  0  0  0  0  0  # atno 8010 bound_to 7997
  140.4680  144.0805  150.6230 H   0  0  0  0  0  0  0  0  0  0  0  0  # atno 10167 bound_to 10162
  157.4396  131.1056  151.0159 H   0  0  0  0  0  0  0  0  0  0  0  0  # atno 10718 bound_to 10713
  153.3765  135.6996  153.6597 H   0  0  0  0  0  0  0  0  0  0  0  0  # atno 10763 bound_to 10752
  153.5226  135.3609  155.2639 H   0  0  0  0  0  0  0  0  0  0  0  0  # atno 10764 bound_to 10752
  154.8687  135.4161  154.3054 H   0  0  0  0  0  0  0  0  0  0  0  0  # atno 10765 bound_to 10752
  139.8829  134.9402  156.5829 H   0  0  0  0  0  0  0  0  0  0  0  0  # atno 11005 bound_to 11000
  145.8293  140.9639  143.0857 LP  0  0  0  0  0  0  0  0  0  0  0  0  # atno 17320 bound_to 7965
  144.6780  140.0142  143.7484 LP  0  0  0  0  0  0  0  0  0  0  0  0  # atno 17321 bound_to 7965
  140.4012  143.2703  151.9946 LP  0  0  0  0  0  0  0  0  0  0  0  0  # atno 17342 bound_to 10162
  139.4814  144.5996  151.7629 LP  0  0  0  0  0  0  0  0  0  0  0  0  # atno 17343 bound_to 10162
  157.1026  130.5988  149.5464 LP  0  0  0  0  0  0  0  0  0  0  0  0  # atno 17370 bound_to 10713
  155.9943  130.5007  150.7416 LP  0  0  0  0  0  0  0  0  0  0  0  0  # atno 17371 bound_to 10713
  140.8014  133.8502  155.8730 LP  0  0  0  0  0  0  0  0  0  0  0  0  # atno 17394 bound_to 11000
  140.9589  134.1681  157.4669 LP  0  0  0  0  0  0  0  0  0  0  0  0  # atno 17395 bound_to 11000

$$$$
