AV-unprocessed.smi:384|AV-procd|sdf|2469|dock2
  -GOLD-   2262022413D 1   1.00000     0.00000
 Structure written by MMmdl.
 33 34  0  0  0  0  0  0  0  0  3 V2000
  144.6918  135.3831  151.4076 C   0  0  0  0  0  0  0  0  0  0  0  0
  145.7169  134.2446  151.4111 C   0  0  1  0  0  0  0  0  0  0  0  0
  146.6633  134.3215  152.6238 C   0  0  0  0  0  0  0  0  0  0  0  0
  147.5541  133.1691  152.6365 N   0  0  0  0  0  0  0  0  0  0  0  0
  148.5085  133.2266  153.6600 C   0  0  0  0  0  0  0  0  0  0  0  0
  148.7876  132.1455  154.5273 C   0  0  0  0  0  0  0  0  0  0  0  0
  149.7664  132.2993  155.5307 C   0  0  0  0  0  0  0  0  0  0  0  0
  150.4539  133.5290  155.6554 C   0  0  0  0  0  0  0  0  0  0  0  0
  151.5021  133.7241  156.7136 C   0  0  0  0  0  0  0  0  0  0  0  0
  152.1116  134.8155  156.7605 O   0  0  0  0  0  0  0  0  0  0  0  0
  151.7314  132.7893  157.5127 O   0  5  0  0  0  0  0  0  0  0  0  0
  150.1301  134.5722  154.7583 C   0  0  0  0  0  0  0  0  0  0  0  0
  149.1853  134.3854  153.8104 N   0  3  0  0  0  0  0  0  0  0  0  0
  146.8313  131.9051  152.5976 C   0  0  0  0  0  0  0  0  0  0  0  0
  145.8828  131.8768  151.3846 C   0  0  1  0  0  0  0  0  0  0  0  0
  145.0264  130.6067  151.3529 C   0  0  0  0  0  0  0  0  0  0  0  0
  145.0131  133.0049  151.4516 O   0  0  0  0  0  0  0  0  0  0  0  0
  145.1843  136.3550  151.3683 H   0  0  0  0  0  0  0  0  0  0  0  0
  144.0700  135.3585  152.3031 H   0  0  0  0  0  0  0  0  0  0  0  0
  144.0323  135.3103  150.5423 H   0  0  0  0  0  0  0  0  0  0  0  0
  146.2962  134.2963  150.4874 H   0  0  0  0  0  0  0  0  0  0  0  0
  147.2515  135.2391  152.5836 H   0  0  0  0  0  0  0  0  0  0  0  0
  146.0833  134.3493  153.5476 H   0  0  0  0  0  0  0  0  0  0  0  0
  148.2613  131.2073  154.4307 H   0  0  0  0  0  0  0  0  0  0  0  0
  149.9807  131.4744  156.1947 H   0  0  0  0  0  0  0  0  0  0  0  0
  150.5943  135.5479  154.7675 H   0  0  0  0  0  0  0  0  0  0  0  0
  147.5412  131.0789  152.5388 H   0  0  0  0  0  0  0  0  0  0  0  0
  146.2611  131.7770  153.5187 H   0  0  0  0  0  0  0  0  0  0  0  0
  146.4628  131.9273  150.4613 H   0  0  0  0  0  0  0  0  0  0  0  0
  145.6500  129.7143  151.2922 H   0  0  0  0  0  0  0  0  0  0  0  0
  144.3624  130.6066  150.4882 H   0  0  0  0  0  0  0  0  0  0  0  0
  144.4086  130.5236  152.2474 H   0  0  0  0  0  0  0  0  0  0  0  0
  148.9749  135.1583  153.1788 H   0  0  0  0  0  0  0  0  0  0  0  0
  1  2  1  0  0  0  0
  1 18  1  0  0  0  0
  1 19  1  0  0  0  0
  1 20  1  0  0  0  0
  2 17  1  0  0  0  0
  2  3  1  0  0  0  0
  2 21  1  0  0  0  0
  3  4  1  0  0  0  0
  3 22  1  0  0  0  0
  3 23  1  0  0  0  0
  4  5  1  0  0  0  0
  4 14  1  0  0  0  0
  5 13  1  0  0  0  0
  5  6  2  0  0  0  0
  6  7  1  0  0  0  0
  6 24  1  0  0  0  0
  7  8  2  0  0  0  0
  7 25  1  0  0  0  0
  8  9  1  0  0  0  0
  8 12  1  0  0  0  0
  9 10  2  0  0  0  0
  9 11  1  0  0  0  0
 12 13  2  0  0  0  0
 12 26  1  0  0  0  0
 13 33  1  0  0  0  0
 14 15  1  0  0  0  0
 14 27  1  0  0  0  0
 14 28  1  0  0  0  0
 15 16  1  0  0  0  0
 15 17  1  0  0  0  0
 15 29  1  0  0  0  0
 16 30  1  0  0  0  0
 16 31  1  0  0  0  0
 16 32  1  0  0  0  0
M  CHG  1  11  -1
M  CHG  1  13   1
M  END
> <s_m_source_file>
AV-unprocessed.smi

> <i_m_source_file_index>
384

> <i_lp_mmshare_version>
43012

> <i_f3d_flags>
0

> <s_epik_input>
W0NIM11bQ0BASF0xW0NIMl1OKFtDSDJdW0NASF0oTzEpW0NIM10pYzJbY0hdW2NIXWMoW2NIXW4yKUMoPU8pW09IXQ==

> <s_epik_cmdline>
J2VwaWtfcHl0aG9uJywgJy1waCcsICc3LjAnLCAnLXRuJywgJzgnLCAnLW1hJywgJzIwMCcsICctbWV0YWxfYmluZGluZycsICctaW1hZScsICc8aW5maWxlLm1hZT4nLCAnLW9tYWUnLCAnPG91dGZpbGUubWFlPic=

> <r_epik_Ionization_Penalty>
2.35185

> <r_epik_Ionization_Penalty_Charging>
2.35185

> <r_epik_Ionization_Penalty_Neutral>
3.18713e-12

> <r_epik_State_Penalty>
2.50619

> <r_epik_Charging_Adjusted_Penalty>
4.85804

> <i_epik_Tot_Q>
0

> <i_epik_Tot_abs_Q>
2

> <r_epik_Metal_State_Penalty>
6.59026

> <b_epik_Metal_Only>
0

> <s_lp_Force_Field>
OPLS_2005

> <r_lp_Energy>
16.4977

> <b_lp_Chiralities_Consistent>
1

> <s_lp_Variant>
AV-unprocessed.smi:384-5

> <Gold.Version>
5.8.1

> <Gold.Id.Protein>
6NUR|6NUR_protein|mol2

> <Gold.PLP.Fitness>
44.1348

> <Gold.PLP.PLP>
-26.5232

> <Gold.PLP.part.hbond>
-3.2333

> <Gold.PLP.part.metal>
0.0000

> <Gold.PLP.part.buried>
-0.9080

> <Gold.PLP.part.nonpolar>
-22.3261

> <Gold.PLP.part.repulsive>
0.2872

> <Gold.PLP.ligand.clash>
0.0000

> <Gold.PLP.ligand.torsion>
0.1421

> <Gold.PLP.Chemscore.Hbond>
5.9360

> <Gold.PLP.Chemscore.CHOScore>
0.0000

> <Gold.PLP.Chemscore.Metal>
0.0000

> <Gold.Chemscore.Hbonds>
donor molecule, donor type, donor heavy atom, donor atom, acceptor molecule, acceptor atom, score
      L1  H    13    33       P1  7948  2.00
      P1  H  6896  6908       L1    11  1.92
      P1  H 10752 10765       L1    10  1.93

> <Gold.PLP.Chemscore.Internal.Correction>
0.0877

> <Gold.Rescore>
     Score         DG    S(hbond)    S(metal)    S(lipo)     H(rot)  DE(clash)    DE(int)     intcor
     17.48     -17.85       2.42        0.00      58.64       1.00       0.01       0.36       ----

> <Gold.Chemscore.Fitness>
17.4757

> <Gold.Chemscore.DG>
-17.8494

> <Gold.Chemscore.ZeroCoef>
-5.4800

> <Gold.Chemscore.Hbond>
2.4156

> <Gold.Chemscore.Metal>
0.0000

> <Gold.Chemscore.Lipo>
58.6434

> <Gold.Chemscore.Internal_Hbond>
0.0000

> <Gold.Chemscore.DEClash>
0.0119

> <Gold.Chemscore.DEInternal>
0.3618

> <Gold.Chemscore.Rot>
1.0000

> <Gold.Chemscore.Internal.Correction>
   9.000000E+99

> <Gold.Chemscore.Hbonds>
donor molecule, donor type, donor heavy atom, donor atom, acceptor molecule, acceptor atom, score
      L1  H    13    33       P1  7948  0.30
      P1  H  6896  6908       L1    11  0.76
      P1  H 10752 10765       L1    10  0.85

> <Gold.Chemscore.Hbond.Weighted>
-8.0681

> <Gold.Chemscore.Metal.Weighted>
-0.0000

> <Gold.Chemscore.Lipo.Weighted>
-6.8613

> <Gold.Chemscore.Internal_Hbond.Weighted>
0.0000

> <Gold.Chemscore.DEClash.Weighted>
0.0119

> <Gold.Chemscore.DEInternal.Weighted>
0.3618

> <Gold.Chemscore.Rot.Weighted>
2.5600

> <Gold.Chemscore.Internal.Correction.Weighted>
   9.000000E+99

> <Gold.Protein.RotatedTorsions>
[ 6907 6896 6895 6894 ] final   65.06 input  -60.11 | X-H torsion
[ 7974 7965 7964 7962 ] final -169.59 input  175.53 | X-H torsion
[ 8008 7997 7996 7995 ] final -130.36 input   59.86 | X-H torsion
[ 10167 10162 10161 10158 ] final -119.39 input  -65.29 | X-H torsion
[ 10718 10713 10712 10709 ] final  -11.19 input   66.30 | X-H torsion
[ 10763 10752 10751 10750 ] final -133.37 input  -60.55 | X-H torsion
[ 11005 11000 10999 10996 ] final  -59.38 input  -57.11 | X-H torsion

> <Gold.Protein.ActiveResidues>
 VAL166  LYS551  ARG553  GLY616  TRP617  ASP618  TYR619  PRO620  LYS621  CYS622 
 ASP623  PHE694  ASN695  SER759  ASP760  ASP761  ALA762  ILE779  LEU786  VAL792 
 PHE793  MET794  SER795  GLU796  ALA797  LYS798  CYS799  TRP800  GLU811  SER814 

> <Gold.Protein.RotatedAtoms>
  152.4379  134.5650  159.9904 H   0  0  0  0  0  0  0  0  0  0  0  0  # atno 6907 bound_to 6896
  151.5756  133.3378  159.3006 H   0  0  0  0  0  0  0  0  0  0  0  0  # atno 6908 bound_to 6896
  150.8280  134.7554  159.6893 H   0  0  0  0  0  0  0  0  0  0  0  0  # atno 6909 bound_to 6896
  144.7183  140.2198  143.6317 H   0  0  0  0  0  0  0  0  0  0  0  0  # atno 7974 bound_to 7965
  155.2945  140.0450  157.3025 H   0  0  0  0  0  0  0  0  0  0  0  0  # atno 8008 bound_to 7997
  154.5522  140.2321  155.8434 H   0  0  0  0  0  0  0  0  0  0  0  0  # atno 8009 bound_to 7997
  156.1976  140.3034  155.9467 H   0  0  0  0  0  0  0  0  0  0  0  0  # atno 8010 bound_to 7997
  140.0472  143.5096  152.2100 H   0  0  0  0  0  0  0  0  0  0  0  0  # atno 10167 bound_to 10162
  156.6626  130.4986  149.6025 H   0  0  0  0  0  0  0  0  0  0  0  0  # atno 10718 bound_to 10713
  154.8733  135.3768  154.4562 H   0  0  0  0  0  0  0  0  0  0  0  0  # atno 10763 bound_to 10752
  153.5234  135.7028  153.5725 H   0  0  0  0  0  0  0  0  0  0  0  0  # atno 10764 bound_to 10752
  153.3962  135.3960  155.1922 H   0  0  0  0  0  0  0  0  0  0  0  0  # atno 10765 bound_to 10752
  141.1246  133.6616  156.5062 H   0  0  0  0  0  0  0  0  0  0  0  0  # atno 11005 bound_to 11000
  145.8512  139.2176  143.1771 LP  0  0  0  0  0  0  0  0  0  0  0  0  # atno 17320 bound_to 7965
  146.0259  140.8304  142.9900 LP  0  0  0  0  0  0  0  0  0  0  0  0  # atno 17321 bound_to 7965
  139.5976  144.7572  151.3248 LP  0  0  0  0  0  0  0  0  0  0  0  0  # atno 17342 bound_to 10162
  140.7233  143.7074  150.7797 LP  0  0  0  0  0  0  0  0  0  0  0  0  # atno 17343 bound_to 10162
  156.1999  130.6613  151.1156 LP  0  0  0  0  0  0  0  0  0  0  0  0  # atno 17370 bound_to 10713
  157.7104  131.0737  150.6520 LP  0  0  0  0  0  0  0  0  0  0  0  0  # atno 17371 bound_to 10713
  140.4405  134.7019  157.4989 LP  0  0  0  0  0  0  0  0  0  0  0  0  # atno 17394 bound_to 11000
  140.0232  134.6516  155.9210 LP  0  0  0  0  0  0  0  0  0  0  0  0  # atno 17395 bound_to 11000

$$$$
