AV-unprocessed.smi:1751|AV-procd|sdf|7057|dock4
  -GOLD-   22720 8273D 1   1.00000     0.00000
 Structure written by MMmdl.
 35 36  0  0  0  0  0  0  0  0  1 V2000
  142.7902  150.1237  160.2905 C   0  0  0  0  0  0  0  0  0  0  0  0
  143.8918  150.0693  161.1901 O   0  0  0  0  0  0  0  0  0  0  0  0
  144.9590  149.2551  160.8706 C   0  0  0  0  0  0  0  0  0  0  0  0
  146.0273  149.1559  161.7831 C   0  0  0  0  0  0  0  0  0  0  0  0
  147.1215  148.3323  161.4582 C   0  0  0  0  0  0  0  0  0  0  0  0
  147.1217  147.6356  160.2330 C   0  0  0  0  0  0  0  0  0  0  0  0
  148.2427  146.8086  159.9465 N   0  0  0  0  0  0  0  0  0  0  0  0
  149.3677  146.6243  160.6590 C   0  0  0  0  0  0  0  0  0  0  0  0
  149.6334  147.1668  161.7307 O   0  0  0  0  0  0  0  0  0  0  0  0
  150.1828  145.7514  160.0503 N   0  0  0  0  0  0  0  0  0  0  0  0
  151.4908  145.3284  160.5409 C   0  0  0  0  0  0  0  0  0  0  0  0
  151.4483  143.9026  161.1155 C   0  0  1  0  0  0  0  0  0  0  0  0
  152.5821  143.5580  162.0803 C   0  0  0  0  0  0  0  0  0  0  0  0
  151.9773  142.4103  162.8554 C   0  0  0  0  0  0  0  0  0  0  0  0
  150.5176  142.8420  162.9800 C   0  0  0  0  0  0  0  0  0  0  0  0
  150.2617  143.7128  161.8795 O   0  0  0  0  0  0  0  0  0  0  0  0
  145.9942  147.7912  159.3890 C   0  0  0  0  0  0  0  0  0  0  0  0
  144.9417  148.5803  159.6948 N   0  0  0  0  0  0  0  0  0  0  0  0
  142.0420  150.8150  160.6781 H   0  0  0  0  0  0  0  0  0  0  0  0
  142.3147  149.1477  160.1827 H   0  0  0  0  0  0  0  0  0  0  0  0
  143.0951  150.4844  159.3072 H   0  0  0  0  0  0  0  0  0  0  0  0
  146.0083  149.7027  162.7143 H   0  0  0  0  0  0  0  0  0  0  0  0
  147.9518  148.2417  162.1434 H   0  0  0  0  0  0  0  0  0  0  0  0
  148.1596  146.2508  159.1094 H   0  0  0  0  0  0  0  0  0  0  0  0
  149.8797  145.3521  159.1742 H   0  0  0  0  0  0  0  0  0  0  0  0
  152.2501  145.4050  159.7605 H   0  0  0  0  0  0  0  0  0  0  0  0
  151.7899  146.0252  161.3241 H   0  0  0  0  0  0  0  0  0  0  0  0
  151.4336  143.1738  160.3033 H   0  0  0  0  0  0  0  0  0  0  0  0
  153.5089  143.2899  161.5724 H   0  0  0  0  0  0  0  0  0  0  0  0
  152.7854  144.3952  162.7498 H   0  0  0  0  0  0  0  0  0  0  0  0
  152.0480  141.4904  162.2735 H   0  0  0  0  0  0  0  0  0  0  0  0
  152.4569  142.2423  163.8199 H   0  0  0  0  0  0  0  0  0  0  0  0
  149.8371  141.9900  162.9774 H   0  0  0  0  0  0  0  0  0  0  0  0
  150.3591  143.3982  163.9046 H   0  0  0  0  0  0  0  0  0  0  0  0
  145.8997  147.2720  158.4490 H   0  0  0  0  0  0  0  0  0  0  0  0
  1  2  1  0  0  0  0
  1 19  1  0  0  0  0
  1 20  1  0  0  0  0
  1 21  1  0  0  0  0
  2  3  1  0  0  0  0
  3 18  1  0  0  0  0
  3  4  2  0  0  0  0
  4  5  1  0  0  0  0
  4 22  1  0  0  0  0
  5  6  2  0  0  0  0
  5 23  1  0  0  0  0
  6  7  1  0  0  0  0
  6 17  1  0  0  0  0
  7  8  1  0  0  0  0
  7 24  1  0  0  0  0
  8  9  2  0  0  0  0
  8 10  1  0  0  0  0
 10 11  1  0  0  0  0
 10 25  1  0  0  0  0
 11 12  1  0  0  0  0
 11 26  1  0  0  0  0
 11 27  1  0  0  0  0
 12 16  1  0  0  0  0
 12 13  1  0  0  0  0
 12 28  1  0  0  0  0
 13 14  1  0  0  0  0
 13 29  1  0  0  0  0
 13 30  1  0  0  0  0
 14 15  1  0  0  0  0
 14 31  1  0  0  0  0
 14 32  1  0  0  0  0
 15 16  1  0  0  0  0
 15 33  1  0  0  0  0
 15 34  1  0  0  0  0
 17 18  2  0  0  0  0
 17 35  1  0  0  0  0
M  END
> <s_m_source_file>
AV-unprocessed.smi

> <i_m_source_file_index>
1751

> <i_lp_mmshare_version>
43012

> <i_f3d_flags>
0

> <s_epik_input>
W0NIM11PYzFbY0hdW2NIXWMoW2NIXW4xKVtOSF1DKD1PKVtOSF1bQ0gyXVtDQEBIXTJbQ0gyXVtDSDJdW0NIMl1PMg==

> <s_epik_cmdline>
J2VwaWtfcHl0aG9uJywgJy1waCcsICc3LjAnLCAnLXRuJywgJzgnLCAnLW1hJywgJzIwMCcsICctbWV0YWxfYmluZGluZycsICctaW1hZScsICc8aW5maWxlLm1hZT4nLCAnLW9tYWUnLCAnPG91dGZpbGUubWFlPic=

> <r_lp_tautomer_probability>
1

> <r_epik_Ionization_Penalty>
9.01694e-05

> <r_epik_Ionization_Penalty_Charging>
0

> <r_epik_Ionization_Penalty_Neutral>
9.01694e-05

> <r_epik_State_Penalty>
-0

> <r_epik_Charging_Adjusted_Penalty>
0

> <i_epik_Tot_Q>
0

> <i_epik_Tot_abs_Q>
0

> <r_epik_Metal_State_Penalty>
-0

> <b_epik_Metal_Only>
0

> <s_lp_Force_Field>
OPLS_2005

> <r_lp_Energy>
20.1941

> <b_lp_Chiralities_Consistent>
1

> <s_lp_Variant>
AV-unprocessed.smi:1751-2

> <Gold.Version>
5.8.1

> <Gold.Id.Protein>
6NUR|6NUR_protein|mol2

> <Gold.PLP.Fitness>
42.3197

> <Gold.PLP.PLP>
-34.9340

> <Gold.PLP.part.hbond>
-3.2297

> <Gold.PLP.part.metal>
0.0000

> <Gold.PLP.part.buried>
-7.0493

> <Gold.PLP.part.nonpolar>
-25.5486

> <Gold.PLP.part.repulsive>
0.9513

> <Gold.PLP.ligand.clash>
0.0000

> <Gold.PLP.ligand.torsion>
0.2822

> <Gold.PLP.Chemscore.Hbond>
2.6480

> <Gold.PLP.Chemscore.CHOScore>
0.0000

> <Gold.PLP.Chemscore.Metal>
0.0000

> <Gold.Chemscore.Hbonds>
donor molecule, donor type, donor heavy atom, donor atom, acceptor molecule, acceptor atom, score
      L1  H     7    24       P1  8029  1.00
      L1  C    17    35       P1  8029  0.77

> <Gold.PLP.Chemscore.Internal.Correction>
0.0060

> <Gold.Rescore>
     Score         DG    S(hbond)    S(metal)    S(lipo)     H(rot)  DE(clash)    DE(int)     intcor
     16.88     -19.19       2.60        0.00      75.60       1.50       0.02       2.29       ----

> <Gold.Chemscore.Fitness>
16.8822

> <Gold.Chemscore.DG>
-19.1854

> <Gold.Chemscore.ZeroCoef>
-5.4800

> <Gold.Chemscore.Hbond>
2.6028

> <Gold.Chemscore.Metal>
0.0000

> <Gold.Chemscore.Lipo>
75.5952

> <Gold.Chemscore.Internal_Hbond>
0.0000

> <Gold.Chemscore.DEClash>
0.0162

> <Gold.Chemscore.DEInternal>
2.2870

> <Gold.Chemscore.Rot>
1.4971

> <Gold.Chemscore.Internal.Correction>
   9.000000E+99

> <Gold.Chemscore.Hbonds>
donor molecule, donor type, donor heavy atom, donor atom, acceptor molecule, acceptor atom, score
      L1  H     7    24       P1  8029  0.98

> <Gold.Chemscore.Hbond.Weighted>
-8.6933

> <Gold.Chemscore.Metal.Weighted>
-0.0000

> <Gold.Chemscore.Lipo.Weighted>
-8.8446

> <Gold.Chemscore.Internal_Hbond.Weighted>
0.0000

> <Gold.Chemscore.DEClash.Weighted>
0.0162

> <Gold.Chemscore.DEInternal.Weighted>
2.2870

> <Gold.Chemscore.Rot.Weighted>
3.8326

> <Gold.Chemscore.Internal.Correction.Weighted>
   9.000000E+99

> <Gold.Protein.RotatedTorsions>
[ 6907 6896 6895 6894 ] final -138.30 input  -60.11 | X-H torsion
[ 7974 7965 7964 7962 ] final  -41.19 input  175.53 | X-H torsion
[ 8008 7997 7996 7995 ] final   34.44 input   59.86 | X-H torsion
[ 10167 10162 10161 10158 ] final -135.47 input  -65.29 | X-H torsion
[ 10718 10713 10712 10709 ] final   24.60 input   66.30 | X-H torsion
[ 10763 10752 10751 10750 ] final  -99.72 input  -60.55 | X-H torsion
[ 11005 11000 10999 10996 ] final   68.24 input  -57.11 | X-H torsion

> <Gold.Protein.ActiveResidues>
 VAL166  LYS551  ARG553  GLY616  TRP617  ASP618  TYR619  PRO620  LYS621  CYS622 
 ASP623  PHE694  ASN695  SER759  ASP760  ASP761  ALA762  ILE779  LEU786  VAL792 
 PHE793  MET794  SER795  GLU796  ALA797  LYS798  CYS799  TRP800  GLU811  SER814 

> <Gold.Protein.RotatedAtoms>
  151.0332  133.5771  159.2658 H   0  0  0  0  0  0  0  0  0  0  0  0  # atno 6907 bound_to 6896
  151.2845  135.0723  159.9191 H   0  0  0  0  0  0  0  0  0  0  0  0  # atno 6908 bound_to 6896
  152.5349  134.0041  159.7962 H   0  0  0  0  0  0  0  0  0  0  0  0  # atno 6909 bound_to 6896
  146.0235  140.6821  142.9167 H   0  0  0  0  0  0  0  0  0  0  0  0  # atno 7974 bound_to 7965
  155.1549  140.3278  155.4423 H   0  0  0  0  0  0  0  0  0  0  0  0  # atno 8008 bound_to 7997
  156.2562  140.1970  156.6609 H   0  0  0  0  0  0  0  0  0  0  0  0  # atno 8009 bound_to 7997
  154.6446  140.0566  156.9872 H   0  0  0  0  0  0  0  0  0  0  0  0  # atno 8010 bound_to 7997
  139.8776  143.6879  152.2631 H   0  0  0  0  0  0  0  0  0  0  0  0  # atno 10167 bound_to 10162
  157.1819  130.6807  149.6116 H   0  0  0  0  0  0  0  0  0  0  0  0  # atno 10718 bound_to 10713
  154.7521  135.4962  153.9307 H   0  0  0  0  0  0  0  0  0  0  0  0  # atno 10763 bound_to 10752
  153.1155  135.6719  153.9434 H   0  0  0  0  0  0  0  0  0  0  0  0  # atno 10764 bound_to 10752
  153.9181  135.3091  155.3427 H   0  0  0  0  0  0  0  0  0  0  0  0  # atno 10765 bound_to 10752
  139.9723  134.6880  156.0422 H   0  0  0  0  0  0  0  0  0  0  0  0  # atno 11005 bound_to 11000
  144.6999  140.3607  143.7164 LP  0  0  0  0  0  0  0  0  0  0  0  0  # atno 17320 bound_to 7965
  145.7156  139.1696  143.2514 LP  0  0  0  0  0  0  0  0  0  0  0  0  # atno 17321 bound_to 7965
  139.7226  144.7599  151.0931 LP  0  0  0  0  0  0  0  0  0  0  0  0  # atno 17342 bound_to 10162
  140.7750  143.5189  150.9561 LP  0  0  0  0  0  0  0  0  0  0  0  0  # atno 17343 bound_to 10162
  155.9723  130.4644  150.6215 LP  0  0  0  0  0  0  0  0  0  0  0  0  # atno 17370 bound_to 10713
  157.3944  131.0800  151.1365 LP  0  0  0  0  0  0  0  0  0  0  0  0  # atno 17371 bound_to 10713
  141.1402  133.6566  156.3708 LP  0  0  0  0  0  0  0  0  0  0  0  0  # atno 17394 bound_to 11000
  140.5268  134.6251  157.5336 LP  0  0  0  0  0  0  0  0  0  0  0  0  # atno 17395 bound_to 11000

$$$$
