AV-unprocessed.smi:876|AV-procd|sdf|4026|dock9
  -GOLD-   22720 1513D 1   1.00000     0.00000
 Structure written by MMmdl.
 40 41  0  0  0  0  0  0  0  0  1 V2000
  145.6706  131.4271  151.0912 C   0  0  0  0  0  0  0  0  0  0  0  0
  144.8384  132.5264  150.6181 N   0  0  0  0  0  0  0  0  0  0  0  0
  143.8091  132.2796  149.6133 C   0  0  0  0  0  0  0  0  0  0  0  0
  145.0101  133.8272  151.1449 C   0  0  0  0  0  0  0  0  0  0  0  0
  146.0021  134.1072  152.1173 C   0  0  0  0  0  0  0  0  0  0  0  0
  146.1342  135.4186  152.6133 C   0  0  0  0  0  0  0  0  0  0  0  0
  145.2761  136.4287  152.1207 C   0  0  0  0  0  0  0  0  0  0  0  0
  145.2932  137.7846  152.5485 N   0  0  0  0  0  0  0  0  0  0  0  0
  146.1325  138.3890  153.4073 C   0  0  0  0  0  0  0  0  0  0  0  0
  147.0772  137.8503  153.9837 O   0  0  0  0  0  0  0  0  0  0  0  0
  145.8228  139.6849  153.5535 N   0  0  0  0  0  0  0  0  0  0  0  0
  146.5499  140.6251  154.3996 C   0  0  1  0  0  0  0  0  0  0  0  0
  146.8359  141.8982  153.6512 C   0  0  0  0  0  0  0  0  0  0  0  0
  146.3976  142.9799  154.2912 C   0  0  0  0  0  0  0  0  0  0  0  0
  145.7210  142.6521  155.5977 C   0  0  1  0  0  0  0  0  0  0  0  0
  144.3129  143.2607  155.7156 C   0  0  0  0  0  0  0  0  0  0  0  0
  143.3855  142.5211  154.9487 O   0  0  0  0  0  0  0  0  0  0  0  0
  145.7219  141.1020  155.6222 C   0  0  0  0  0  0  0  0  0  0  0  0
  144.3142  136.0535  151.1627 C   0  0  0  0  0  0  0  0  0  0  0  0
  144.1837  134.7985  150.6856 N   0  0  0  0  0  0  0  0  0  0  0  0
  147.5012  140.1943  154.7163 H   0  0  0  0  0  0  0  0  0  0  0  0
  146.3527  143.0284  156.4038 H   0  0  0  0  0  0  0  0  0  0  0  0
  145.5231  131.2664  152.1596 H   0  0  0  0  0  0  0  0  0  0  0  0
  146.7251  131.6392  150.9115 H   0  0  0  0  0  0  0  0  0  0  0  0
  145.4278  130.4963  150.5785 H   0  0  0  0  0  0  0  0  0  0  0  0
  143.9957  132.8743  148.7186 H   0  0  0  0  0  0  0  0  0  0  0  0
  142.8240  132.5389  150.0026 H   0  0  0  0  0  0  0  0  0  0  0  0
  143.7845  131.2307  149.3177 H   0  0  0  0  0  0  0  0  0  0  0  0
  146.6616  133.3422  152.4983 H   0  0  0  0  0  0  0  0  0  0  0  0
  146.8801  135.6132  153.3674 H   0  0  0  0  0  0  0  0  0  0  0  0
  144.6088  138.3819  152.1082 H   0  0  0  0  0  0  0  0  0  0  0  0
  145.0328  140.0491  153.0413 H   0  0  0  0  0  0  0  0  0  0  0  0
  147.3589  141.9060  152.7062 H   0  0  0  0  0  0  0  0  0  0  0  0
  146.5120  143.9956  153.9419 H   0  0  0  0  0  0  0  0  0  0  0  0
  143.9837  143.2823  156.7552 H   0  0  0  0  0  0  0  0  0  0  0  0
  144.3153  144.2898  155.3557 H   0  0  0  0  0  0  0  0  0  0  0  0
  143.5483  142.6917  154.0336 H   0  0  0  0  0  0  0  0  0  0  0  0
  144.7005  140.7211  155.5699 H   0  0  0  0  0  0  0  0  0  0  0  0
  146.1469  140.7245  156.5529 H   0  0  0  0  0  0  0  0  0  0  0  0
  143.6267  136.7837  150.7612 H   0  0  0  0  0  0  0  0  0  0  0  0
  1  2  1  0  0  0  0
  1 23  1  0  0  0  0
  1 24  1  0  0  0  0
  1 25  1  0  0  0  0
  2  3  1  0  0  0  0
  2  4  1  0  0  0  0
  3 26  1  0  0  0  0
  3 27  1  0  0  0  0
  3 28  1  0  0  0  0
  4 20  1  0  0  0  0
  4  5  2  0  0  0  0
  5  6  1  0  0  0  0
  5 29  1  0  0  0  0
  6  7  2  0  0  0  0
  6 30  1  0  0  0  0
  7  8  1  0  0  0  0
  7 19  1  0  0  0  0
  8  9  1  0  0  0  0
  8 31  1  0  0  0  0
  9 10  2  0  0  0  0
  9 11  1  0  0  0  0
 11 12  1  0  0  0  0
 11 32  1  0  0  0  0
 12 21  1  0  0  0  0
 12 18  1  0  0  0  0
 12 13  1  0  0  0  0
 13 14  2  0  0  0  0
 13 33  1  0  0  0  0
 14 15  1  0  0  0  0
 14 34  1  0  0  0  0
 15 22  1  0  0  0  0
 15 16  1  0  0  0  0
 15 18  1  0  0  0  0
 16 17  1  0  0  0  0
 16 35  1  0  0  0  0
 16 36  1  0  0  0  0
 17 37  1  0  0  0  0
 18 38  1  0  0  0  0
 18 39  1  0  0  0  0
 19 20  2  0  0  0  0
 19 40  1  0  0  0  0
M  END
> <s_m_source_file>
AV-unprocessed.smi

> <i_m_source_file_index>
876

> <i_lp_mmshare_version>
43012

> <i_f3d_flags>
0

> <s_epik_input>
W0NIM11OKFtDSDNdKWMxW2NIXVtjSF1jKFtjSF1uMSlbTkhdQyg9TylbTkhdW0NAQEhdMltDSF09W0NIXVtDQEBIXShbQ0gyXTIpW0NIMl1bT0hd

> <s_epik_cmdline>
J2VwaWtfcHl0aG9uJywgJy1waCcsICc3LjAnLCAnLXRuJywgJzgnLCAnLW1hJywgJzIwMCcsICctbWV0YWxfYmluZGluZycsICctaW1hZScsICc8aW5maWxlLm1hZT4nLCAnLW9tYWUnLCAnPG91dGZpbGUubWFlPic=

> <r_lp_tautomer_probability>
1

> <r_epik_Ionization_Penalty>
0.617998

> <r_epik_Ionization_Penalty_Charging>
0

> <r_epik_Ionization_Penalty_Neutral>
0.617998

> <r_epik_State_Penalty>
0.632637

> <r_epik_Charging_Adjusted_Penalty>
0.632637

> <i_epik_Tot_Q>
0

> <i_epik_Tot_abs_Q>
0

> <r_epik_Metal_State_Penalty>
0.305596

> <b_epik_Metal_Only>
0

> <s_lp_Force_Field>
OPLS_2005

> <r_lp_Energy>
21.5566

> <b_lp_Chiralities_Consistent>
1

> <s_lp_Variant>
AV-unprocessed.smi:876-8

> <Gold.Version>
5.8.1

> <Gold.Id.Protein>
6NUR|6NUR_protein|mol2

> <Gold.PLP.Fitness>
39.3438

> <Gold.PLP.PLP>
-31.2437

> <Gold.PLP.part.hbond>
-3.7349

> <Gold.PLP.part.metal>
0.0000

> <Gold.PLP.part.buried>
-2.7377

> <Gold.PLP.part.nonpolar>
-26.1093

> <Gold.PLP.part.repulsive>
0.3625

> <Gold.PLP.ligand.clash>
0.0000

> <Gold.PLP.ligand.torsion>
0.2561

> <Gold.PLP.Chemscore.Hbond>
1.8634

> <Gold.PLP.Chemscore.CHOScore>
1.0000

> <Gold.PLP.Chemscore.Metal>
0.0000

> <Gold.Chemscore.Hbonds>
donor molecule, donor type, donor heavy atom, donor atom, acceptor molecule, acceptor atom, score
      L1  H     8    31       P1 10175  0.27
      L1  H    11    32       P1 10175  0.99
      L1  H    17    37       P1 10174  0.59
      L1  C    19    40       P1 10171  1.00

> <Gold.PLP.Chemscore.Internal.Correction>
0.0221

> <Gold.Rescore>
     Score         DG    S(hbond)    S(metal)    S(lipo)     H(rot)  DE(clash)    DE(int)     intcor
     11.32     -13.98       1.66        0.00      64.47       1.80       1.34       1.32       ----

> <Gold.Chemscore.Fitness>
11.3156

> <Gold.Chemscore.DG>
-13.9768

> <Gold.Chemscore.ZeroCoef>
-5.4800

> <Gold.Chemscore.Hbond>
1.6636

> <Gold.Chemscore.Metal>
0.0000

> <Gold.Chemscore.Lipo>
64.4712

> <Gold.Chemscore.Internal_Hbond>
0.0000

> <Gold.Chemscore.DEClash>
1.3408

> <Gold.Chemscore.DEInternal>
1.3204

> <Gold.Chemscore.Rot>
1.7980

> <Gold.Chemscore.Internal.Correction>
   9.000000E+99

> <Gold.Chemscore.Hbonds>
donor molecule, donor type, donor heavy atom, donor atom, acceptor molecule, acceptor atom, score
      L1  H     8    31       P1 10175  0.27
      L1  H    11    32       P1 10175  0.92
      L1  H    17    37       P1 10174  0.10

> <Gold.Chemscore.Hbond.Weighted>
-5.5566

> <Gold.Chemscore.Metal.Weighted>
-0.0000

> <Gold.Chemscore.Lipo.Weighted>
-7.5431

> <Gold.Chemscore.Internal_Hbond.Weighted>
0.0000

> <Gold.Chemscore.DEClash.Weighted>
1.3408

> <Gold.Chemscore.DEInternal.Weighted>
1.3204

> <Gold.Chemscore.Rot.Weighted>
4.6029

> <Gold.Chemscore.Internal.Correction.Weighted>
   9.000000E+99

> <Gold.Protein.RotatedTorsions>
[ 6907 6896 6895 6894 ] final -147.38 input  -60.11 | X-H torsion
[ 7974 7965 7964 7962 ] final  -52.29 input  175.53 | X-H torsion
[ 8008 7997 7996 7995 ] final  157.64 input   59.86 | X-H torsion
[ 10167 10162 10161 10158 ] final  139.79 input  -65.29 | X-H torsion
[ 10718 10713 10712 10709 ] final -145.91 input   66.30 | X-H torsion
[ 10763 10752 10751 10750 ] final   82.61 input  -60.55 | X-H torsion
[ 11005 11000 10999 10996 ] final  130.60 input  -57.11 | X-H torsion

> <Gold.Protein.ActiveResidues>
 VAL166  LYS551  ARG553  GLY616  TRP617  ASP618  TYR619  PRO620  LYS621  CYS622 
 ASP623  PHE694  ASN695  SER759  ASP760  ASP761  ALA762  ILE779  LEU786  VAL792 
 PHE793  MET794  SER795  GLU796  ALA797  LYS798  CYS799  TRP800  GLU811  SER814 

> <Gold.Protein.RotatedAtoms>
  151.1548  133.4883  159.2594 H   0  0  0  0  0  0  0  0  0  0  0  0  # atno 6907 bound_to 6896
  151.1516  135.0229  159.8681 H   0  0  0  0  0  0  0  0  0  0  0  0  # atno 6908 bound_to 6896
  152.5463  134.1431  159.8540 H   0  0  0  0  0  0  0  0  0  0  0  0  # atno 6909 bound_to 6896
  145.9096  140.7926  142.9702 H   0  0  0  0  0  0  0  0  0  0  0  0  # atno 7974 bound_to 7965
  156.2351  140.1880  156.7139 H   0  0  0  0  0  0  0  0  0  0  0  0  # atno 8008 bound_to 7997
  154.6093  140.0624  156.9499 H   0  0  0  0  0  0  0  0  0  0  0  0  # atno 8009 bound_to 7997
  155.2043  140.3295  155.4341 H   0  0  0  0  0  0  0  0  0  0  0  0  # atno 8010 bound_to 7997
  139.5068  144.6273  151.5904 H   0  0  0  0  0  0  0  0  0  0  0  0  # atno 10167 bound_to 10162
  156.3884  130.7873  151.2072 H   0  0  0  0  0  0  0  0  0  0  0  0  # atno 10718 bound_to 10713
  153.1218  135.4722  154.9207 H   0  0  0  0  0  0  0  0  0  0  0  0  # atno 10763 bound_to 10752
  154.7582  135.3124  154.8431 H   0  0  0  0  0  0  0  0  0  0  0  0  # atno 10764 bound_to 10752
  153.8994  135.6876  153.4810 H   0  0  0  0  0  0  0  0  0  0  0  0  # atno 10765 bound_to 10752
  139.9681  134.9585  156.9317 H   0  0  0  0  0  0  0  0  0  0  0  0  # atno 11005 bound_to 11000
  144.6742  140.1804  143.7406 LP  0  0  0  0  0  0  0  0  0  0  0  0  # atno 17320 bound_to 7965
  145.8689  139.2261  143.1673 LP  0  0  0  0  0  0  0  0  0  0  0  0  # atno 17321 bound_to 7965
  140.5995  143.9636  150.6376 LP  0  0  0  0  0  0  0  0  0  0  0  0  # atno 17342 bound_to 10162
  140.2843  143.3368  152.1122 LP  0  0  0  0  0  0  0  0  0  0  0  0  # atno 17343 bound_to 10162
  157.7497  131.0323  150.4220 LP  0  0  0  0  0  0  0  0  0  0  0  0  # atno 17370 bound_to 10713
  156.4477  130.4005  149.6656 LP  0  0  0  0  0  0  0  0  0  0  0  0  # atno 17371 bound_to 10713
  140.5351  134.0775  155.7326 LP  0  0  0  0  0  0  0  0  0  0  0  0  # atno 17394 bound_to 11000
  141.1361  133.9219  157.2430 LP  0  0  0  0  0  0  0  0  0  0  0  0  # atno 17395 bound_to 11000

$$$$
