AV-unprocessed.smi:2702|AV-procd|sdf|10430|dock1
  -GOLD-   2272014473D 1   1.00000     0.00000
 Structure written by MMmdl.
 47 48  0  0  0  0  0  0  0  0  1 V2000
  149.1927  133.5219  153.9593 C   0  0  0  0  0  0  0  0  0  0  0  0
  148.4231  134.0238  155.0374 O   0  0  0  0  0  0  0  0  0  0  0  0
  147.9623  135.3443  154.8074 C   0  0  0  0  0  0  0  0  0  0  0  0
  149.0869  136.3391  155.0101 C   0  0  0  0  0  0  0  0  0  0  0  0
  150.2797  135.9706  155.5322 C   0  0  0  0  0  0  0  0  0  0  0  0
  151.3432  136.9552  155.7317 C   0  0  0  0  0  0  0  0  0  0  0  0
  152.4459  136.6564  156.1911 O   0  0  0  0  0  0  0  0  0  0  0  0
  151.0199  138.2317  155.3695 N   0  0  0  0  0  0  0  0  0  0  0  0
  151.9887  139.3355  155.5026 C   0  0  0  0  0  0  0  0  0  0  0  0
  151.4429  140.5422  156.2811 C   0  0  0  0  0  0  0  0  0  0  0  0
  150.4027  141.1031  155.9332 O   0  0  0  0  0  0  0  0  0  0  0  0
  152.1581  140.9123  157.3548 N   0  0  0  0  0  0  0  0  0  0  0  0
  151.8367  142.0114  158.2648 C   0  0  2  0  0  0  0  0  0  0  0  0
  151.3381  143.2098  157.4340 C   0  0  0  0  0  0  0  0  0  0  0  0
  151.0521  144.4356  158.3123 C   0  0  0  0  0  0  0  0  0  0  0  0
  152.2833  144.8157  159.1495 C   0  0  0  0  0  0  0  0  0  0  0  0
  152.7879  143.6400  160.0106 C   0  0  1  0  0  0  0  0  0  0  0  0
  151.8463  143.3617  161.2005 C   0  0  0  0  0  0  0  0  0  0  0  0
  153.0713  142.3990  159.1219 C   0  0  1  0  0  0  0  0  0  0  0  0
  153.6439  141.2184  159.9315 C   0  0  0  0  0  0  0  0  0  0  0  0
  149.7575  138.5624  154.8373 C   0  0  0  0  0  0  0  0  0  0  0  0
  148.8335  137.6711  154.6676 N   0  0  0  0  0  0  0  0  0  0  0  0
  149.5255  132.5094  154.1874 H   0  0  0  0  0  0  0  0  0  0  0  0
  150.0773  134.1362  153.7860 H   0  0  0  0  0  0  0  0  0  0  0  0
  148.6065  133.4841  153.0401 H   0  0  0  0  0  0  0  0  0  0  0  0
  147.5790  135.4359  153.7896 H   0  0  0  0  0  0  0  0  0  0  0  0
  147.1394  135.5806  155.4842 H   0  0  0  0  0  0  0  0  0  0  0  0
  150.4565  134.9397  155.8025 H   0  0  0  0  0  0  0  0  0  0  0  0
  152.9038  138.9984  155.9931 H   0  0  0  0  0  0  0  0  0  0  0  0
  152.3100  139.6710  154.5148 H   0  0  0  0  0  0  0  0  0  0  0  0
  152.9950  140.3872  157.5632 H   0  0  0  0  0  0  0  0  0  0  0  0
  151.0284  141.7120  158.9335 H   0  0  0  0  0  0  0  0  0  0  0  0
  152.0848  143.4750  156.6839 H   0  0  0  0  0  0  0  0  0  0  0  0
  150.4360  142.9349  156.8859 H   0  0  0  0  0  0  0  0  0  0  0  0
  150.7567  145.2777  157.6858 H   0  0  0  0  0  0  0  0  0  0  0  0
  150.2036  144.2307  158.9656 H   0  0  0  0  0  0  0  0  0  0  0  0
  153.0815  145.1377  158.4792 H   0  0  0  0  0  0  0  0  0  0  0  0
  152.0553  145.6761  159.7796 H   0  0  0  0  0  0  0  0  0  0  0  0
  153.7389  143.9544  160.4429 H   0  0  0  0  0  0  0  0  0  0  0  0
  150.8761  142.9843  160.8795 H   0  0  0  0  0  0  0  0  0  0  0  0
  151.6694  144.2705  161.7762 H   0  0  0  0  0  0  0  0  0  0  0  0
  152.2738  142.6314  161.8871 H   0  0  0  0  0  0  0  0  0  0  0  0
  153.8586  142.6959  158.4267 H   0  0  0  0  0  0  0  0  0  0  0  0
  152.8833  140.7586  160.5628 H   0  0  0  0  0  0  0  0  0  0  0  0
  154.4630  141.5424  160.5738 H   0  0  0  0  0  0  0  0  0  0  0  0
  154.0385  140.4401  159.2780 H   0  0  0  0  0  0  0  0  0  0  0  0
  149.6193  139.6134  154.5777 H   0  0  0  0  0  0  0  0  0  0  0  0
  1  2  1  0  0  0  0
  1 23  1  0  0  0  0
  1 24  1  0  0  0  0
  1 25  1  0  0  0  0
  2  3  1  0  0  0  0
  3  4  1  0  0  0  0
  3 26  1  0  0  0  0
  3 27  1  0  0  0  0
  4 22  1  0  0  0  0
  4  5  2  0  0  0  0
  5  6  1  0  0  0  0
  5 28  1  0  0  0  0
  6  7  2  0  0  0  0
  6  8  1  0  0  0  0
  8  9  1  0  0  0  0
  8 21  1  0  0  0  0
  9 10  1  0  0  0  0
  9 29  1  0  0  0  0
  9 30  1  0  0  0  0
 10 11  2  0  0  0  0
 10 12  1  0  0  0  0
 12 13  1  0  0  0  0
 12 31  1  0  0  0  0
 13 19  1  0  0  0  0
 13 14  1  0  0  0  0
 13 32  1  0  0  0  0
 14 15  1  0  0  0  0
 14 33  1  0  0  0  0
 14 34  1  0  0  0  0
 15 16  1  0  0  0  0
 15 35  1  0  0  0  0
 15 36  1  0  0  0  0
 16 17  1  0  0  0  0
 16 37  1  0  0  0  0
 16 38  1  0  0  0  0
 17 18  1  0  0  0  0
 17 19  1  0  0  0  0
 17 39  1  0  0  0  0
 18 40  1  0  0  0  0
 18 41  1  0  0  0  0
 18 42  1  0  0  0  0
 19 20  1  0  0  0  0
 19 43  1  0  0  0  0
 20 44  1  0  0  0  0
 20 45  1  0  0  0  0
 20 46  1  0  0  0  0
 21 22  2  0  0  0  0
 21 47  1  0  0  0  0
M  END
> <s_m_source_file>
AV-unprocessed.smi

> <i_m_source_file_index>
2702

> <i_lp_mmshare_version>
43012

> <i_f3d_flags>
0

> <s_epik_input>
W0NIM11PW0NIMl1jMVtjSF1jKD1PKW4oW2NIXW4xKVtDSDJdQyg9TylbTkhdW0NAQEhdMltDSDJdW0NIMl1bQ0gyXVtDQEBIXShbQ0gzXSlbQ0BIXTJbQ0gzXQ==

> <s_epik_cmdline>
J2VwaWtfcHl0aG9uJywgJy1waCcsICc3LjAnLCAnLXRuJywgJzgnLCAnLW1hJywgJzIwMCcsICctbWV0YWxfYmluZGluZycsICctaW1hZScsICc8aW5maWxlLm1hZT4nLCAnLW9tYWUnLCAnPG91dGZpbGUubWFlPic=

> <r_lp_tautomer_probability>
1

> <r_epik_Ionization_Penalty>
1.22164e-06

> <r_epik_Ionization_Penalty_Charging>
3.17988e-07

> <r_epik_Ionization_Penalty_Neutral>
9.03656e-07

> <r_epik_State_Penalty>
-0

> <r_epik_Charging_Adjusted_Penalty>
3.17988e-07

> <i_epik_Tot_Q>
0

> <i_epik_Tot_abs_Q>
0

> <r_epik_Metal_State_Penalty>
-0

> <b_epik_Metal_Only>
0

> <s_lp_Force_Field>
OPLS_2005

> <r_lp_Energy>
19.3371

> <b_lp_Chiralities_Consistent>
1

> <s_lp_Variant>
AV-unprocessed.smi:2702-1

> <Gold.Version>
5.8.1

> <Gold.Id.Protein>
6NUR|6NUR_protein|mol2

> <Gold.PLP.Fitness>
43.9877

> <Gold.PLP.PLP>
-41.8139

> <Gold.PLP.part.hbond>
-1.0000

> <Gold.PLP.part.metal>
0.0000

> <Gold.PLP.part.buried>
-4.2170

> <Gold.PLP.part.nonpolar>
-37.9150

> <Gold.PLP.part.repulsive>
0.3753

> <Gold.PLP.ligand.clash>
0.0000

> <Gold.PLP.ligand.torsion>
0.4332

> <Gold.PLP.Chemscore.Hbond>
1.0000

> <Gold.PLP.Chemscore.CHOScore>
0.0000

> <Gold.PLP.Chemscore.Metal>
0.0000

> <Gold.Chemscore.Hbonds>
donor molecule, donor type, donor heavy atom, donor atom, acceptor molecule, acceptor atom, score
      P1  H 10752 10764       L1     7  1.00

> <Gold.PLP.Chemscore.Internal.Correction>
0.0402

> <Gold.Rescore>
     Score         DG    S(hbond)    S(metal)    S(lipo)     H(rot)  DE(clash)    DE(int)     intcor
     13.61     -17.03       0.93        0.00     114.29       1.93       0.23       3.19       ----

> <Gold.Chemscore.Fitness>
13.6132

> <Gold.Chemscore.DG>
-17.0316

> <Gold.Chemscore.ZeroCoef>
-5.4800

> <Gold.Chemscore.Hbond>
0.9330

> <Gold.Chemscore.Metal>
0.0000

> <Gold.Chemscore.Lipo>
114.2909

> <Gold.Chemscore.Internal_Hbond>
0.0000

> <Gold.Chemscore.DEClash>
0.2276

> <Gold.Chemscore.DEInternal>
3.1908

> <Gold.Chemscore.Rot>
1.9284

> <Gold.Chemscore.Internal.Correction>
   9.000000E+99

> <Gold.Chemscore.Hbonds>
donor molecule, donor type, donor heavy atom, donor atom, acceptor molecule, acceptor atom, score
      P1  H 10752 10764       L1     7  0.43

> <Gold.Chemscore.Hbond.Weighted>
-3.1163

> <Gold.Chemscore.Metal.Weighted>
-0.0000

> <Gold.Chemscore.Lipo.Weighted>
-13.3720

> <Gold.Chemscore.Internal_Hbond.Weighted>
0.0000

> <Gold.Chemscore.DEClash.Weighted>
0.2276

> <Gold.Chemscore.DEInternal.Weighted>
3.1908

> <Gold.Chemscore.Rot.Weighted>
4.9368

> <Gold.Chemscore.Internal.Correction.Weighted>
   9.000000E+99

> <Gold.Protein.RotatedTorsions>
[ 6907 6896 6895 6894 ] final -162.39 input  -60.11 | X-H torsion
[ 7974 7965 7964 7962 ] final  100.40 input  175.53 | X-H torsion
[ 8008 7997 7996 7995 ] final -126.99 input   59.86 | X-H torsion
[ 10167 10162 10161 10158 ] final  141.62 input  -65.29 | X-H torsion
[ 10718 10713 10712 10709 ] final   79.53 input   66.30 | X-H torsion
[ 10763 10752 10751 10750 ] final  -34.12 input  -60.55 | X-H torsion
[ 11005 11000 10999 10996 ] final  103.66 input  -57.11 | X-H torsion

> <Gold.Protein.ActiveResidues>
 VAL166  LYS551  ARG553  GLY616  TRP617  ASP618  TYR619  PRO620  LYS621  CYS622 
 ASP623  PHE694  ASN695  SER759  ASP760  ASP761  ALA762  ILE779  LEU786  VAL792 
 PHE793  MET794  SER795  GLU796  ALA797  LYS798  CYS799  TRP800  GLU811  SER814 

> <Gold.Protein.RotatedAtoms>
  151.3796  133.3826  159.2708 H   0  0  0  0  0  0  0  0  0  0  0  0  # atno 6907 bound_to 6896
  150.9588  134.8980  159.7728 H   0  0  0  0  0  0  0  0  0  0  0  0  # atno 6908 bound_to 6896
  152.5141  134.3754  159.9385 H   0  0  0  0  0  0  0  0  0  0  0  0  # atno 6909 bound_to 6896
  145.3861  139.2371  143.3377 H   0  0  0  0  0  0  0  0  0  0  0  0  # atno 7974 bound_to 7965
  155.2389  140.0428  157.2972 H   0  0  0  0  0  0  0  0  0  0  0  0  # atno 8008 bound_to 7997
  154.5841  140.2409  155.7982 H   0  0  0  0  0  0  0  0  0  0  0  0  # atno 8009 bound_to 7997
  156.2214  140.2968  155.9969 H   0  0  0  0  0  0  0  0  0  0  0  0  # atno 8010 bound_to 7997
  139.5015  144.6160  151.6163 H   0  0  0  0  0  0  0  0  0  0  0  0  # atno 10167 bound_to 10162
  157.6779  130.9918  150.1946 H   0  0  0  0  0  0  0  0  0  0  0  0  # atno 10718 bound_to 10713
  153.8415  135.6857  153.4802 H   0  0  0  0  0  0  0  0  0  0  0  0  # atno 10763 bound_to 10752
  153.1451  135.4641  154.9552 H   0  0  0  0  0  0  0  0  0  0  0  0  # atno 10764 bound_to 10752
  154.7843  135.3279  154.7868 H   0  0  0  0  0  0  0  0  0  0  0  0  # atno 10765 bound_to 10752
  139.8785  134.9272  156.5244 H   0  0  0  0  0  0  0  0  0  0  0  0  # atno 11005 bound_to 11000
  146.2819  140.4536  142.8773 LP  0  0  0  0  0  0  0  0  0  0  0  0  # atno 17320 bound_to 7965
  144.8473  140.6948  143.6191 LP  0  0  0  0  0  0  0  0  0  0  0  0  # atno 17321 bound_to 7965
  140.5848  143.9884  150.6289 LP  0  0  0  0  0  0  0  0  0  0  0  0  # atno 17342 bound_to 10162
  140.3045  143.3239  152.0940 LP  0  0  0  0  0  0  0  0  0  0  0  0  # atno 17343 bound_to 10162
  156.2650  130.3715  149.8091 LP  0  0  0  0  0  0  0  0  0  0  0  0  # atno 17370 bound_to 10713
  156.5825  130.8472  151.3387 LP  0  0  0  0  0  0  0  0  0  0  0  0  # atno 17371 bound_to 10713
  140.8427  133.8193  155.9090 LP  0  0  0  0  0  0  0  0  0  0  0  0  # atno 17394 bound_to 11000
  140.9222  134.2127  157.4919 LP  0  0  0  0  0  0  0  0  0  0  0  0  # atno 17395 bound_to 11000

$$$$
