AV-unprocessed.smi:193|AV-procd|sdf|1512|dock1
  -GOLD-   2262019343D 1   1.00000     0.00000
 Structure written by MMmdl.
 61 65  0  0  0  0  0  0  0  0  1 V2000
  153.6205  138.6684  160.3610 C   0  0  0  0  0  0  0  0  0  0  0  0
  152.7038  139.6477  159.6109 C   0  0  2  0  0  0  0  0  0  0  0  0
  152.7427  139.3326  158.0997 C   0  0  0  0  0  0  0  0  0  0  0  0
  151.6198  139.8820  157.3361 N   0  0  0  0  0  0  0  0  0  0  0  0
  151.0619  139.0917  156.3798 C   0  0  0  0  0  0  0  0  0  0  0  0
  150.4143  139.6738  155.3349 N   0  0  0  0  0  0  0  0  0  0  0  0
  149.8444  138.9259  154.3863 C   0  0  0  0  0  0  0  0  0  0  0  0
  149.8047  137.5968  154.2847 N   0  0  0  0  0  0  0  0  0  0  0  0
  150.4593  137.0019  155.3219 C   0  0  0  0  0  0  0  0  0  0  0  0
  151.1083  137.6660  156.4023 C   0  0  0  0  0  0  0  0  0  0  0  0
  151.6693  136.7251  157.2593 N   0  0  0  0  0  0  0  0  0  0  0  0
  151.3582  135.5763  156.7255 C   0  0  0  0  0  0  0  0  0  0  0  0
  150.6423  135.6491  155.5523 N   0  0  0  0  0  0  0  0  0  0  0  0
  150.1699  134.5296  154.7502 C   0  0  0  0  0  0  0  0  0  0  0  0
  148.6407  134.2754  154.8494 C   0  0  0  0  0  0  0  0  0  0  0  0
  147.9826  135.4836  154.5154 O   0  0  0  0  0  0  0  0  0  0  0  0
  148.1732  133.2074  153.8407 C   0  0  0  0  0  0  0  0  0  0  0  0
  148.5699  131.7893  154.2897 C   0  0  0  0  0  0  0  0  0  0  0  0
  148.0546  131.5273  155.5906 O   0  0  0  0  0  0  0  0  0  0  0  0
  148.5677  132.4104  156.5821 C   0  0  0  0  0  0  0  0  0  0  0  0
  148.1602  133.8582  156.2561 C   0  0  0  0  0  0  0  0  0  0  0  0
  150.8797  141.0540  157.8045 C   0  0  0  0  0  0  0  0  0  0  0  0
  151.7972  142.2008  158.2506 C   0  0  0  0  0  0  0  0  0  0  0  0
  152.1029  142.0922  159.6739 N   0  0  0  0  0  0  0  0  0  0  0  0
  152.6006  143.3797  160.1344 C   0  0  2  0  0  0  0  0  0  0  0  0
  152.2539  143.7977  161.5456 C   0  0  0  0  0  0  0  0  0  0  0  0
  151.5867  144.4784  160.3739 C   0  0  1  0  0  0  0  0  0  0  0  0
  151.9120  145.9165  160.0338 C   0  0  0  0  0  0  0  0  0  0  0  0
  153.1462  141.0964  159.9140 C   0  0  0  0  0  0  0  0  0  0  0  0
  154.6550  138.7603  160.0287 H   0  0  0  0  0  0  0  0  0  0  0  0
  153.3098  137.6356  160.2013 H   0  0  0  0  0  0  0  0  0  0  0  0
  153.5984  138.8506  161.4358 H   0  0  0  0  0  0  0  0  0  0  0  0
  151.6954  139.4834  159.9943 H   0  0  0  0  0  0  0  0  0  0  0  0
  153.6782  139.6834  157.6629 H   0  0  0  0  0  0  0  0  0  0  0  0
  152.7403  138.2477  157.9874 H   0  0  0  0  0  0  0  0  0  0  0  0
  149.3485  139.4708  153.5963 H   0  0  0  0  0  0  0  0  0  0  0  0
  151.6501  134.6372  157.1731 H   0  0  0  0  0  0  0  0  0  0  0  0
  150.4489  134.7214  153.7131 H   0  0  0  0  0  0  0  0  0  0  0  0
  150.7304  133.6436  155.0472 H   0  0  0  0  0  0  0  0  0  0  0  0
  148.4088  135.8570  153.7592 H   0  0  0  0  0  0  0  0  0  0  0  0
  147.0866  133.2429  153.7463 H   0  0  0  0  0  0  0  0  0  0  0  0
  148.5719  133.4142  152.8468 H   0  0  0  0  0  0  0  0  0  0  0  0
  148.1595  131.0531  153.5985 H   0  0  0  0  0  0  0  0  0  0  0  0
  149.6522  131.6565  154.2810 H   0  0  0  0  0  0  0  0  0  0  0  0
  148.1635  132.1201  157.5519 H   0  0  0  0  0  0  0  0  0  0  0  0
  149.6505  132.3055  156.6499 H   0  0  0  0  0  0  0  0  0  0  0  0
  148.5289  134.5396  157.0226 H   0  0  0  0  0  0  0  0  0  0  0  0
  147.0717  133.9205  156.3018 H   0  0  0  0  0  0  0  0  0  0  0  0
  150.2751  141.4353  156.9806 H   0  0  0  0  0  0  0  0  0  0  0  0
  150.1799  140.7727  158.5926 H   0  0  0  0  0  0  0  0  0  0  0  0
  152.6979  142.2747  157.6386 H   0  0  0  0  0  0  0  0  0  0  0  0
  151.2444  143.1289  158.0984 H   0  0  0  0  0  0  0  0  0  0  0  0
  153.5754  143.7128  159.7812 H   0  0  0  0  0  0  0  0  0  0  0  0
  151.6455  143.1222  162.1439 H   0  0  0  0  0  0  0  0  0  0  0  0
  153.0057  144.3574  162.0983 H   0  0  0  0  0  0  0  0  0  0  0  0
  150.5431  144.2178  160.2062 H   0  0  0  0  0  0  0  0  0  0  0  0
  152.9648  146.1305  160.2199 H   0  0  0  0  0  0  0  0  0  0  0  0
  151.3073  146.5904  160.6406 H   0  0  0  0  0  0  0  0  0  0  0  0
  151.6989  146.1086  158.9822 H   0  0  0  0  0  0  0  0  0  0  0  0
  153.4119  141.1574  160.9703 H   0  0  0  0  0  0  0  0  0  0  0  0
  154.0512  141.3465  159.3579 H   0  0  0  0  0  0  0  0  0  0  0  0
  1  2  1  0  0  0  0
  1 30  1  0  0  0  0
  1 31  1  0  0  0  0
  1 32  1  0  0  0  0
  2 29  1  0  0  0  0
  2  3  1  0  0  0  0
  2 33  1  0  0  0  0
  3  4  1  0  0  0  0
  3 34  1  0  0  0  0
  3 35  1  0  0  0  0
  4  5  1  0  0  0  0
  4 22  1  0  0  0  0
  5 10  1  0  0  0  0
  5  6  2  0  0  0  0
  6  7  1  0  0  0  0
  7  8  2  0  0  0  0
  7 36  1  0  0  0  0
  8  9  1  0  0  0  0
  9 13  1  0  0  0  0
  9 10  2  0  0  0  0
 10 11  1  0  0  0  0
 11 12  2  0  0  0  0
 12 13  1  0  0  0  0
 12 37  1  0  0  0  0
 13 14  1  0  0  0  0
 14 15  1  0  0  0  0
 14 38  1  0  0  0  0
 14 39  1  0  0  0  0
 15 21  1  0  0  0  0
 15 16  1  0  0  0  0
 15 17  1  0  0  0  0
 16 40  1  0  0  0  0
 17 18  1  0  0  0  0
 17 41  1  0  0  0  0
 17 42  1  0  0  0  0
 18 19  1  0  0  0  0
 18 43  1  0  0  0  0
 18 44  1  0  0  0  0
 19 20  1  0  0  0  0
 20 21  1  0  0  0  0
 20 45  1  0  0  0  0
 20 46  1  0  0  0  0
 21 47  1  0  0  0  0
 21 48  1  0  0  0  0
 22 23  1  0  0  0  0
 22 49  1  0  0  0  0
 22 50  1  0  0  0  0
 23 24  1  0  0  0  0
 23 51  1  0  0  0  0
 23 52  1  0  0  0  0
 24 25  1  0  0  0  0
 24 29  1  0  0  0  0
 25 27  1  0  0  0  0
 25 26  1  0  0  0  0
 25 53  1  0  0  0  0
 26 27  1  0  0  0  0
 26 54  1  0  0  0  0
 26 55  1  0  0  0  0
 27 28  1  0  0  0  0
 27 56  1  0  0  0  0
 28 57  1  0  0  0  0
 28 58  1  0  0  0  0
 28 59  1  0  0  0  0
 29 60  1  0  0  0  0
 29 61  1  0  0  0  0
M  END
> <s_m_source_file>
AV-unprocessed.smi

> <i_m_source_file_index>
193

> <i_lp_mmshare_version>
43012

> <i_f3d_flags>
0

> <s_epik_input>
W0NIM11bQ0BASF0xW0NIMl1bQ0BIXTFOKFtDSDJdMilbQ0gyXVtDSDJdTihbQ0gyXVtDQEhdMltDSDNdKWMobltjSF1uMyljKGMzNCluW2NIXW40W0NIMl1DNShbT0hdKVtDSDJdW0NIMl1PW0NIMl1bQ0gyXTU=

> <s_epik_cmdline>
J2VwaWtfcHl0aG9uJywgJy1waCcsICc3LjAnLCAnLXRuJywgJzgnLCAnLW1hJywgJzIwMCcsICctbWV0YWxfYmluZGluZycsICctaW1hZScsICc8aW5maWxlLm1hZT4nLCAnLW9tYWUnLCAnPG91dGZpbGUubWFlPic=

> <r_lp_tautomer_probability>
1

> <r_epik_Ionization_Penalty>
1.45227

> <r_epik_Ionization_Penalty_Charging>
0

> <r_epik_Ionization_Penalty_Neutral>
1.45227

> <r_epik_State_Penalty>
2.02377

> <r_epik_Charging_Adjusted_Penalty>
2.02377

> <i_epik_Tot_Q>
0

> <i_epik_Tot_abs_Q>
0

> <r_epik_Metal_State_Penalty>
2.01937

> <b_epik_Metal_Only>
0

> <s_lp_Force_Field>
OPLS_2005

> <r_lp_Energy>
48.8748

> <b_lp_Chiralities_Consistent>
1

> <s_lp_Variant>
AV-unprocessed.smi:193-17

> <Gold.Version>
5.8.1

> <Gold.Id.Protein>
6NUR|6NUR_protein|mol2

> <Gold.PLP.Fitness>
50.5876

> <Gold.PLP.PLP>
-45.6722

> <Gold.PLP.part.hbond>
-1.0000

> <Gold.PLP.part.metal>
0.0000

> <Gold.PLP.part.buried>
-5.4797

> <Gold.PLP.part.nonpolar>
-40.3763

> <Gold.PLP.part.repulsive>
1.6798

> <Gold.PLP.ligand.clash>
0.0000

> <Gold.PLP.ligand.torsion>
1.2511

> <Gold.PLP.Chemscore.Hbond>
1.0357

> <Gold.PLP.Chemscore.CHOScore>
1.0000

> <Gold.PLP.Chemscore.Metal>
0.0000

> <Gold.Chemscore.Hbonds>
donor molecule, donor type, donor heavy atom, donor atom, acceptor molecule, acceptor atom, score
      L1  H    16    40       P1  7948  1.00
      L1  C     7    36       P1  7957  1.00

> <Gold.PLP.Chemscore.Internal.Correction>
1.3103

> <Gold.Rescore>
     Score         DG    S(hbond)    S(metal)    S(lipo)     H(rot)  DE(clash)    DE(int)     intcor
     15.76     -18.39       1.00        0.00     123.62       1.91       0.11       2.51       ----

> <Gold.Chemscore.Fitness>
15.7637

> <Gold.Chemscore.DG>
-18.3908

> <Gold.Chemscore.ZeroCoef>
-5.4800

> <Gold.Chemscore.Hbond>
0.9966

> <Gold.Chemscore.Metal>
0.0000

> <Gold.Chemscore.Lipo>
123.6192

> <Gold.Chemscore.Internal_Hbond>
0.0000

> <Gold.Chemscore.DEClash>
0.1132

> <Gold.Chemscore.DEInternal>
2.5139

> <Gold.Chemscore.Rot>
1.9068

> <Gold.Chemscore.Internal.Correction>
   9.000000E+99

> <Gold.Chemscore.Hbonds>
donor molecule, donor type, donor heavy atom, donor atom, acceptor molecule, acceptor atom, score
      L1  H    16    40       P1  7948  0.96

> <Gold.Chemscore.Hbond.Weighted>
-3.3287

> <Gold.Chemscore.Metal.Weighted>
-0.0000

> <Gold.Chemscore.Lipo.Weighted>
-14.4634

> <Gold.Chemscore.Internal_Hbond.Weighted>
0.0000

> <Gold.Chemscore.DEClash.Weighted>
0.1132

> <Gold.Chemscore.DEInternal.Weighted>
2.5139

> <Gold.Chemscore.Rot.Weighted>
4.8814

> <Gold.Chemscore.Internal.Correction.Weighted>
   9.000000E+99

> <Gold.Protein.RotatedTorsions>
[ 6907 6896 6895 6894 ] final  -18.17 input  -60.11 | X-H torsion
[ 7974 7965 7964 7962 ] final   16.48 input  175.53 | X-H torsion
[ 8008 7997 7996 7995 ] final -108.95 input   59.86 | X-H torsion
[ 10167 10162 10161 10158 ] final   10.87 input  -65.29 | X-H torsion
[ 10718 10713 10712 10709 ] final   69.28 input   66.30 | X-H torsion
[ 10763 10752 10751 10750 ] final  120.38 input  -60.55 | X-H torsion
[ 11005 11000 10999 10996 ] final  -96.90 input  -57.11 | X-H torsion

> <Gold.Protein.ActiveResidues>
 VAL166  LYS551  ARG553  GLY616  TRP617  ASP618  TYR619  PRO620  LYS621  CYS622 
 ASP623  PHE694  ASN695  SER759  ASP760  ASP761  ALA762  ILE779  LEU786  VAL792 
 PHE793  MET794  SER795  GLU796  ALA797  LYS798  CYS799  TRP800  GLU811  SER814 

> <Gold.Protein.RotatedAtoms>
  151.2822  135.0717  159.9173 H   0  0  0  0  0  0  0  0  0  0  0  0  # atno 6907 bound_to 6896
  152.5332  134.0019  159.7909 H   0  0  0  0  0  0  0  0  0  0  0  0  # atno 6908 bound_to 6896
  151.0275  133.5770  159.2695 H   0  0  0  0  0  0  0  0  0  0  0  0  # atno 6909 bound_to 6896
  146.2248  139.8741  142.8582 H   0  0  0  0  0  0  0  0  0  0  0  0  # atno 7974 bound_to 7965
  154.9519  140.0400  157.2148 H   0  0  0  0  0  0  0  0  0  0  0  0  # atno 8008 bound_to 7997
  154.7970  140.2845  155.5927 H   0  0  0  0  0  0  0  0  0  0  0  0  # atno 8009 bound_to 7997
  156.2957  140.2562  156.2830 H   0  0  0  0  0  0  0  0  0  0  0  0  # atno 8010 bound_to 7997
  140.6167  143.8292  150.7127 H   0  0  0  0  0  0  0  0  0  0  0  0  # atno 10167 bound_to 10162
  157.6337  130.9417  150.0491 H   0  0  0  0  0  0  0  0  0  0  0  0  # atno 10718 bound_to 10713
  153.5977  135.3454  155.2934 H   0  0  0  0  0  0  0  0  0  0  0  0  # atno 10763 bound_to 10752
  154.8641  135.4220  154.2447 H   0  0  0  0  0  0  0  0  0  0  0  0  # atno 10764 bound_to 10752
  153.3268  135.7042  153.7053 H   0  0  0  0  0  0  0  0  0  0  0  0  # atno 10765 bound_to 10752
  141.1396  133.8131  157.0634 H   0  0  0  0  0  0  0  0  0  0  0  0  # atno 11005 bound_to 11000
  145.2578  141.0066  143.3844 LP  0  0  0  0  0  0  0  0  0  0  0  0  # atno 17320 bound_to 7965
  144.9322  139.4285  143.6489 LP  0  0  0  0  0  0  0  0  0  0  0  0  # atno 17321 bound_to 7965
  140.1873  143.4065  152.1889 LP  0  0  0  0  0  0  0  0  0  0  0  0  # atno 17342 bound_to 10162
  139.5404  144.7251  151.4751 LP  0  0  0  0  0  0  0  0  0  0  0  0  # atno 17343 bound_to 10162
  156.1559  130.3643  149.9370 LP  0  0  0  0  0  0  0  0  0  0  0  0  # atno 17370 bound_to 10713
  156.7379  130.9068  151.3630 LP  0  0  0  0  0  0  0  0  0  0  0  0  # atno 17371 bound_to 10713
  140.0557  134.9782  157.1216 LP  0  0  0  0  0  0  0  0  0  0  0  0  # atno 17394 bound_to 11000
  140.3923  134.2171  155.7166 LP  0  0  0  0  0  0  0  0  0  0  0  0  # atno 17395 bound_to 11000

$$$$
