AV-unprocessed.smi:1982|AV-procd|sdf|8027|dock4
  -GOLD-   2272010223D 1   1.00000     0.00000
 Structure written by MMmdl.
 36 37  0  0  0  0  0  0  0  0  1 V2000
  152.1875  142.4568  160.7286 C   0  0  0  0  0  0  0  0  0  0  0  0
  151.6163  142.9455  159.3854 C   0  0  1  0  0  0  0  0  0  0  0  0
  152.3480  144.2303  158.9443 C   0  0  0  0  0  0  0  0  0  0  0  0
  151.8101  144.7759  157.6149 C   0  0  0  0  0  0  0  0  0  0  0  0
  151.8938  143.7119  156.5115 C   0  0  0  0  0  0  0  0  0  0  0  0
  151.1685  142.4133  156.9130 C   0  0  2  0  0  0  0  0  0  0  0  0
  149.7215  142.6196  156.9509 N   0  0  0  0  0  0  0  0  0  0  0  0
  148.7853  141.7195  156.6133 C   0  0  0  0  0  0  0  0  0  0  0  0
  149.0433  140.6040  156.1625 O   0  0  0  0  0  0  0  0  0  0  0  0
  147.3310  142.1436  156.8234 C   0  0  0  0  0  0  0  0  0  0  0  0
  147.0397  142.3253  158.2341 N   0  0  0  0  0  0  0  0  0  0  0  0
  147.4864  143.2248  159.1129 C   0  0  0  0  0  0  0  0  0  0  0  0
  146.9430  143.0521  160.3080 N   0  0  0  0  0  0  0  0  0  0  0  0
  146.1085  141.9628  160.1200 N   0  0  0  0  0  0  0  0  0  0  0  0
  146.1617  141.5268  158.8915 N   0  0  0  0  0  0  0  0  0  0  0  0
  151.6816  141.8644  158.2700 C   0  0  2  0  0  0  0  0  0  0  0  0
  150.9541  140.5585  158.6530 C   0  0  0  0  0  0  0  0  0  0  0  0
  153.2171  142.1146  160.6212 H   0  0  0  0  0  0  0  0  0  0  0  0
  151.6017  141.6370  161.1432 H   0  0  0  0  0  0  0  0  0  0  0  0
  152.1802  143.2558  161.4703 H   0  0  0  0  0  0  0  0  0  0  0  0
  150.5692  143.2018  159.5536 H   0  0  0  0  0  0  0  0  0  0  0  0
  152.2504  144.9976  159.7130 H   0  0  0  0  0  0  0  0  0  0  0  0
  153.4159  144.0296  158.8459 H   0  0  0  0  0  0  0  0  0  0  0  0
  150.7770  145.1020  157.7413 H   0  0  0  0  0  0  0  0  0  0  0  0
  152.3770  145.6594  157.3205 H   0  0  0  0  0  0  0  0  0  0  0  0
  151.4842  144.1051  155.5801 H   0  0  0  0  0  0  0  0  0  0  0  0
  152.9420  143.4883  156.3099 H   0  0  0  0  0  0  0  0  0  0  0  0
  151.3873  141.6615  156.1523 H   0  0  0  0  0  0  0  0  0  0  0  0
  149.4063  143.5114  157.3052 H   0  0  0  0  0  0  0  0  0  0  0  0
  147.1348  143.0729  156.2864 H   0  0  0  0  0  0  0  0  0  0  0  0
  146.6558  141.3871  156.4215 H   0  0  0  0  0  0  0  0  0  0  0  0
  148.1976  144.0027  158.8764 H   0  0  0  0  0  0  0  0  0  0  0  0
  152.7325  141.6078  158.1275 H   0  0  0  0  0  0  0  0  0  0  0  0
  149.9192  140.7421  158.9446 H   0  0  0  0  0  0  0  0  0  0  0  0
  151.4475  140.0520  159.4819 H   0  0  0  0  0  0  0  0  0  0  0  0
  150.9426  139.8584  157.8171 H   0  0  0  0  0  0  0  0  0  0  0  0
  1  2  1  0  0  0  0
  1 18  1  0  0  0  0
  1 19  1  0  0  0  0
  1 20  1  0  0  0  0
  2 16  1  0  0  0  0
  2  3  1  0  0  0  0
  2 21  1  0  0  0  0
  3  4  1  0  0  0  0
  3 22  1  0  0  0  0
  3 23  1  0  0  0  0
  4  5  1  0  0  0  0
  4 24  1  0  0  0  0
  4 25  1  0  0  0  0
  5  6  1  0  0  0  0
  5 26  1  0  0  0  0
  5 27  1  0  0  0  0
  6  7  1  0  0  0  0
  6 16  1  0  0  0  0
  6 28  1  0  0  0  0
  7  8  1  0  0  0  0
  7 29  1  0  0  0  0
  8  9  2  0  0  0  0
  8 10  1  0  0  0  0
 10 11  1  0  0  0  0
 10 30  1  0  0  0  0
 10 31  1  0  0  0  0
 11 15  1  0  0  0  0
 11 12  1  0  0  0  0
 12 13  2  0  0  0  0
 12 32  1  0  0  0  0
 13 14  1  0  0  0  0
 14 15  2  0  0  0  0
 16 17  1  0  0  0  0
 16 33  1  0  0  0  0
 17 34  1  0  0  0  0
 17 35  1  0  0  0  0
 17 36  1  0  0  0  0
M  END
> <s_m_source_file>
AV-unprocessed.smi

> <i_m_source_file_index>
1982

> <i_lp_mmshare_version>
43012

> <i_f3d_flags>
0

> <s_epik_input>
W0NIM11bQ0BASF0xW0NIMl1bQ0gyXVtDSDJdW0NASF0oW0NASF0xW0NIM10pW05IXUMoPU8pW0NIMl1uMltjSF1ubm4y

> <s_epik_cmdline>
J2VwaWtfcHl0aG9uJywgJy1waCcsICc3LjAnLCAnLXRuJywgJzgnLCAnLW1hJywgJzIwMCcsICctbWV0YWxfYmluZGluZycsICctaW1hZScsICc8aW5maWxlLm1hZT4nLCAnLW9tYWUnLCAnPG91dGZpbGUubWFlPic=

> <r_lp_tautomer_probability>
1

> <r_epik_Ionization_Penalty>
5.03816e-07

> <r_epik_Ionization_Penalty_Charging>
0

> <r_epik_Ionization_Penalty_Neutral>
5.03816e-07

> <r_epik_State_Penalty>
-0

> <r_epik_Charging_Adjusted_Penalty>
0

> <i_epik_Tot_Q>
0

> <i_epik_Tot_abs_Q>
0

> <r_epik_Metal_State_Penalty>
-0

> <b_epik_Metal_Only>
0

> <s_lp_Force_Field>
OPLS_2005

> <r_lp_Energy>
12.4214

> <b_lp_Chiralities_Consistent>
1

> <s_lp_Variant>
AV-unprocessed.smi:1982-8

> <Gold.Version>
5.8.1

> <Gold.Id.Protein>
6NUR|6NUR_protein|mol2

> <Gold.PLP.Fitness>
33.3384

> <Gold.PLP.PLP>
-25.6692

> <Gold.PLP.part.hbond>
-4.6850

> <Gold.PLP.part.metal>
0.0000

> <Gold.PLP.part.buried>
-2.5003

> <Gold.PLP.part.nonpolar>
-18.6422

> <Gold.PLP.part.repulsive>
0.0892

> <Gold.PLP.ligand.clash>
0.0000

> <Gold.PLP.ligand.torsion>
0.4324

> <Gold.PLP.Chemscore.Hbond>
1.8952

> <Gold.PLP.Chemscore.CHOScore>
0.9450

> <Gold.PLP.Chemscore.Metal>
0.0000

> <Gold.Chemscore.Hbonds>
donor molecule, donor type, donor heavy atom, donor atom, acceptor molecule, acceptor atom, score
      L1  H     7    29       P1  8028  0.15
      P1  H  6933  6944       L1    13  0.98
      P1  H  6934  6946       L1    14  0.72
      L1  C    12    32       P1  8029  0.94

> <Gold.PLP.Chemscore.Internal.Correction>
0.0135

> <Gold.Rescore>
     Score         DG    S(hbond)    S(metal)    S(lipo)     H(rot)  DE(clash)    DE(int)     intcor
      8.96     -10.61       0.06        0.00      83.86       1.91       1.21       0.44       ----

> <Gold.Chemscore.Fitness>
8.9582

> <Gold.Chemscore.DG>
-10.6115

> <Gold.Chemscore.ZeroCoef>
-5.4800

> <Gold.Chemscore.Hbond>
0.0596

> <Gold.Chemscore.Metal>
0.0000

> <Gold.Chemscore.Lipo>
83.8583

> <Gold.Chemscore.Internal_Hbond>
0.0000

> <Gold.Chemscore.DEClash>
1.2133

> <Gold.Chemscore.DEInternal>
0.4400

> <Gold.Chemscore.Rot>
1.9058

> <Gold.Chemscore.Internal.Correction>
   9.000000E+99

> <Gold.Chemscore.Hbonds>
donor molecule, donor type, donor heavy atom, donor atom, acceptor molecule, acceptor atom, score
      L1  H     7    29       P1  8028  0.11
      P1  H  6933  6944       L1    13  0.19
      P1  H  6934  6946       L1    14  0.04

> <Gold.Chemscore.Hbond.Weighted>
-0.1990

> <Gold.Chemscore.Metal.Weighted>
-0.0000

> <Gold.Chemscore.Lipo.Weighted>
-9.8114

> <Gold.Chemscore.Internal_Hbond.Weighted>
0.0000

> <Gold.Chemscore.DEClash.Weighted>
1.2133

> <Gold.Chemscore.DEInternal.Weighted>
0.4400

> <Gold.Chemscore.Rot.Weighted>
4.8788

> <Gold.Chemscore.Internal.Correction.Weighted>
   9.000000E+99

> <Gold.Protein.RotatedTorsions>
[ 6907 6896 6895 6894 ] final   24.93 input  -60.11 | X-H torsion
[ 7974 7965 7964 7962 ] final -178.70 input  175.53 | X-H torsion
[ 8008 7997 7996 7995 ] final  160.99 input   59.86 | X-H torsion
[ 10167 10162 10161 10158 ] final  150.20 input  -65.29 | X-H torsion
[ 10718 10713 10712 10709 ] final -111.61 input   66.30 | X-H torsion
[ 10763 10752 10751 10750 ] final   31.33 input  -60.55 | X-H torsion
[ 11005 11000 10999 10996 ] final  147.32 input  -57.11 | X-H torsion

> <Gold.Protein.ActiveResidues>
 VAL166  LYS551  ARG553  GLY616  TRP617  ASP618  TYR619  PRO620  LYS621  CYS622 
 ASP623  PHE694  ASN695  SER759  ASP760  ASP761  ALA762  ILE779  LEU786  VAL792 
 PHE793  MET794  SER795  GLU796  ALA797  LYS798  CYS799  TRP800  GLU811  SER814 

> <Gold.Protein.RotatedAtoms>
  151.9649  135.0105  160.0549 H   0  0  0  0  0  0  0  0  0  0  0  0  # atno 6907 bound_to 6896
  152.1835  133.4719  159.4979 H   0  0  0  0  0  0  0  0  0  0  0  0  # atno 6908 bound_to 6896
  150.6922  134.1720  159.4259 H   0  0  0  0  0  0  0  0  0  0  0  0  # atno 6909 bound_to 6896
  144.7132  140.0829  143.6425 H   0  0  0  0  0  0  0  0  0  0  0  0  # atno 7974 bound_to 7965
  156.2134  140.1789  156.7644 H   0  0  0  0  0  0  0  0  0  0  0  0  # atno 8008 bound_to 7997
  154.5755  140.0675  156.9058 H   0  0  0  0  0  0  0  0  0  0  0  0  # atno 8009 bound_to 7997
  155.2595  140.3335  155.4277 H   0  0  0  0  0  0  0  0  0  0  0  0  # atno 8010 bound_to 7997
  139.4853  144.5541  151.7349 H   0  0  0  0  0  0  0  0  0  0  0  0  # atno 10167 bound_to 10162
  156.0657  130.5876  150.8396 H   0  0  0  0  0  0  0  0  0  0  0  0  # atno 10718 bound_to 10713
  153.0321  135.6441  154.1183 H   0  0  0  0  0  0  0  0  0  0  0  0  # atno 10763 bound_to 10752
  154.0903  135.2867  155.3274 H   0  0  0  0  0  0  0  0  0  0  0  0  # atno 10764 bound_to 10752
  154.6469  135.5440  153.7919 H   0  0  0  0  0  0  0  0  0  0  0  0  # atno 10765 bound_to 10752
  140.0866  134.9065  157.1586 H   0  0  0  0  0  0  0  0  0  0  0  0  # atno 11005 bound_to 11000
  145.9687  139.2853  143.1112 LP  0  0  0  0  0  0  0  0  0  0  0  0  # atno 17320 bound_to 7965
  145.9141  140.9160  143.0439 LP  0  0  0  0  0  0  0  0  0  0  0  0  # atno 17321 bound_to 7965
  140.5099  144.1040  150.5992 LP  0  0  0  0  0  0  0  0  0  0  0  0  # atno 17342 bound_to 10162
  140.3962  143.2727  152.0001 LP  0  0  0  0  0  0  0  0  0  0  0  0  # atno 17343 bound_to 10162
  157.5697  131.0946  150.9437 LP  0  0  0  0  0  0  0  0  0  0  0  0  # atno 17370 bound_to 10713
  156.9656  130.5471  149.5288 LP  0  0  0  0  0  0  0  0  0  0  0  0  # atno 17371 bound_to 10713
  140.3411  134.2703  155.7212 LP  0  0  0  0  0  0  0  0  0  0  0  0  # atno 17394 bound_to 11000
  141.2064  133.7833  157.0176 LP  0  0  0  0  0  0  0  0  0  0  0  0  # atno 17395 bound_to 11000

$$$$
