#       Name:                AV-unprocessed.smi:3181
#       Creating user name   scv26
#       Creation time:       Fri Mar 27 17:57:36 2020


#       File generated by GOLD software.
#

@<TRIPOS>MOLECULE
AV-unprocessed.smi:3181
    44    45     1
SMALL
NO_CHARGES


@<TRIPOS>ATOM
      1 ****        -1.6580  -2.2788   1.1795 C.3            1 S1                 0.0000
      2 ****        -1.1835  -1.5225  -0.0723 C.3            1 S1                 0.0000
      3 ****        -1.6326  -2.1937  -1.3862 C.3            1 S1                 0.0000
      4 ****        -3.0732  -2.3402  -1.4841 N.pl3          1 S1                 0.0000
      5 ****        -3.8406  -3.4315  -1.4648 C.2            1 S1                 0.0000
      6 ****        -5.1355  -3.1767  -1.5877 N.2            1 S1                 0.0000
      7 ****        -5.0919  -1.8151  -1.6939 C.2            1 S1                 0.0000
      8 ****        -3.8790  -1.2640  -1.6395 N.2            1 S1                 0.0000
      9 ****         0.2920  -1.4016  -0.0538 N.4            1 S1                 1.0000
     10 ****         0.8249  -0.0215  -0.0928 C.3            1 S1                 0.0000
     11 ****         2.3176  -0.0478  -0.4661 C.3            1 S1                 0.0000
     12 ****         2.9274   1.3630  -0.4713 C.3            1 S1                 0.0000
     13 ****         2.7209   2.0713   0.8819 C.3            1 S1                 0.0000
     14 ****         3.4022   3.4491   0.9163 C.3            1 S1                 0.0000
     15 ****         1.2233   2.1155   1.2798 C.3            1 S1                 0.0000
     16 ****         0.3760   3.0974   0.4454 C.3            1 S1                 0.0000
     17 ****         0.6262   0.6924   1.2634 C.3            1 S1                 0.0000
     18 ****        -2.7461  -2.3161   1.2367 H              1 S1                 0.0000
     19 ****        -1.3051  -1.7904   2.0884 H              1 S1                 0.0000
     20 ****        -1.2884  -3.3046   1.1879 H              1 S1                 0.0000
     21 ****        -1.6264  -0.5260  -0.0387 H              1 S1                 0.0000
     22 ****        -1.2921  -1.6117  -2.2439 H              1 S1                 0.0000
     23 ****        -1.1808  -3.1823  -1.4805 H              1 S1                 0.0000
     24 ****        -3.4462  -4.4312  -1.3555 H              1 S1                 0.0000
     25 ****        -5.9800  -1.2124  -1.8156 H              1 S1                 0.0000
     26 ****         0.6477  -1.8585   0.7737 H              1 S1                 0.0000
     27 ****         0.2927   0.5196  -0.8767 H              1 S1                 0.0000
     28 ****         2.8649  -0.6729   0.2413 H              1 S1                 0.0000
     29 ****         2.4503  -0.5054  -1.4471 H              1 S1                 0.0000
     30 ****         3.9929   1.2934  -0.6930 H              1 S1                 0.0000
     31 ****         2.4887   1.9523  -1.2772 H              1 S1                 0.0000
     32 ****         3.2265   1.4654   1.6357 H              1 S1                 0.0000
     33 ****         3.0237   4.1078   0.1346 H              1 S1                 0.0000
     34 ****         4.4782   3.3545   0.7681 H              1 S1                 0.0000
     35 ****         3.2464   3.9416   1.8764 H              1 S1                 0.0000
     36 ****         1.1707   2.4679   2.3110 H              1 S1                 0.0000
     37 ****         0.4124   2.8728  -0.6200 H              1 S1                 0.0000
     38 ****         0.7111   4.1260   0.5774 H              1 S1                 0.0000
     39 ****        -0.6700   3.0655   0.7512 H              1 S1                 0.0000
     40 ****        -0.4313   0.7394   1.5246 H              1 S1                 0.0000
     41 ****         1.0995   0.1020   2.0497 H              1 S1                 0.0000
     42 ****         0.6449  -1.8931  -0.8625 H              1 S1                 0.0000
     43 ****        -5.9174  -3.8000  -1.5993 LP             1 S1                 0.0000
     44 ****        -3.6278  -0.2979  -1.6987 LP             1 S1                 0.0000
@<TRIPOS>BOND
    1    1    2 1     
    2    1   18 1     
    3    1   19 1     
    4    1   20 1     
    5    2    3 1     
    6    2    9 1     
    7    2   21 1     
    8    3    4 1     
    9    3   22 1     
   10    3   23 1     
   11    4    8 1     
   12    4    5 1     
   13    5    6 2     
   14    5   24 1     
   15    6    7 1     
   16    7    8 2     
   17    7   25 1     
   18    9   10 1     
   19    9   26 1     
   20    9   42 1     
   21   10   17 1     
   22   10   11 1     
   23   10   27 1     
   24   11   12 1     
   25   11   28 1     
   26   11   29 1     
   27   12   13 1     
   28   12   30 1     
   29   12   31 1     
   30   13   14 1     
   31   13   15 1     
   32   13   32 1     
   33   14   33 1     
   34   14   34 1     
   35   14   35 1     
   36   15   16 1     
   37   15   17 1     
   38   15   36 1     
   39   16   37 1     
   40   16   38 1     
   41   16   39 1     
   42   17   40 1     
   43   17   41 1     
   44    6   43 1     
   45    8   44 1     
@<TRIPOS>SUBSTRUCTURE
      1 S1             1
@<TRIPOS>SET
LONE_PAIRS      STATIC     ATOMS    <user>   **** ""
2 43 44
DONOR_HYDROGENS      STATIC     ATOMS    <user>   **** ""
2 26 42
ATOM$BLUE        STATIC     ATOMS    COLORGROUP SYSTEM
2 43 44
ATOM$RED        STATIC     ATOMS    COLORGROUP SYSTEM
2 26 42
