AV-unprocessed.smi:1389|AV-procd|sdf|5650|dock9
  -GOLD-   22720 5273D 1   1.00000     0.00000
 Structure written by MMmdl.
 52 54  0  0  0  0  0  0  0  0  2 V2000
  148.1354  140.2470  153.9304 C   0  0  0  0  0  0  0  0  0  0  0  0
  149.0079  138.9906  154.1561 C   0  0  2  0  0  0  0  0  0  0  0  0
  148.2237  138.0189  155.0774 C   0  0  0  0  0  0  0  0  0  0  0  0
  147.4323  137.0644  154.3041 N   0  0  0  0  0  0  0  0  0  0  0  0
  146.1519  136.7425  154.5332 C   0  0  0  0  0  0  0  0  0  0  0  0
  145.5041  137.1404  155.5012 O   0  0  0  0  0  0  0  0  0  0  0  0
  145.6689  135.9606  153.5547 N   0  0  0  0  0  0  0  0  0  0  0  0
  144.3272  135.5197  153.3850 C   0  0  0  0  0  0  0  0  0  0  0  0
  143.2619  136.0655  154.1447 C   0  0  0  0  0  0  0  0  0  0  0  0
  141.9494  135.5963  153.9450 C   0  0  0  0  0  0  0  0  0  0  0  0
  141.7241  134.5827  152.9964 C   0  0  0  0  0  0  0  0  0  0  0  0
  142.7626  134.0732  152.3013 N   0  3  0  0  0  0  0  0  0  0  0  0
  144.0454  134.4869  152.4498 C   0  0  0  0  0  0  0  0  0  0  0  0
  145.0562  133.8697  151.6834 N   0  0  0  0  0  0  0  0  0  0  0  0
  145.2776  132.4623  152.0027 C   0  0  0  0  0  0  0  0  0  0  0  0
  145.6511  131.7757  150.6878 C   0  0  0  0  0  0  0  0  0  0  0  0
  144.9563  132.6368  149.6403 C   0  0  0  0  0  0  0  0  0  0  0  0
  145.0755  134.0403  150.2314 C   0  0  0  0  0  0  0  0  0  0  0  0
  150.3748  139.2934  154.6335 N   0  0  0  0  0  0  0  0  0  0  0  0
  151.2903  138.1556  154.5086 C   0  0  0  0  0  0  0  0  0  0  0  0
  152.7066  138.4817  155.0148 C   0  0  0  0  0  0  0  0  0  0  0  0
  152.6466  138.9229  156.3649 O   0  0  0  0  0  0  0  0  0  0  0  0
  151.8132  140.0638  156.5231 C   0  0  0  0  0  0  0  0  0  0  0  0
  150.3938  139.7347  156.0316 C   0  0  0  0  0  0  0  0  0  0  0  0
  147.1059  139.9766  153.6938 H   0  0  0  0  0  0  0  0  0  0  0  0
  148.4912  140.8440  153.0912 H   0  0  0  0  0  0  0  0  0  0  0  0
  148.1142  140.8865  154.8135 H   0  0  0  0  0  0  0  0  0  0  0  0
  149.0943  138.4975  153.1867 H   0  0  0  0  0  0  0  0  0  0  0  0
  148.9268  137.4442  155.6811 H   0  0  0  0  0  0  0  0  0  0  0  0
  147.6151  138.5543  155.8059 H   0  0  0  0  0  0  0  0  0  0  0  0
  147.8771  136.6772  153.4850 H   0  0  0  0  0  0  0  0  0  0  0  0
  146.2886  135.7906  152.7764 H   0  0  0  0  0  0  0  0  0  0  0  0
  143.4356  136.8320  154.8847 H   0  0  0  0  0  0  0  0  0  0  0  0
  141.1285  136.0067  154.5150 H   0  0  0  0  0  0  0  0  0  0  0  0
  140.7534  134.1611  152.7791 H   0  0  0  0  0  0  0  0  0  0  0  0
  146.0658  132.3442  152.7467 H   0  0  0  0  0  0  0  0  0  0  0  0
  144.3644  132.0225  152.4078 H   0  0  0  0  0  0  0  0  0  0  0  0
  146.7312  131.8179  150.5404 H   0  0  0  0  0  0  0  0  0  0  0  0
  145.3459  130.7297  150.6528 H   0  0  0  0  0  0  0  0  0  0  0  0
  145.4061  132.5530  148.6507 H   0  0  0  0  0  0  0  0  0  0  0  0
  143.9059  132.3528  149.5627 H   0  0  0  0  0  0  0  0  0  0  0  0
  144.3085  134.7082  149.8403 H   0  0  0  0  0  0  0  0  0  0  0  0
  146.0390  134.4743  149.9626 H   0  0  0  0  0  0  0  0  0  0  0  0
  150.8954  137.2995  155.0578 H   0  0  0  0  0  0  0  0  0  0  0  0
  151.3796  137.8493  153.4674 H   0  0  0  0  0  0  0  0  0  0  0  0
  153.3418  137.5976  154.9575 H   0  0  0  0  0  0  0  0  0  0  0  0
  153.1708  139.2498  154.3943 H   0  0  0  0  0  0  0  0  0  0  0  0
  151.7938  140.3477  157.5752 H   0  0  0  0  0  0  0  0  0  0  0  0
  152.2267  140.9087  155.9699 H   0  0  0  0  0  0  0  0  0  0  0  0
  149.7848  140.6251  156.1675 H   0  0  0  0  0  0  0  0  0  0  0  0
  149.9616  138.9621  156.6692 H   0  0  0  0  0  0  0  0  0  0  0  0
  142.5706  133.3322  151.6271 H   0  0  0  0  0  0  0  0  0  0  0  0
  1  2  1  0  0  0  0
  1 25  1  0  0  0  0
  1 26  1  0  0  0  0
  1 27  1  0  0  0  0
  2  3  1  0  0  0  0
  2 19  1  0  0  0  0
  2 28  1  0  0  0  0
  3  4  1  0  0  0  0
  3 29  1  0  0  0  0
  3 30  1  0  0  0  0
  4  5  1  0  0  0  0
  4 31  1  0  0  0  0
  5  6  2  0  0  0  0
  5  7  1  0  0  0  0
  7  8  1  0  0  0  0
  7 32  1  0  0  0  0
  8 13  1  0  0  0  0
  8  9  2  0  0  0  0
  9 10  1  0  0  0  0
  9 33  1  0  0  0  0
 10 11  2  0  0  0  0
 10 34  1  0  0  0  0
 11 12  1  0  0  0  0
 11 35  1  0  0  0  0
 12 13  2  0  0  0  0
 12 52  1  0  0  0  0
 13 14  1  0  0  0  0
 14 18  1  0  0  0  0
 14 15  1  0  0  0  0
 15 16  1  0  0  0  0
 15 36  1  0  0  0  0
 15 37  1  0  0  0  0
 16 17  1  0  0  0  0
 16 38  1  0  0  0  0
 16 39  1  0  0  0  0
 17 18  1  0  0  0  0
 17 40  1  0  0  0  0
 17 41  1  0  0  0  0
 18 42  1  0  0  0  0
 18 43  1  0  0  0  0
 19 24  1  0  0  0  0
 19 20  1  0  0  0  0
 20 21  1  0  0  0  0
 20 44  1  0  0  0  0
 20 45  1  0  0  0  0
 21 22  1  0  0  0  0
 21 46  1  0  0  0  0
 21 47  1  0  0  0  0
 22 23  1  0  0  0  0
 23 24  1  0  0  0  0
 23 48  1  0  0  0  0
 23 49  1  0  0  0  0
 24 50  1  0  0  0  0
 24 51  1  0  0  0  0
M  CHG  1  12   1
M  END
> <s_m_source_file>
AV-unprocessed.smi

> <i_m_source_file_index>
1389

> <i_lp_mmshare_version>
43012

> <i_f3d_flags>
0

> <s_epik_input>
W0NIMl0xW0NIMl1PW0NIMl1bQ0gyXU4xW0NASF0oW0NIM10pW0NIMl1bTkhdQyg9TylbTkhdYzJbY0hdW2NIXVtjSF1uYzJOM1tDSDJdW0NIMl1bQ0gyXVtDSDJdMw==

> <s_epik_cmdline>
J2VwaWtfcHl0aG9uJywgJy1waCcsICc3LjAnLCAnLXRuJywgJzgnLCAnLW1hJywgJzIwMCcsICctbWV0YWxfYmluZGluZycsICctaW1hZScsICc8aW5maWxlLm1hZT4nLCAnLW9tYWUnLCAnPG91dGZpbGUubWFlPic=

> <r_epik_Ionization_Penalty>
1.37675

> <r_epik_Ionization_Penalty_Charging>
1.11074

> <r_epik_Ionization_Penalty_Neutral>
0.26601

> <r_epik_State_Penalty>
1.46015

> <r_epik_Charging_Adjusted_Penalty>
2.57089

> <i_epik_Tot_Q>
1

> <i_epik_Tot_abs_Q>
1

> <r_epik_Metal_State_Penalty>
1.54223

> <b_epik_Metal_Only>
0

> <s_lp_Force_Field>
OPLS_2005

> <r_lp_Energy>
66.6842

> <b_lp_Chiralities_Consistent>
1

> <s_lp_Variant>
AV-unprocessed.smi:1389-5

> <Gold.Version>
5.8.1

> <Gold.Id.Protein>
6NUR|6NUR_protein|mol2

> <Gold.PLP.Fitness>
42.1043

> <Gold.PLP.PLP>
-35.5232

> <Gold.PLP.part.hbond>
-3.4481

> <Gold.PLP.part.metal>
0.0000

> <Gold.PLP.part.buried>
-1.6759

> <Gold.PLP.part.nonpolar>
-30.3799

> <Gold.PLP.part.repulsive>
0.2764

> <Gold.PLP.ligand.clash>
0.0000

> <Gold.PLP.ligand.torsion>
0.8129

> <Gold.PLP.Chemscore.Hbond>
2.6592

> <Gold.PLP.Chemscore.CHOScore>
0.0000

> <Gold.PLP.Chemscore.Metal>
0.0000

> <Gold.Chemscore.Hbonds>
donor molecule, donor type, donor heavy atom, donor atom, acceptor molecule, acceptor atom, score
      L1  H     4    31       P1  7948  1.00
      P1  H  7989  7998       L1    19  0.26
      P1  H  7997  8009       L1    22  0.39

> <Gold.PLP.Chemscore.Internal.Correction>
0.2293

> <Gold.Rescore>
     Score         DG    S(hbond)    S(metal)    S(lipo)     H(rot)  DE(clash)    DE(int)     intcor
     11.23     -17.15       1.11        0.00     103.14       1.60       3.58       2.34       ----

> <Gold.Chemscore.Fitness>
11.2344

> <Gold.Chemscore.DG>
-17.1523

> <Gold.Chemscore.ZeroCoef>
-5.4800

> <Gold.Chemscore.Hbond>
1.1106

> <Gold.Chemscore.Metal>
0.0000

> <Gold.Chemscore.Lipo>
103.1434

> <Gold.Chemscore.Internal_Hbond>
0.0000

> <Gold.Chemscore.DEClash>
3.5827

> <Gold.Chemscore.DEInternal>
2.3353

> <Gold.Chemscore.Rot>
1.6035

> <Gold.Chemscore.Internal.Correction>
   9.000000E+99

> <Gold.Chemscore.Hbonds>
donor molecule, donor type, donor heavy atom, donor atom, acceptor molecule, acceptor atom, score
      L1  H     4    31       P1  7948  0.96
      P1  H  7989  7998       L1    19  0.03

> <Gold.Chemscore.Hbond.Weighted>
-3.7095

> <Gold.Chemscore.Metal.Weighted>
-0.0000

> <Gold.Chemscore.Lipo.Weighted>
-12.0678

> <Gold.Chemscore.Internal_Hbond.Weighted>
0.0000

> <Gold.Chemscore.DEClash.Weighted>
3.5827

> <Gold.Chemscore.DEInternal.Weighted>
2.3353

> <Gold.Chemscore.Rot.Weighted>
4.1049

> <Gold.Chemscore.Internal.Correction.Weighted>
   9.000000E+99

> <Gold.Protein.RotatedTorsions>
[ 6907 6896 6895 6894 ] final  -70.95 input  -60.11 | X-H torsion
[ 7974 7965 7964 7962 ] final  157.40 input  175.53 | X-H torsion
[ 8008 7997 7996 7995 ] final -158.95 input   59.86 | X-H torsion
[ 10167 10162 10161 10158 ] final -159.48 input  -65.29 | X-H torsion
[ 10718 10713 10712 10709 ] final   91.44 input   66.30 | X-H torsion
[ 10763 10752 10751 10750 ] final -128.43 input  -60.55 | X-H torsion
[ 11005 11000 10999 10996 ] final -103.31 input  -57.11 | X-H torsion

> <Gold.Protein.ActiveResidues>
 VAL166  LYS551  ARG553  GLY616  TRP617  ASP618  TYR619  PRO620  LYS621  CYS622 
 ASP623  PHE694  ASN695  SER759  ASP760  ASP761  ALA762  ILE779  LEU786  VAL792 
 PHE793  MET794  SER795  GLU796  ALA797  LYS798  CYS799  TRP800  GLU811  SER814 

> <Gold.Protein.RotatedAtoms>
  150.7234  134.5378  159.5732 H   0  0  0  0  0  0  0  0  0  0  0  0  # atno 6907 bound_to 6896
  152.2896  134.7733  160.0389 H   0  0  0  0  0  0  0  0  0  0  0  0  # atno 6908 bound_to 6896
  151.8351  133.3379  159.3662 H   0  0  0  0  0  0  0  0  0  0  0  0  # atno 6909 bound_to 6896
  144.7906  139.7335  143.6223 H   0  0  0  0  0  0  0  0  0  0  0  0  # atno 7974 bound_to 7965
  155.7552  140.0832  157.2182 H   0  0  0  0  0  0  0  0  0  0  0  0  # atno 8008 bound_to 7997
  154.4008  140.1553  156.2825 H   0  0  0  0  0  0  0  0  0  0  0  0  # atno 8009 bound_to 7997
  155.8892  140.3416  155.5947 H   0  0  0  0  0  0  0  0  0  0  0  0  # atno 8010 bound_to 7997
  139.6612  143.9910  152.2226 H   0  0  0  0  0  0  0  0  0  0  0  0  # atno 10167 bound_to 10162
  157.6960  131.0407  150.3730 H   0  0  0  0  0  0  0  0  0  0  0  0  # atno 10718 bound_to 10713
  154.8756  135.3929  154.3755 H   0  0  0  0  0  0  0  0  0  0  0  0  # atno 10763 bound_to 10752
  153.4509  135.7028  153.6114 H   0  0  0  0  0  0  0  0  0  0  0  0  # atno 10764 bound_to 10752
  153.4655  135.3802  155.2330 H   0  0  0  0  0  0  0  0  0  0  0  0  # atno 10765 bound_to 10752
  141.1151  133.8630  157.1470 H   0  0  0  0  0  0  0  0  0  0  0  0  # atno 11005 bound_to 11000
  146.2156  139.5543  142.9652 LP  0  0  0  0  0  0  0  0  0  0  0  0  # atno 17320 bound_to 7965
  145.5806  141.0383  143.2124 LP  0  0  0  0  0  0  0  0  0  0  0  0  # atno 17321 bound_to 7965
  139.9649  144.6533  150.8044 LP  0  0  0  0  0  0  0  0  0  0  0  0  # atno 17342 bound_to 10162
  140.7580  143.3099  151.2870 LP  0  0  0  0  0  0  0  0  0  0  0  0  # atno 17343 bound_to 10162
  156.4153  130.3942  149.6863 LP  0  0  0  0  0  0  0  0  0  0  0  0  # atno 17370 bound_to 10713
  156.4133  130.7732  151.2746 LP  0  0  0  0  0  0  0  0  0  0  0  0  # atno 17371 bound_to 10713
  140.0068  135.0005  157.0310 LP  0  0  0  0  0  0  0  0  0  0  0  0  # atno 17394 bound_to 11000
  140.4668  134.1428  155.7198 LP  0  0  0  0  0  0  0  0  0  0  0  0  # atno 17395 bound_to 11000

$$$$
