#       Name:                AV-unprocessed.smi:833
#       Creating user name   scv26
#       Creation time:       Fri Mar 27 01:33:58 2020


#       File generated by GOLD software.
#

@<TRIPOS>MOLECULE
AV-unprocessed.smi:833
    45    46     1
SMALL
NO_CHARGES


@<TRIPOS>ATOM
      1 ****        -3.0860   4.7210  -0.4864 C.3            1 S1                 0.0000
      2 ****        -2.2589   3.4558  -0.7491 C.3            1 S1                 0.0000
      3 ****        -2.5306   3.0406  -2.0721 O.3            1 S1                 0.0000
      4 ****        -0.7466   3.7179  -0.6092 C.3            1 S1                 0.0000
      5 ****         0.0129   2.4767  -0.4944 N.am           1 S1                 0.0000
      6 ****         0.1546   1.7627   0.6309 C.2            1 S1                 0.0000
      7 ****        -0.3505   2.0785   1.7081 O.2            1 S1                 0.0000
      8 ****         0.8920   0.6598   0.4210 N.am           1 S1                 0.0000
      9 ****         1.2209  -0.3542   1.3635 C.ar           1 S1                 0.0000
     10 ****         1.5184  -0.0261   2.7111 C.ar           1 S1                 0.0000
     11 ****         1.9143  -1.0348   3.6094 C.ar           1 S1                 0.0000
     12 ****         2.0221  -2.3560   3.1428 C.ar           1 S1                 0.0000
     13 ****         1.7435  -2.6343   1.8525 N.pl3          1 S1                 1.0000
     14 ****         1.3439  -1.7104   0.9430 C.ar           1 S1                 0.0000
     15 ****         1.0749  -2.1524  -0.3727 N.3            1 S1                 0.0000
     16 ****         1.3964  -3.5177  -0.7724 C.3            1 S1                 0.0000
     17 ****         0.6560  -3.7298  -2.0898 C.3            1 S1                 0.0000
     18 ****        -0.6202  -2.9200  -1.8827 C.3            1 S1                 0.0000
     19 ****        -0.1660  -1.7375  -1.0201 C.3            1 S1                 0.0000
     20 ****        -2.9379   5.0797   0.5325 H              1 S1                 0.0000
     21 ****        -4.1519   4.5284  -0.6139 H              1 S1                 0.0000
     22 ****        -2.8085   5.5274  -1.1665 H              1 S1                 0.0000
     23 ****        -2.5825   2.6758  -0.0588 H              1 S1                 0.0000
     24 ****        -2.0537   2.2425  -2.2402 H              1 S1                 0.0000
     25 ****        -0.3722   4.2927  -1.4573 H              1 S1                 0.0000
     26 ****        -0.5542   4.3281   0.2751 H              1 S1                 0.0000
     27 ****         0.4627   2.1427  -1.3342 H              1 S1                 0.0000
     28 ****         1.1560   0.4726  -0.5353 H              1 S1                 0.0000
     29 ****         1.4712   0.9931   3.0643 H              1 S1                 0.0000
     30 ****         2.1445  -0.7950   4.6373 H              1 S1                 0.0000
     31 ****         2.3247  -3.1926   3.7558 H              1 S1                 0.0000
     32 ****         2.4717  -3.6575  -0.8855 H              1 S1                 0.0000
     33 ****         1.0320  -4.2288  -0.0298 H              1 S1                 0.0000
     34 ****         1.2334  -3.3106  -2.9152 H              1 S1                 0.0000
     35 ****         0.4661  -4.7813  -2.3068 H              1 S1                 0.0000
     36 ****        -1.0839  -2.6086  -2.8191 H              1 S1                 0.0000
     37 ****        -1.3470  -3.5184  -1.3317 H              1 S1                 0.0000
     38 ****        -0.9339  -1.4562  -0.2981 H              1 S1                 0.0000
     39 ****         0.0395  -0.8730  -1.6519 H              1 S1                 0.0000
     40 ****         1.8322  -3.6027   1.5443 H              1 S1                 0.0000
     41 ****        -2.2390   3.7494  -2.7145 LP             1 S1                 0.0000
     42 ****        -3.5112   2.8765  -2.1793 LP             1 S1                 0.0000
     43 ****        -0.9026   2.9095   1.7770 LP             1 S1                 0.0000
     44 ****        -0.2087   1.5042   2.5144 LP             1 S1                 0.0000
     45 ****         1.8138  -1.5818  -0.7311 LP             1 S1                 0.0000
@<TRIPOS>BOND
    1    1    2 1     
    2    1   20 1     
    3    1   21 1     
    4    1   22 1     
    5    2    3 1     
    6    2    4 1     
    7    2   23 1     
    8    3   24 1     
    9    4    5 1     
   10    4   25 1     
   11    4   26 1     
   12    5    6 am    
   13    5   27 1     
   14    6    7 2     
   15    6    8 am    
   16    8    9 1     
   17    8   28 1     
   18    9   14 ar    
   19    9   10 ar    
   20   10   11 ar    
   21   10   29 1     
   22   11   12 ar    
   23   11   30 1     
   24   12   13 ar    
   25   12   31 1     
   26   13   14 ar    
   27   13   40 1     
   28   14   15 1     
   29   15   19 1     
   30   15   16 1     
   31   16   17 1     
   32   16   32 1     
   33   16   33 1     
   34   17   18 1     
   35   17   34 1     
   36   17   35 1     
   37   18   19 1     
   38   18   36 1     
   39   18   37 1     
   40   19   38 1     
   41   19   39 1     
   42    3   41 1     
   43    3   42 1     
   44    7   43 1     
   45    7   44 1     
   46   15   45 1     
@<TRIPOS>SUBSTRUCTURE
      1 S1             1
@<TRIPOS>SET
LONE_PAIRS      STATIC     ATOMS    <user>   **** ""
5 41 42 43 44 45
DONOR_HYDROGENS      STATIC     ATOMS    <user>   **** ""
4 24 27 28 40
ATOM$BLUE        STATIC     ATOMS    COLORGROUP SYSTEM
5 41 42 43 44 45
ATOM$RED        STATIC     ATOMS    COLORGROUP SYSTEM
4 24 27 28 40
