AV-unprocessed.smi:3161|AV-procd|sdf|12055|dock9
  -GOLD-   2272017483D 1   1.00000     0.00000
 Structure written by MMmdl.
 41 42  0  0  0  0  0  0  0  0  2 V2000
  150.4341  140.4095  155.8149 C   0  0  0  0  0  0  0  0  0  0  0  0
  150.9659  141.4428  156.7658 C   0  0  0  0  0  0  0  0  0  0  0  0
  151.7022  141.2275  157.9652 C   0  0  0  0  0  0  0  0  0  0  0  0
  152.0241  142.3543  158.5797 N   0  0  0  0  0  0  0  0  0  0  0  0
  151.5094  143.3256  157.7955 N   0  0  0  0  0  0  0  0  0  0  0  0
  151.6716  144.7199  158.1694 C   0  0  0  0  0  0  0  0  0  0  0  0
  150.9846  145.0536  159.5081 C   0  0  2  0  0  0  0  0  0  0  0  0
  151.6052  144.2397  160.6558 C   0  0  0  0  0  0  0  0  0  0  0  0
  149.5281  144.8041  159.4118 N   0  3  0  0  0  0  0  0  0  0  0  0
  148.7662  145.0034  160.6620 C   0  0  0  0  0  0  0  0  0  0  0  0
  147.3034  144.5733  160.4853 C   0  0  2  0  0  0  0  0  0  0  0  0
  146.5125  144.6726  161.8044 C   0  0  0  0  0  0  0  0  0  0  0  0
  145.0842  144.1482  161.6186 C   0  0  0  0  0  0  0  0  0  0  0  0
  145.1249  142.7397  161.0166 C   0  0  0  0  0  0  0  0  0  0  0  0
  145.9890  142.7273  159.7456 C   0  0  0  0  0  0  0  0  0  0  0  0
  147.2935  143.2180  160.0407 O   0  0  0  0  0  0  0  0  0  0  0  0
  150.8641  142.8034  156.6946 C   0  0  0  0  0  0  0  0  0  0  0  0
  151.0646  139.5203  155.7918 H   0  0  0  0  0  0  0  0  0  0  0  0
  150.3788  140.7883  154.7942 H   0  0  0  0  0  0  0  0  0  0  0  0
  149.4311  140.0861  156.0934 H   0  0  0  0  0  0  0  0  0  0  0  0
  152.0092  140.2902  158.4054 H   0  0  0  0  0  0  0  0  0  0  0  0
  152.7364  144.9565  158.2094 H   0  0  0  0  0  0  0  0  0  0  0  0
  151.2490  145.3298  157.3697 H   0  0  0  0  0  0  0  0  0  0  0  0
  151.1430  146.1142  159.7103 H   0  0  0  0  0  0  0  0  0  0  0  0
  152.6806  144.4088  160.7166 H   0  0  0  0  0  0  0  0  0  0  0  0
  151.4470  143.1700  160.5140 H   0  0  0  0  0  0  0  0  0  0  0  0
  151.1833  144.5143  161.6224 H   0  0  0  0  0  0  0  0  0  0  0  0
  149.1575  145.4492  158.7275 H   0  0  0  0  0  0  0  0  0  0  0  0
  149.2242  144.4452  161.4785 H   0  0  0  0  0  0  0  0  0  0  0  0
  148.8062  146.0598  160.9306 H   0  0  0  0  0  0  0  0  0  0  0  0
  146.8329  145.2083  159.7320 H   0  0  0  0  0  0  0  0  0  0  0  0
  147.0148  144.0921  162.5797 H   0  0  0  0  0  0  0  0  0  0  0  0
  146.4861  145.7050  162.1547 H   0  0  0  0  0  0  0  0  0  0  0  0
  144.5540  144.1398  162.5713 H   0  0  0  0  0  0  0  0  0  0  0  0
  144.5306  144.8154  160.9565 H   0  0  0  0  0  0  0  0  0  0  0  0
  145.5380  142.0405  161.7448 H   0  0  0  0  0  0  0  0  0  0  0  0
  144.1150  142.3962  160.7906 H   0  0  0  0  0  0  0  0  0  0  0  0
  146.0737  141.7109  159.3608 H   0  0  0  0  0  0  0  0  0  0  0  0
  145.5319  143.3285  158.9581 H   0  0  0  0  0  0  0  0  0  0  0  0
  150.3903  143.4363  155.9582 H   0  0  0  0  0  0  0  0  0  0  0  0
  149.3755  143.8640  159.0747 H   0  0  0  0  0  0  0  0  0  0  0  0
  1  2  1  0  0  0  0
  1 18  1  0  0  0  0
  1 19  1  0  0  0  0
  1 20  1  0  0  0  0
  2 17  2  0  0  0  0
  2  3  1  0  0  0  0
  3  4  2  0  0  0  0
  3 21  1  0  0  0  0
  4  5  1  0  0  0  0
  5  6  1  0  0  0  0
  5 17  1  0  0  0  0
  6  7  1  0  0  0  0
  6 22  1  0  0  0  0
  6 23  1  0  0  0  0
  7  8  1  0  0  0  0
  7  9  1  0  0  0  0
  7 24  1  0  0  0  0
  8 25  1  0  0  0  0
  8 26  1  0  0  0  0
  8 27  1  0  0  0  0
  9 10  1  0  0  0  0
  9 28  1  0  0  0  0
  9 41  1  0  0  0  0
 10 11  1  0  0  0  0
 10 29  1  0  0  0  0
 10 30  1  0  0  0  0
 11 16  1  0  0  0  0
 11 12  1  0  0  0  0
 11 31  1  0  0  0  0
 12 13  1  0  0  0  0
 12 32  1  0  0  0  0
 12 33  1  0  0  0  0
 13 14  1  0  0  0  0
 13 34  1  0  0  0  0
 13 35  1  0  0  0  0
 14 15  1  0  0  0  0
 14 36  1  0  0  0  0
 14 37  1  0  0  0  0
 15 16  1  0  0  0  0
 15 38  1  0  0  0  0
 15 39  1  0  0  0  0
 17 40  1  0  0  0  0
M  CHG  1   9   1
M  END
> <s_m_source_file>
AV-unprocessed.smi

> <i_m_source_file_index>
3161

> <i_lp_mmshare_version>
43012

> <i_f3d_flags>
0

> <s_epik_input>
W0NIM11jMVtjSF1ubihbY0hdMSlbQ0gyXVtDQEhdKFtDSDNdKVtOSF1bQ0gyXVtDQEBIXTJbQ0gyXVtDSDJdW0NIMl1bQ0gyXU8y

> <s_epik_cmdline>
J2VwaWtfcHl0aG9uJywgJy1waCcsICc3LjAnLCAnLXRuJywgJzgnLCAnLW1hJywgJzIwMCcsICctbWV0YWxfYmluZGluZycsICctaW1hZScsICc8aW5maWxlLm1hZT4nLCAnLW9tYWUnLCAnPG91dGZpbGUubWFlPic=

> <r_lp_tautomer_probability>
1

> <r_epik_Ionization_Penalty>
0.00849661

> <r_epik_Ionization_Penalty_Charging>
0.00848754

> <r_epik_Ionization_Penalty_Neutral>
9.06711e-06

> <r_epik_State_Penalty>
0.00639836

> <r_epik_Charging_Adjusted_Penalty>
0.0148859

> <i_epik_Tot_Q>
1

> <i_epik_Tot_abs_Q>
1

> <r_epik_Metal_State_Penalty>
0.00639921

> <b_epik_Metal_Only>
0

> <s_lp_Force_Field>
OPLS_2005

> <r_lp_Energy>
12.4461

> <b_lp_Chiralities_Consistent>
1

> <s_lp_Variant>
AV-unprocessed.smi:3161-1

> <Gold.Version>
5.8.1

> <Gold.Id.Protein>
6NUR|6NUR_protein|mol2

> <Gold.PLP.Fitness>
50.6494

> <Gold.PLP.PLP>
-38.7485

> <Gold.PLP.part.hbond>
-2.2527

> <Gold.PLP.part.metal>
0.0000

> <Gold.PLP.part.buried>
-5.5954

> <Gold.PLP.part.nonpolar>
-31.7132

> <Gold.PLP.part.repulsive>
0.2674

> <Gold.PLP.ligand.clash>
0.0000

> <Gold.PLP.ligand.torsion>
0.0418

> <Gold.PLP.Chemscore.Hbond>
2.9760

> <Gold.PLP.Chemscore.CHOScore>
1.0000

> <Gold.PLP.Chemscore.Metal>
0.0000

> <Gold.Chemscore.Hbonds>
donor molecule, donor type, donor heavy atom, donor atom, acceptor molecule, acceptor atom, score
      L1  H     9    28       P1  8029  2.00
      P1  H  6933  6944       L1    16  0.99
      L1  C    17    40       P1  8028  0.90

> <Gold.PLP.Chemscore.Internal.Correction>
0.0564

> <Gold.Rescore>
     Score         DG    S(hbond)    S(metal)    S(lipo)     H(rot)  DE(clash)    DE(int)     intcor
     14.95     -16.60       1.30        0.00      92.32       1.57       0.33       1.32       ----

> <Gold.Chemscore.Fitness>
14.9475

> <Gold.Chemscore.DG>
-16.5961

> <Gold.Chemscore.ZeroCoef>
-5.4800

> <Gold.Chemscore.Hbond>
1.2986

> <Gold.Chemscore.Metal>
0.0000

> <Gold.Chemscore.Lipo>
92.3204

> <Gold.Chemscore.Internal_Hbond>
0.0000

> <Gold.Chemscore.DEClash>
0.3293

> <Gold.Chemscore.DEInternal>
1.3193

> <Gold.Chemscore.Rot>
1.5714

> <Gold.Chemscore.Internal.Correction>
   9.000000E+99

> <Gold.Chemscore.Hbonds>
donor molecule, donor type, donor heavy atom, donor atom, acceptor molecule, acceptor atom, score
      L1  H     9    28       P1  8029  0.94
      P1  H  6933  6944       L1    16  0.26

> <Gold.Chemscore.Hbond.Weighted>
-4.3374

> <Gold.Chemscore.Metal.Weighted>
-0.0000

> <Gold.Chemscore.Lipo.Weighted>
-10.8015

> <Gold.Chemscore.Internal_Hbond.Weighted>
0.0000

> <Gold.Chemscore.DEClash.Weighted>
0.3293

> <Gold.Chemscore.DEInternal.Weighted>
1.3193

> <Gold.Chemscore.Rot.Weighted>
4.0228

> <Gold.Chemscore.Internal.Correction.Weighted>
   9.000000E+99

> <Gold.Protein.RotatedTorsions>
[ 6907 6896 6895 6894 ] final -103.36 input  -60.11 | X-H torsion
[ 7974 7965 7964 7962 ] final  -21.77 input  175.53 | X-H torsion
[ 8008 7997 7996 7995 ] final  173.61 input   59.86 | X-H torsion
[ 10167 10162 10161 10158 ] final  -85.95 input  -65.29 | X-H torsion
[ 10718 10713 10712 10709 ] final  -30.50 input   66.30 | X-H torsion
[ 10763 10752 10751 10750 ] final  124.35 input  -60.55 | X-H torsion
[ 11005 11000 10999 10996 ] final  -32.65 input  -57.11 | X-H torsion

> <Gold.Protein.ActiveResidues>
 VAL166  LYS551  ARG553  GLY616  TRP617  ASP618  TYR619  PRO620  LYS621  CYS622 
 ASP623  PHE694  ASN695  SER759  ASP760  ASP761  ALA762  ILE779  LEU786  VAL792 
 PHE793  MET794  SER795  GLU796  ALA797  LYS798  CYS799  TRP800  GLU811  SER814 

> <Gold.Protein.RotatedAtoms>
  150.7237  134.0441  159.3775 H   0  0  0  0  0  0  0  0  0  0  0  0  # atno 6907 bound_to 6896
  151.8416  135.0586  160.0458 H   0  0  0  0  0  0  0  0  0  0  0  0  # atno 6908 bound_to 6896
  152.2858  133.5478  159.5563 H   0  0  0  0  0  0  0  0  0  0  0  0  # atno 6909 bound_to 6896
  146.1714  140.4387  142.8531 H   0  0  0  0  0  0  0  0  0  0  0  0  # atno 7974 bound_to 7965
  156.1058  140.1455  156.9406 H   0  0  0  0  0  0  0  0  0  0  0  0  # atno 8008 bound_to 7997
  154.4733  140.0903  156.7243 H   0  0  0  0  0  0  0  0  0  0  0  0  # atno 8009 bound_to 7997
  155.4682  140.3441  155.4324 H   0  0  0  0  0  0  0  0  0  0  0  0  # atno 8010 bound_to 7997
  140.3988  143.2672  151.9169 H   0  0  0  0  0  0  0  0  0  0  0  0  # atno 10167 bound_to 10162
  156.3991  130.4387  149.7336 H   0  0  0  0  0  0  0  0  0  0  0  0  # atno 10718 bound_to 10713
  153.6599  135.3348  155.3124 H   0  0  0  0  0  0  0  0  0  0  0  0  # atno 10763 bound_to 10752
  154.8517  135.4361  154.1815 H   0  0  0  0  0  0  0  0  0  0  0  0  # atno 10764 bound_to 10752
  153.2779  135.7006  153.7490 H   0  0  0  0  0  0  0  0  0  0  0  0  # atno 10765 bound_to 10752
  140.9570  133.7187  156.1308 H   0  0  0  0  0  0  0  0  0  0  0  0  # atno 11005 bound_to 11000
  144.8169  140.6483  143.6379 LP  0  0  0  0  0  0  0  0  0  0  0  0  # atno 17320 bound_to 7965
  145.4330  139.1546  143.4012 LP  0  0  0  0  0  0  0  0  0  0  0  0  # atno 17321 bound_to 7965
  139.4785  144.5654  151.8173 LP  0  0  0  0  0  0  0  0  0  0  0  0  # atno 17342 bound_to 10162
  140.4762  144.1516  150.5925 LP  0  0  0  0  0  0  0  0  0  0  0  0  # atno 17343 bound_to 10162
  156.4360  130.7838  151.2858 LP  0  0  0  0  0  0  0  0  0  0  0  0  # atno 17370 bound_to 10713
  157.7503  131.0139  150.3444 LP  0  0  0  0  0  0  0  0  0  0  0  0  # atno 17371 bound_to 10713
  140.7522  134.4032  157.5539 LP  0  0  0  0  0  0  0  0  0  0  0  0  # atno 17394 bound_to 11000
  139.8865  134.8907  156.2580 LP  0  0  0  0  0  0  0  0  0  0  0  0  # atno 17395 bound_to 11000

$$$$
