AV-unprocessed.smi:1936|AV-procd|sdf|7831|dock3
  -GOLD-   22720 9573D 1   1.00000     0.00000
 Structure written by MMmdl.
 39 40  0  0  0  0  0  0  0  0  2 V2000
  146.8333  136.4433  156.2482 C   0  0  0  0  0  0  0  0  0  0  0  0
  146.7966  136.4232  154.7140 C   0  0  2  0  0  0  0  0  0  0  0  0
  147.0866  135.0082  154.1646 C   0  0  0  0  0  0  0  0  0  0  0  0
  146.7252  134.8546  152.7324 N   0  3  0  0  0  0  0  0  0  0  0  0
  146.5689  133.4399  152.3217 C   0  0  0  0  0  0  0  0  0  0  0  0
  146.2721  133.3532  150.8147 C   0  0  0  0  0  0  0  0  0  0  0  0
  145.1088  134.1132  150.5108 O   0  0  0  0  0  0  0  0  0  0  0  0
  145.2733  135.4904  150.8276 C   0  0  0  0  0  0  0  0  0  0  0  0
  145.5339  135.6438  152.3352 C   0  0  0  0  0  0  0  0  0  0  0  0
  147.7575  137.4014  154.2038 N   0  0  0  0  0  0  0  0  0  0  0  0
  147.8434  138.6921  154.5673 C   0  0  0  0  0  0  0  0  0  0  0  0
  147.0587  139.2268  155.3501 O   0  0  0  0  0  0  0  0  0  0  0  0
  148.9703  139.5152  153.9362 C   0  0  0  0  0  0  0  0  0  0  0  0
  150.2809  139.0867  154.3957 N   0  0  0  0  0  0  0  0  0  0  0  0
  150.8464  137.8303  154.3235 C   0  0  0  0  0  0  0  0  0  0  0  0
  152.0879  137.9103  154.8863 C   0  0  0  0  0  0  0  0  0  0  0  0
  152.1952  139.2744  155.2765 C   0  0  0  0  0  0  0  0  0  0  0  0
  151.1131  139.9762  154.9801 N   0  0  0  0  0  0  0  0  0  0  0  0
  146.0982  135.7551  156.6666 H   0  0  0  0  0  0  0  0  0  0  0  0
  146.6077  137.4381  156.6339 H   0  0  0  0  0  0  0  0  0  0  0  0
  147.8135  136.1529  156.6281 H   0  0  0  0  0  0  0  0  0  0  0  0
  145.7898  136.7238  154.4206 H   0  0  0  0  0  0  0  0  0  0  0  0
  148.1527  134.8106  154.2879 H   0  0  0  0  0  0  0  0  0  0  0  0
  146.5689  134.2506  154.7551 H   0  0  0  0  0  0  0  0  0  0  0  0
  147.4806  132.8852  152.5467 H   0  0  0  0  0  0  0  0  0  0  0  0
  145.7609  132.9788  152.8925 H   0  0  0  0  0  0  0  0  0  0  0  0
  147.1198  133.7136  150.2294 H   0  0  0  0  0  0  0  0  0  0  0  0
  146.1025  132.3164  150.5240 H   0  0  0  0  0  0  0  0  0  0  0  0
  146.0922  135.9165  150.2455 H   0  0  0  0  0  0  0  0  0  0  0  0
  144.3681  136.0285  150.5459 H   0  0  0  0  0  0  0  0  0  0  0  0
  144.6634  135.3059  152.8999 H   0  0  0  0  0  0  0  0  0  0  0  0
  145.6787  136.6974  152.5724 H   0  0  0  0  0  0  0  0  0  0  0  0
  148.4464  137.0554  153.5511 H   0  0  0  0  0  0  0  0  0  0  0  0
  148.9255  139.4209  152.8506 H   0  0  0  0  0  0  0  0  0  0  0  0
  148.8420  140.5730  154.1715 H   0  0  0  0  0  0  0  0  0  0  0  0
  150.3240  136.9929  153.8842 H   0  0  0  0  0  0  0  0  0  0  0  0
  152.8103  137.1159  155.0016 H   0  0  0  0  0  0  0  0  0  0  0  0
  153.0211  139.7725  155.7631 H   0  0  0  0  0  0  0  0  0  0  0  0
  147.5059  135.2169  152.2031 H   0  0  0  0  0  0  0  0  0  0  0  0
  1  2  1  0  0  0  0
  1 19  1  0  0  0  0
  1 20  1  0  0  0  0
  1 21  1  0  0  0  0
  2  3  1  0  0  0  0
  2 10  1  0  0  0  0
  2 22  1  0  0  0  0
  3  4  1  0  0  0  0
  3 23  1  0  0  0  0
  3 24  1  0  0  0  0
  4  9  1  0  0  0  0
  4  5  1  0  0  0  0
  4 39  1  0  0  0  0
  5  6  1  0  0  0  0
  5 25  1  0  0  0  0
  5 26  1  0  0  0  0
  6  7  1  0  0  0  0
  6 27  1  0  0  0  0
  6 28  1  0  0  0  0
  7  8  1  0  0  0  0
  8  9  1  0  0  0  0
  8 29  1  0  0  0  0
  8 30  1  0  0  0  0
  9 31  1  0  0  0  0
  9 32  1  0  0  0  0
 10 11  1  0  0  0  0
 10 33  1  0  0  0  0
 11 12  2  0  0  0  0
 11 13  1  0  0  0  0
 13 14  1  0  0  0  0
 13 34  1  0  0  0  0
 13 35  1  0  0  0  0
 14 18  1  0  0  0  0
 14 15  1  0  0  0  0
 15 16  2  0  0  0  0
 15 36  1  0  0  0  0
 16 17  1  0  0  0  0
 16 37  1  0  0  0  0
 17 18  2  0  0  0  0
 17 38  1  0  0  0  0
M  CHG  1   4   1
M  END
> <s_m_source_file>
AV-unprocessed.smi

> <i_m_source_file_index>
1936

> <i_lp_mmshare_version>
43012

> <i_f3d_flags>
0

> <s_epik_input>
W0NIMl0xW0NIMl1PW0NIMl1bQ0gyXU4xW0NIMl1bQ0BASF0oW0NIM10pW05IXUMoPU8pW0NIMl1uMltjSF1bY0hdW2NIXW4y

> <s_epik_cmdline>
J2VwaWtfcHl0aG9uJywgJy1waCcsICc3LjAnLCAnLXRuJywgJzgnLCAnLW1hJywgJzIwMCcsICctbWV0YWxfYmluZGluZycsICctaW1hZScsICc8aW5maWxlLm1hZT4nLCAnLW9tYWUnLCAnPG91dGZpbGUubWFlPic=

> <r_lp_tautomer_probability>
1

> <r_epik_Ionization_Penalty>
0.748405

> <r_epik_Ionization_Penalty_Charging>
0.748396

> <r_epik_Ionization_Penalty_Neutral>
9.02181e-06

> <r_epik_State_Penalty>
0.775162

> <r_epik_Charging_Adjusted_Penalty>
1.52356

> <i_epik_Tot_Q>
1

> <i_epik_Tot_abs_Q>
1

> <r_epik_Metal_State_Penalty>
0.775167

> <b_epik_Metal_Only>
0

> <s_lp_Force_Field>
OPLS_2005

> <r_lp_Energy>
23.0503

> <b_lp_Chiralities_Consistent>
1

> <s_lp_Variant>
AV-unprocessed.smi:1936-3

> <Gold.Version>
5.8.1

> <Gold.Id.Protein>
6NUR|6NUR_protein|mol2

> <Gold.PLP.Fitness>
41.6154

> <Gold.PLP.PLP>
-27.5148

> <Gold.PLP.part.hbond>
-3.0000

> <Gold.PLP.part.metal>
0.0000

> <Gold.PLP.part.buried>
-1.4466

> <Gold.PLP.part.nonpolar>
-23.9989

> <Gold.PLP.part.repulsive>
0.3166

> <Gold.PLP.ligand.clash>
0.0000

> <Gold.PLP.ligand.torsion>
0.4451

> <Gold.PLP.Chemscore.Hbond>
3.9500

> <Gold.PLP.Chemscore.CHOScore>
1.0282

> <Gold.PLP.Chemscore.Metal>
0.0000

> <Gold.Chemscore.Hbonds>
donor molecule, donor type, donor heavy atom, donor atom, acceptor molecule, acceptor atom, score
      L1  H     4    39       P1  7948  2.00
      L1  H    10    33       P1  7948  1.00
      P1  H  7989  7998       L1    18  0.95
      L1  C    15    36       P1  7948  0.87
      L1  C    15    36       P1  7949  0.15

> <Gold.PLP.Chemscore.Internal.Correction>
0.0563

> <Gold.Rescore>
     Score         DG    S(hbond)    S(metal)    S(lipo)     H(rot)  DE(clash)    DE(int)     intcor
     11.89     -13.58       2.00        0.00      54.42       1.93       0.03       1.67       ----

> <Gold.Chemscore.Fitness>
11.8872

> <Gold.Chemscore.DG>
-13.5814

> <Gold.Chemscore.ZeroCoef>
-5.4800

> <Gold.Chemscore.Hbond>
2.0015

> <Gold.Chemscore.Metal>
0.0000

> <Gold.Chemscore.Lipo>
54.4229

> <Gold.Chemscore.Internal_Hbond>
0.0000

> <Gold.Chemscore.DEClash>
0.0270

> <Gold.Chemscore.DEInternal>
1.6672

> <Gold.Chemscore.Rot>
1.9340

> <Gold.Chemscore.Internal.Correction>
   9.000000E+99

> <Gold.Chemscore.Hbonds>
donor molecule, donor type, donor heavy atom, donor atom, acceptor molecule, acceptor atom, score
      L1  H     4    39       P1  7948  0.99
      L1  H    10    33       P1  7948  0.96
      P1  H  7989  7998       L1    18  0.07

> <Gold.Chemscore.Hbond.Weighted>
-6.6850

> <Gold.Chemscore.Metal.Weighted>
-0.0000

> <Gold.Chemscore.Lipo.Weighted>
-6.3675

> <Gold.Chemscore.Internal_Hbond.Weighted>
0.0000

> <Gold.Chemscore.DEClash.Weighted>
0.0270

> <Gold.Chemscore.DEInternal.Weighted>
1.6672

> <Gold.Chemscore.Rot.Weighted>
4.9510

> <Gold.Chemscore.Internal.Correction.Weighted>
   9.000000E+99

> <Gold.Protein.RotatedTorsions>
[ 6907 6896 6895 6894 ] final  -75.45 input  -60.11 | X-H torsion
[ 7974 7965 7964 7962 ] final   91.34 input  175.53 | X-H torsion
[ 8008 7997 7996 7995 ] final  144.42 input   59.86 | X-H torsion
[ 10167 10162 10161 10158 ] final  -21.31 input  -65.29 | X-H torsion
[ 10718 10713 10712 10709 ] final   41.14 input   66.30 | X-H torsion
[ 10763 10752 10751 10750 ] final   30.27 input  -60.55 | X-H torsion
[ 11005 11000 10999 10996 ] final  115.49 input  -57.11 | X-H torsion

> <Gold.Protein.ActiveResidues>
 VAL166  LYS551  ARG553  GLY616  TRP617  ASP618  TYR619  PRO620  LYS621  CYS622 
 ASP623  PHE694  ASN695  SER759  ASP760  ASP761  ALA762  ILE779  LEU786  VAL792 
 PHE793  MET794  SER795  GLU796  ALA797  LYS798  CYS799  TRP800  GLU811  SER814 

> <Gold.Protein.RotatedAtoms>
  150.7058  134.4719  159.5429 H   0  0  0  0  0  0  0  0  0  0  0  0  # atno 6907 bound_to 6896
  152.2373  134.8260  160.0474 H   0  0  0  0  0  0  0  0  0  0  0  0  # atno 6908 bound_to 6896
  151.9054  133.3513  159.3882 H   0  0  0  0  0  0  0  0  0  0  0  0  # atno 6909 bound_to 6896
  145.5070  139.2276  143.2745 H   0  0  0  0  0  0  0  0  0  0  0  0  # atno 7974 bound_to 7965
  156.2908  140.2236  156.5051 H   0  0  0  0  0  0  0  0  0  0  0  0  # atno 8008 bound_to 7997
  154.7657  140.0470  157.1031 H   0  0  0  0  0  0  0  0  0  0  0  0  # atno 8009 bound_to 7997
  154.9936  140.3093  155.4899 H   0  0  0  0  0  0  0  0  0  0  0  0  # atno 8010 bound_to 7997
  140.7281  143.4639  151.0340 H   0  0  0  0  0  0  0  0  0  0  0  0  # atno 10167 bound_to 10162
  157.3902  130.7802  149.7263 H   0  0  0  0  0  0  0  0  0  0  0  0  # atno 10718 bound_to 10713
  153.0381  135.6468  154.1019 H   0  0  0  0  0  0  0  0  0  0  0  0  # atno 10763 bound_to 10752
  154.0731  135.2879  155.3306 H   0  0  0  0  0  0  0  0  0  0  0  0  # atno 10764 bound_to 10752
  154.6581  135.5401  153.8048 H   0  0  0  0  0  0  0  0  0  0  0  0  # atno 10765 bound_to 10752
  139.9011  134.9584  156.7053 H   0  0  0  0  0  0  0  0  0  0  0  0  # atno 11005 bound_to 11000
  146.2190  140.5874  142.9025 LP  0  0  0  0  0  0  0  0  0  0  0  0  # atno 17320 bound_to 7965
  144.7748  140.5716  143.6645 LP  0  0  0  0  0  0  0  0  0  0  0  0  # atno 17321 bound_to 7965
  139.8326  143.7670  152.3180 LP  0  0  0  0  0  0  0  0  0  0  0  0  # atno 17342 bound_to 10162
  139.7791  144.7450  151.0113 LP  0  0  0  0  0  0  0  0  0  0  0  0  # atno 17343 bound_to 10162
  155.9796  130.4038  150.3576 LP  0  0  0  0  0  0  0  0  0  0  0  0  # atno 17370 bound_to 10713
  157.1691  131.0364  151.2804 LP  0  0  0  0  0  0  0  0  0  0  0  0  # atno 17371 bound_to 10713
  140.7118  133.9216  155.8089 LP  0  0  0  0  0  0  0  0  0  0  0  0  # atno 17394 bound_to 11000
  141.0294  134.0777  157.4031 LP  0  0  0  0  0  0  0  0  0  0  0  0  # atno 17395 bound_to 11000

$$$$
