#       Name:                AV-unprocessed.smi:3056
#       Creating user name   scv26
#       Creation time:       Fri Mar 27 17:04:50 2020


#       File generated by GOLD software.
#

@<TRIPOS>MOLECULE
AV-unprocessed.smi:3056
    53    54     1
SMALL
NO_CHARGES


@<TRIPOS>ATOM
      1 ****        -3.2759   0.9034   3.3186 C.3            1 S1                 0.0000
      2 ****        -3.2674   0.8053   1.8203 C.2            1 S1                 0.0000
      3 ****        -3.8313  -0.2178   1.0070 C.2            1 S1                 0.0000
      4 ****        -3.6395  -0.0108  -0.2855 N.2            1 S1                 0.0000
      5 ****        -2.9628   1.1569  -0.3478 N.pl3          1 S1                 0.0000
      6 ****        -2.5460   1.6787  -1.6442 C.3            1 S1                 0.0000
      7 ****        -2.8959   3.1764  -1.7390 C.3            1 S1                 0.0000
      8 ****        -1.0477   1.3735  -1.9215 C.3            1 S1                 0.0000
      9 ****        -0.5844   1.9025  -3.2897 C.3            1 S1                 0.0000
     10 ****        -0.7878  -0.0874  -1.8770 N.4            1 S1                 1.0000
     11 ****        -0.1547  -0.5997  -0.6385 C.3            1 S1                 0.0000
     12 ****         1.3681  -0.3891  -0.5914 C.2            1 S1                 0.0000
     13 ****         1.9222   0.1671  -1.5411 O.2            1 S1                 0.0000
     14 ****         2.0559  -0.8304   0.4886 N.am           1 S1                 0.0000
     15 ****         1.4964  -1.5616   1.6295 C.3            1 S1                 0.0000
     16 ****         2.0795  -2.9854   1.6166 C.3            1 S1                 0.0000
     17 ****         3.5032  -2.9210   1.6677 O.3            1 S1                 0.0000
     18 ****         4.0800  -2.1848   0.5894 C.3            1 S1                 0.0000
     19 ****         5.6037  -2.2108   0.7504 C.3            1 S1                 0.0000
     20 ****         3.5149  -0.7497   0.5996 C.3            1 S1                 0.0000
     21 ****        -2.7165   1.6649   0.9128 C.2            1 S1                 0.0000
     22 ****        -3.9665   0.1894   3.7680 H              1 S1                 0.0000
     23 ****        -3.5769   1.8955   3.6556 H              1 S1                 0.0000
     24 ****        -2.2902   0.7052   3.7397 H              1 S1                 0.0000
     25 ****        -4.3658  -1.1040   1.3167 H              1 S1                 0.0000
     26 ****        -3.1403   1.1692  -2.4053 H              1 S1                 0.0000
     27 ****        -2.7836   3.5527  -2.7554 H              1 S1                 0.0000
     28 ****        -2.2626   3.7801  -1.0885 H              1 S1                 0.0000
     29 ****        -3.9330   3.3539  -1.4514 H              1 S1                 0.0000
     30 ****        -0.4392   1.8673  -1.1619 H              1 S1                 0.0000
     31 ****        -0.6306   2.9901  -3.3401 H              1 S1                 0.0000
     32 ****        -1.1950   1.5016  -4.0996 H              1 S1                 0.0000
     33 ****         0.4511   1.6234  -3.4870 H              1 S1                 0.0000
     34 ****        -1.6717  -0.5594  -2.0054 H              1 S1                 0.0000
     35 ****        -0.6230  -0.1509   0.2364 H              1 S1                 0.0000
     36 ****        -0.3510  -1.6714  -0.5969 H              1 S1                 0.0000
     37 ****         1.7746  -1.0529   2.5538 H              1 S1                 0.0000
     38 ****         0.4089  -1.6112   1.6357 H              1 S1                 0.0000
     39 ****         1.7206  -3.5489   2.4779 H              1 S1                 0.0000
     40 ****         1.7621  -3.5272   0.7242 H              1 S1                 0.0000
     41 ****         3.8211  -2.6736  -0.3515 H              1 S1                 0.0000
     42 ****         6.0929  -1.6639  -0.0560 H              1 S1                 0.0000
     43 ****         5.9797  -3.2340   0.7331 H              1 S1                 0.0000
     44 ****         5.9088  -1.7596   1.6950 H              1 S1                 0.0000
     45 ****         3.9684  -0.1655  -0.2022 H              1 S1                 0.0000
     46 ****         3.7801  -0.2424   1.5286 H              1 S1                 0.0000
     47 ****        -2.1702   2.5848   1.0612 H              1 S1                 0.0000
     48 ****        -0.1812  -0.3281  -2.6479 H              1 S1                 0.0000
     49 ****        -3.9307  -0.5899  -1.0471 LP             1 S1                 0.0000
     50 ****         1.3826   0.4732  -2.3254 LP             1 S1                 0.0000
     51 ****         2.9115   0.3124  -1.5276 LP             1 S1                 0.0000
     52 ****         3.8631  -3.8536   1.6422 LP             1 S1                 0.0000
     53 ****         3.7694  -2.4843   2.5270 LP             1 S1                 0.0000
@<TRIPOS>BOND
    1    1    2 1     
    2    1   22 1     
    3    1   23 1     
    4    1   24 1     
    5    2   21 2     
    6    2    3 1     
    7    3    4 2     
    8    3   25 1     
    9    4    5 1     
   10    5    6 1     
   11    5   21 1     
   12    6    7 1     
   13    6    8 1     
   14    6   26 1     
   15    7   27 1     
   16    7   28 1     
   17    7   29 1     
   18    8    9 1     
   19    8   10 1     
   20    8   30 1     
   21    9   31 1     
   22    9   32 1     
   23    9   33 1     
   24   10   11 1     
   25   10   34 1     
   26   10   48 1     
   27   11   12 1     
   28   11   35 1     
   29   11   36 1     
   30   12   13 2     
   31   12   14 am    
   32   14   20 1     
   33   14   15 1     
   34   15   16 1     
   35   15   37 1     
   36   15   38 1     
   37   16   17 1     
   38   16   39 1     
   39   16   40 1     
   40   17   18 1     
   41   18   19 1     
   42   18   20 1     
   43   18   41 1     
   44   19   42 1     
   45   19   43 1     
   46   19   44 1     
   47   20   45 1     
   48   20   46 1     
   49   21   47 1     
   50    4   49 1     
   51   13   50 1     
   52   13   51 1     
   53   17   52 1     
   54   17   53 1     
@<TRIPOS>SUBSTRUCTURE
      1 S1             1
@<TRIPOS>SET
LONE_PAIRS      STATIC     ATOMS    <user>   **** ""
5 49 50 51 52 53
DONOR_HYDROGENS      STATIC     ATOMS    <user>   **** ""
2 34 48
ATOM$BLUE        STATIC     ATOMS    COLORGROUP SYSTEM
5 49 50 51 52 53
ATOM$RED        STATIC     ATOMS    COLORGROUP SYSTEM
2 34 48
