AV-unprocessed.smi:418|AV-procd|sdf|2529|dock10
  -GOLD-   2262022483D 1   1.00000     0.00000
 Structure written by MMmdl.
 40 42  0  0  0  0  0  0  0  0  1 V2000
  153.9906  140.5710  160.3936 C   0  0  0  0  0  0  0  0  0  0  0  0
  152.8911  140.9631  159.5203 N   0  0  0  0  0  0  0  0  0  0  0  0
  152.0996  140.1437  158.7890 C   0  0  0  0  0  0  0  0  0  0  0  0
  152.1799  138.9166  158.7358 O   0  0  0  0  0  0  0  0  0  0  0  0
  151.2061  140.9113  158.1212 N   0  0  0  0  0  0  0  0  0  0  0  0
  150.1762  140.4414  157.1972 C   0  0  0  0  0  0  0  0  0  0  0  0
  150.3864  141.0029  155.7765 C   0  0  1  0  0  0  0  0  0  0  0  0
  151.3728  140.2595  155.0905 O   0  0  0  0  0  0  0  0  0  0  0  0
  149.1060  140.9830  154.9252 C   0  0  0  0  0  0  0  0  0  0  0  0
  147.9678  141.1410  155.7638 O   0  0  0  0  0  0  0  0  0  0  0  0
  146.9394  141.9500  155.3298 C   0  0  0  0  0  0  0  0  0  0  0  0
  146.8216  142.4468  154.0065 C   0  0  0  0  0  0  0  0  0  0  0  0
  145.7371  143.2710  153.6481 C   0  0  0  0  0  0  0  0  0  0  0  0
  144.7595  143.6080  154.6022 C   0  0  0  0  0  0  0  0  0  0  0  0
  144.8674  143.1188  155.9170 C   0  0  0  0  0  0  0  0  0  0  0  0
  145.9514  142.2950  156.2769 C   0  0  0  0  0  0  0  0  0  0  0  0
  146.0437  141.8313  157.5463 F   0  0  0  0  0  0  0  0  0  0  0  0
  151.4426  142.2602  158.4232 C   0  0  0  0  0  0  0  0  0  0  0  0
  150.8062  143.4336  157.9821 C   0  0  0  0  0  0  0  0  0  0  0  0
  151.2989  144.6622  158.4815 C   0  0  0  0  0  0  0  0  0  0  0  0
  152.3910  144.6938  159.3876 C   0  0  0  0  0  0  0  0  0  0  0  0
  153.0141  143.4973  159.8139 C   0  0  0  0  0  0  0  0  0  0  0  0
  152.5035  142.2914  159.3034 C   0  0  0  0  0  0  0  0  0  0  0  0
  154.0416  139.4897  160.5274 H   0  0  0  0  0  0  0  0  0  0  0  0
  153.8716  141.0239  161.3782 H   0  0  0  0  0  0  0  0  0  0  0  0
  154.9401  140.9056  159.9750 H   0  0  0  0  0  0  0  0  0  0  0  0
  150.1306  139.3508  157.1844 H   0  0  0  0  0  0  0  0  0  0  0  0
  149.2110  140.7717  157.5831 H   0  0  0  0  0  0  0  0  0  0  0  0
  150.7356  142.0347  155.8317 H   0  0  0  0  0  0  0  0  0  0  0  0
  151.2577  139.3451  155.3011 H   0  0  0  0  0  0  0  0  0  0  0  0
  149.1450  141.8130  154.2182 H   0  0  0  0  0  0  0  0  0  0  0  0
  149.0460  140.0584  154.3480 H   0  0  0  0  0  0  0  0  0  0  0  0
  147.5507  142.2103  153.2467 H   0  0  0  0  0  0  0  0  0  0  0  0
  145.6557  143.6453  152.6383 H   0  0  0  0  0  0  0  0  0  0  0  0
  143.9284  144.2403  154.3263 H   0  0  0  0  0  0  0  0  0  0  0  0
  144.1183  143.3755  156.6515 H   0  0  0  0  0  0  0  0  0  0  0  0
  149.9774  143.4030  157.2902 H   0  0  0  0  0  0  0  0  0  0  0  0
  150.8390  145.5880  158.1686 H   0  0  0  0  0  0  0  0  0  0  0  0
  152.7518  145.6432  159.7552 H   0  0  0  0  0  0  0  0  0  0  0  0
  153.8468  143.5129  160.5015 H   0  0  0  0  0  0  0  0  0  0  0  0
  1  2  1  0  0  0  0
  1 24  1  0  0  0  0
  1 25  1  0  0  0  0
  1 26  1  0  0  0  0
  2 23  1  0  0  0  0
  2  3  1  0  0  0  0
  3  4  2  0  0  0  0
  3  5  1  0  0  0  0
  5  6  1  0  0  0  0
  5 18  1  0  0  0  0
  6  7  1  0  0  0  0
  6 27  1  0  0  0  0
  6 28  1  0  0  0  0
  7  8  1  0  0  0  0
  7  9  1  0  0  0  0
  7 29  1  0  0  0  0
  8 30  1  0  0  0  0
  9 10  1  0  0  0  0
  9 31  1  0  0  0  0
  9 32  1  0  0  0  0
 10 11  1  0  0  0  0
 11 16  1  0  0  0  0
 11 12  2  0  0  0  0
 12 13  1  0  0  0  0
 12 33  1  0  0  0  0
 13 14  2  0  0  0  0
 13 34  1  0  0  0  0
 14 15  1  0  0  0  0
 14 35  1  0  0  0  0
 15 16  2  0  0  0  0
 15 36  1  0  0  0  0
 16 17  1  0  0  0  0
 18 23  2  0  0  0  0
 18 19  1  0  0  0  0
 19 20  2  0  0  0  0
 19 37  1  0  0  0  0
 20 21  1  0  0  0  0
 20 38  1  0  0  0  0
 21 22  2  0  0  0  0
 21 39  1  0  0  0  0
 22 23  1  0  0  0  0
 22 40  1  0  0  0  0
M  END
> <s_m_source_file>
AV-unprocessed.smi

> <i_m_source_file_index>
418

> <i_lp_mmshare_version>
43012

> <i_f3d_flags>
0

> <s_epik_input>
W2NIXTFbY0hdW2NIXVtjSF1jKGMxMiluKFtDSDNdKWMoPU8pbjJbQ0gyXVtDQEhdKFtPSF0pW0NIMl1PYzNbY0hdW2NIXVtjSF1bY0hdYzNG

> <s_epik_cmdline>
J2VwaWtfcHl0aG9uJywgJy1waCcsICc3LjAnLCAnLXRuJywgJzgnLCAnLW1hJywgJzIwMCcsICctbWV0YWxfYmluZGluZycsICctaW1hZScsICc8aW5maWxlLm1hZT4nLCAnLW9tYWUnLCAnPG91dGZpbGUubWFlPic=

> <r_lp_tautomer_probability>
1

> <r_epik_Ionization_Penalty>
2.40171e-06

> <r_epik_Ionization_Penalty_Charging>
2.41238e-09

> <r_epik_Ionization_Penalty_Neutral>
2.3993e-06

> <r_epik_State_Penalty>
-0

> <r_epik_Charging_Adjusted_Penalty>
2.41238e-09

> <i_epik_Tot_Q>
0

> <i_epik_Tot_abs_Q>
0

> <r_epik_Metal_State_Penalty>
-0

> <b_epik_Metal_Only>
0

> <s_lp_Force_Field>
OPLS_2005

> <r_lp_Energy>
48.5553

> <b_lp_Chiralities_Consistent>
1

> <s_lp_Variant>
AV-unprocessed.smi:418-2

> <Gold.Version>
5.8.1

> <Gold.Id.Protein>
6NUR|6NUR_protein|mol2

> <Gold.PLP.Fitness>
52.7753

> <Gold.PLP.PLP>
-51.6457

> <Gold.PLP.part.hbond>
-1.0000

> <Gold.PLP.part.metal>
0.0000

> <Gold.PLP.part.buried>
-7.6133

> <Gold.PLP.part.nonpolar>
-42.4875

> <Gold.PLP.part.repulsive>
0.0759

> <Gold.PLP.ligand.clash>
0.0000

> <Gold.PLP.ligand.torsion>
0.9562

> <Gold.PLP.Chemscore.Hbond>
1.0000

> <Gold.PLP.Chemscore.CHOScore>
0.0000

> <Gold.PLP.Chemscore.Metal>
0.0000

> <Gold.Chemscore.Hbonds>
donor molecule, donor type, donor heavy atom, donor atom, acceptor molecule, acceptor atom, score
      P1  H  7989  7998       L1     8  1.00

> <Gold.PLP.Chemscore.Internal.Correction>
0.0421

> <Gold.Rescore>
     Score         DG    S(hbond)    S(metal)    S(lipo)     H(rot)  DE(clash)    DE(int)     intcor
     17.10     -17.83       0.94        0.00     128.31       2.27       0.08       0.64       ----

> <Gold.Chemscore.Fitness>
17.1013

> <Gold.Chemscore.DG>
-17.8257

> <Gold.Chemscore.ZeroCoef>
-5.4800

> <Gold.Chemscore.Hbond>
0.9418

> <Gold.Chemscore.Metal>
0.0000

> <Gold.Chemscore.Lipo>
128.3144

> <Gold.Chemscore.Internal_Hbond>
0.0000

> <Gold.Chemscore.DEClash>
0.0825

> <Gold.Chemscore.DEInternal>
0.6419

> <Gold.Chemscore.Rot>
2.2706

> <Gold.Chemscore.Internal.Correction>
   9.000000E+99

> <Gold.Chemscore.Hbonds>
donor molecule, donor type, donor heavy atom, donor atom, acceptor molecule, acceptor atom, score
      P1  H  7989  7998       L1     8  0.79

> <Gold.Chemscore.Hbond.Weighted>
-3.1457

> <Gold.Chemscore.Metal.Weighted>
-0.0000

> <Gold.Chemscore.Lipo.Weighted>
-15.0128

> <Gold.Chemscore.Internal_Hbond.Weighted>
0.0000

> <Gold.Chemscore.DEClash.Weighted>
0.0825

> <Gold.Chemscore.DEInternal.Weighted>
0.6419

> <Gold.Chemscore.Rot.Weighted>
5.8128

> <Gold.Chemscore.Internal.Correction.Weighted>
   9.000000E+99

> <Gold.Protein.RotatedTorsions>
[ 6907 6896 6895 6894 ] final -174.53 input  -60.11 | X-H torsion
[ 7974 7965 7964 7962 ] final  -74.06 input  175.53 | X-H torsion
[ 8008 7997 7996 7995 ] final -178.06 input   59.86 | X-H torsion
[ 10167 10162 10161 10158 ] final   15.24 input  -65.29 | X-H torsion
[ 10718 10713 10712 10709 ] final   59.71 input   66.30 | X-H torsion
[ 10763 10752 10751 10750 ] final  -65.95 input  -60.55 | X-H torsion
[ 11005 11000 10999 10996 ] final -150.15 input  -57.11 | X-H torsion

> <Gold.Protein.ActiveResidues>
 VAL166  LYS551  ARG553  GLY616  TRP617  ASP618  TYR619  PRO620  LYS621  CYS622 
 ASP623  PHE694  ASN695  SER759  ASP760  ASP761  ALA762  ILE779  LEU786  VAL792 
 PHE793  MET794  SER795  GLU796  ALA797  LYS798  CYS799  TRP800  GLU811  SER814 

> <Gold.Protein.RotatedAtoms>
  151.5739  133.3386  159.2994 H   0  0  0  0  0  0  0  0  0  0  0  0  # atno 6907 bound_to 6896
  150.8352  134.7625  159.6898 H   0  0  0  0  0  0  0  0  0  0  0  0  # atno 6908 bound_to 6896
  152.4429  134.5560  159.9932 H   0  0  0  0  0  0  0  0  0  0  0  0  # atno 6909 bound_to 6896
  145.6441  140.9302  143.1020 H   0  0  0  0  0  0  0  0  0  0  0  0  # atno 7974 bound_to 7965
  156.0143  140.1247  157.0422 H   0  0  0  0  0  0  0  0  0  0  0  0  # atno 8008 bound_to 7997
  154.4287  140.1081  156.5943 H   0  0  0  0  0  0  0  0  0  0  0  0  # atno 8009 bound_to 7997
  155.6035  140.3471  155.4603 H   0  0  0  0  0  0  0  0  0  0  0  0  # atno 8010 bound_to 7997
  140.5881  143.8850  150.6848 H   0  0  0  0  0  0  0  0  0  0  0  0  # atno 10167 bound_to 10162
  157.5697  130.8898  149.9245 H   0  0  0  0  0  0  0  0  0  0  0  0  # atno 10718 bound_to 10713
  154.3526  135.6133  153.5650 H   0  0  0  0  0  0  0  0  0  0  0  0  # atno 10763 bound_to 10752
  152.9797  135.5796  154.4726 H   0  0  0  0  0  0  0  0  0  0  0  0  # atno 10764 bound_to 10752
  154.4449  135.2851  155.1799 H   0  0  0  0  0  0  0  0  0  0  0  0  # atno 10765 bound_to 10752
  140.7432  134.3490  157.5143 H   0  0  0  0  0  0  0  0  0  0  0  0  # atno 11005 bound_to 11000
  144.7146  139.8242  143.7403 LP  0  0  0  0  0  0  0  0  0  0  0  0  # atno 17320 bound_to 7965
  146.1257  139.4283  143.0200 LP  0  0  0  0  0  0  0  0  0  0  0  0  # atno 17321 bound_to 7965
  140.2366  143.3695  152.1522 LP  0  0  0  0  0  0  0  0  0  0  0  0  # atno 17342 bound_to 10162
  139.5210  144.7040  151.5408 LP  0  0  0  0  0  0  0  0  0  0  0  0  # atno 17343 bound_to 10162
  156.0743  130.3681  150.0711 LP  0  0  0  0  0  0  0  0  0  0  0  0  # atno 17370 bound_to 10713
  156.8865  130.9574  151.3593 LP  0  0  0  0  0  0  0  0  0  0  0  0  # atno 17371 bound_to 10713
  139.8802  134.9094  156.2990 LP  0  0  0  0  0  0  0  0  0  0  0  0  # atno 17394 bound_to 11000
  140.9818  133.7263  156.0683 LP  0  0  0  0  0  0  0  0  0  0  0  0  # atno 17395 bound_to 11000

$$$$
