AV-unprocessed.smi:1240|AV-procd|sdf|5203|dock2
  -GOLD-   22720 4293D 1   1.00000     0.00000
 Structure written by MMmdl.
 48 50  0  0  0  0  0  0  0  0  2 V2000
  146.4236  132.0295  153.9043 O   0  0  0  0  0  0  0  0  0  0  0  0
  147.1624  131.7379  152.9643 C   0  0  0  0  0  0  0  0  0  0  0  0
  148.4072  131.2651  153.1226 N   0  0  0  0  0  0  0  0  0  0  0  0
  149.0643  131.0400  154.4066 C   0  0  0  0  0  0  0  0  0  0  0  0
  150.3709  131.8765  154.6301 C   0  0  2  0  0  0  0  0  0  0  0  0
  151.3941  131.0280  155.4727 C   0  0  2  0  0  0  0  0  0  0  0  0
  151.7772  129.6498  154.9550 C   0  0  0  0  0  0  0  0  0  0  0  0
  152.4702  129.0244  156.1565 C   0  0  0  0  0  0  0  0  0  0  0  0
  151.7334  129.4914  157.2750 O   0  0  0  0  0  0  0  0  0  0  0  0
  150.9718  130.6350  156.9001 C   0  0  0  0  0  0  0  0  0  0  0  0
  150.1323  133.2118  155.2536 N   0  0  0  0  0  0  0  0  0  0  0  0
  151.3337  133.9830  155.5981 C   0  0  0  0  0  0  0  0  0  0  0  0
  151.0035  135.3582  156.2062 C   0  0  0  0  0  0  0  0  0  0  0  0
  150.1917  135.1945  157.3608 O   0  0  0  0  0  0  0  0  0  0  0  0
  148.9890  134.4936  157.0756 C   0  0  0  0  0  0  0  0  0  0  0  0
  149.3281  133.1168  156.4805 C   0  0  0  0  0  0  0  0  0  0  0  0
  146.8546  131.8684  151.6621 N   0  0  0  0  0  0  0  0  0  0  0  0
  145.6538  132.3544  151.0762 C   0  0  0  0  0  0  0  0  0  0  0  0
  144.7759  133.0885  151.9047 C   0  0  0  0  0  0  0  0  0  0  0  0
  143.5787  133.6038  151.3675 C   0  0  0  0  0  0  0  0  0  0  0  0
  143.2838  133.4008  150.0658 N   0  3  0  0  0  0  0  0  0  0  0  0
  144.0966  132.7179  149.2313 C   0  0  0  0  0  0  0  0  0  0  0  0
  145.3078  132.1791  149.7116 C   0  0  0  0  0  0  0  0  0  0  0  0
  148.9474  131.0552  152.2959 H   0  0  0  0  0  0  0  0  0  0  0  0
  148.2982  131.2688  155.1467 H   0  0  0  0  0  0  0  0  0  0  0  0
  149.2771  129.9751  154.5052 H   0  0  0  0  0  0  0  0  0  0  0  0
  150.8018  132.0454  153.6421 H   0  0  0  0  0  0  0  0  0  0  0  0
  152.3172  131.6056  155.5488 H   0  0  0  0  0  0  0  0  0  0  0  0
  150.8868  129.0672  154.7144 H   0  0  0  0  0  0  0  0  0  0  0  0
  152.4327  129.6806  154.0841 H   0  0  0  0  0  0  0  0  0  0  0  0
  152.4893  127.9352  156.1127 H   0  0  0  0  0  0  0  0  0  0  0  0
  153.4975  129.3828  156.2346 H   0  0  0  0  0  0  0  0  0  0  0  0
  151.1410  131.4345  157.6212 H   0  0  0  0  0  0  0  0  0  0  0  0
  149.9167  130.3601  156.9319 H   0  0  0  0  0  0  0  0  0  0  0  0
  151.9544  133.4177  156.2950 H   0  0  0  0  0  0  0  0  0  0  0  0
  151.9313  134.1718  154.7067 H   0  0  0  0  0  0  0  0  0  0  0  0
  151.9194  135.8780  156.4872 H   0  0  0  0  0  0  0  0  0  0  0  0
  150.4890  135.9878  155.4785 H   0  0  0  0  0  0  0  0  0  0  0  0
  148.4199  134.3778  157.9979 H   0  0  0  0  0  0  0  0  0  0  0  0
  148.3711  135.0721  156.3871 H   0  0  0  0  0  0  0  0  0  0  0  0
  148.3951  132.5912  156.3212 H   0  0  0  0  0  0  0  0  0  0  0  0
  149.8713  132.5340  157.2261 H   0  0  0  0  0  0  0  0  0  0  0  0
  147.5960  131.6531  151.0114 H   0  0  0  0  0  0  0  0  0  0  0  0
  145.0124  133.2535  152.9461 H   0  0  0  0  0  0  0  0  0  0  0  0
  142.8548  134.1697  151.9356 H   0  0  0  0  0  0  0  0  0  0  0  0
  143.7594  132.6287  148.2088 H   0  0  0  0  0  0  0  0  0  0  0  0
  145.9494  131.6544  149.0208 H   0  0  0  0  0  0  0  0  0  0  0  0
  142.4129  133.7831  149.6957 H   0  0  0  0  0  0  0  0  0  0  0  0
  1  2  2  0  0  0  0
  2  3  1  0  0  0  0
  2 17  1  0  0  0  0
  3  4  1  0  0  0  0
  3 24  1  0  0  0  0
  4  5  1  0  0  0  0
  4 25  1  0  0  0  0
  4 26  1  0  0  0  0
  5  6  1  0  0  0  0
  5 11  1  0  0  0  0
  5 27  1  0  0  0  0
  6 10  1  0  0  0  0
  6  7  1  0  0  0  0
  6 28  1  0  0  0  0
  7  8  1  0  0  0  0
  7 29  1  0  0  0  0
  7 30  1  0  0  0  0
  8  9  1  0  0  0  0
  8 31  1  0  0  0  0
  8 32  1  0  0  0  0
  9 10  1  0  0  0  0
 10 33  1  0  0  0  0
 10 34  1  0  0  0  0
 11 16  1  0  0  0  0
 11 12  1  0  0  0  0
 12 13  1  0  0  0  0
 12 35  1  0  0  0  0
 12 36  1  0  0  0  0
 13 14  1  0  0  0  0
 13 37  1  0  0  0  0
 13 38  1  0  0  0  0
 14 15  1  0  0  0  0
 15 16  1  0  0  0  0
 15 39  1  0  0  0  0
 15 40  1  0  0  0  0
 16 41  1  0  0  0  0
 16 42  1  0  0  0  0
 17 18  1  0  0  0  0
 17 43  1  0  0  0  0
 18 23  1  0  0  0  0
 18 19  2  0  0  0  0
 19 20  1  0  0  0  0
 19 44  1  0  0  0  0
 20 21  2  0  0  0  0
 20 45  1  0  0  0  0
 21 22  1  0  0  0  0
 21 48  1  0  0  0  0
 22 23  2  0  0  0  0
 22 46  1  0  0  0  0
 23 47  1  0  0  0  0
M  CHG  1  21   1
M  END
> <s_m_source_file>
AV-unprocessed.smi

> <i_m_source_file_index>
1240

> <i_lp_mmshare_version>
43012

> <i_f3d_flags>
0

> <s_epik_input>
W2NIXTFbY0hdbltjSF1bY0hdYzFbTkhdQyg9TylbTkhdW0NIMl1bQ0BIXShbQ0BASF0yW0NIMl1bQ0gyXU9bQ0gyXTIpTjNbQ0gyXVtDSDJdT1tDSDJdW0NIMl0z

> <s_epik_cmdline>
J2VwaWtfcHl0aG9uJywgJy1waCcsICc3LjAnLCAnLXRuJywgJzgnLCAnLW1hJywgJzIwMCcsICctbWV0YWxfYmluZGluZycsICctaW1hZScsICc8aW5maWxlLm1hZT4nLCAnLW9tYWUnLCAnPG91dGZpbGUubWFlPic=

> <r_epik_Ionization_Penalty>
1.15944

> <r_epik_Ionization_Penalty_Charging>
1.0344

> <r_epik_Ionization_Penalty_Neutral>
0.125034

> <r_epik_State_Penalty>
1.2199

> <r_epik_Charging_Adjusted_Penalty>
2.25431

> <i_epik_Tot_Q>
1

> <i_epik_Tot_abs_Q>
1

> <r_epik_Metal_State_Penalty>
1.3155

> <b_epik_Metal_Only>
0

> <s_lp_Force_Field>
OPLS_2005

> <r_lp_Energy>
66.7815

> <b_lp_Chiralities_Consistent>
1

> <s_lp_Variant>
AV-unprocessed.smi:1240-9

> <Gold.Version>
5.8.1

> <Gold.Id.Protein>
6NUR|6NUR_protein|mol2

> <Gold.PLP.Fitness>
47.9967

> <Gold.PLP.PLP>
-34.0109

> <Gold.PLP.part.hbond>
-4.0000

> <Gold.PLP.part.metal>
0.0000

> <Gold.PLP.part.buried>
-6.4786

> <Gold.PLP.part.nonpolar>
-23.5502

> <Gold.PLP.part.repulsive>
0.2133

> <Gold.PLP.ligand.clash>
0.0000

> <Gold.PLP.ligand.torsion>
0.5624

> <Gold.PLP.Chemscore.Hbond>
4.9200

> <Gold.PLP.Chemscore.CHOScore>
0.0000

> <Gold.PLP.Chemscore.Metal>
0.0000

> <Gold.Chemscore.Hbonds>
donor molecule, donor type, donor heavy atom, donor atom, acceptor molecule, acceptor atom, score
      L1  H     3    24       P1 10747  0.98
      L1  H    17    43       P1 10747  1.00
      L1  H    21    48       P1 10186  2.00
      P1  H  6896  6907       L1    14  0.20

> <Gold.PLP.Chemscore.Internal.Correction>
0.3507

> <Gold.Rescore>
     Score         DG    S(hbond)    S(metal)    S(lipo)     H(rot)  DE(clash)    DE(int)     intcor
     20.77     -23.02       3.39        0.00      90.05       1.69       0.16       2.09       ----

> <Gold.Chemscore.Fitness>
20.7716

> <Gold.Chemscore.DG>
-23.0250

> <Gold.Chemscore.ZeroCoef>
-5.4800

> <Gold.Chemscore.Hbond>
3.3949

> <Gold.Chemscore.Metal>
0.0000

> <Gold.Chemscore.Lipo>
90.0475

> <Gold.Chemscore.Internal_Hbond>
0.0000

> <Gold.Chemscore.DEClash>
0.1624

> <Gold.Chemscore.DEInternal>
2.0909

> <Gold.Chemscore.Rot>
1.6912

> <Gold.Chemscore.Internal.Correction>
   9.000000E+99

> <Gold.Chemscore.Hbonds>
donor molecule, donor type, donor heavy atom, donor atom, acceptor molecule, acceptor atom, score
      L1  H     3    24       P1 10747  0.50
      L1  H    17    43       P1 10747  1.00
      L1  H    21    48       P1 10186  0.95
      P1  H  6896  6907       L1    14  0.04

> <Gold.Chemscore.Hbond.Weighted>
-11.3388

> <Gold.Chemscore.Metal.Weighted>
-0.0000

> <Gold.Chemscore.Lipo.Weighted>
-10.5356

> <Gold.Chemscore.Internal_Hbond.Weighted>
0.0000

> <Gold.Chemscore.DEClash.Weighted>
0.1624

> <Gold.Chemscore.DEInternal.Weighted>
2.0909

> <Gold.Chemscore.Rot.Weighted>
4.3295

> <Gold.Chemscore.Internal.Correction.Weighted>
   9.000000E+99

> <Gold.Protein.RotatedTorsions>
[ 6907 6896 6895 6894 ] final  -98.06 input  -60.11 | X-H torsion
[ 7974 7965 7964 7962 ] final  -54.85 input  175.53 | X-H torsion
[ 8008 7997 7996 7995 ] final  -93.81 input   59.86 | X-H torsion
[ 10167 10162 10161 10158 ] final  153.79 input  -65.29 | X-H torsion
[ 10718 10713 10712 10709 ] final   78.78 input   66.30 | X-H torsion
[ 10763 10752 10751 10750 ] final  -91.17 input  -60.55 | X-H torsion
[ 11005 11000 10999 10996 ] final  -38.51 input  -57.11 | X-H torsion

> <Gold.Protein.ActiveResidues>
 VAL166  LYS551  ARG553  GLY616  TRP617  ASP618  TYR619  PRO620  LYS621  CYS622 
 ASP623  PHE694  ASN695  SER759  ASP760  ASP761  ALA762  ILE779  LEU786  VAL792 
 PHE793  MET794  SER795  GLU796  ALA797  LYS798  CYS799  TRP800  GLU811  SER814 

> <Gold.Protein.RotatedAtoms>
  150.7035  134.1252  159.4049 H   0  0  0  0  0  0  0  0  0  0  0  0  # atno 6907 bound_to 6896
  151.9238  135.0284  160.0533 H   0  0  0  0  0  0  0  0  0  0  0  0  # atno 6908 bound_to 6896
  152.2233  133.4965  159.5211 H   0  0  0  0  0  0  0  0  0  0  0  0  # atno 6909 bound_to 6896
  145.8809  140.8145  142.9840 H   0  0  0  0  0  0  0  0  0  0  0  0  # atno 7974 bound_to 7965
  154.7404  140.0495  157.0806 H   0  0  0  0  0  0  0  0  0  0  0  0  # atno 8008 bound_to 7997
  155.0185  140.3144  155.4783 H   0  0  0  0  0  0  0  0  0  0  0  0  # atno 8009 bound_to 7997
  156.2863  140.2171  156.5303 H   0  0  0  0  0  0  0  0  0  0  0  0  # atno 8010 bound_to 7997
  139.4825  144.5243  151.7827 H   0  0  0  0  0  0  0  0  0  0  0  0  # atno 10167 bound_to 10162
  157.6756  130.9884  150.1836 H   0  0  0  0  0  0  0  0  0  0  0  0  # atno 10718 bound_to 10713
  154.6733  135.5278  153.8166 H   0  0  0  0  0  0  0  0  0  0  0  0  # atno 10763 bound_to 10752
  153.0515  135.6534  154.0691 H   0  0  0  0  0  0  0  0  0  0  0  0  # atno 10764 bound_to 10752
  154.0587  135.2963  155.3308 H   0  0  0  0  0  0  0  0  0  0  0  0  # atno 10765 bound_to 10752
  141.0033  133.6944  156.2062 H   0  0  0  0  0  0  0  0  0  0  0  0  # atno 11005 bound_to 11000
  144.6727  140.1382  143.7439 LP  0  0  0  0  0  0  0  0  0  0  0  0  # atno 17320 bound_to 7965
  145.9025  139.2439  143.1485 LP  0  0  0  0  0  0  0  0  0  0  0  0  # atno 17321 bound_to 7965
  140.4760  144.1518  150.5925 LP  0  0  0  0  0  0  0  0  0  0  0  0  # atno 17342 bound_to 10162
  140.4330  143.2560  151.9571 LP  0  0  0  0  0  0  0  0  0  0  0  0  # atno 17343 bound_to 10162
  156.2563  130.3706  149.8178 LP  0  0  0  0  0  0  0  0  0  0  0  0  # atno 17370 bound_to 10713
  156.5937  130.8517  151.3414 LP  0  0  0  0  0  0  0  0  0  0  0  0  # atno 17371 bound_to 10713
  140.6854  134.4722  157.5589 LP  0  0  0  0  0  0  0  0  0  0  0  0  # atno 17394 bound_to 11000
  139.9050  134.8470  156.1743 LP  0  0  0  0  0  0  0  0  0  0  0  0  # atno 17395 bound_to 11000

$$$$
