AV-unprocessed.smi:2765|AV-procd|sdf|10644|dock6
  -GOLD-   2272015 93D 1   1.00000     0.00000
 Structure written by MMmdl.
 45 46  0  0  0  0  0  0  0  0  2 V2000
  148.2419  139.3092  155.5762 C   0  0  0  0  0  0  0  0  0  0  0  0
  148.6108  138.4390  154.3546 C   0  0  0  0  0  0  0  0  0  0  0  0
  147.5717  138.7540  153.2609 C   0  0  0  0  0  0  0  0  0  0  0  0
  150.0146  138.7782  153.7936 C   0  0  0  0  0  0  0  0  0  0  0  0
  151.1967  138.1666  154.5703 C   0  0  0  0  0  0  0  0  0  0  0  0
  151.4980  138.8568  155.8230 N   0  0  0  0  0  0  0  0  0  0  0  0
  151.3605  140.1736  156.0385 C   0  0  0  0  0  0  0  0  0  0  0  0
  150.9476  140.9596  155.1856 O   0  0  0  0  0  0  0  0  0  0  0  0
  151.7241  140.5031  157.2907 N   0  0  0  0  0  0  0  0  0  0  0  0
  151.7261  141.7896  157.8932 C   0  0  0  0  0  0  0  0  0  0  0  0
  152.4517  141.8829  159.1028 C   0  0  0  0  0  0  0  0  0  0  0  0
  152.5170  143.1173  159.7782 C   0  0  0  0  0  0  0  0  0  0  0  0
  151.8536  144.2266  159.2244 C   0  0  0  0  0  0  0  0  0  0  0  0
  151.8886  145.4337  159.8369 F   0  0  0  0  0  0  0  0  0  0  0  0
  151.1528  144.0496  158.0171 C   0  0  0  0  0  0  0  0  0  0  0  0
  151.0891  142.8668  157.3693 N   0  0  0  0  0  0  0  0  0  0  0  0
  150.9744  136.6601  154.7790 C   0  0  0  0  0  0  0  0  0  0  0  0
  149.5899  136.2706  155.3588 C   0  0  0  0  0  0  0  0  0  0  0  0
  149.3757  134.7656  155.1043 C   0  0  0  0  0  0  0  0  0  0  0  0
  149.5145  136.4741  156.8882 C   0  0  0  0  0  0  0  0  0  0  0  0
  148.4864  136.9849  154.6564 N   0  3  0  0  0  0  0  0  0  0  0  0
  148.1718  140.3604  155.2943 H   0  0  0  0  0  0  0  0  0  0  0  0
  148.9668  139.2646  156.3821 H   0  0  0  0  0  0  0  0  0  0  0  0
  147.2748  139.0210  155.9897 H   0  0  0  0  0  0  0  0  0  0  0  0
  147.6092  139.8035  152.9652 H   0  0  0  0  0  0  0  0  0  0  0  0
  146.5565  138.5470  153.6025 H   0  0  0  0  0  0  0  0  0  0  0  0
  147.7392  138.1574  152.3631 H   0  0  0  0  0  0  0  0  0  0  0  0
  150.0795  138.3955  152.7738 H   0  0  0  0  0  0  0  0  0  0  0  0
  150.1327  139.8583  153.6972 H   0  0  0  0  0  0  0  0  0  0  0  0
  152.0877  138.2694  153.9477 H   0  0  0  0  0  0  0  0  0  0  0  0
  151.8507  138.2899  156.5802 H   0  0  0  0  0  0  0  0  0  0  0  0
  152.0411  139.7484  157.8807 H   0  0  0  0  0  0  0  0  0  0  0  0
  152.9562  141.0200  159.5132 H   0  0  0  0  0  0  0  0  0  0  0  0
  153.0664  143.2096  160.7034 H   0  0  0  0  0  0  0  0  0  0  0  0
  150.6305  144.8768  157.5592 H   0  0  0  0  0  0  0  0  0  0  0  0
  151.0842  136.1874  153.8016 H   0  0  0  0  0  0  0  0  0  0  0  0
  151.7753  136.2413  155.3905 H   0  0  0  0  0  0  0  0  0  0  0  0
  150.1633  134.1670  155.5641 H   0  0  0  0  0  0  0  0  0  0  0  0
  149.3732  134.5351  154.0380 H   0  0  0  0  0  0  0  0  0  0  0  0
  148.4240  134.4217  155.5117 H   0  0  0  0  0  0  0  0  0  0  0  0
  150.2231  135.8227  157.4012 H   0  0  0  0  0  0  0  0  0  0  0  0
  148.5216  136.2339  157.2700 H   0  0  0  0  0  0  0  0  0  0  0  0
  149.7485  137.4837  157.2088 H   0  0  0  0  0  0  0  0  0  0  0  0
  147.6221  136.8256  155.1540 H   0  0  0  0  0  0  0  0  0  0  0  0
  148.4079  136.5332  153.7565 H   0  0  0  0  0  0  0  0  0  0  0  0
  1  2  1  0  0  0  0
  1 22  1  0  0  0  0
  1 23  1  0  0  0  0
  1 24  1  0  0  0  0
  2 21  1  0  0  0  0
  2  3  1  0  0  0  0
  2  4  1  0  0  0  0
  3 25  1  0  0  0  0
  3 26  1  0  0  0  0
  3 27  1  0  0  0  0
  4  5  1  0  0  0  0
  4 28  1  0  0  0  0
  4 29  1  0  0  0  0
  5  6  1  0  0  0  0
  5 17  1  0  0  0  0
  5 30  1  0  0  0  0
  6  7  1  0  0  0  0
  6 31  1  0  0  0  0
  7  8  2  0  0  0  0
  7  9  1  0  0  0  0
  9 10  1  0  0  0  0
  9 32  1  0  0  0  0
 10 16  1  0  0  0  0
 10 11  2  0  0  0  0
 11 12  1  0  0  0  0
 11 33  1  0  0  0  0
 12 13  2  0  0  0  0
 12 34  1  0  0  0  0
 13 14  1  0  0  0  0
 13 15  1  0  0  0  0
 15 16  2  0  0  0  0
 15 35  1  0  0  0  0
 17 18  1  0  0  0  0
 17 36  1  0  0  0  0
 17 37  1  0  0  0  0
 18 19  1  0  0  0  0
 18 20  1  0  0  0  0
 18 21  1  0  0  0  0
 19 38  1  0  0  0  0
 19 39  1  0  0  0  0
 19 40  1  0  0  0  0
 20 41  1  0  0  0  0
 20 42  1  0  0  0  0
 20 43  1  0  0  0  0
 21 44  1  0  0  0  0
 21 45  1  0  0  0  0
M  CHG  1  21   1
M  END
> <s_m_source_file>
AV-unprocessed.smi

> <i_m_source_file_index>
2765

> <i_lp_mmshare_version>
43012

> <i_f3d_flags>
0

> <s_epik_input>
W0NIM11DMShbQ0gzXSlbQ0gyXVtDSF0oW0NIMl1DKFtDSDNdKShbQ0gzXSlbTkhdMSlbTkhdQyg9TylbTkhdYzJbY0hdW2NIXWMoRilbY0hdbjI=

> <s_epik_cmdline>
J2VwaWtfcHl0aG9uJywgJy1waCcsICc3LjAnLCAnLXRuJywgJzgnLCAnLW1hJywgJzIwMCcsICctbWV0YWxfYmluZGluZycsICctaW1hZScsICc8aW5maWxlLm1hZT4nLCAnLW9tYWUnLCAnPG91dGZpbGUubWFlPic=

> <r_lp_tautomer_probability>
1

> <r_epik_Ionization_Penalty>
0.000124854

> <r_epik_Ionization_Penalty_Charging>
9.44458e-05

> <r_epik_Ionization_Penalty_Neutral>
3.0408e-05

> <r_epik_State_Penalty>
-0

> <r_epik_Charging_Adjusted_Penalty>
9.44458e-05

> <i_epik_Tot_Q>
1

> <i_epik_Tot_abs_Q>
1

> <r_epik_Metal_State_Penalty>
-0

> <b_epik_Metal_Only>
0

> <s_lp_Force_Field>
OPLS_2005

> <r_lp_Energy>
29.8768

> <b_lp_Chiralities_Consistent>
1

> <s_lp_Variant>
AV-unprocessed.smi:2765-1

> <Gold.Version>
5.8.1

> <Gold.Id.Protein>
6NUR|6NUR_protein|mol2

> <Gold.PLP.Fitness>
46.6373

> <Gold.PLP.PLP>
-36.3088

> <Gold.PLP.part.hbond>
-2.0000

> <Gold.PLP.part.metal>
0.0000

> <Gold.PLP.part.buried>
-1.1647

> <Gold.PLP.part.nonpolar>
-33.9855

> <Gold.PLP.part.repulsive>
0.4046

> <Gold.PLP.ligand.clash>
0.0000

> <Gold.PLP.ligand.torsion>
0.3708

> <Gold.PLP.Chemscore.Hbond>
2.7200

> <Gold.PLP.Chemscore.CHOScore>
0.9639

> <Gold.PLP.Chemscore.Metal>
0.0000

> <Gold.Chemscore.Hbonds>
donor molecule, donor type, donor heavy atom, donor atom, acceptor molecule, acceptor atom, score
      L1  H    21    45       P1  7948  2.00
      P1  H  7989  7998       L1     8  0.72
      L1  C    15    35       P1  8028  0.93

> <Gold.PLP.Chemscore.Internal.Correction>
0.0183

> <Gold.Rescore>
     Score         DG    S(hbond)    S(metal)    S(lipo)     H(rot)  DE(clash)    DE(int)     intcor
     15.29     -19.30       1.71        0.00      91.17       1.00       0.94       3.07       ----

> <Gold.Chemscore.Fitness>
15.2879

> <Gold.Chemscore.DG>
-19.2978

> <Gold.Chemscore.ZeroCoef>
-5.4800

> <Gold.Chemscore.Hbond>
1.7099

> <Gold.Chemscore.Metal>
0.0000

> <Gold.Chemscore.Lipo>
91.1673

> <Gold.Chemscore.Internal_Hbond>
0.0000

> <Gold.Chemscore.DEClash>
0.9441

> <Gold.Chemscore.DEInternal>
3.0658

> <Gold.Chemscore.Rot>
1.0000

> <Gold.Chemscore.Internal.Correction>
   9.000000E+99

> <Gold.Chemscore.Hbonds>
donor molecule, donor type, donor heavy atom, donor atom, acceptor molecule, acceptor atom, score
      L1  H    21    45       P1  7948  0.94
      P1  H  7989  7998       L1     8  0.70

> <Gold.Chemscore.Hbond.Weighted>
-5.7112

> <Gold.Chemscore.Metal.Weighted>
-0.0000

> <Gold.Chemscore.Lipo.Weighted>
-10.6666

> <Gold.Chemscore.Internal_Hbond.Weighted>
0.0000

> <Gold.Chemscore.DEClash.Weighted>
0.9441

> <Gold.Chemscore.DEInternal.Weighted>
3.0658

> <Gold.Chemscore.Rot.Weighted>
2.5600

> <Gold.Chemscore.Internal.Correction.Weighted>
   9.000000E+99

> <Gold.Protein.RotatedTorsions>
[ 6907 6896 6895 6894 ] final  116.52 input  -60.11 | X-H torsion
[ 7974 7965 7964 7962 ] final  -36.45 input  175.53 | X-H torsion
[ 8008 7997 7996 7995 ] final  -92.06 input   59.86 | X-H torsion
[ 10167 10162 10161 10158 ] final  139.01 input  -65.29 | X-H torsion
[ 10718 10713 10712 10709 ] final  154.41 input   66.30 | X-H torsion
[ 10763 10752 10751 10750 ] final  -14.26 input  -60.55 | X-H torsion
[ 11005 11000 10999 10996 ] final  -73.30 input  -57.11 | X-H torsion

> <Gold.Protein.ActiveResidues>
 VAL166  LYS551  ARG553  GLY616  TRP617  ASP618  TYR619  PRO620  LYS621  CYS622 
 ASP623  PHE694  ASN695  SER759  ASP760  ASP761  ALA762  ILE779  LEU786  VAL792 
 PHE793  MET794  SER795  GLU796  ALA797  LYS798  CYS799  TRP800  GLU811  SER814 

> <Gold.Protein.RotatedAtoms>
  152.4672  133.7950  159.6921 H   0  0  0  0  0  0  0  0  0  0  0  0  # atno 6907 bound_to 6896
  150.8643  133.7588  159.2988 H   0  0  0  0  0  0  0  0  0  0  0  0  # atno 6908 bound_to 6896
  151.5143  135.1069  159.9914 H   0  0  0  0  0  0  0  0  0  0  0  0  # atno 6909 bound_to 6896
  146.0660  140.6280  142.8974 H   0  0  0  0  0  0  0  0  0  0  0  0  # atno 7974 bound_to 7965
  154.7185  140.0513  157.0617 H   0  0  0  0  0  0  0  0  0  0  0  0  # atno 8008 bound_to 7997
  155.0459  140.3174  155.4689 H   0  0  0  0  0  0  0  0  0  0  0  0  # atno 8009 bound_to 7997
  156.2810  140.2124  156.5584 H   0  0  0  0  0  0  0  0  0  0  0  0  # atno 8010 bound_to 7997
  139.5092  144.6320  151.5794 H   0  0  0  0  0  0  0  0  0  0  0  0  # atno 10167 bound_to 10162
  157.2320  131.0741  151.1847 H   0  0  0  0  0  0  0  0  0  0  0  0  # atno 10718 bound_to 10713
  153.5256  135.7015  153.5709 H   0  0  0  0  0  0  0  0  0  0  0  0  # atno 10763 bound_to 10752
  153.3738  135.3938  155.1808 H   0  0  0  0  0  0  0  0  0  0  0  0  # atno 10764 bound_to 10752
  154.8690  135.3818  154.4749 H   0  0  0  0  0  0  0  0  0  0  0  0  # atno 10765 bound_to 10752
  141.1621  133.6874  156.7190 H   0  0  0  0  0  0  0  0  0  0  0  0  # atno 11005 bound_to 11000
  144.7203  140.4350  143.7013 LP  0  0  0  0  0  0  0  0  0  0  0  0  # atno 17320 bound_to 7965
  145.6476  139.1559  143.2880 LP  0  0  0  0  0  0  0  0  0  0  0  0  # atno 17321 bound_to 7965
  140.6055  143.9531  150.6416 LP  0  0  0  0  0  0  0  0  0  0  0  0  # atno 17342 bound_to 10162
  140.2757  143.3424  152.1197 LP  0  0  0  0  0  0  0  0  0  0  0  0  # atno 17343 bound_to 10162
  157.3468  130.7062  149.6416 LP  0  0  0  0  0  0  0  0  0  0  0  0  # atno 17370 bound_to 10713
  155.9675  130.4264  150.4696 LP  0  0  0  0  0  0  0  0  0  0  0  0  # atno 17371 bound_to 10713
  140.2830  134.8302  157.3950 LP  0  0  0  0  0  0  0  0  0  0  0  0  # atno 17394 bound_to 11000
  140.1416  134.4964  155.8027 LP  0  0  0  0  0  0  0  0  0  0  0  0  # atno 17395 bound_to 11000

$$$$
