#       Name:                AV-unprocessed.smi:3351
#       Creating user name   scv26
#       Creation time:       Fri Mar 27 19:38:28 2020


#       File generated by GOLD software.
#

@<TRIPOS>MOLECULE
AV-unprocessed.smi:3351
    39    40     1
SMALL
NO_CHARGES


@<TRIPOS>ATOM
      1 ****        -1.5730  -1.5572  -1.7954 C.3            1 S1                 0.0000
      2 ****        -1.0855  -0.6989  -0.6168 C.3            1 S1                 0.0000
      3 ****        -1.6255  -1.1798   0.7477 C.3            1 S1                 0.0000
      4 ****        -3.0903  -1.1883   0.8088 N.pl3          1 S1                 0.0000
      5 ****        -3.9212  -0.1008   0.8945 C.2            1 S1                 0.0000
      6 ****        -5.2020  -0.5892   0.9272 C.2            1 S1                 0.0000
      7 ****        -5.0985  -1.9531   0.8652 N.pl3          1 S1                 1.0000
      8 ****        -3.8134  -2.3159   0.7972 C.2            1 S1                 0.0000
      9 ****         0.3744  -0.6845  -0.6066 N.am           1 S1                 0.0000
     10 ****         1.1362   0.2889  -0.0836 C.2            1 S1                 0.0000
     11 ****         0.6703   1.2774   0.4848 O.2            1 S1                 0.0000
     12 ****         2.6535   0.0961  -0.2004 C.3            1 S1                 0.0000
     13 ****         3.3818   1.3622  -0.3023 N.am           1 S1                 0.0000
     14 ****         4.0216   1.9159   0.8847 C.3            1 S1                 0.0000
     15 ****         4.9738   3.0254   0.4331 C.3            1 S1                 0.0000
     16 ****         4.4153   3.6048  -1.1811 S.3            1 S1                 0.0000
     17 ****         3.4353   2.1267  -1.4605 C.2            1 S1                 0.0000
     18 ****         2.9079   1.8832  -2.5444 O.2            1 S1                 0.0000
     19 ****        -2.6576  -1.5168  -1.8985 H              1 S1                 0.0000
     20 ****        -1.2878  -2.6021  -1.6697 H              1 S1                 0.0000
     21 ****        -1.1478  -1.2075  -2.7370 H              1 S1                 0.0000
     22 ****        -1.4372   0.3198  -0.7909 H              1 S1                 0.0000
     23 ****        -1.2645  -2.1853   0.9708 H              1 S1                 0.0000
     24 ****        -1.2740  -0.5333   1.5529 H              1 S1                 0.0000
     25 ****        -3.5484   0.9131   0.9226 H              1 S1                 0.0000
     26 ****        -6.1538  -0.0819   0.9894 H              1 S1                 0.0000
     27 ****        -3.4358  -3.3213   0.7397 H              1 S1                 0.0000
     28 ****         0.8414  -1.4624  -1.0500 H              1 S1                 0.0000
     29 ****         2.9976  -0.4625   0.6707 H              1 S1                 0.0000
     30 ****         2.8837  -0.5208  -1.0710 H              1 S1                 0.0000
     31 ****         3.2463   2.3250   1.5336 H              1 S1                 0.0000
     32 ****         4.5535   1.1489   1.4487 H              1 S1                 0.0000
     33 ****         5.0221   3.8447   1.1504 H              1 S1                 0.0000
     34 ****         5.9816   2.6265   0.3157 H              1 S1                 0.0000
     35 ****        -5.8800  -2.5965   0.8717 H              1 S1                 0.0000
     36 ****        -0.3202   1.3826   0.5735 LP             1 S1                 0.0000
     37 ****         1.2825   1.9747   0.8574 LP             1 S1                 0.0000
     38 ****         2.3658   1.0510  -2.6610 LP             1 S1                 0.0000
     39 ****         3.0211   2.5174  -3.3093 LP             1 S1                 0.0000
@<TRIPOS>BOND
    1    1    2 1     
    2    1   19 1     
    3    1   20 1     
    4    1   21 1     
    5    2    3 1     
    6    2    9 1     
    7    2   22 1     
    8    3    4 1     
    9    3   23 1     
   10    3   24 1     
   11    4    8 1     
   12    4    5 1     
   13    5    6 2     
   14    5   25 1     
   15    6    7 1     
   16    6   26 1     
   17    7    8 2     
   18    7   35 1     
   19    8   27 1     
   20    9   10 am    
   21    9   28 1     
   22   10   11 2     
   23   10   12 1     
   24   12   13 1     
   25   12   29 1     
   26   12   30 1     
   27   13   17 am    
   28   13   14 1     
   29   14   15 1     
   30   14   31 1     
   31   14   32 1     
   32   15   16 1     
   33   15   33 1     
   34   15   34 1     
   35   16   17 1     
   36   17   18 2     
   37   11   36 1     
   38   11   37 1     
   39   18   38 1     
   40   18   39 1     
@<TRIPOS>SUBSTRUCTURE
      1 S1             1
@<TRIPOS>SET
LONE_PAIRS      STATIC     ATOMS    <user>   **** ""
4 36 37 38 39
DONOR_HYDROGENS      STATIC     ATOMS    <user>   **** ""
2 35 28
ATOM$BLUE        STATIC     ATOMS    COLORGROUP SYSTEM
4 36 37 38 39
ATOM$RED        STATIC     ATOMS    COLORGROUP SYSTEM
2 35 28
