#       Name:                AV-unprocessed.smi:265
#       Creating user name   scv26
#       Creation time:       Thu Mar 26 21:21:36 2020


#       File generated by GOLD software.
#

@<TRIPOS>MOLECULE
AV-unprocessed.smi:265
    64    68     1
SMALL
NO_CHARGES


@<TRIPOS>ATOM
      1 ****        -1.7690  -1.9492   6.1585 C.3            1 S1                 0.0000
      2 ****        -2.4838  -2.1980   4.8219 C.3            1 S1                 0.0000
      3 ****        -2.2869  -3.5409   4.3859 O.3            1 S1                 0.0000
      4 ****        -2.1831  -3.5877   2.9655 C.3            1 S1                 0.0000
      5 ****        -2.5354  -2.1849   2.4807 C.3            1 S1                 0.0000
      6 ****        -2.0627  -1.3096   3.6352 C.3            1 S1                 0.0000
      7 ****        -2.8069  -0.1055   3.6362 O.3            1 S1                 0.0000
      8 ****        -0.5458  -0.9799   3.5953 C.3            1 S1                 0.0000
      9 ****        -0.1106  -0.3592   2.3535 N.pl3          1 S1                 0.0000
     10 ****        -0.2459   0.9634   1.9969 C.2            1 S1                 0.0000
     11 ****         0.2340   1.2756   0.8239 N.2            1 S1                 0.0000
     12 ****         0.7416   0.0778   0.3341 C.ar           1 S1                 0.0000
     13 ****         1.4036  -0.3016  -0.8680 C.ar           1 S1                 0.0000
     14 ****         1.6590   0.5735  -1.8736 N.3            1 S1                 0.0000
     15 ****         2.7691   0.2582  -2.7797 C.3            1 S1                 0.0000
     16 ****         3.1549   1.4768  -3.6390 C.3            1 S1                 0.0000
     17 ****         1.9160   2.0162  -4.3647 C.3            1 S1                 0.0000
     18 ****         2.1996   3.2003  -5.0946 O.3            1 S1                 0.0000
     19 ****         1.1069   3.6403  -5.9087 C.3            1 S1                 0.0000
     20 ****        -0.2388   3.6459  -5.1522 C.2            1 S1                 0.0000
     21 ****        -1.2099   4.2233  -5.6352 O.2            1 S1                 0.0000
     22 ****        -0.3171   2.9734  -3.9922 N.am           1 S1                 0.0000
     23 ****         0.8393   2.3830  -3.3316 C.3            1 S1                 0.0000
     24 ****         0.4649   1.1450  -2.5011 C.3            1 S1                 0.0000
     25 ****         1.7850  -1.6018  -0.9876 N.ar           1 S1                 0.0000
     26 ****         1.5301  -2.4738  -0.0076 C.ar           1 S1                 0.0000
     27 ****         0.9186  -2.2620   1.1590 N.ar           1 S1                 0.0000
     28 ****         0.5407  -0.9584   1.2895 C.ar           1 S1                 0.0000
     29 ****         1.5487   1.2485  -5.0495 H              1 S1                 0.0000
     30 ****         1.2369   3.1442  -2.6579 H              1 S1                 0.0000
     31 ****        -1.8899  -0.9151   6.4813 H              1 S1                 0.0000
     32 ****        -0.7020  -2.1622   6.0932 H              1 S1                 0.0000
     33 ****        -2.1801  -2.5899   6.9388 H              1 S1                 0.0000
     34 ****        -3.5585  -2.0871   4.9794 H              1 S1                 0.0000
     35 ****        -1.1565  -3.8407   2.6986 H              1 S1                 0.0000
     36 ****        -2.8390  -4.3487   2.5427 H              1 S1                 0.0000
     37 ****        -2.0989  -1.9428   1.5122 H              1 S1                 0.0000
     38 ****        -3.6191  -2.1125   2.3719 H              1 S1                 0.0000
     39 ****        -2.6129   0.3655   4.4322 H              1 S1                 0.0000
     40 ****        -0.2790  -0.3117   4.4151 H              1 S1                 0.0000
     41 ****         0.0417  -1.8867   3.7427 H              1 S1                 0.0000
     42 ****        -0.7163   1.6946   2.6381 H              1 S1                 0.0000
     43 ****         3.6372  -0.0685  -2.2054 H              1 S1                 0.0000
     44 ****         2.4795  -0.5717  -3.4259 H              1 S1                 0.0000
     45 ****         3.5825   2.2546  -3.0048 H              1 S1                 0.0000
     46 ****         3.9256   1.2008  -4.3590 H              1 S1                 0.0000
     47 ****         1.3238   4.6407  -6.2840 H              1 S1                 0.0000
     48 ****         1.0177   2.9836  -6.7749 H              1 S1                 0.0000
     49 ****        -1.2023   2.9422  -3.5074 H              1 S1                 0.0000
     50 ****         0.0071   0.3878  -3.1393 H              1 S1                 0.0000
     51 ****        -0.2810   1.4204  -1.7562 H              1 S1                 0.0000
     52 ****         1.8649  -3.4856  -0.1829 H              1 S1                 0.0000
     53 ****        -3.0623  -4.1002   4.6789 LP             1 S1                 0.0000
     54 ****        -1.4455  -3.8994   4.7905 LP             1 S1                 0.0000
     55 ****        -3.7843  -0.3128   3.5964 LP             1 S1                 0.0000
     56 ****        -2.5514   0.4498   2.8447 LP             1 S1                 0.0000
     57 ****         0.2361   2.1714   0.3794 LP             1 S1                 0.0000
     58 ****         2.0622   1.3409  -1.3751 LP             1 S1                 0.0000
     59 ****         2.9867   3.0272  -5.6866 LP             1 S1                 0.0000
     60 ****         2.4243   3.9270  -4.4454 LP             1 S1                 0.0000
     61 ****        -1.1276   4.6884  -6.5166 LP             1 S1                 0.0000
     62 ****        -2.0825   4.2282  -5.1468 LP             1 S1                 0.0000
     63 ****         2.2589  -1.9069  -1.8136 LP             1 S1                 0.0000
     64 ****         0.7582  -2.9681   1.8487 LP             1 S1                 0.0000
@<TRIPOS>BOND
    1    1    2 1     
    2    1   31 1     
    3    1   32 1     
    4    1   33 1     
    5    2    6 1     
    6    2    3 1     
    7    2   34 1     
    8    3    4 1     
    9    4    5 1     
   10    4   35 1     
   11    4   36 1     
   12    5    6 1     
   13    5   37 1     
   14    5   38 1     
   15    6    7 1     
   16    6    8 1     
   17    7   39 1     
   18    8    9 1     
   19    8   40 1     
   20    8   41 1     
   21    9   28 1     
   22    9   10 1     
   23   10   11 2     
   24   10   42 1     
   25   11   12 1     
   26   12   28 ar    
   27   12   13 ar    
   28   13   14 1     
   29   13   25 ar    
   30   14   24 1     
   31   14   15 1     
   32   15   16 1     
   33   15   43 1     
   34   15   44 1     
   35   16   17 1     
   36   16   45 1     
   37   16   46 1     
   38   17   29 1     
   39   17   23 1     
   40   17   18 1     
   41   18   19 1     
   42   19   20 1     
   43   19   47 1     
   44   19   48 1     
   45   20   21 2     
   46   20   22 am    
   47   22   23 1     
   48   22   49 1     
   49   23   30 1     
   50   23   24 1     
   51   24   50 1     
   52   24   51 1     
   53   25   26 ar    
   54   26   27 ar    
   55   26   52 1     
   56   27   28 ar    
   57    3   53 1     
   58    3   54 1     
   59    7   55 1     
   60    7   56 1     
   61   11   57 1     
   62   14   58 1     
   63   18   59 1     
   64   18   60 1     
   65   21   61 1     
   66   21   62 1     
   67   25   63 1     
   68   27   64 1     
@<TRIPOS>SUBSTRUCTURE
      1 S1             1
@<TRIPOS>SET
LONE_PAIRS      STATIC     ATOMS    <user>   **** ""
12 53 54 55 56 57 58 59 60 61 62 63 64
DONOR_HYDROGENS      STATIC     ATOMS    <user>   **** ""
2 39 49
ATOM$BLUE        STATIC     ATOMS    COLORGROUP SYSTEM
12 53 54 55 56 57 58 59 60 61 62 63 64
ATOM$RED        STATIC     ATOMS    COLORGROUP SYSTEM
2 39 49
