AV-unprocessed.smi:1261|AV-procd|sdf|5308|dock1
  -GOLD-   22720 4433D 1   1.00000     0.00000
 Structure written by MMmdl.
 50 51  0  0  0  0  0  0  0  0  2 V2000
  146.2358  128.4658  151.8115 C   0  0  0  0  0  0  0  0  0  0  0  0
  146.3282  129.9349  151.3754 C   0  0  1  0  0  0  0  0  0  0  0  0
  144.9481  130.6161  151.4078 C   0  0  0  0  0  0  0  0  0  0  0  0
  145.0403  132.1074  151.0355 C   0  0  2  0  0  0  0  0  0  0  0  0
  145.2772  132.3361  149.5319 C   0  0  0  0  0  0  0  0  0  0  0  0
  146.0966  132.8161  151.9064 C   0  0  0  0  0  0  0  0  0  0  0  0
  147.4183  132.1416  151.8241 N   0  3  1  0  0  0  0  0  0  0  0  0
  148.4814  132.8977  152.5336 C   0  0  0  0  0  0  0  0  0  0  0  0
  148.1351  133.1445  154.0112 C   0  0  0  0  0  0  0  0  0  0  0  0
  147.3047  134.4224  154.2125 C   0  0  0  0  0  0  0  0  0  0  0  0
  148.1305  135.6157  154.0804 N   0  0  0  0  0  0  0  0  0  0  0  0
  148.5714  136.3707  155.1015 C   0  0  0  0  0  0  0  0  0  0  0  0
  148.2918  136.1286  156.2751 O   0  0  0  0  0  0  0  0  0  0  0  0
  149.4729  137.5761  154.7813 C   0  0  0  0  0  0  0  0  0  0  0  0
  148.8360  138.8929  154.9485 N   0  0  0  0  0  0  0  0  0  0  0  0
  147.5105  138.8340  155.3518 N   0  0  0  0  0  0  0  0  0  0  0  0
  146.8433  139.9228  155.5368 C   0  0  0  0  0  0  0  0  0  0  0  0
  145.5325  139.8186  155.9329 O   0  0  0  0  0  0  0  0  0  0  0  0
  147.4540  141.2184  155.3333 C   0  0  0  0  0  0  0  0  0  0  0  0
  148.7449  141.2658  154.9377 C   0  0  0  0  0  0  0  0  0  0  0  0
  149.5285  140.0498  154.7124 C   0  0  0  0  0  0  0  0  0  0  0  0
  150.6998  140.0629  154.3346 O   0  0  0  0  0  0  0  0  0  0  0  0
  147.3315  130.7176  152.2446 C   0  0  0  0  0  0  0  0  0  0  0  0
  145.0202  139.9871  155.1571 H   0  0  0  0  0  0  0  0  0  0  0  0
  145.8759  128.3773  152.8370 H   0  0  0  0  0  0  0  0  0  0  0  0
  147.2093  127.9777  151.7576 H   0  0  0  0  0  0  0  0  0  0  0  0
  145.5528  127.9077  151.1701 H   0  0  0  0  0  0  0  0  0  0  0  0
  146.6928  129.9430  150.3475 H   0  0  0  0  0  0  0  0  0  0  0  0
  144.2545  130.1028  150.7406 H   0  0  0  0  0  0  0  0  0  0  0  0
  144.5271  130.5264  152.4104 H   0  0  0  0  0  0  0  0  0  0  0  0
  144.0734  132.5575  151.2638 H   0  0  0  0  0  0  0  0  0  0  0  0
  146.2449  131.9541  149.2074 H   0  0  0  0  0  0  0  0  0  0  0  0
  145.2467  133.3987  149.2898 H   0  0  0  0  0  0  0  0  0  0  0  0
  144.5093  131.8440  148.9343 H   0  0  0  0  0  0  0  0  0  0  0  0
  146.1861  133.8568  151.5916 H   0  0  0  0  0  0  0  0  0  0  0  0
  145.7704  132.8326  152.9478 H   0  0  0  0  0  0  0  0  0  0  0  0
  149.4115  132.3284  152.5002 H   0  0  0  0  0  0  0  0  0  0  0  0
  148.6785  133.8384  152.0169 H   0  0  0  0  0  0  0  0  0  0  0  0
  147.5836  132.2959  154.4147 H   0  0  0  0  0  0  0  0  0  0  0  0
  149.0557  133.2179  154.5920 H   0  0  0  0  0  0  0  0  0  0  0  0
  146.5133  134.4754  153.4644 H   0  0  0  0  0  0  0  0  0  0  0  0
  146.8123  134.4119  155.1864 H   0  0  0  0  0  0  0  0  0  0  0  0
  148.4007  135.8845  153.1451 H   0  0  0  0  0  0  0  0  0  0  0  0
  150.3565  137.5091  155.4185 H   0  0  0  0  0  0  0  0  0  0  0  0
  149.8478  137.4699  153.7618 H   0  0  0  0  0  0  0  0  0  0  0  0
  146.8845  142.1216  155.4966 H   0  0  0  0  0  0  0  0  0  0  0  0
  149.2135  142.2267  154.7830 H   0  0  0  0  0  0  0  0  0  0  0  0
  147.0423  130.6666  153.2958 H   0  0  0  0  0  0  0  0  0  0  0  0
  148.3090  130.2432  152.1658 H   0  0  0  0  0  0  0  0  0  0  0  0
  147.6715  132.1452  150.8462 H   0  0  0  0  0  0  0  0  0  0  0  0
  1  2  1  0  0  0  0
  1 25  1  0  0  0  0
  1 26  1  0  0  0  0
  1 27  1  0  0  0  0
  2 23  1  0  0  0  0
  2  3  1  0  0  0  0
  2 28  1  0  0  0  0
  3  4  1  0  0  0  0
  3 29  1  0  0  0  0
  3 30  1  0  0  0  0
  4  5  1  0  0  0  0
  4  6  1  0  0  0  0
  4 31  1  0  0  0  0
  5 32  1  0  0  0  0
  5 33  1  0  0  0  0
  5 34  1  0  0  0  0
  6  7  1  0  0  0  0
  6 35  1  0  0  0  0
  6 36  1  0  0  0  0
  7  8  1  0  0  0  0
  7 23  1  0  0  0  0
  7 50  1  0  0  0  0
  8  9  1  0  0  0  0
  8 37  1  0  0  0  0
  8 38  1  0  0  0  0
  9 10  1  0  0  0  0
  9 39  1  0  0  0  0
  9 40  1  0  0  0  0
 10 11  1  0  0  0  0
 10 41  1  0  0  0  0
 10 42  1  0  0  0  0
 11 12  1  0  0  0  0
 11 43  1  0  0  0  0
 12 13  2  0  0  0  0
 12 14  1  0  0  0  0
 14 44  1  0  0  0  0
 14 45  1  0  0  0  0
 14 15  1  0  0  0  0
 15 16  1  0  0  0  0
 15 21  1  0  0  0  0
 16 17  2  0  0  0  0
 17 18  1  0  0  0  0
 17 19  1  0  0  0  0
 18 24  1  0  0  0  0
 19 46  1  0  0  0  0
 19 20  2  0  0  0  0
 20 47  1  0  0  0  0
 20 21  1  0  0  0  0
 21 22  2  0  0  0  0
 23 48  1  0  0  0  0
 23 49  1  0  0  0  0
M  CHG  1   7   1
M  END
> <s_m_source_file>
AV-unprocessed.smi

> <i_m_source_file_index>
1261

> <i_lp_mmshare_version>
43012

> <i_f3d_flags>
0

> <s_epik_input>
W0NIM11bQ0BASF0xW0NIMl1bQ0BASF0oW0NIM10pW0NIMl1OKFtDSDJdMSlbQ0gyXVtDSDJdW0NIMl1bTkhdQyg9TylbQ0gyXW4yW25IXWMoPU8pW2NIXVtjSF1jMj1P

> <s_epik_cmdline>
J2VwaWtfcHl0aG9uJywgJy1waCcsICc3LjAnLCAnLXRuJywgJzgnLCAnLW1hJywgJzIwMCcsICctbWV0YWxfYmluZGluZycsICctaW1hZScsICc8aW5maWxlLm1hZT4nLCAnLW9tYWUnLCAnPG91dGZpbGUubWFlPic=

> <r_lp_tautomer_probability>
0.9996

> <r_epik_Ionization_Penalty>
2.1425

> <r_epik_Ionization_Penalty_Charging>
0.000312112

> <r_epik_Ionization_Penalty_Neutral>
2.14218

> <r_epik_State_Penalty>
1.71978

> <r_epik_Charging_Adjusted_Penalty>
1.72009

> <i_epik_Tot_Q>
1

> <i_epik_Tot_abs_Q>
1

> <r_epik_Metal_State_Penalty>
1.71978

> <b_epik_Metal_Only>
0

> <s_lp_Force_Field>
OPLS_2005

> <r_lp_Energy>
29.1446

> <b_lp_Chiralities_Consistent>
1

> <s_lp_Variant>
AV-unprocessed.smi:1261-8

> <Gold.Version>
5.8.1

> <Gold.Id.Protein>
6NUR|6NUR_protein|mol2

> <Gold.PLP.Fitness>
51.4427

> <Gold.PLP.PLP>
-40.2289

> <Gold.PLP.part.hbond>
-3.9237

> <Gold.PLP.part.metal>
0.0000

> <Gold.PLP.part.buried>
-4.7528

> <Gold.PLP.part.nonpolar>
-32.3317

> <Gold.PLP.part.repulsive>
0.2114

> <Gold.PLP.ligand.clash>
0.0000

> <Gold.PLP.ligand.torsion>
0.4880

> <Gold.PLP.Chemscore.Hbond>
3.9913

> <Gold.PLP.Chemscore.CHOScore>
0.0000

> <Gold.PLP.Chemscore.Metal>
0.0000

> <Gold.Chemscore.Hbonds>
donor molecule, donor type, donor heavy atom, donor atom, acceptor molecule, acceptor atom, score
      L1  H     7    50       P1 10747  0.35
      L1  H    11    43       P1  7948  0.75
      P1  H  7989  7998       L1    22  0.89

> <Gold.PLP.Chemscore.Internal.Correction>
0.2161

> <Gold.Rescore>
     Score         DG    S(hbond)    S(metal)    S(lipo)     H(rot)  DE(clash)    DE(int)     intcor
     20.81     -21.57       3.92        0.00      94.36       3.14       0.03       0.73       ----

> <Gold.Chemscore.Fitness>
20.8140

> <Gold.Chemscore.DG>
-21.5741

> <Gold.Chemscore.ZeroCoef>
-5.4800

> <Gold.Chemscore.Hbond>
3.9163

> <Gold.Chemscore.Metal>
0.0000

> <Gold.Chemscore.Lipo>
94.3551

> <Gold.Chemscore.Internal_Hbond>
0.0000

> <Gold.Chemscore.DEClash>
0.0264

> <Gold.Chemscore.DEInternal>
0.7338

> <Gold.Chemscore.Rot>
3.1352

> <Gold.Chemscore.Internal.Correction>
   9.000000E+99

> <Gold.Chemscore.Hbonds>
donor molecule, donor type, donor heavy atom, donor atom, acceptor molecule, acceptor atom, score
      L1  H     7    50       P1 10747  0.36
      L1  H    11    43       P1  7948  0.75
      P1  H  7989  7998       L1    22  0.87

> <Gold.Chemscore.Hbond.Weighted>
-13.0806

> <Gold.Chemscore.Metal.Weighted>
-0.0000

> <Gold.Chemscore.Lipo.Weighted>
-11.0396

> <Gold.Chemscore.Internal_Hbond.Weighted>
0.0000

> <Gold.Chemscore.DEClash.Weighted>
0.0264

> <Gold.Chemscore.DEInternal.Weighted>
0.7338

> <Gold.Chemscore.Rot.Weighted>
8.0260

> <Gold.Chemscore.Internal.Correction.Weighted>
   9.000000E+99

> <Gold.Protein.RotatedTorsions>
[ 6907 6896 6895 6894 ] final -148.94 input  -60.11 | X-H torsion
[ 7974 7965 7964 7962 ] final -121.96 input  175.53 | X-H torsion
[ 8008 7997 7996 7995 ] final   61.79 input   59.86 | X-H torsion
[ 10167 10162 10161 10158 ] final  -44.89 input  -65.29 | X-H torsion
[ 10718 10713 10712 10709 ] final  107.00 input   66.30 | X-H torsion
[ 10763 10752 10751 10750 ] final   78.68 input  -60.55 | X-H torsion
[ 11005 11000 10999 10996 ] final  134.38 input  -57.11 | X-H torsion

> <Gold.Protein.ActiveResidues>
 VAL166  LYS551  ARG553  GLY616  TRP617  ASP618  TYR619  PRO620  LYS621  CYS622 
 ASP623  PHE694  ASN695  SER759  ASP760  ASP761  ALA762  ILE779  LEU786  VAL792 
 PHE793  MET794  SER795  GLU796  ALA797  LYS798  CYS799  TRP800  GLU811  SER814 

> <Gold.Protein.RotatedAtoms>
  151.1770  133.4749  159.2593 H   0  0  0  0  0  0  0  0  0  0  0  0  # atno 6907 bound_to 6896
  151.1298  135.0124  159.8587 H   0  0  0  0  0  0  0  0  0  0  0  0  # atno 6908 bound_to 6896
  152.5459  134.1673  159.8635 H   0  0  0  0  0  0  0  0  0  0  0  0  # atno 6909 bound_to 6896
  145.0346  140.8095  143.4303 H   0  0  0  0  0  0  0  0  0  0  0  0  # atno 7974 bound_to 7965
  155.6040  140.3494  155.4602 H   0  0  0  0  0  0  0  0  0  0  0  0  # atno 8008 bound_to 7997
  156.0206  140.1253  157.0386 H   0  0  0  0  0  0  0  0  0  0  0  0  # atno 8009 bound_to 7997
  154.4314  140.1063  156.5944 H   0  0  0  0  0  0  0  0  0  0  0  0  # atno 8010 bound_to 7997
  140.6879  143.2907  151.3560 H   0  0  0  0  0  0  0  0  0  0  0  0  # atno 10167 bound_to 10162
  157.6646  131.0863  150.6090 H   0  0  0  0  0  0  0  0  0  0  0  0  # atno 10718 bound_to 10713
  153.0893  135.4868  154.8658 H   0  0  0  0  0  0  0  0  0  0  0  0  # atno 10763 bound_to 10752
  154.7249  135.3047  154.8989 H   0  0  0  0  0  0  0  0  0  0  0  0  # atno 10764 bound_to 10752
  153.9642  135.6809  153.4799 H   0  0  0  0  0  0  0  0  0  0  0  0  # atno 10765 bound_to 10752
  139.9911  134.9514  156.9858 H   0  0  0  0  0  0  0  0  0  0  0  0  # atno 11005 bound_to 11000
  145.1726  139.2396  143.5334 LP  0  0  0  0  0  0  0  0  0  0  0  0  # atno 17320 bound_to 7965
  146.3502  140.1480  142.8593 LP  0  0  0  0  0  0  0  0  0  0  0  0  # atno 17321 bound_to 7965
  139.6255  144.0823  152.2430 LP  0  0  0  0  0  0  0  0  0  0  0  0  # atno 17342 bound_to 10162
  140.0281  144.6102  150.7510 LP  0  0  0  0  0  0  0  0  0  0  0  0  # atno 17343 bound_to 10162
  156.6391  130.4453  149.5759 LP  0  0  0  0  0  0  0  0  0  0  0  0  # atno 17370 bound_to 10713
  156.2223  130.6744  151.1380 LP  0  0  0  0  0  0  0  0  0  0  0  0  # atno 17371 bound_to 10713
  140.4906  134.1197  155.7232 LP  0  0  0  0  0  0  0  0  0  0  0  0  # atno 17394 bound_to 11000
  141.1567  133.8870  157.1959 LP  0  0  0  0  0  0  0  0  0  0  0  0  # atno 17395 bound_to 11000

$$$$
