AV-unprocessed.smi:137|AV-procd|sdf|1176|dock7
  -GOLD-   2262018323D 1   1.00000     0.00000
 Structure written by MMmdl.
 51 54  0  0  0  0  0  0  0  0  1 V2000
  152.8524  143.7278  163.1462 C   0  0  0  0  0  0  0  0  0  0  0  0
  153.0977  142.4688  162.3007 C   0  0  1  0  0  0  0  0  0  0  0  0
  153.3927  142.8733  160.8382 C   0  0  0  0  0  0  0  0  0  0  0  0
  153.1532  141.7819  159.8942 N   0  0  0  0  0  0  0  0  0  0  0  0
  152.0498  141.8457  159.0929 C   0  0  0  0  0  0  0  0  0  0  0  0
  151.1088  142.7943  159.3529 N   0  0  0  0  0  0  0  0  0  0  0  0
  150.0068  142.8921  158.6056 C   0  0  0  0  0  0  0  0  0  0  0  0
  149.6469  142.1579  157.5537 N   0  0  0  0  0  0  0  0  0  0  0  0
  150.5844  141.2100  157.2709 C   0  0  0  0  0  0  0  0  0  0  0  0
  151.7986  140.9805  157.9833 C   0  0  0  0  0  0  0  0  0  0  0  0
  152.4822  139.9212  157.3948 N   0  0  0  0  0  0  0  0  0  0  0  0
  151.7160  139.5409  156.4105 C   0  0  0  0  0  0  0  0  0  0  0  0
  150.5690  140.2814  156.2447 N   0  0  0  0  0  0  0  0  0  0  0  0
  149.5382  140.0627  155.2725 C   0  0  0  0  0  0  0  0  0  0  0  0
  149.2008  141.1203  154.2185 C   0  0  0  0  0  0  0  0  0  0  0  0
  147.7234  140.6657  154.2482 C   0  0  0  0  0  0  0  0  0  0  0  0
  146.6805  141.7948  154.2079 C   0  0  0  0  0  0  0  0  0  0  0  0
  146.8234  142.6646  155.3126 O   0  0  0  0  0  0  0  0  0  0  0  0
  147.3436  139.5889  153.2116 C   0  0  0  0  0  0  0  0  0  0  0  0
  147.0012  140.1675  151.9687 O   0  0  0  0  0  0  0  0  0  0  0  0
  148.0584  140.1306  155.6577 C   0  0  0  0  0  0  0  0  0  0  0  0
  154.2579  140.9068  159.4869 C   0  0  0  0  0  0  0  0  0  0  0  0
  155.2707  140.5802  160.5963 C   0  0  0  0  0  0  0  0  0  0  0  0
  154.3722  139.9759  162.1037 S   0  0  1  0  0  0  0  0  0  0  0  0
  155.3694  139.1479  162.9160 O   0  0  0  0  0  0  0  0  0  0  0  0
  154.2080  141.6198  162.9542 C   0  0  0  0  0  0  0  0  0  0  0  0
  153.7371  144.3648  163.1738 H   0  0  0  0  0  0  0  0  0  0  0  0
  152.5949  143.4696  164.1738 H   0  0  0  0  0  0  0  0  0  0  0  0
  152.0289  144.3187  162.7442 H   0  0  0  0  0  0  0  0  0  0  0  0
  152.1751  141.8881  162.3246 H   0  0  0  0  0  0  0  0  0  0  0  0
  152.7901  143.7367  160.5555 H   0  0  0  0  0  0  0  0  0  0  0  0
  154.4229  143.2182  160.7475 H   0  0  0  0  0  0  0  0  0  0  0  0
  149.3152  143.6711  158.8908 H   0  0  0  0  0  0  0  0  0  0  0  0
  151.9743  138.7095  155.7708 H   0  0  0  0  0  0  0  0  0  0  0  0
  149.7706  139.1073  154.7992 H   0  0  0  0  0  0  0  0  0  0  0  0
  149.3401  142.1377  154.5893 H   0  0  0  0  0  0  0  0  0  0  0  0
  149.7099  140.9821  153.2642 H   0  0  0  0  0  0  0  0  0  0  0  0
  146.7902  142.3902  153.3011 H   0  0  0  0  0  0  0  0  0  0  0  0
  145.6634  141.4027  154.1934 H   0  0  0  0  0  0  0  0  0  0  0  0
  147.4963  143.2973  155.1119 H   0  0  0  0  0  0  0  0  0  0  0  0
  148.1682  138.8970  153.0401 H   0  0  0  0  0  0  0  0  0  0  0  0
  146.5077  138.9797  153.5563 H   0  0  0  0  0  0  0  0  0  0  0  0
  147.7981  140.3880  151.5112 H   0  0  0  0  0  0  0  0  0  0  0  0
  147.6094  139.1672  155.9007 H   0  0  0  0  0  0  0  0  0  0  0  0
  147.8664  140.8599  156.4471 H   0  0  0  0  0  0  0  0  0  0  0  0
  153.8424  139.9626  159.1316 H   0  0  0  0  0  0  0  0  0  0  0  0
  154.7784  141.3585  158.6417 H   0  0  0  0  0  0  0  0  0  0  0  0
  155.9342  139.7889  160.2478 H   0  0  0  0  0  0  0  0  0  0  0  0
  155.9040  141.4321  160.8427 H   0  0  0  0  0  0  0  0  0  0  0  0
  155.1664  142.1394  162.9639 H   0  0  0  0  0  0  0  0  0  0  0  0
  153.9469  141.4197  163.9937 H   0  0  0  0  0  0  0  0  0  0  0  0
  1  2  1  0  0  0  0
  1 27  1  0  0  0  0
  1 28  1  0  0  0  0
  1 29  1  0  0  0  0
  2 26  1  0  0  0  0
  2  3  1  0  0  0  0
  2 30  1  0  0  0  0
  3  4  1  0  0  0  0
  3 31  1  0  0  0  0
  3 32  1  0  0  0  0
  4  5  1  0  0  0  0
  4 22  1  0  0  0  0
  5 10  1  0  0  0  0
  5  6  2  0  0  0  0
  6  7  1  0  0  0  0
  7  8  2  0  0  0  0
  7 33  1  0  0  0  0
  8  9  1  0  0  0  0
  9 13  1  0  0  0  0
  9 10  2  0  0  0  0
 10 11  1  0  0  0  0
 11 12  2  0  0  0  0
 12 13  1  0  0  0  0
 12 34  1  0  0  0  0
 13 14  1  0  0  0  0
 14 21  1  0  0  0  0
 14 15  1  0  0  0  0
 14 35  1  0  0  0  0
 15 16  1  0  0  0  0
 15 36  1  0  0  0  0
 15 37  1  0  0  0  0
 16 17  1  0  0  0  0
 16 19  1  0  0  0  0
 16 21  1  0  0  0  0
 17 18  1  0  0  0  0
 17 38  1  0  0  0  0
 17 39  1  0  0  0  0
 18 40  1  0  0  0  0
 19 20  1  0  0  0  0
 19 41  1  0  0  0  0
 19 42  1  0  0  0  0
 20 43  1  0  0  0  0
 21 44  1  0  0  0  0
 21 45  1  0  0  0  0
 22 23  1  0  0  0  0
 22 46  1  0  0  0  0
 22 47  1  0  0  0  0
 23 24  1  0  0  0  0
 23 48  1  0  0  0  0
 23 49  1  0  0  0  0
 24 25  2  0  0  0  0
 24 26  1  0  0  0  0
 26 50  1  0  0  0  0
 26 51  1  0  0  0  0
M  END
> <s_m_source_file>
AV-unprocessed.smi

> <i_m_source_file_index>
137

> <i_lp_mmshare_version>
43012

> <i_f3d_flags>
0

> <s_epik_input>
Tz1bU0BAXShbQ0gyXTEpW0NIMl1bQ0gyXU4oW0NIMl1bQ0BIXTFbQ0gzXSljKG5bY0hdbjIpYyhjMjMpbltjSF1uM1tDSF0oW0NIMl00KVtDSDJdQzQoW0NIMl1bT0hdKVtDSDJdW09IXQ==

> <s_epik_cmdline>
J2VwaWtfcHl0aG9uJywgJy1waCcsICc3LjAnLCAnLXRuJywgJzgnLCAnLW1hJywgJzIwMCcsICctbWV0YWxfYmluZGluZycsICctaW1hZScsICc8aW5maWxlLm1hZT4nLCAnLW9tYWUnLCAnPG91dGZpbGUubWFlPic=

> <r_lp_tautomer_probability>
1

> <r_epik_Ionization_Penalty>
0.000811024

> <r_epik_Ionization_Penalty_Charging>
0

> <r_epik_Ionization_Penalty_Neutral>
0.000811024

> <r_epik_State_Penalty>
0.000429598

> <r_epik_Charging_Adjusted_Penalty>
0.000429598

> <i_epik_Tot_Q>
0

> <i_epik_Tot_abs_Q>
0

> <r_epik_Metal_State_Penalty>
-0

> <b_epik_Metal_Only>
0

> <s_lp_Force_Field>
OPLS_2005

> <r_lp_Energy>
40.014

> <b_lp_Chiralities_Consistent>
1

> <s_lp_Variant>
AV-unprocessed.smi:137-2

> <Gold.Version>
5.8.1

> <Gold.Id.Protein>
6NUR|6NUR_protein|mol2

> <Gold.PLP.Fitness>
53.8318

> <Gold.PLP.PLP>
-45.7803

> <Gold.PLP.part.hbond>
-3.0000

> <Gold.PLP.part.metal>
0.0000

> <Gold.PLP.part.buried>
0.0122

> <Gold.PLP.part.nonpolar>
-40.3653

> <Gold.PLP.part.repulsive>
0.1508

> <Gold.PLP.ligand.clash>
0.0000

> <Gold.PLP.ligand.torsion>
0.6674

> <Gold.PLP.Chemscore.Hbond>
2.9329

> <Gold.PLP.Chemscore.CHOScore>
0.0000

> <Gold.PLP.Chemscore.Metal>
0.0000

> <Gold.Chemscore.Hbonds>
donor molecule, donor type, donor heavy atom, donor atom, acceptor molecule, acceptor atom, score
      L1  H    18    40       P1  8028  0.95
      L1  H    20    43       P1  7957  1.00
      P1  H  7997  8009       L1    11  0.98

> <Gold.PLP.Chemscore.Internal.Correction>
0.5875

> <Gold.Rescore>
     Score         DG    S(hbond)    S(metal)    S(lipo)     H(rot)  DE(clash)    DE(int)     intcor
     13.38     -16.30       1.82        0.00     103.24       2.87       1.40       1.52       ----

> <Gold.Chemscore.Fitness>
13.3763

> <Gold.Chemscore.DG>
-16.2993

> <Gold.Chemscore.ZeroCoef>
-5.4800

> <Gold.Chemscore.Hbond>
1.8246

> <Gold.Chemscore.Metal>
0.0000

> <Gold.Chemscore.Lipo>
103.2360

> <Gold.Chemscore.Internal_Hbond>
0.0000

> <Gold.Chemscore.DEClash>
1.3989

> <Gold.Chemscore.DEInternal>
1.5240

> <Gold.Chemscore.Rot>
2.8725

> <Gold.Chemscore.Internal.Correction>
   9.000000E+99

> <Gold.Chemscore.Hbonds>
donor molecule, donor type, donor heavy atom, donor atom, acceptor molecule, acceptor atom, score
      L1  H    18    40       P1  8028  0.20
      L1  H    20    43       P1  7957  0.95
      P1  H  7997  8009       L1    11  0.54

> <Gold.Chemscore.Hbond.Weighted>
-6.0942

> <Gold.Chemscore.Metal.Weighted>
-0.0000

> <Gold.Chemscore.Lipo.Weighted>
-12.0786

> <Gold.Chemscore.Internal_Hbond.Weighted>
0.0000

> <Gold.Chemscore.DEClash.Weighted>
1.3989

> <Gold.Chemscore.DEInternal.Weighted>
1.5240

> <Gold.Chemscore.Rot.Weighted>
7.3535

> <Gold.Chemscore.Internal.Correction.Weighted>
   9.000000E+99

> <Gold.Protein.RotatedTorsions>
[ 6907 6896 6895 6894 ] final  137.22 input  -60.11 | X-H torsion
[ 7974 7965 7964 7962 ] final -130.82 input  175.53 | X-H torsion
[ 8008 7997 7996 7995 ] final -179.74 input   59.86 | X-H torsion
[ 10167 10162 10161 10158 ] final  134.51 input  -65.29 | X-H torsion
[ 10718 10713 10712 10709 ] final -155.34 input   66.30 | X-H torsion
[ 10763 10752 10751 10750 ] final -163.68 input  -60.55 | X-H torsion
[ 11005 11000 10999 10996 ] final   97.19 input  -57.11 | X-H torsion

> <Gold.Protein.ActiveResidues>
 VAL166  LYS551  ARG553  GLY616  TRP617  ASP618  TYR619  PRO620  LYS621  CYS622 
 ASP623  PHE694  ASN695  SER759  ASP760  ASP761  ALA762  ILE779  LEU786  VAL792 
 PHE793  MET794  SER795  GLU796  ALA797  LYS798  CYS799  TRP800  GLU811  SER814 

> <Gold.Protein.RotatedAtoms>
  152.2806  133.5466  159.5494 H   0  0  0  0  0  0  0  0  0  0  0  0  # atno 6907 bound_to 6896
  150.7194  134.0570  159.3827 H   0  0  0  0  0  0  0  0  0  0  0  0  # atno 6908 bound_to 6896
  151.8481  135.0567  160.0506 H   0  0  0  0  0  0  0  0  0  0  0  0  # atno 6909 bound_to 6896
  144.9438  140.7269  143.4830 H   0  0  0  0  0  0  0  0  0  0  0  0  # atno 7974 bound_to 7965
  156.0340  140.1288  157.0228 H   0  0  0  0  0  0  0  0  0  0  0  0  # atno 8008 bound_to 7997
  154.4362  140.1044  156.6211 H   0  0  0  0  0  0  0  0  0  0  0  0  # atno 8009 bound_to 7997
  155.5765  140.3467  155.4531 H   0  0  0  0  0  0  0  0  0  0  0  0  # atno 8010 bound_to 7997
  139.5253  144.6564  151.5150 H   0  0  0  0  0  0  0  0  0  0  0  0  # atno 10167 bound_to 10162
  156.5115  130.8437  151.2648 H   0  0  0  0  0  0  0  0  0  0  0  0  # atno 10718 bound_to 10713
  154.7099  135.3004  154.9212 H   0  0  0  0  0  0  0  0  0  0  0  0  # atno 10763 bound_to 10752
  154.0117  135.6694  153.4770 H   0  0  0  0  0  0  0  0  0  0  0  0  # atno 10764 bound_to 10752
  153.0747  135.5041  154.8292 H   0  0  0  0  0  0  0  0  0  0  0  0  # atno 10765 bound_to 10752
  139.8777  134.8988  156.4271 H   0  0  0  0  0  0  0  0  0  0  0  0  # atno 11005 bound_to 11000
  145.2949  139.1870  143.4720 LP  0  0  0  0  0  0  0  0  0  0  0  0  # atno 17320 bound_to 7965
  146.3296  140.2932  142.8616 LP  0  0  0  0  0  0  0  0  0  0  0  0  # atno 17321 bound_to 7965
  140.6391  143.8925  150.6675 LP  0  0  0  0  0  0  0  0  0  0  0  0  # atno 17342 bound_to 10162
  140.2253  143.3777  152.1609 LP  0  0  0  0  0  0  0  0  0  0  0  0  # atno 17343 bound_to 10162
  157.7450  130.9948  150.2720 LP  0  0  0  0  0  0  0  0  0  0  0  0  # atno 17370 bound_to 10713
  156.3235  130.3789  149.7554 LP  0  0  0  0  0  0  0  0  0  0  0  0  # atno 17371 bound_to 10713
  140.9093  133.7723  155.9773 LP  0  0  0  0  0  0  0  0  0  0  0  0  # atno 17394 bound_to 11000
  140.8564  134.2893  157.5253 LP  0  0  0  0  0  0  0  0  0  0  0  0  # atno 17395 bound_to 11000

$$$$
