AV-unprocessed.smi:2317|AV-procd|sdf|9273|dock3
  -GOLD-   2272012493D 1   1.00000     0.00000
 Structure written by MMmdl.
 37 38  0  0  0  0  0  0  0  0  1 V2000
  145.4854  136.4160  153.0460 O   0  0  0  0  0  0  0  0  0  0  0  0
  144.9112  137.4996  152.9423 C   0  0  0  0  0  0  0  0  0  0  0  0
  145.5563  138.6591  152.7565 N   0  0  0  0  0  0  0  0  0  0  0  0
  147.0046  138.7918  152.6478 C   0  0  0  0  0  0  0  0  0  0  0  0
  147.5973  139.5923  153.8266 C   0  0  2  0  0  0  0  0  0  0  0  0
  147.8254  141.0694  153.4413 C   0  0  0  0  0  0  0  0  0  0  0  0
  148.3582  141.8914  154.6255 C   0  0  0  0  0  0  0  0  0  0  0  0
  149.6492  141.2820  155.1907 C   0  0  0  0  0  0  0  0  0  0  0  0
  149.4425  139.8097  155.5856 C   0  0  0  0  0  0  0  0  0  0  0  0
  148.8864  138.9662  154.4216 C   0  0  2  0  0  0  0  0  0  0  0  0
  149.8872  138.8233  153.4311 O   0  0  0  0  0  0  0  0  0  0  0  0
  143.5825  137.6905  153.0126 N   0  0  0  0  0  0  0  0  0  0  0  0
  142.5491  136.7348  153.2178 C   0  0  0  0  0  0  0  0  0  0  0  0
  142.7107  135.3365  153.0603 C   0  0  0  0  0  0  0  0  0  0  0  0
  141.5985  134.4993  153.2809 C   0  0  0  0  0  0  0  0  0  0  0  0
  140.3780  134.9588  153.6295 N   0  0  0  0  0  0  0  0  0  0  0  0
  140.2241  136.2929  153.7660 C   0  0  0  0  0  0  0  0  0  0  0  0
  141.2698  137.2167  153.5681 C   0  0  0  0  0  0  0  0  0  0  0  0
  141.0453  138.5449  153.7170 F   0  0  0  0  0  0  0  0  0  0  0  0
  145.0112  139.5059  152.6844 H   0  0  0  0  0  0  0  0  0  0  0  0
  147.4685  137.8055  152.5948 H   0  0  0  0  0  0  0  0  0  0  0  0
  147.2316  139.2940  151.7064 H   0  0  0  0  0  0  0  0  0  0  0  0
  146.8471  139.5871  154.6194 H   0  0  0  0  0  0  0  0  0  0  0  0
  148.5273  141.1321  152.6087 H   0  0  0  0  0  0  0  0  0  0  0  0
  146.8925  141.5097  153.0878 H   0  0  0  0  0  0  0  0  0  0  0  0
  148.5393  142.9201  154.3123 H   0  0  0  0  0  0  0  0  0  0  0  0
  147.6017  141.9359  155.4099 H   0  0  0  0  0  0  0  0  0  0  0  0
  150.4445  141.3573  154.4479 H   0  0  0  0  0  0  0  0  0  0  0  0
  149.9825  141.8549  156.0562 H   0  0  0  0  0  0  0  0  0  0  0  0
  150.3793  139.3842  155.9473 H   0  0  0  0  0  0  0  0  0  0  0  0
  148.7457  139.7633  156.4235 H   0  0  0  0  0  0  0  0  0  0  0  0
  148.6679  137.9669  154.7994 H   0  0  0  0  0  0  0  0  0  0  0  0
  149.7794  139.5119  152.7929 H   0  0  0  0  0  0  0  0  0  0  0  0
  143.2720  138.6502  152.9716 H   0  0  0  0  0  0  0  0  0  0  0  0
  143.6487  134.8915  152.7671 H   0  0  0  0  0  0  0  0  0  0  0  0
  141.6912  133.4292  153.1682 H   0  0  0  0  0  0  0  0  0  0  0  0
  139.2373  136.6354  154.0397 H   0  0  0  0  0  0  0  0  0  0  0  0
  1  2  2  0  0  0  0
  2  3  1  0  0  0  0
  2 12  1  0  0  0  0
  3  4  1  0  0  0  0
  3 20  1  0  0  0  0
  4  5  1  0  0  0  0
  4 21  1  0  0  0  0
  4 22  1  0  0  0  0
  5 10  1  0  0  0  0
  5  6  1  0  0  0  0
  5 23  1  0  0  0  0
  6  7  1  0  0  0  0
  6 24  1  0  0  0  0
  6 25  1  0  0  0  0
  7  8  1  0  0  0  0
  7 26  1  0  0  0  0
  7 27  1  0  0  0  0
  8  9  1  0  0  0  0
  8 28  1  0  0  0  0
  8 29  1  0  0  0  0
  9 10  1  0  0  0  0
  9 30  1  0  0  0  0
  9 31  1  0  0  0  0
 10 11  1  0  0  0  0
 10 32  1  0  0  0  0
 11 33  1  0  0  0  0
 12 13  1  0  0  0  0
 12 34  1  0  0  0  0
 13 18  1  0  0  0  0
 13 14  2  0  0  0  0
 14 15  1  0  0  0  0
 14 35  1  0  0  0  0
 15 16  2  0  0  0  0
 15 36  1  0  0  0  0
 16 17  1  0  0  0  0
 17 18  2  0  0  0  0
 17 37  1  0  0  0  0
 18 19  1  0  0  0  0
M  END
> <s_m_source_file>
AV-unprocessed.smi

> <i_m_source_file_index>
2317

> <i_lp_mmshare_version>
43012

> <i_f3d_flags>
0

> <s_epik_input>
RmMxW2NIXW5bY0hdW2NIXWMxW05IXUMoPU8pW05IXVtDSDJdW0NAQEhdMltDSDJdW0NIMl1bQ0gyXVtDSDJdW0NASF0yW09IXQ==

> <s_epik_cmdline>
J2VwaWtfcHl0aG9uJywgJy1waCcsICc3LjAnLCAnLXRuJywgJzgnLCAnLW1hJywgJzIwMCcsICctbWV0YWxfYmluZGluZycsICctaW1hZScsICc8aW5maWxlLm1hZT4nLCAnLW9tYWUnLCAnPG91dGZpbGUubWFlPic=

> <r_epik_Ionization_Penalty>
0.00317647

> <r_epik_Ionization_Penalty_Charging>
0

> <r_epik_Ionization_Penalty_Neutral>
0.00317647

> <r_epik_State_Penalty>
0.0022093

> <r_epik_Charging_Adjusted_Penalty>
0.0022093

> <i_epik_Tot_Q>
0

> <i_epik_Tot_abs_Q>
0

> <r_epik_Metal_State_Penalty>
-0

> <b_epik_Metal_Only>
0

> <s_lp_Force_Field>
OPLS_2005

> <r_lp_Energy>
20.2731

> <b_lp_Chiralities_Consistent>
1

> <s_lp_Variant>
AV-unprocessed.smi:2317-3

> <Gold.Version>
5.8.1

> <Gold.Id.Protein>
6NUR|6NUR_protein|mol2

> <Gold.PLP.Fitness>
47.2357

> <Gold.PLP.PLP>
-34.7978

> <Gold.PLP.part.hbond>
-5.4771

> <Gold.PLP.part.metal>
0.0000

> <Gold.PLP.part.buried>
-2.7123

> <Gold.PLP.part.nonpolar>
-28.0710

> <Gold.PLP.part.repulsive>
0.3713

> <Gold.PLP.ligand.clash>
0.0000

> <Gold.PLP.ligand.torsion>
0.6480

> <Gold.PLP.Chemscore.Hbond>
3.5756

> <Gold.PLP.Chemscore.CHOScore>
0.9980

> <Gold.PLP.Chemscore.Metal>
0.0000

> <Gold.Chemscore.Hbonds>
donor molecule, donor type, donor heavy atom, donor atom, acceptor molecule, acceptor atom, score
      L1  H     3    20       P1 10175  1.00
      L1  H    11    33       P1  7957  1.00
      L1  H    12    34       P1 10175  0.98
      P1  H 11000 11005       L1    16  0.53
      L1  C    15    36       P1 10957  0.99

> <Gold.PLP.Chemscore.Internal.Correction>
0.0131

> <Gold.Rescore>
     Score         DG    S(hbond)    S(metal)    S(lipo)     H(rot)  DE(clash)    DE(int)     intcor
     17.42     -19.71       2.95        0.00      76.45       1.79       0.56       1.73       ----

> <Gold.Chemscore.Fitness>
17.4196

> <Gold.Chemscore.DG>
-19.7105

> <Gold.Chemscore.ZeroCoef>
-5.4800

> <Gold.Chemscore.Hbond>
2.9510

> <Gold.Chemscore.Metal>
0.0000

> <Gold.Chemscore.Lipo>
76.4498

> <Gold.Chemscore.Internal_Hbond>
0.0000

> <Gold.Chemscore.DEClash>
0.5566

> <Gold.Chemscore.DEInternal>
1.7343

> <Gold.Chemscore.Rot>
1.7853

> <Gold.Chemscore.Internal.Correction>
   9.000000E+99

> <Gold.Chemscore.Hbonds>
donor molecule, donor type, donor heavy atom, donor atom, acceptor molecule, acceptor atom, score
      L1  H     3    20       P1 10175  0.99
      L1  H    11    33       P1  7957  0.94
      L1  H    12    34       P1 10175  0.93
      P1  H 11000 11005       L1    16  0.05

> <Gold.Chemscore.Hbond.Weighted>
-9.8563

> <Gold.Chemscore.Metal.Weighted>
-0.0000

> <Gold.Chemscore.Lipo.Weighted>
-8.9446

> <Gold.Chemscore.Internal_Hbond.Weighted>
0.0000

> <Gold.Chemscore.DEClash.Weighted>
0.5566

> <Gold.Chemscore.DEInternal.Weighted>
1.7343

> <Gold.Chemscore.Rot.Weighted>
4.5704

> <Gold.Chemscore.Internal.Correction.Weighted>
   9.000000E+99

> <Gold.Protein.RotatedTorsions>
[ 6907 6896 6895 6894 ] final  168.60 input  -60.11 | X-H torsion
[ 7974 7965 7964 7962 ] final -153.59 input  175.53 | X-H torsion
[ 8008 7997 7996 7995 ] final  -63.30 input   59.86 | X-H torsion
[ 10167 10162 10161 10158 ] final   88.96 input  -65.29 | X-H torsion
[ 10718 10713 10712 10709 ] final   22.01 input   66.30 | X-H torsion
[ 10763 10752 10751 10750 ] final  141.24 input  -60.55 | X-H torsion
[ 11005 11000 10999 10996 ] final   23.00 input  -57.11 | X-H torsion

> <Gold.Protein.ActiveResidues>
 VAL166  LYS551  ARG553  GLY616  TRP617  ASP618  TYR619  PRO620  LYS621  CYS622 
 ASP623  PHE694  ASN695  SER759  ASP760  ASP761  ALA762  ILE779  LEU786  VAL792 
 PHE793  MET794  SER795  GLU796  ALA797  LYS798  CYS799  TRP800  GLU811  SER814 

> <Gold.Protein.RotatedAtoms>
  151.8451  133.3430  159.3655 H   0  0  0  0  0  0  0  0  0  0  0  0  # atno 6907 bound_to 6896
  150.7223  134.5354  159.5730 H   0  0  0  0  0  0  0  0  0  0  0  0  # atno 6908 bound_to 6896
  152.2835  134.7802  160.0443 H   0  0  0  0  0  0  0  0  0  0  0  0  # atno 6909 bound_to 6896
  144.7733  140.4504  143.5892 H   0  0  0  0  0  0  0  0  0  0  0  0  # atno 7974 bound_to 7965
  154.4547  140.0978  156.6721 H   0  0  0  0  0  0  0  0  0  0  0  0  # atno 8008 bound_to 7997
  155.5176  140.3478  155.4382 H   0  0  0  0  0  0  0  0  0  0  0  0  # atno 8009 bound_to 7997
  156.0752  140.1359  156.9768 H   0  0  0  0  0  0  0  0  0  0  0  0  # atno 8010 bound_to 7997
  139.8621  144.6538  150.9046 H   0  0  0  0  0  0  0  0  0  0  0  0  # atno 10167 bound_to 10162
  157.1464  130.6655  149.5997 H   0  0  0  0  0  0  0  0  0  0  0  0  # atno 10718 bound_to 10713
  153.9359  135.2985  155.3444 H   0  0  0  0  0  0  0  0  0  0  0  0  # atno 10763 bound_to 10752
  154.7502  135.4984  153.9279 H   0  0  0  0  0  0  0  0  0  0  0  0  # atno 10764 bound_to 10752
  153.1067  135.6748  153.9679 H   0  0  0  0  0  0  0  0  0  0  0  0  # atno 10765 bound_to 10752
  140.3744  134.1988  155.7665 H   0  0  0  0  0  0  0  0  0  0  0  0  # atno 11005 bound_to 11000
  145.6261  139.1530  143.2995 LP  0  0  0  0  0  0  0  0  0  0  0  0  # atno 17320 bound_to 7965
  146.1894  140.6368  142.9152 LP  0  0  0  0  0  0  0  0  0  0  0  0  # atno 17321 bound_to 7965
  140.7773  143.3735  151.1605 LP  0  0  0  0  0  0  0  0  0  0  0  0  # atno 17342 bound_to 10162
  139.7364  143.8992  152.3036 LP  0  0  0  0  0  0  0  0  0  0  0  0  # atno 17343 bound_to 10162
  155.9778  130.4759  150.6619 LP  0  0  0  0  0  0  0  0  0  0  0  0  # atno 17370 bound_to 10713
  157.4260  131.0843  151.1085 LP  0  0  0  0  0  0  0  0  0  0  0  0  # atno 17371 bound_to 10713
  141.1944  133.8129  157.0759 LP  0  0  0  0  0  0  0  0  0  0  0  0  # atno 17394 bound_to 11000
  140.0527  134.9797  157.1164 LP  0  0  0  0  0  0  0  0  0  0  0  0  # atno 17395 bound_to 11000

$$$$
