#       Name:                AV-unprocessed.smi:3298
#       Creating user name   scv26
#       Creation time:       Fri Mar 27 18:57:46 2020


#       File generated by GOLD software.
#

@<TRIPOS>MOLECULE
AV-unprocessed.smi:3298
    40    41     1
SMALL
NO_CHARGES


@<TRIPOS>ATOM
      1 ****        -5.9417   1.1395   1.1306 C.3            1 S1                 0.0000
      2 ****        -4.5643   1.5993   0.7003 C.ar           1 S1                 0.0000
      3 ****        -3.4389   0.7643   0.8629 C.ar           1 S1                 0.0000
      4 ****        -2.1746   1.2402   0.4579 C.ar           1 S1                 0.0000
      5 ****        -1.0605   0.3721   0.6153 N.am           1 S1                 0.0000
      6 ****         0.2476   0.6805   0.6486 C.2            1 S1                 0.0000
      7 ****         0.7154   1.8182   0.5971 O.2            1 S1                 0.0000
      8 ****         1.0016  -0.4217   0.7646 N.am           1 S1                 0.0000
      9 ****         2.4590  -0.4347   0.8160 C.3            1 S1                 0.0000
     10 ****         2.9557  -1.8021   1.2024 C.2            1 S1                 0.0000
     11 ****         3.7524  -2.3404   0.2817 C.2            1 S1                 0.0000
     12 ****         3.9423  -1.4456  -0.9157 C.3            1 S1                 0.0000
     13 ****         3.5500  -2.1219  -2.2435 C.3            1 S1                 0.0000
     14 ****         2.2034  -2.5548  -2.2339 O.3            1 S1                 0.0000
     15 ****         3.1082  -0.1847  -0.5717 C.3            1 S1                 0.0000
     16 ****        -2.1010   2.5318  -0.1168 C.ar           1 S1                 0.0000
     17 ****        -3.2858   3.2851  -0.2346 C.ar           1 S1                 0.0000
     18 ****        -4.4947   2.8375   0.1656 N.ar           1 S1                 0.0000
     19 ****         2.8174   0.2882   1.5508 H              1 S1                 0.0000
     20 ****         4.9983  -1.1761  -0.9583 H              1 S1                 0.0000
     21 ****        -5.9421   0.0799   1.3880 H              1 S1                 0.0000
     22 ****        -6.6644   1.2931   0.3286 H              1 S1                 0.0000
     23 ****        -6.2716   1.7032   2.0037 H              1 S1                 0.0000
     24 ****        -3.5435  -0.2203   1.2954 H              1 S1                 0.0000
     25 ****        -1.2890  -0.6007   0.7570 H              1 S1                 0.0000
     26 ****         0.5377  -1.3175   0.8021 H              1 S1                 0.0000
     27 ****         2.6861  -2.2684   2.1385 H              1 S1                 0.0000
     28 ****         4.2240  -3.3090   0.3569 H              1 S1                 0.0000
     29 ****         3.6915  -1.4306  -3.0747 H              1 S1                 0.0000
     30 ****         4.1920  -2.9831  -2.4325 H              1 S1                 0.0000
     31 ****         2.0120  -2.9590  -3.0665 H              1 S1                 0.0000
     32 ****         2.3601   0.0209  -1.3392 H              1 S1                 0.0000
     33 ****         3.7534   0.6938  -0.5302 H              1 S1                 0.0000
     34 ****        -1.1745   2.9507  -0.4774 H              1 S1                 0.0000
     35 ****        -3.2621   4.2735  -0.6689 H              1 S1                 0.0000
     36 ****         0.1051   2.6069   0.5240 LP             1 S1                 0.0000
     37 ****         1.7057   1.9535   0.6284 LP             1 S1                 0.0000
     38 ****         1.5983  -1.7714  -2.0924 LP             1 S1                 0.0000
     39 ****         2.0677  -3.2181  -1.4979 LP             1 S1                 0.0000
     40 ****        -5.3127   3.4046   0.0692 LP             1 S1                 0.0000
@<TRIPOS>BOND
    1    1    2 1     
    2    1   21 1     
    3    1   22 1     
    4    1   23 1     
    5    2   18 ar    
    6    2    3 ar    
    7    3    4 ar    
    8    3   24 1     
    9    4    5 1     
   10    4   16 ar    
   11    5    6 am    
   12    5   25 1     
   13    6    7 2     
   14    6    8 am    
   15    8    9 1     
   16    8   26 1     
   17    9   19 1     
   18    9   15 1     
   19    9   10 1     
   20   10   11 2     
   21   10   27 1     
   22   11   12 1     
   23   11   28 1     
   24   12   20 1     
   25   12   13 1     
   26   12   15 1     
   27   13   14 1     
   28   13   29 1     
   29   13   30 1     
   30   14   31 1     
   31   15   32 1     
   32   15   33 1     
   33   16   17 ar    
   34   16   34 1     
   35   17   18 ar    
   36   17   35 1     
   37    7   36 1     
   38    7   37 1     
   39   14   38 1     
   40   14   39 1     
   41   18   40 1     
@<TRIPOS>SUBSTRUCTURE
      1 S1             1
@<TRIPOS>SET
LONE_PAIRS      STATIC     ATOMS    <user>   **** ""
5 36 37 38 39 40
DONOR_HYDROGENS      STATIC     ATOMS    <user>   **** ""
3 25 26 31
ATOM$BLUE        STATIC     ATOMS    COLORGROUP SYSTEM
5 36 37 38 39 40
ATOM$RED        STATIC     ATOMS    COLORGROUP SYSTEM
3 25 26 31
