AV-unprocessed.smi:2252|AV-procd|sdf|9113|dock4
  -GOLD-   2272012313D 1   1.00000     0.00000
 Structure written by MMmdl.
 44 46  0  0  0  0  0  0  0  0  1 V2000
  152.8205  143.1523  161.1114 C   0  0  0  0  0  0  0  0  0  0  0  0
  152.1431  143.4377  159.8610 N   0  0  0  0  0  0  0  0  0  0  0  0
  151.8302  144.6991  159.3719 C   0  0  0  0  0  0  0  0  0  0  0  0
  151.2052  144.5089  158.1632 C   0  0  0  0  0  0  0  0  0  0  0  0
  151.1233  143.1466  157.8951 N   0  0  0  0  0  0  0  0  0  0  0  0
  151.6905  142.5598  158.9449 C   0  0  0  0  0  0  0  0  0  0  0  0
  151.8456  141.0777  159.0860 C   0  0  0  0  0  0  0  0  0  0  0  0
  152.2619  140.4025  157.7689 C   0  0  0  0  0  0  0  0  0  0  0  0
  151.1066  139.8832  157.0477 N   0  0  0  0  0  0  0  0  0  0  0  0
  151.0740  139.6352  155.7289 C   0  0  0  0  0  0  0  0  0  0  0  0
  152.0292  139.8456  154.9800 O   0  0  0  0  0  0  0  0  0  0  0  0
  149.7582  139.0706  155.1643 C   0  0  2  0  0  0  0  0  0  0  0  0
  150.0495  137.7682  154.3870 C   0  0  0  0  0  0  0  0  0  0  0  0
  149.5833  136.4267  154.9126 C   0  0  0  0  0  0  0  0  0  0  0  0
  151.0507  136.7595  154.9152 C   0  0  0  0  0  0  0  0  0  0  0  0
  149.0335  140.0454  154.3120 N   0  0  0  0  0  0  0  0  0  0  0  0
  148.7351  141.3252  154.9532 C   0  0  0  0  0  0  0  0  0  0  0  0
  147.7023  141.9715  154.0281 C   0  0  0  0  0  0  0  0  0  0  0  0
  147.0632  140.8046  153.2814 C   0  0  0  0  0  0  0  0  0  0  0  0
  147.7311  139.5604  153.8655 C   0  0  0  0  0  0  0  0  0  0  0  0
  153.2024  144.0743  161.5506 H   0  0  0  0  0  0  0  0  0  0  0  0
  153.6560  142.4739  160.9369 H   0  0  0  0  0  0  0  0  0  0  0  0
  152.1230  142.6904  161.8103 H   0  0  0  0  0  0  0  0  0  0  0  0
  152.0739  145.6043  159.9084 H   0  0  0  0  0  0  0  0  0  0  0  0
  150.8119  145.2397  157.4722 H   0  0  0  0  0  0  0  0  0  0  0  0
  152.5683  140.8644  159.8742 H   0  0  0  0  0  0  0  0  0  0  0  0
  150.8967  140.6629  159.4283 H   0  0  0  0  0  0  0  0  0  0  0  0
  152.7709  141.1220  157.1269 H   0  0  0  0  0  0  0  0  0  0  0  0
  152.9743  139.5972  157.9578 H   0  0  0  0  0  0  0  0  0  0  0  0
  150.2769  139.6888  157.5895 H   0  0  0  0  0  0  0  0  0  0  0  0
  149.1218  138.8254  156.0174 H   0  0  0  0  0  0  0  0  0  0  0  0
  150.0493  137.8910  153.3049 H   0  0  0  0  0  0  0  0  0  0  0  0
  149.0717  136.4073  155.8728 H   0  0  0  0  0  0  0  0  0  0  0  0
  149.2324  135.6990  154.1839 H   0  0  0  0  0  0  0  0  0  0  0  0
  151.6838  136.2554  154.1878 H   0  0  0  0  0  0  0  0  0  0  0  0
  151.5153  136.9563  155.8795 H   0  0  0  0  0  0  0  0  0  0  0  0
  148.2985  141.1566  155.9395 H   0  0  0  0  0  0  0  0  0  0  0  0
  149.6197  141.9515  155.0739 H   0  0  0  0  0  0  0  0  0  0  0  0
  146.9699  142.5500  154.5918 H   0  0  0  0  0  0  0  0  0  0  0  0
  148.1877  142.6471  153.3227 H   0  0  0  0  0  0  0  0  0  0  0  0
  145.9799  140.7761  153.4030 H   0  0  0  0  0  0  0  0  0  0  0  0
  147.2760  140.8833  152.2144 H   0  0  0  0  0  0  0  0  0  0  0  0
  147.8146  138.7583  153.1315 H   0  0  0  0  0  0  0  0  0  0  0  0
  147.1532  139.1888  154.7139 H   0  0  0  0  0  0  0  0  0  0  0  0
  1  2  1  0  0  0  0
  1 21  1  0  0  0  0
  1 22  1  0  0  0  0
  1 23  1  0  0  0  0
  2  6  1  0  0  0  0
  2  3  1  0  0  0  0
  3  4  2  0  0  0  0
  3 24  1  0  0  0  0
  4  5  1  0  0  0  0
  4 25  1  0  0  0  0
  5  6  2  0  0  0  0
  6  7  1  0  0  0  0
  7  8  1  0  0  0  0
  7 26  1  0  0  0  0
  7 27  1  0  0  0  0
  8  9  1  0  0  0  0
  8 28  1  0  0  0  0
  8 29  1  0  0  0  0
  9 10  1  0  0  0  0
  9 30  1  0  0  0  0
 10 11  2  0  0  0  0
 10 12  1  0  0  0  0
 12 13  1  0  0  0  0
 12 16  1  0  0  0  0
 12 31  1  0  0  0  0
 13 15  1  0  0  0  0
 13 14  1  0  0  0  0
 13 32  1  0  0  0  0
 14 15  1  0  0  0  0
 14 33  1  0  0  0  0
 14 34  1  0  0  0  0
 15 35  1  0  0  0  0
 15 36  1  0  0  0  0
 16 20  1  0  0  0  0
 16 17  1  0  0  0  0
 17 18  1  0  0  0  0
 17 37  1  0  0  0  0
 17 38  1  0  0  0  0
 18 19  1  0  0  0  0
 18 39  1  0  0  0  0
 18 40  1  0  0  0  0
 19 20  1  0  0  0  0
 19 41  1  0  0  0  0
 19 42  1  0  0  0  0
 20 43  1  0  0  0  0
 20 44  1  0  0  0  0
M  END
> <s_m_source_file>
AV-unprocessed.smi

> <i_m_source_file_index>
2252

> <i_lp_mmshare_version>
43012

> <i_f3d_flags>
0

> <s_epik_input>
W0NIM11uMVtjSF1bY0hdbmMxW0NIMl1bQ0gyXVtOSF1DKD1PKVtDQEhdKFtDSF0yW0NIMl1bQ0gyXTIpTjNbQ0gyXVtDSDJdW0NIMl1bQ0gyXTM=

> <s_epik_cmdline>
J2VwaWtfcHl0aG9uJywgJy1waCcsICc3LjAnLCAnLXRuJywgJzgnLCAnLW1hJywgJzIwMCcsICctbWV0YWxfYmluZGluZycsICctaW1hZScsICc8aW5maWxlLm1hZT4nLCAnLW9tYWUnLCAnPG91dGZpbGUubWFlPic=

> <r_epik_Ionization_Penalty>
3.7689

> <r_epik_Ionization_Penalty_Charging>
1.29411

> <r_epik_Ionization_Penalty_Neutral>
2.4748

> <r_epik_State_Penalty>
3.85943

> <r_epik_Charging_Adjusted_Penalty>
5.15353

> <i_epik_Tot_Q>
0

> <i_epik_Tot_abs_Q>
0

> <r_epik_Metal_State_Penalty>
2.88358

> <b_epik_Metal_Only>
1

> <s_lp_Force_Field>
OPLS_2005

> <r_lp_Energy>
30.6984

> <b_lp_Chiralities_Consistent>
1

> <s_lp_Variant>
AV-unprocessed.smi:2252-11

> <Gold.Version>
5.8.1

> <Gold.Id.Protein>
6NUR|6NUR_protein|mol2

> <Gold.PLP.Fitness>
43.0359

> <Gold.PLP.PLP>
-40.2186

> <Gold.PLP.part.hbond>
-1.0000

> <Gold.PLP.part.metal>
0.0000

> <Gold.PLP.part.buried>
-4.5367

> <Gold.PLP.part.nonpolar>
-35.1753

> <Gold.PLP.part.repulsive>
0.3344

> <Gold.PLP.ligand.clash>
0.0000

> <Gold.PLP.ligand.torsion>
1.6534

> <Gold.PLP.Chemscore.Hbond>
0.8800

> <Gold.PLP.Chemscore.CHOScore>
0.7569

> <Gold.PLP.Chemscore.Metal>
0.0000

> <Gold.Chemscore.Hbonds>
donor molecule, donor type, donor heavy atom, donor atom, acceptor molecule, acceptor atom, score
      P1  H  7989  7998       L1    11  0.86
      L1  C     4    25       P1  8028  0.58

> <Gold.PLP.Chemscore.Internal.Correction>
1.2132

> <Gold.Rescore>
     Score         DG    S(hbond)    S(metal)    S(lipo)     H(rot)  DE(clash)    DE(int)     intcor
     13.64     -15.39       0.83        0.00     101.70       1.86       0.09       1.66       ----

> <Gold.Chemscore.Fitness>
13.6446

> <Gold.Chemscore.DG>
-15.3882

> <Gold.Chemscore.ZeroCoef>
-5.4800

> <Gold.Chemscore.Hbond>
0.8311

> <Gold.Chemscore.Metal>
0.0000

> <Gold.Chemscore.Lipo>
101.6991

> <Gold.Chemscore.Internal_Hbond>
0.0000

> <Gold.Chemscore.DEClash>
0.0879

> <Gold.Chemscore.DEInternal>
1.6557

> <Gold.Chemscore.Rot>
1.8619

> <Gold.Chemscore.Internal.Correction>
   9.000000E+99

> <Gold.Chemscore.Hbonds>
donor molecule, donor type, donor heavy atom, donor atom, acceptor molecule, acceptor atom, score
      P1  H  7989  7998       L1    11  0.79

> <Gold.Chemscore.Hbond.Weighted>
-2.7760

> <Gold.Chemscore.Metal.Weighted>
-0.0000

> <Gold.Chemscore.Lipo.Weighted>
-11.8988

> <Gold.Chemscore.Internal_Hbond.Weighted>
0.0000

> <Gold.Chemscore.DEClash.Weighted>
0.0879

> <Gold.Chemscore.DEInternal.Weighted>
1.6557

> <Gold.Chemscore.Rot.Weighted>
4.7665

> <Gold.Chemscore.Internal.Correction.Weighted>
   9.000000E+99

> <Gold.Protein.RotatedTorsions>
[ 6907 6896 6895 6894 ] final  140.38 input  -60.11 | X-H torsion
[ 7974 7965 7964 7962 ] final   74.22 input  175.53 | X-H torsion
[ 8008 7997 7996 7995 ] final  -21.82 input   59.86 | X-H torsion
[ 10167 10162 10161 10158 ] final  108.02 input  -65.29 | X-H torsion
[ 10718 10713 10712 10709 ] final   46.53 input   66.30 | X-H torsion
[ 10763 10752 10751 10750 ] final   72.74 input  -60.55 | X-H torsion
[ 11005 11000 10999 10996 ] final -159.96 input  -57.11 | X-H torsion

> <Gold.Protein.ActiveResidues>
 VAL166  LYS551  ARG553  GLY616  TRP617  ASP618  TYR619  PRO620  LYS621  CYS622 
 ASP623  PHE694  ASN695  SER759  ASP760  ASP761  ALA762  ILE779  LEU786  VAL792 
 PHE793  MET794  SER795  GLU796  ALA797  LYS798  CYS799  TRP800  GLU811  SER814 

> <Gold.Protein.RotatedAtoms>
  152.2437  133.5156  159.5284 H   0  0  0  0  0  0  0  0  0  0  0  0  # atno 6907 bound_to 6896
  150.7072  134.1054  159.3990 H   0  0  0  0  0  0  0  0  0  0  0  0  # atno 6908 bound_to 6896
  151.8975  135.0391  160.0554 H   0  0  0  0  0  0  0  0  0  0  0  0  # atno 6909 bound_to 6896
  145.7310  139.2684  143.1541 H   0  0  0  0  0  0  0  0  0  0  0  0  # atno 7974 bound_to 7965
  154.4682  140.2024  156.0064 H   0  0  0  0  0  0  0  0  0  0  0  0  # atno 8008 bound_to 7997
  156.0964  140.3250  155.7854 H   0  0  0  0  0  0  0  0  0  0  0  0  # atno 8009 bound_to 7997
  155.4871  140.0543  157.2950 H   0  0  0  0  0  0  0  0  0  0  0  0  # atno 8010 bound_to 7997
  139.6880  144.7111  151.1398 H   0  0  0  0  0  0  0  0  0  0  0  0  # atno 10167 bound_to 10162
  157.4491  130.8127  149.7770 H   0  0  0  0  0  0  0  0  0  0  0  0  # atno 10718 bound_to 10713
  153.0477  135.5089  154.7789 H   0  0  0  0  0  0  0  0  0  0  0  0  # atno 10763 bound_to 10752
  154.6675  135.2948  154.9788 H   0  0  0  0  0  0  0  0  0  0  0  0  # atno 10764 bound_to 10752
  154.0617  135.6690  153.4865 H   0  0  0  0  0  0  0  0  0  0  0  0  # atno 10765 bound_to 10752
  140.6368  134.4594  157.5232 H   0  0  0  0  0  0  0  0  0  0  0  0  # atno 11005 bound_to 11000
  146.0537  140.8042  142.9769 LP  0  0  0  0  0  0  0  0  0  0  0  0  # atno 17320 bound_to 7965
  144.6893  140.3092  143.7251 LP  0  0  0  0  0  0  0  0  0  0  0  0  # atno 17321 bound_to 7965
  140.7674  143.5601  150.9109 LP  0  0  0  0  0  0  0  0  0  0  0  0  # atno 17342 bound_to 10162
  139.9277  143.6531  152.3083 LP  0  0  0  0  0  0  0  0  0  0  0  0  # atno 17343 bound_to 10162
  155.9979  130.3897  150.2721 LP  0  0  0  0  0  0  0  0  0  0  0  0  # atno 17370 bound_to 10713
  157.0891  131.0164  151.3128 LP  0  0  0  0  0  0  0  0  0  0  0  0  # atno 17371 bound_to 10713
  139.9095  134.8375  156.1580 LP  0  0  0  0  0  0  0  0  0  0  0  0  # atno 17394 bound_to 11000
  141.0636  133.6830  156.2000 LP  0  0  0  0  0  0  0  0  0  0  0  0  # atno 17395 bound_to 11000

$$$$
