AV-unprocessed.smi:2095|AV-procd|sdf|8555|dock5
  -GOLD-   2272011283D 1   1.00000     0.00000
 Structure written by MMmdl.
 42 43  0  0  0  0  0  0  0  0  2 V2000
  150.2938  144.9961  159.4130 C   0  0  0  0  0  0  0  0  0  0  0  0
  151.7836  144.7464  159.1195 C   0  0  1  0  0  0  0  0  0  0  0  0
  152.5646  144.2771  160.3624 C   0  0  0  0  0  0  0  0  0  0  0  0
  152.2448  142.8149  160.7080 C   0  0  0  0  0  0  0  0  0  0  0  0
  152.4587  141.9032  159.4898 C   0  0  0  0  0  0  0  0  0  0  0  0
  151.6432  142.3717  158.3367 N   0  3  2  0  0  0  0  0  0  0  0  0
  151.5601  141.4289  157.1830 C   0  0  2  0  0  0  0  0  0  0  0  0
  150.6308  141.9952  156.0909 C   0  0  0  0  0  0  0  0  0  0  0  0
  151.2077  139.9787  157.6042 C   0  0  0  0  0  0  0  0  0  0  0  0
  150.9956  139.1142  156.4474 N   0  0  0  0  0  0  0  0  0  0  0  0
  151.7173  139.1385  155.3149 C   0  0  0  0  0  0  0  0  0  0  0  0
  152.6079  139.9581  155.0935 O   0  0  0  0  0  0  0  0  0  0  0  0
  151.4101  138.0483  154.2885 C   0  0  0  0  0  0  0  0  0  0  0  0
  150.8479  136.8798  154.9399 N   0  0  0  0  0  0  0  0  0  0  0  0
  149.6924  136.2399  154.7489 C   0  0  0  0  0  0  0  0  0  0  0  0
  149.5498  135.2266  155.5888 N   0  0  0  0  0  0  0  0  0  0  0  0
  150.7165  135.2681  156.3333 N   0  0  0  0  0  0  0  0  0  0  0  0
  151.4906  136.2473  155.9534 N   0  0  0  0  0  0  0  0  0  0  0  0
  151.9893  143.7650  157.9466 C   0  0  0  0  0  0  0  0  0  0  0  0
  149.7755  144.0820  159.7027 H   0  0  0  0  0  0  0  0  0  0  0  0
  149.7851  145.3981  158.5362 H   0  0  0  0  0  0  0  0  0  0  0  0
  150.1699  145.7176  160.2211 H   0  0  0  0  0  0  0  0  0  0  0  0
  152.2015  145.7079  158.8182 H   0  0  0  0  0  0  0  0  0  0  0  0
  153.6342  144.3700  160.1689 H   0  0  0  0  0  0  0  0  0  0  0  0
  152.3530  144.9231  161.2152 H   0  0  0  0  0  0  0  0  0  0  0  0
  152.8747  142.4841  161.5342 H   0  0  0  0  0  0  0  0  0  0  0  0
  151.2153  142.7291  161.0568 H   0  0  0  0  0  0  0  0  0  0  0  0
  153.5163  141.8962  159.2237 H   0  0  0  0  0  0  0  0  0  0  0  0
  152.1911  140.8822  159.7595 H   0  0  0  0  0  0  0  0  0  0  0  0
  152.5531  141.4037  156.7315 H   0  0  0  0  0  0  0  0  0  0  0  0
  150.7354  141.4456  155.1550 H   0  0  0  0  0  0  0  0  0  0  0  0
  150.8687  143.0369  155.8740 H   0  0  0  0  0  0  0  0  0  0  0  0
  149.5816  141.9444  156.3813 H   0  0  0  0  0  0  0  0  0  0  0  0
  152.0220  139.5455  158.1845 H   0  0  0  0  0  0  0  0  0  0  0  0
  150.3304  139.9607  158.2519 H   0  0  0  0  0  0  0  0  0  0  0  0
  150.2769  138.4098  156.5329 H   0  0  0  0  0  0  0  0  0  0  0  0
  150.7019  138.4189  153.5462 H   0  0  0  0  0  0  0  0  0  0  0  0
  152.3183  137.7606  153.7567 H   0  0  0  0  0  0  0  0  0  0  0  0
  148.9574  136.5212  154.0093 H   0  0  0  0  0  0  0  0  0  0  0  0
  151.3830  144.0821  157.0972 H   0  0  0  0  0  0  0  0  0  0  0  0
  153.0288  143.8015  157.6183 H   0  0  0  0  0  0  0  0  0  0  0  0
  150.6964  142.4305  158.6838 H   0  0  0  0  0  0  0  0  0  0  0  0
  1  2  1  0  0  0  0
  1 20  1  0  0  0  0
  1 21  1  0  0  0  0
  1 22  1  0  0  0  0
  2 19  1  0  0  0  0
  2  3  1  0  0  0  0
  2 23  1  0  0  0  0
  3  4  1  0  0  0  0
  3 24  1  0  0  0  0
  3 25  1  0  0  0  0
  4  5  1  0  0  0  0
  4 26  1  0  0  0  0
  4 27  1  0  0  0  0
  5  6  1  0  0  0  0
  5 28  1  0  0  0  0
  5 29  1  0  0  0  0
  6  7  1  0  0  0  0
  6 19  1  0  0  0  0
  6 42  1  0  0  0  0
  7  8  1  0  0  0  0
  7  9  1  0  0  0  0
  7 30  1  0  0  0  0
  8 31  1  0  0  0  0
  8 32  1  0  0  0  0
  8 33  1  0  0  0  0
  9 10  1  0  0  0  0
  9 34  1  0  0  0  0
  9 35  1  0  0  0  0
 10 11  1  0  0  0  0
 10 36  1  0  0  0  0
 11 12  2  0  0  0  0
 11 13  1  0  0  0  0
 13 14  1  0  0  0  0
 13 37  1  0  0  0  0
 13 38  1  0  0  0  0
 14 18  1  0  0  0  0
 14 15  1  0  0  0  0
 15 16  2  0  0  0  0
 15 39  1  0  0  0  0
 16 17  1  0  0  0  0
 17 18  2  0  0  0  0
 19 40  1  0  0  0  0
 19 41  1  0  0  0  0
M  CHG  1   6   1
M  END
> <s_m_source_file>
AV-unprocessed.smi

> <i_m_source_file_index>
2095

> <i_lp_mmshare_version>
43012

> <i_f3d_flags>
0

> <s_epik_input>
W0NIM11bQ0BASF0xW0NIMl1bQ0gyXVtDSDJdTihbQ0gyXTEpW0NASF0oW0NIM10pW0NIMl1bTkhdQyg9TylbQ0gyXW4yW2NIXW5ubjI=

> <s_epik_cmdline>
J2VwaWtfcHl0aG9uJywgJy1waCcsICc3LjAnLCAnLXRuJywgJzgnLCAnLW1hJywgJzIwMCcsICctbWV0YWxfYmluZGluZycsICctaW1hZScsICc8aW5maWxlLm1hZT4nLCAnLW9tYWUnLCAnPG91dGZpbGUubWFlPic=

> <r_lp_tautomer_probability>
1

> <r_epik_Ionization_Penalty>
0.00268321

> <r_epik_Ionization_Penalty_Charging>
0.00267875

> <r_epik_Ionization_Penalty_Neutral>
4.46125e-06

> <r_epik_State_Penalty>
0.00186642

> <r_epik_Charging_Adjusted_Penalty>
0.00454517

> <i_epik_Tot_Q>
1

> <i_epik_Tot_abs_Q>
1

> <r_epik_Metal_State_Penalty>
-0

> <b_epik_Metal_Only>
0

> <s_lp_Force_Field>
OPLS_2005

> <r_lp_Energy>
25.1095

> <b_lp_Chiralities_Consistent>
1

> <s_lp_Variant>
AV-unprocessed.smi:2095-2

> <Gold.Version>
5.8.1

> <Gold.Id.Protein>
6NUR|6NUR_protein|mol2

> <Gold.PLP.Fitness>
48.1488

> <Gold.PLP.PLP>
-38.7159

> <Gold.PLP.part.hbond>
-3.0000

> <Gold.PLP.part.metal>
0.0000

> <Gold.PLP.part.buried>
-4.9255

> <Gold.PLP.part.nonpolar>
-30.9380

> <Gold.PLP.part.repulsive>
0.1826

> <Gold.PLP.ligand.clash>
0.0000

> <Gold.PLP.ligand.torsion>
0.6215

> <Gold.PLP.Chemscore.Hbond>
2.5187

> <Gold.PLP.Chemscore.CHOScore>
1.0000

> <Gold.PLP.Chemscore.Metal>
0.0000

> <Gold.Chemscore.Hbonds>
donor molecule, donor type, donor heavy atom, donor atom, acceptor molecule, acceptor atom, score
      P1  H  7989  7998       L1    12  0.44
      P1  H  7997  8008       L1    12  1.00
      P1  H 10752 10765       L1    18  0.91
      L1  C    15    39       P1  7948  0.98

> <Gold.PLP.Chemscore.Internal.Correction>
0.1198

> <Gold.Rescore>
     Score         DG    S(hbond)    S(metal)    S(lipo)     H(rot)  DE(clash)    DE(int)     intcor
     13.50     -16.20       1.98        0.00      92.86       2.64       0.67       2.03       ----

> <Gold.Chemscore.Fitness>
13.5036

> <Gold.Chemscore.DG>
-16.2024

> <Gold.Chemscore.ZeroCoef>
-5.4800

> <Gold.Chemscore.Hbond>
1.9837

> <Gold.Chemscore.Metal>
0.0000

> <Gold.Chemscore.Lipo>
92.8643

> <Gold.Chemscore.Internal_Hbond>
0.0000

> <Gold.Chemscore.DEClash>
0.6694

> <Gold.Chemscore.DEInternal>
2.0294

> <Gold.Chemscore.Rot>
2.6439

> <Gold.Chemscore.Internal.Correction>
   9.000000E+99

> <Gold.Chemscore.Hbonds>
donor molecule, donor type, donor heavy atom, donor atom, acceptor molecule, acceptor atom, score
      P1  H  7989  7998       L1    12  0.07
      P1  H  7997  8008       L1    12  0.94
      P1  H 10752 10765       L1    18  0.33

> <Gold.Chemscore.Hbond.Weighted>
-6.6257

> <Gold.Chemscore.Metal.Weighted>
-0.0000

> <Gold.Chemscore.Lipo.Weighted>
-10.8651

> <Gold.Chemscore.Internal_Hbond.Weighted>
0.0000

> <Gold.Chemscore.DEClash.Weighted>
0.6694

> <Gold.Chemscore.DEInternal.Weighted>
2.0294

> <Gold.Chemscore.Rot.Weighted>
6.7685

> <Gold.Chemscore.Internal.Correction.Weighted>
   9.000000E+99

> <Gold.Protein.RotatedTorsions>
[ 6907 6896 6895 6894 ] final  -19.12 input  -60.11 | X-H torsion
[ 7974 7965 7964 7962 ] final -142.66 input  175.53 | X-H torsion
[ 8008 7997 7996 7995 ] final  -18.22 input   59.86 | X-H torsion
[ 10167 10162 10161 10158 ] final   64.91 input  -65.29 | X-H torsion
[ 10718 10713 10712 10709 ] final  -49.95 input   66.30 | X-H torsion
[ 10763 10752 10751 10750 ] final -143.45 input  -60.55 | X-H torsion
[ 11005 11000 10999 10996 ] final  107.46 input  -57.11 | X-H torsion

> <Gold.Protein.ActiveResidues>
 VAL166  LYS551  ARG553  GLY616  TRP617  ASP618  TYR619  PRO620  LYS621  CYS622 
 ASP623  PHE694  ASN695  SER759  ASP760  ASP761  ALA762  ILE779  LEU786  VAL792 
 PHE793  MET794  SER795  GLU796  ALA797  LYS798  CYS799  TRP800  GLU811  SER814 

> <Gold.Protein.RotatedAtoms>
  151.2679  135.0675  159.9122 H   0  0  0  0  0  0  0  0  0  0  0  0  # atno 6907 bound_to 6896
  152.5355  134.0162  159.7971 H   0  0  0  0  0  0  0  0  0  0  0  0  # atno 6908 bound_to 6896
  151.0395  133.5668  159.2683 H   0  0  0  0  0  0  0  0  0  0  0  0  # atno 6909 bound_to 6896
  144.8427  140.5931  143.5442 H   0  0  0  0  0  0  0  0  0  0  0  0  # atno 7974 bound_to 7965
  154.4922  140.2121  155.9525 H   0  0  0  0  0  0  0  0  0  0  0  0  # atno 8008 bound_to 7997
  156.1320  140.3195  155.8332 H   0  0  0  0  0  0  0  0  0  0  0  0  # atno 8009 bound_to 7997
  155.4278  140.0501  157.3011 H   0  0  0  0  0  0  0  0  0  0  0  0  # atno 8010 bound_to 7997
  140.1170  144.4766  150.6943 H   0  0  0  0  0  0  0  0  0  0  0  0  # atno 10167 bound_to 10162
  156.1845  130.4151  149.9459 H   0  0  0  0  0  0  0  0  0  0  0  0  # atno 10718 bound_to 10713
  154.8469  135.3467  154.6189 H   0  0  0  0  0  0  0  0  0  0  0  0  # atno 10763 bound_to 10752
  153.6798  135.6980  153.5126 H   0  0  0  0  0  0  0  0  0  0  0  0  # atno 10764 bound_to 10752
  153.2677  135.4303  155.0913 H   0  0  0  0  0  0  0  0  0  0  0  0  # atno 10765 bound_to 10752
  139.8828  134.9401  156.5823 H   0  0  0  0  0  0  0  0  0  0  0  0  # atno 11005 bound_to 11000
  145.4661  139.1508  143.3840 LP  0  0  0  0  0  0  0  0  0  0  0  0  # atno 17320 bound_to 7965
  146.2717  140.4792  142.8812 LP  0  0  0  0  0  0  0  0  0  0  0  0  # atno 17321 bound_to 7965
  140.6893  143.2367  151.5174 LP  0  0  0  0  0  0  0  0  0  0  0  0  # atno 17342 bound_to 10162
  139.5588  144.2207  152.1658 LP  0  0  0  0  0  0  0  0  0  0  0  0  # atno 17343 bound_to 10162
  156.7219  130.9010  151.3619 LP  0  0  0  0  0  0  0  0  0  0  0  0  # atno 17370 bound_to 10713
  157.6890  130.9214  150.0462 LP  0  0  0  0  0  0  0  0  0  0  0  0  # atno 17371 bound_to 10713
  140.8018  133.8499  155.8733 LP  0  0  0  0  0  0  0  0  0  0  0  0  # atno 17394 bound_to 11000
  140.9586  134.1685  157.4672 LP  0  0  0  0  0  0  0  0  0  0  0  0  # atno 17395 bound_to 11000

$$$$
