AV-unprocessed.smi:2137|AV-procd|sdf|8707|dock9
  -GOLD-   2272011473D 1   1.00000     0.00000
 Structure written by MMmdl.
 50 51  0  0  0  0  0  0  0  0  2 V2000
  149.5911  144.5308  160.0413 C   0  0  0  0  0  0  0  0  0  0  0  0
  150.9950  144.5540  159.4118 C   0  0  1  0  0  0  0  0  0  0  0  0
  152.0980  144.9158  160.4235 C   0  0  0  0  0  0  0  0  0  0  0  0
  152.3871  143.7459  161.3746 C   0  0  0  0  0  0  0  0  0  0  0  0
  152.6907  142.4591  160.5911 C   0  0  0  0  0  0  0  0  0  0  0  0
  151.5830  142.1265  159.6589 N   0  3  2  0  0  0  0  0  0  0  0  0
  151.7737  140.8080  159.0033 C   0  0  0  0  0  0  0  0  0  0  0  0
  150.4520  140.2179  158.4837 C   0  0  0  0  0  0  0  0  0  0  0  0
  150.6356  138.8179  157.8744 C   0  0  0  0  0  0  0  0  0  0  0  0
  149.4130  138.0291  157.9697 N   0  0  0  0  0  0  0  0  0  0  0  0
  149.3658  136.7096  158.2076 C   0  0  0  0  0  0  0  0  0  0  0  0
  150.3702  136.0231  158.4010 O   0  0  0  0  0  0  0  0  0  0  0  0
  147.9672  136.0788  158.2435 C   0  0  0  0  0  0  0  0  0  0  0  0
  147.6059  135.5623  159.5703 N   0  0  0  0  0  0  0  0  0  0  0  0
  147.0502  134.3010  159.6870 C   0  0  0  0  0  0  0  0  0  0  0  0
  146.6767  133.7577  160.8661 C   0  0  0  0  0  0  0  0  0  0  0  0
  146.8472  134.4908  162.1144 C   0  0  0  0  0  0  0  0  0  0  0  0
  146.5007  134.0467  163.2098 O   0  0  0  0  0  0  0  0  0  0  0  0
  147.4338  135.7702  161.9699 N   0  0  0  0  0  0  0  0  0  0  0  0
  147.6137  136.5626  163.1690 C   0  0  0  0  0  0  0  0  0  0  0  0
  147.8054  136.3413  160.7311 C   0  0  0  0  0  0  0  0  0  0  0  0
  148.2779  137.4777  160.6467 O   0  0  0  0  0  0  0  0  0  0  0  0
  151.3324  143.2313  158.6931 C   0  0  0  0  0  0  0  0  0  0  0  0
  149.4953  143.7514  160.7972 H   0  0  0  0  0  0  0  0  0  0  0  0
  148.8276  144.3492  159.2844 H   0  0  0  0  0  0  0  0  0  0  0  0
  149.3591  145.4844  160.5165 H   0  0  0  0  0  0  0  0  0  0  0  0
  150.9785  145.3409  158.6565 H   0  0  0  0  0  0  0  0  0  0  0  0
  153.0113  145.1678  159.8830 H   0  0  0  0  0  0  0  0  0  0  0  0
  151.8235  145.8068  160.9895 H   0  0  0  0  0  0  0  0  0  0  0  0
  153.2296  143.9943  162.0207 H   0  0  0  0  0  0  0  0  0  0  0  0
  151.5348  143.5828  162.0351 H   0  0  0  0  0  0  0  0  0  0  0  0
  153.6202  142.5683  160.0296 H   0  0  0  0  0  0  0  0  0  0  0  0
  152.8404  141.6414  161.2976 H   0  0  0  0  0  0  0  0  0  0  0  0
  152.5052  140.8947  158.1986 H   0  0  0  0  0  0  0  0  0  0  0  0
  152.1926  140.1044  159.7243 H   0  0  0  0  0  0  0  0  0  0  0  0
  149.7320  140.1648  159.3015 H   0  0  0  0  0  0  0  0  0  0  0  0
  150.0166  140.8774  157.7337 H   0  0  0  0  0  0  0  0  0  0  0  0
  150.9511  138.8913  156.8322 H   0  0  0  0  0  0  0  0  0  0  0  0
  151.4255  138.2820  158.4014 H   0  0  0  0  0  0  0  0  0  0  0  0
  148.5399  138.5178  157.8312 H   0  0  0  0  0  0  0  0  0  0  0  0
  147.2466  136.8334  157.9258 H   0  0  0  0  0  0  0  0  0  0  0  0
  147.9006  135.2776  157.5049 H   0  0  0  0  0  0  0  0  0  0  0  0
  146.8991  133.7189  158.7894 H   0  0  0  0  0  0  0  0  0  0  0  0
  146.2425  132.7687  160.8856 H   0  0  0  0  0  0  0  0  0  0  0  0
  148.4376  137.2641  163.0321 H   0  0  0  0  0  0  0  0  0  0  0  0
  147.8697  135.9029  163.9993 H   0  0  0  0  0  0  0  0  0  0  0  0
  146.6722  137.0838  163.3477 H   0  0  0  0  0  0  0  0  0  0  0  0
  150.5194  142.9749  158.0149 H   0  0  0  0  0  0  0  0  0  0  0  0
  152.2191  143.3664  158.0717 H   0  0  0  0  0  0  0  0  0  0  0  0
  150.7537  142.0423  160.2295 H   0  0  0  0  0  0  0  0  0  0  0  0
  1  2  1  0  0  0  0
  1 24  1  0  0  0  0
  1 25  1  0  0  0  0
  1 26  1  0  0  0  0
  2 23  1  0  0  0  0
  2  3  1  0  0  0  0
  2 27  1  0  0  0  0
  3  4  1  0  0  0  0
  3 28  1  0  0  0  0
  3 29  1  0  0  0  0
  4  5  1  0  0  0  0
  4 30  1  0  0  0  0
  4 31  1  0  0  0  0
  5  6  1  0  0  0  0
  5 32  1  0  0  0  0
  5 33  1  0  0  0  0
  6  7  1  0  0  0  0
  6 23  1  0  0  0  0
  6 50  1  0  0  0  0
  7  8  1  0  0  0  0
  7 34  1  0  0  0  0
  7 35  1  0  0  0  0
  8  9  1  0  0  0  0
  8 36  1  0  0  0  0
  8 37  1  0  0  0  0
  9 10  1  0  0  0  0
  9 38  1  0  0  0  0
  9 39  1  0  0  0  0
 10 11  1  0  0  0  0
 10 40  1  0  0  0  0
 11 12  2  0  0  0  0
 11 13  1  0  0  0  0
 13 14  1  0  0  0  0
 13 41  1  0  0  0  0
 13 42  1  0  0  0  0
 14 21  1  0  0  0  0
 14 15  1  0  0  0  0
 15 16  2  0  0  0  0
 15 43  1  0  0  0  0
 16 17  1  0  0  0  0
 16 44  1  0  0  0  0
 17 18  2  0  0  0  0
 17 19  1  0  0  0  0
 19 20  1  0  0  0  0
 19 21  1  0  0  0  0
 20 45  1  0  0  0  0
 20 46  1  0  0  0  0
 20 47  1  0  0  0  0
 21 22  2  0  0  0  0
 23 48  1  0  0  0  0
 23 49  1  0  0  0  0
M  CHG  1   6   1
M  END
> <s_m_source_file>
AV-unprocessed.smi

> <i_m_source_file_index>
2137

> <i_lp_mmshare_version>
43012

> <i_f3d_flags>
0

> <s_epik_input>
W0NIM11bQ0BASF0xW0NIMl1bQ0gyXVtDSDJdTihbQ0gyXTEpW0NIMl1bQ0gyXVtDSDJdW05IXUMoPU8pW0NIMl1uMltjSF1bY0hdYyg9TyluKFtDSDNdKWMyPU8=

> <s_epik_cmdline>
J2VwaWtfcHl0aG9uJywgJy1waCcsICc3LjAnLCAnLXRuJywgJzgnLCAnLW1hJywgJzIwMCcsICctbWV0YWxfYmluZGluZycsICctaW1hZScsICc8aW5maWxlLm1hZT4nLCAnLW9tYWUnLCAnPG91dGZpbGUubWFlPic=

> <r_lp_tautomer_probability>
1

> <r_epik_Ionization_Penalty>
0.000384839

> <r_epik_Ionization_Penalty_Charging>
0.000384812

> <r_epik_Ionization_Penalty_Neutral>
2.6907e-08

> <r_epik_State_Penalty>
0.000235226

> <r_epik_Charging_Adjusted_Penalty>
0.000620038

> <i_epik_Tot_Q>
1

> <i_epik_Tot_abs_Q>
1

> <r_epik_Metal_State_Penalty>
-0

> <b_epik_Metal_Only>
0

> <s_lp_Force_Field>
OPLS_2005

> <r_lp_Energy>
27.4749

> <b_lp_Chiralities_Consistent>
1

> <s_lp_Variant>
AV-unprocessed.smi:2137-2

> <Gold.Version>
5.8.1

> <Gold.Id.Protein>
6NUR|6NUR_protein|mol2

> <Gold.PLP.Fitness>
49.7272

> <Gold.PLP.PLP>
-45.2585

> <Gold.PLP.part.hbond>
-3.8810

> <Gold.PLP.part.metal>
0.0000

> <Gold.PLP.part.buried>
-5.8903

> <Gold.PLP.part.nonpolar>
-36.1129

> <Gold.PLP.part.repulsive>
0.2158

> <Gold.PLP.ligand.clash>
0.0000

> <Gold.PLP.ligand.torsion>
0.6626

> <Gold.PLP.Chemscore.Hbond>
1.9200

> <Gold.PLP.Chemscore.CHOScore>
0.0000

> <Gold.PLP.Chemscore.Metal>
0.0000

> <Gold.Chemscore.Hbonds>
donor molecule, donor type, donor heavy atom, donor atom, acceptor molecule, acceptor atom, score
      P1  H  6896  6908       L1    12  0.90
      P1  H  6931  6943       L1    22  0.67
      P1  H  6934  6947       L1    22  0.54

> <Gold.PLP.Chemscore.Internal.Correction>
0.0339

> <Gold.Rescore>
     Score         DG    S(hbond)    S(metal)    S(lipo)     H(rot)  DE(clash)    DE(int)     intcor
     16.34     -18.37       2.30        0.00      94.45       2.27       0.20       1.83       ----

> <Gold.Chemscore.Fitness>
16.3351

> <Gold.Chemscore.DG>
-18.3726

> <Gold.Chemscore.ZeroCoef>
-5.4800

> <Gold.Chemscore.Hbond>
2.2951

> <Gold.Chemscore.Metal>
0.0000

> <Gold.Chemscore.Lipo>
94.4476

> <Gold.Chemscore.Internal_Hbond>
0.0000

> <Gold.Chemscore.DEClash>
0.2039

> <Gold.Chemscore.DEInternal>
1.8336

> <Gold.Chemscore.Rot>
2.2748

> <Gold.Chemscore.Internal.Correction>
   9.000000E+99

> <Gold.Chemscore.Hbonds>
donor molecule, donor type, donor heavy atom, donor atom, acceptor molecule, acceptor atom, score
      P1  H  6896  6908       L1    12  0.88
      P1  H  6931  6943       L1    22  0.66
      P1  H  6934  6947       L1    22  0.53

> <Gold.Chemscore.Hbond.Weighted>
-7.6656

> <Gold.Chemscore.Metal.Weighted>
-0.0000

> <Gold.Chemscore.Lipo.Weighted>
-11.0504

> <Gold.Chemscore.Internal_Hbond.Weighted>
0.0000

> <Gold.Chemscore.DEClash.Weighted>
0.2039

> <Gold.Chemscore.DEInternal.Weighted>
1.8336

> <Gold.Chemscore.Rot.Weighted>
5.8234

> <Gold.Chemscore.Internal.Correction.Weighted>
   9.000000E+99

> <Gold.Protein.RotatedTorsions>
[ 6907 6896 6895 6894 ] final -170.87 input  -60.11 | X-H torsion
[ 7974 7965 7964 7962 ] final  150.99 input  175.53 | X-H torsion
[ 8008 7997 7996 7995 ] final -166.91 input   59.86 | X-H torsion
[ 10167 10162 10161 10158 ] final  -61.19 input  -65.29 | X-H torsion
[ 10718 10713 10712 10709 ] final  142.00 input   66.30 | X-H torsion
[ 10763 10752 10751 10750 ] final    3.15 input  -60.55 | X-H torsion
[ 11005 11000 10999 10996 ] final -174.36 input  -57.11 | X-H torsion

> <Gold.Protein.ActiveResidues>
 VAL166  LYS551  ARG553  GLY616  TRP617  ASP618  TYR619  PRO620  LYS621  CYS622 
 ASP623  PHE694  ASN695  SER759  ASP760  ASP761  ALA762  ILE779  LEU786  VAL792 
 PHE793  MET794  SER795  GLU796  ALA797  LYS798  CYS799  TRP800  GLU811  SER814 

> <Gold.Protein.RotatedAtoms>
  151.5147  133.3478  159.2890 H   0  0  0  0  0  0  0  0  0  0  0  0  # atno 6907 bound_to 6896
  150.8690  134.8062  159.7151 H   0  0  0  0  0  0  0  0  0  0  0  0  # atno 6908 bound_to 6896
  152.4685  134.5028  159.9782 H   0  0  0  0  0  0  0  0  0  0  0  0  # atno 6909 bound_to 6896
  144.8324  139.6480  143.6053 H   0  0  0  0  0  0  0  0  0  0  0  0  # atno 7974 bound_to 7965
  155.8704  140.0992  157.1554 H   0  0  0  0  0  0  0  0  0  0  0  0  # atno 8008 bound_to 7997
  154.3996  140.1348  156.4134 H   0  0  0  0  0  0  0  0  0  0  0  0  # atno 8009 bound_to 7997
  155.7757  140.3460  155.5273 H   0  0  0  0  0  0  0  0  0  0  0  0  # atno 8010 bound_to 7997
  140.6022  143.2364  151.5903 H   0  0  0  0  0  0  0  0  0  0  0  0  # atno 10167 bound_to 10162
  157.3855  131.0998  151.0697 H   0  0  0  0  0  0  0  0  0  0  0  0  # atno 10718 bound_to 10713
  153.2869  135.6945  153.7331 H   0  0  0  0  0  0  0  0  0  0  0  0  # atno 10763 bound_to 10752
  153.6297  135.3412  155.3038 H   0  0  0  0  0  0  0  0  0  0  0  0  # atno 10764 bound_to 10752
  154.8512  135.4406  154.1939 H   0  0  0  0  0  0  0  0  0  0  0  0  # atno 10765 bound_to 10752
  140.4753  134.6126  157.4898 H   0  0  0  0  0  0  0  0  0  0  0  0  # atno 11005 bound_to 11000
  146.2626  139.6446  142.9351 LP  0  0  0  0  0  0  0  0  0  0  0  0  # atno 17320 bound_to 7965
  145.4866  141.0438  143.2616 LP  0  0  0  0  0  0  0  0  0  0  0  0  # atno 17321 bound_to 7965
  139.5299  144.2947  152.1123 LP  0  0  0  0  0  0  0  0  0  0  0  0  # atno 17342 bound_to 10162
  140.2130  144.4543  150.6377 LP  0  0  0  0  0  0  0  0  0  0  0  0  # atno 17343 bound_to 10162
  157.1750  130.6284  149.5653 LP  0  0  0  0  0  0  0  0  0  0  0  0  # atno 17370 bound_to 10713
  155.9786  130.4772  150.6663 LP  0  0  0  0  0  0  0  0  0  0  0  0  # atno 17371 bound_to 10713
  139.9859  134.7062  155.9774 LP  0  0  0  0  0  0  0  0  0  0  0  0  # atno 17394 bound_to 11000
  141.1557  133.6543  156.4154 LP  0  0  0  0  0  0  0  0  0  0  0  0  # atno 17395 bound_to 11000

$$$$
