AV-unprocessed.smi:3058|AV-procd|sdf|11673|dock3
  -GOLD-   2272017 73D 1   1.00000     0.00000
 Structure written by MMmdl.
 39 41  0  0  0  0  0  0  0  0  2 V2000
  151.1487  140.7245  158.0111 O   0  0  0  0  0  0  0  0  0  0  0  0
  150.7981  141.8841  157.7906 C   0  0  0  0  0  0  0  0  0  0  0  0
  150.3249  142.2865  156.6007 N   0  0  0  0  0  0  0  0  0  0  0  0
  150.1545  141.4274  155.4348 C   0  0  0  0  0  0  0  0  0  0  0  0
  148.8225  141.6998  154.7150 C   0  0  0  0  0  0  0  0  0  0  0  0
  148.1206  140.4201  154.3042 C   0  0  0  0  0  0  0  0  0  0  0  0
  146.8012  140.1574  154.7348 C   0  0  0  0  0  0  0  0  0  0  0  0
  146.1699  138.9600  154.3380 C   0  0  0  0  0  0  0  0  0  0  0  0
  146.8731  138.0516  153.5207 C   0  0  0  0  0  0  0  0  0  0  0  0
  148.1342  138.3369  153.1285 N   0  3  0  0  0  0  0  0  0  0  0  0
  148.7732  139.4727  153.4860 C   0  0  0  0  0  0  0  0  0  0  0  0
  150.8849  142.9601  158.8877 C   0  0  2  0  0  0  0  0  0  0  0  0
  150.6561  144.3966  158.3557 C   0  0  0  0  0  0  0  0  0  0  0  0
  151.9186  145.1509  158.8178 C   0  0  1  0  0  0  0  0  0  0  0  0
  151.8953  145.3009  160.3510 C   0  0  0  0  0  0  0  0  0  0  0  0
  152.1845  143.8672  160.8367 C   0  0  0  0  0  0  0  0  0  0  0  0
  152.2966  143.0808  159.5165 C   0  0  2  0  0  0  0  0  0  0  0  0
  153.0037  144.1014  158.6247 C   0  0  0  0  0  0  0  0  0  0  0  0
  150.0556  143.2546  156.5005 H   0  0  0  0  0  0  0  0  0  0  0  0
  150.9958  141.5619  154.7525 H   0  0  0  0  0  0  0  0  0  0  0  0
  150.1900  140.3907  155.7708 H   0  0  0  0  0  0  0  0  0  0  0  0
  148.1625  142.2821  155.3595 H   0  0  0  0  0  0  0  0  0  0  0  0
  148.9885  142.3029  153.8213 H   0  0  0  0  0  0  0  0  0  0  0  0
  146.2777  140.8657  155.3606 H   0  0  0  0  0  0  0  0  0  0  0  0
  145.1611  138.7417  154.6570 H   0  0  0  0  0  0  0  0  0  0  0  0
  146.4681  137.1130  153.1715 H   0  0  0  0  0  0  0  0  0  0  0  0
  149.7793  139.5868  153.1087 H   0  0  0  0  0  0  0  0  0  0  0  0
  150.1518  142.7264  159.6621 H   0  0  0  0  0  0  0  0  0  0  0  0
  150.5742  144.4261  157.2679 H   0  0  0  0  0  0  0  0  0  0  0  0
  149.7464  144.8418  158.7602 H   0  0  0  0  0  0  0  0  0  0  0  0
  152.0855  146.0895  158.2888 H   0  0  0  0  0  0  0  0  0  0  0  0
  152.6761  145.9840  160.6877 H   0  0  0  0  0  0  0  0  0  0  0  0
  150.9393  145.6796  160.7146 H   0  0  0  0  0  0  0  0  0  0  0  0
  153.1252  143.8328  161.3880 H   0  0  0  0  0  0  0  0  0  0  0  0
  151.4018  143.4813  161.4907 H   0  0  0  0  0  0  0  0  0  0  0  0
  152.8214  142.1304  159.6230 H   0  0  0  0  0  0  0  0  0  0  0  0
  153.1222  143.7888  157.5872 H   0  0  0  0  0  0  0  0  0  0  0  0
  153.9767  144.4112  159.0102 H   0  0  0  0  0  0  0  0  0  0  0  0
  148.6250  137.6656  152.5371 H   0  0  0  0  0  0  0  0  0  0  0  0
  1  2  2  0  0  0  0
  2  3  1  0  0  0  0
  2 12  1  0  0  0  0
  3  4  1  0  0  0  0
  3 19  1  0  0  0  0
  4  5  1  0  0  0  0
  4 20  1  0  0  0  0
  4 21  1  0  0  0  0
  5  6  1  0  0  0  0
  5 22  1  0  0  0  0
  5 23  1  0  0  0  0
  6 11  1  0  0  0  0
  6  7  2  0  0  0  0
  7  8  1  0  0  0  0
  7 24  1  0  0  0  0
  8  9  2  0  0  0  0
  8 25  1  0  0  0  0
  9 10  1  0  0  0  0
  9 26  1  0  0  0  0
 10 11  2  0  0  0  0
 10 39  1  0  0  0  0
 11 27  1  0  0  0  0
 12 17  1  0  0  0  0
 12 13  1  0  0  0  0
 12 28  1  0  0  0  0
 13 14  1  0  0  0  0
 13 29  1  0  0  0  0
 13 30  1  0  0  0  0
 14 18  1  0  0  0  0
 14 15  1  0  0  0  0
 14 31  1  0  0  0  0
 15 16  1  0  0  0  0
 15 32  1  0  0  0  0
 15 33  1  0  0  0  0
 16 17  1  0  0  0  0
 16 34  1  0  0  0  0
 16 35  1  0  0  0  0
 17 18  1  0  0  0  0
 17 36  1  0  0  0  0
 18 37  1  0  0  0  0
 18 38  1  0  0  0  0
M  CHG  1  10   1
M  END
> <s_m_source_file>
AV-unprocessed.smi

> <i_m_source_file_index>
3058

> <i_lp_mmshare_version>
43012

> <i_f3d_flags>
0

> <s_epik_input>
W0NIMl0xW0NIMl1bQ0BIXShbQ0gyXTIpW0NAQEhdKFtDSDJdW0NAQEhdMTIpQyg9TylbTkhdW0NIMl1bQ0gyXWMzW2NIXVtjSF1bY0hdbltjSF0z

> <s_epik_cmdline>
J2VwaWtfcHl0aG9uJywgJy1waCcsICc3LjAnLCAnLXRuJywgJzgnLCAnLW1hJywgJzIwMCcsICctbWV0YWxfYmluZGluZycsICctaW1hZScsICc8aW5maWxlLm1hZT4nLCAnLW9tYWUnLCAnPG91dGZpbGUubWFlPic=

> <r_epik_Ionization_Penalty>
2.24375

> <r_epik_Ionization_Penalty_Charging>
2.24375

> <r_epik_Ionization_Penalty_Neutral>
1.89995e-08

> <r_epik_State_Penalty>
2.39035

> <r_epik_Charging_Adjusted_Penalty>
4.63411

> <i_epik_Tot_Q>
1

> <i_epik_Tot_abs_Q>
1

> <r_epik_Metal_State_Penalty>
2.40369

> <b_epik_Metal_Only>
0

> <s_lp_Force_Field>
OPLS_2005

> <r_lp_Energy>
53.6325

> <b_lp_Chiralities_Consistent>
1

> <s_lp_Variant>
AV-unprocessed.smi:3058-5

> <Gold.Version>
5.8.1

> <Gold.Id.Protein>
6NUR|6NUR_protein|mol2

> <Gold.PLP.Fitness>
46.2837

> <Gold.PLP.PLP>
-38.4076

> <Gold.PLP.part.hbond>
-3.0000

> <Gold.PLP.part.metal>
0.0000

> <Gold.PLP.part.buried>
0.4738

> <Gold.PLP.part.nonpolar>
-36.0673

> <Gold.PLP.part.repulsive>
0.1062

> <Gold.PLP.ligand.clash>
0.0000

> <Gold.PLP.ligand.torsion>
0.5787

> <Gold.PLP.Chemscore.Hbond>
3.0000

> <Gold.PLP.Chemscore.CHOScore>
0.0000

> <Gold.PLP.Chemscore.Metal>
0.0000

> <Gold.Chemscore.Hbonds>
donor molecule, donor type, donor heavy atom, donor atom, acceptor molecule, acceptor atom, score
      L1  H     3    19       P1  8028  0.94
      L1  H    10    39       P1  7948  2.00

> <Gold.PLP.Chemscore.Internal.Correction>
0.0334

> <Gold.Rescore>
     Score         DG    S(hbond)    S(metal)    S(lipo)     H(rot)  DE(clash)    DE(int)     intcor
     20.35     -22.68       1.91        0.00     124.28       1.45       1.85       0.48       ----

> <Gold.Chemscore.Fitness>
20.3485

> <Gold.Chemscore.DG>
-22.6790

> <Gold.Chemscore.ZeroCoef>
-5.4800

> <Gold.Chemscore.Hbond>
1.9110

> <Gold.Chemscore.Metal>
0.0000

> <Gold.Chemscore.Lipo>
124.2775

> <Gold.Chemscore.Internal_Hbond>
0.0000

> <Gold.Chemscore.DEClash>
1.8469

> <Gold.Chemscore.DEInternal>
0.4837

> <Gold.Chemscore.Rot>
1.4548

> <Gold.Chemscore.Internal.Correction>
   9.000000E+99

> <Gold.Chemscore.Hbonds>
donor molecule, donor type, donor heavy atom, donor atom, acceptor molecule, acceptor atom, score
      L1  H     3    19       P1  8028  0.87
      L1  H    10    39       P1  7948  0.98

> <Gold.Chemscore.Hbond.Weighted>
-6.3828

> <Gold.Chemscore.Metal.Weighted>
-0.0000

> <Gold.Chemscore.Lipo.Weighted>
-14.5405

> <Gold.Chemscore.Internal_Hbond.Weighted>
0.0000

> <Gold.Chemscore.DEClash.Weighted>
1.8469

> <Gold.Chemscore.DEInternal.Weighted>
0.4837

> <Gold.Chemscore.Rot.Weighted>
3.7242

> <Gold.Chemscore.Internal.Correction.Weighted>
   9.000000E+99

> <Gold.Protein.RotatedTorsions>
[ 6907 6896 6895 6894 ] final  113.88 input  -60.11 | X-H torsion
[ 7974 7965 7964 7962 ] final  -98.99 input  175.53 | X-H torsion
[ 8008 7997 7996 7995 ] final -137.30 input   59.86 | X-H torsion
[ 10167 10162 10161 10158 ] final   50.70 input  -65.29 | X-H torsion
[ 10718 10713 10712 10709 ] final   57.89 input   66.30 | X-H torsion
[ 10763 10752 10751 10750 ] final  152.02 input  -60.55 | X-H torsion
[ 11005 11000 10999 10996 ] final   81.56 input  -57.11 | X-H torsion

> <Gold.Protein.ActiveResidues>
 VAL166  LYS551  ARG553  GLY616  TRP617  ASP618  TYR619  PRO620  LYS621  CYS622 
 ASP623  PHE694  ASN695  SER759  ASP760  ASP761  ALA762  ILE779  LEU786  VAL792 
 PHE793  MET794  SER795  GLU796  ALA797  LYS798  CYS799  TRP800  GLU811  SER814 

> <Gold.Protein.RotatedAtoms>
  152.4835  133.8314  159.7104 H   0  0  0  0  0  0  0  0  0  0  0  0  # atno 6907 bound_to 6896
  150.8903  133.7243  159.2913 H   0  0  0  0  0  0  0  0  0  0  0  0  # atno 6908 bound_to 6896
  151.4718  135.1050  159.9805 H   0  0  0  0  0  0  0  0  0  0  0  0  # atno 6909 bound_to 6896
  145.3134  140.9405  143.2757 H   0  0  0  0  0  0  0  0  0  0  0  0  # atno 7974 bound_to 7965
  155.4095  140.0511  157.3032 H   0  0  0  0  0  0  0  0  0  0  0  0  # atno 8008 bound_to 7997
  154.4953  140.2136  155.9421 H   0  0  0  0  0  0  0  0  0  0  0  0  # atno 8009 bound_to 7997
  156.1397  140.3156  155.8481 H   0  0  0  0  0  0  0  0  0  0  0  0  # atno 8010 bound_to 7997
  140.2697  144.3279  150.6293 H   0  0  0  0  0  0  0  0  0  0  0  0  # atno 10167 bound_to 10162
  157.5551  130.8794  149.9024 H   0  0  0  0  0  0  0  0  0  0  0  0  # atno 10718 bound_to 10713
  154.1132  135.2837  155.3225 H   0  0  0  0  0  0  0  0  0  0  0  0  # atno 10763 bound_to 10752
  154.6475  135.5381  153.7865 H   0  0  0  0  0  0  0  0  0  0  0  0  # atno 10764 bound_to 10752
  153.0338  135.6501  154.1290 H   0  0  0  0  0  0  0  0  0  0  0  0  # atno 10765 bound_to 10752
  139.9094  134.8006  156.2058 H   0  0  0  0  0  0  0  0  0  0  0  0  # atno 11005 bound_to 11000
  144.8997  139.4665  143.6638 LP  0  0  0  0  0  0  0  0  0  0  0  0  # atno 17320 bound_to 7965
  146.3109  139.7744  142.9020 LP  0  0  0  0  0  0  0  0  0  0  0  0  # atno 17321 bound_to 7965
  140.5899  143.2168  151.7271 LP  0  0  0  0  0  0  0  0  0  0  0  0  # atno 17342 bound_to 10162
  139.4992  144.3954  152.0237 LP  0  0  0  0  0  0  0  0  0  0  0  0  # atno 17343 bound_to 10162
  156.0611  130.3699  150.0979 LP  0  0  0  0  0  0  0  0  0  0  0  0  # atno 17370 bound_to 10713
  156.9148  130.9664  151.3557 LP  0  0  0  0  0  0  0  0  0  0  0  0  # atno 17371 bound_to 10713
  141.0496  133.6895  156.1748 LP  0  0  0  0  0  0  0  0  0  0  0  0  # atno 17394 bound_to 11000
  140.6830  134.4747  157.5589 LP  0  0  0  0  0  0  0  0  0  0  0  0  # atno 17395 bound_to 11000

$$$$
