AV-unprocessed.smi:287|AV-procd|sdf|2198|dock3
  -GOLD-   2262022 03D 1   1.00000     0.00000
 Structure written by MMmdl.
 55 58  0  0  0  0  0  0  0  0  1 V2000
  142.0823  135.6872  162.9754 C   0  0  0  0  0  0  0  0  0  0  0  0
  143.5253  135.5210  162.6432 C   0  0  0  0  0  0  0  0  0  0  0  0
  144.5125  136.3842  162.2672 C   0  0  0  0  0  0  0  0  0  0  0  0
  145.7064  135.6202  162.1009 C   0  0  0  0  0  0  0  0  0  0  0  0
  147.0688  136.1566  161.6828 C   0  0  2  0  0  0  0  0  0  0  0  0
  148.0055  136.1942  162.9012 C   0  0  0  0  0  0  0  0  0  0  0  0
  147.0089  137.4892  161.2114 O   0  0  0  0  0  0  0  0  0  0  0  0
  147.7112  135.3313  160.5437 C   0  0  0  0  0  0  0  0  0  0  0  0
  146.8267  135.1604  159.3979 N   0  0  0  0  0  0  0  0  0  0  0  0
  147.3181  135.1054  158.1424 C   0  0  0  0  0  0  0  0  0  0  0  0
  148.5692  135.6001  157.9848 N   0  0  0  0  0  0  0  0  0  0  0  0
  149.1485  135.5937  156.7813 C   0  0  0  0  0  0  0  0  0  0  0  0
  148.6611  135.1441  155.6236 N   0  0  0  0  0  0  0  0  0  0  0  0
  147.4009  134.6430  155.7743 C   0  0  0  0  0  0  0  0  0  0  0  0
  146.6598  134.5840  156.9890 C   0  0  0  0  0  0  0  0  0  0  0  0
  145.4215  134.0019  156.7387 N   0  0  0  0  0  0  0  0  0  0  0  0
  145.4370  133.7386  155.4604 C   0  0  0  0  0  0  0  0  0  0  0  0
  146.5965  134.0885  154.8027 N   0  0  0  0  0  0  0  0  0  0  0  0
  146.9589  133.9304  153.3542 C   0  0  2  0  0  0  0  0  0  0  0  0
  145.7806  133.6987  152.6468 O   0  0  0  0  0  0  0  0  0  0  0  0
  145.6276  132.3163  152.3099 C   0  0  1  0  0  0  0  0  0  0  0  0
  145.6040  132.2504  150.7679 C   0  0  0  0  0  0  0  0  0  0  0  0
  146.8329  132.7150  150.2513 O   0  0  0  0  0  0  0  0  0  0  0  0
  146.8188  131.6029  152.9864 C   0  0  1  0  0  0  0  0  0  0  0  0
  147.3302  130.5128  152.2443 O   0  0  0  0  0  0  0  0  0  0  0  0
  147.8544  132.7050  153.1234 C   0  0  2  0  0  0  0  0  0  0  0  0
  148.7525  132.4371  154.1852 O   0  0  0  0  0  0  0  0  0  0  0  0
  145.3344  134.3262  162.3745 C   0  0  0  0  0  0  0  0  0  0  0  0
  146.0561  133.0193  162.3731 C   0  0  0  0  0  0  0  0  0  0  0  0
  144.0160  134.2581  162.7102 O   0  0  0  0  0  0  0  0  0  0  0  0
  147.4157  134.8800  153.0735 H   0  0  0  0  0  0  0  0  0  0  0  0
  144.6918  131.9257  152.7123 H   0  0  0  0  0  0  0  0  0  0  0  0
  146.5129  131.2497  153.9726 H   0  0  0  0  0  0  0  0  0  0  0  0
  148.3970  132.8525  152.1885 H   0  0  0  0  0  0  0  0  0  0  0  0
  141.8134  136.7426  163.0230 H   0  0  0  0  0  0  0  0  0  0  0  0
  141.8530  135.2369  163.9415 H   0  0  0  0  0  0  0  0  0  0  0  0
  141.4551  135.2120  162.2211 H   0  0  0  0  0  0  0  0  0  0  0  0
  144.3944  137.4494  162.1341 H   0  0  0  0  0  0  0  0  0  0  0  0
  148.1441  135.1977  163.3226 H   0  0  0  0  0  0  0  0  0  0  0  0
  147.6040  136.8309  163.6910 H   0  0  0  0  0  0  0  0  0  0  0  0
  148.9918  136.5779  162.6371 H   0  0  0  0  0  0  0  0  0  0  0  0
  146.1282  137.8100  161.3306 H   0  0  0  0  0  0  0  0  0  0  0  0
  148.6566  135.7757  160.2295 H   0  0  0  0  0  0  0  0  0  0  0  0
  147.9406  134.3360  160.9268 H   0  0  0  0  0  0  0  0  0  0  0  0
  145.8534  135.0046  159.6185 H   0  0  0  0  0  0  0  0  0  0  0  0
  150.1455  136.0067  156.7404 H   0  0  0  0  0  0  0  0  0  0  0  0
  144.5951  133.2778  154.9656 H   0  0  0  0  0  0  0  0  0  0  0  0
  145.4006  131.2395  150.4130 H   0  0  0  0  0  0  0  0  0  0  0  0
  144.8336  132.9018  150.3559 H   0  0  0  0  0  0  0  0  0  0  0  0
  147.4357  131.9885  150.2108 H   0  0  0  0  0  0  0  0  0  0  0  0
  148.1203  130.7955  151.8093 H   0  0  0  0  0  0  0  0  0  0  0  0
  149.6140  132.2999  153.8213 H   0  0  0  0  0  0  0  0  0  0  0  0
  146.5825  132.8704  161.4302 H   0  0  0  0  0  0  0  0  0  0  0  0
  145.3654  132.1863  162.5061 H   0  0  0  0  0  0  0  0  0  0  0  0
  146.7878  132.9817  163.1801 H   0  0  0  0  0  0  0  0  0  0  0  0
  1  2  1  0  0  0  0
  1 35  1  0  0  0  0
  1 36  1  0  0  0  0
  1 37  1  0  0  0  0
  2 30  1  0  0  0  0
  2  3  2  0  0  0  0
  3  4  1  0  0  0  0
  3 38  1  0  0  0  0
  4  5  1  0  0  0  0
  4 28  2  0  0  0  0
  5  6  1  0  0  0  0
  5  7  1  0  0  0  0
  5  8  1  0  0  0  0
  6 39  1  0  0  0  0
  6 40  1  0  0  0  0
  6 41  1  0  0  0  0
  7 42  1  0  0  0  0
  8  9  1  0  0  0  0
  8 43  1  0  0  0  0
  8 44  1  0  0  0  0
  9 10  1  0  0  0  0
  9 45  1  0  0  0  0
 10 15  1  0  0  0  0
 10 11  2  0  0  0  0
 11 12  1  0  0  0  0
 12 13  2  0  0  0  0
 12 46  1  0  0  0  0
 13 14  1  0  0  0  0
 14 18  1  0  0  0  0
 14 15  2  0  0  0  0
 15 16  1  0  0  0  0
 16 17  2  0  0  0  0
 17 18  1  0  0  0  0
 17 47  1  0  0  0  0
 18 19  1  0  0  0  0
 19 31  1  0  0  0  0
 19 26  1  0  0  0  0
 19 20  1  0  0  0  0
 20 21  1  0  0  0  0
 21 32  1  0  0  0  0
 21 22  1  0  0  0  0
 21 24  1  0  0  0  0
 22 23  1  0  0  0  0
 22 48  1  0  0  0  0
 22 49  1  0  0  0  0
 23 50  1  0  0  0  0
 24 33  1  0  0  0  0
 24 25  1  0  0  0  0
 24 26  1  0  0  0  0
 25 51  1  0  0  0  0
 26 34  1  0  0  0  0
 26 27  1  0  0  0  0
 27 52  1  0  0  0  0
 28 29  1  0  0  0  0
 28 30  1  0  0  0  0
 29 53  1  0  0  0  0
 29 54  1  0  0  0  0
 29 55  1  0  0  0  0
M  END
> <s_m_source_file>
AV-unprocessed.smi

> <i_m_source_file_index>
287

> <i_lp_mmshare_version>
43012

> <i_f3d_flags>
0

> <s_epik_input>
W0NIM11jMVtjSF1jKGMobzEpW0NIM10pW0NAQF0oW0NIM10pKFtPSF0pW0NIMl1bTkhdYyhuW2NIXW4yKWMoYzIzKW5bY0hdbjNbQ0BASF00T1tDQEhdKFtDSDJdW09IXSlbQ0BASF0oW09IXSlbQ0BIXTRbT0hd

> <s_epik_cmdline>
J2VwaWtfcHl0aG9uJywgJy1waCcsICc3LjAnLCAnLXRuJywgJzgnLCAnLW1hJywgJzIwMCcsICctbWV0YWxfYmluZGluZycsICctaW1hZScsICc8aW5maWxlLm1hZT4nLCAnLW9tYWUnLCAnPG91dGZpbGUubWFlPic=

> <r_lp_tautomer_probability>
1

> <r_epik_Ionization_Penalty>
0.000992612

> <r_epik_Ionization_Penalty_Charging>
0

> <r_epik_Ionization_Penalty_Neutral>
0.000992612

> <r_epik_State_Penalty>
-0

> <r_epik_Charging_Adjusted_Penalty>
0

> <i_epik_Tot_Q>
0

> <i_epik_Tot_abs_Q>
0

> <r_epik_Metal_State_Penalty>
-0

> <b_epik_Metal_Only>
0

> <s_epik_Chemistry_Notes>
This compound contains an acetal/aminal-like group ( X-CH(R)-Y where X, Y are N, S, or O) that may be acid/base labile, releasing an aldehyde.

> <s_lp_Force_Field>
OPLS_2005

> <r_lp_Energy>
45.8493

> <b_lp_Chiralities_Consistent>
1

> <s_lp_Variant>
AV-unprocessed.smi:287-22

> <Gold.Version>
5.8.1

> <Gold.Id.Protein>
6NUR|6NUR_protein|mol2

> <Gold.PLP.Fitness>
45.1402

> <Gold.PLP.PLP>
-37.0418

> <Gold.PLP.part.hbond>
-3.9292

> <Gold.PLP.part.metal>
0.0000

> <Gold.PLP.part.buried>
-7.6482

> <Gold.PLP.part.nonpolar>
-25.5437

> <Gold.PLP.part.repulsive>
0.2775

> <Gold.PLP.ligand.clash>
0.0000

> <Gold.PLP.ligand.torsion>
1.2663

> <Gold.PLP.Chemscore.Hbond>
2.4727

> <Gold.PLP.Chemscore.CHOScore>
1.0000

> <Gold.PLP.Chemscore.Metal>
0.0000

> <Gold.Chemscore.Hbonds>
donor molecule, donor type, donor heavy atom, donor atom, acceptor molecule, acceptor atom, score
      L1  H    23    50       P1 10747  1.00
      L1  H    25    51       P1 10747  0.91
      P1  H  6931  6943       L1     7  0.28
      L1  C    17    47       P1 10957  1.00

> <Gold.PLP.Chemscore.Internal.Correction>
0.2128

> <Gold.Rescore>
     Score         DG    S(hbond)    S(metal)    S(lipo)     H(rot)  DE(clash)    DE(int)     intcor
      7.66     -10.37       2.54        0.00      84.64       5.27       0.08       2.63       ----

> <Gold.Chemscore.Fitness>
7.6630

> <Gold.Chemscore.DG>
-10.3715

> <Gold.Chemscore.ZeroCoef>
-5.4800

> <Gold.Chemscore.Hbond>
2.5366

> <Gold.Chemscore.Metal>
0.0000

> <Gold.Chemscore.Lipo>
84.6422

> <Gold.Chemscore.Internal_Hbond>
0.0000

> <Gold.Chemscore.DEClash>
0.0776

> <Gold.Chemscore.DEInternal>
2.6309

> <Gold.Chemscore.Rot>
5.2672

> <Gold.Chemscore.Internal.Correction>
   9.000000E+99

> <Gold.Chemscore.Hbonds>
donor molecule, donor type, donor heavy atom, donor atom, acceptor molecule, acceptor atom, score
      L1  H    23    50       P1 10747  1.00
      L1  H    25    51       P1 10747  0.88
      P1  H  6931  6943       L1     7  0.08

> <Gold.Chemscore.Hbond.Weighted>
-8.4723

> <Gold.Chemscore.Metal.Weighted>
-0.0000

> <Gold.Chemscore.Lipo.Weighted>
-9.9031

> <Gold.Chemscore.Internal_Hbond.Weighted>
0.0000

> <Gold.Chemscore.DEClash.Weighted>
0.0776

> <Gold.Chemscore.DEInternal.Weighted>
2.6309

> <Gold.Chemscore.Rot.Weighted>
13.4839

> <Gold.Chemscore.Internal.Correction.Weighted>
   9.000000E+99

> <Gold.Protein.RotatedTorsions>
[ 6907 6896 6895 6894 ] final  -19.66 input  -60.11 | X-H torsion
[ 7974 7965 7964 7962 ] final   40.72 input  175.53 | X-H torsion
[ 8008 7997 7996 7995 ] final  161.22 input   59.86 | X-H torsion
[ 10167 10162 10161 10158 ] final   29.10 input  -65.29 | X-H torsion
[ 10718 10713 10712 10709 ] final -159.65 input   66.30 | X-H torsion
[ 10763 10752 10751 10750 ] final -152.02 input  -60.55 | X-H torsion
[ 11005 11000 10999 10996 ] final   85.62 input  -57.11 | X-H torsion

> <Gold.Protein.ActiveResidues>
 VAL166  LYS551  ARG553  GLY616  TRP617  ASP618  TYR619  PRO620  LYS621  CYS622 
 ASP623  PHE694  ASN695  SER759  ASP760  ASP761  ALA762  ILE779  LEU786  VAL792 
 PHE793  MET794  SER795  GLU796  ALA797  LYS798  CYS799  TRP800  GLU811  SER814 

> <Gold.Protein.RotatedAtoms>
  151.2599  135.0650  159.9093 H   0  0  0  0  0  0  0  0  0  0  0  0  # atno 6907 bound_to 6896
  152.5367  134.0243  159.8006 H   0  0  0  0  0  0  0  0  0  0  0  0  # atno 6908 bound_to 6896
  151.0464  133.5612  159.2677 H   0  0  0  0  0  0  0  0  0  0  0  0  # atno 6909 bound_to 6896
  146.0882  139.5500  142.9493 H   0  0  0  0  0  0  0  0  0  0  0  0  # atno 7974 bound_to 7965
  156.2118  140.1783  156.7678 H   0  0  0  0  0  0  0  0  0  0  0  0  # atno 8008 bound_to 7997
  154.5733  140.0678  156.9027 H   0  0  0  0  0  0  0  0  0  0  0  0  # atno 8009 bound_to 7997
  155.2633  140.3337  155.4274 H   0  0  0  0  0  0  0  0  0  0  0  0  # atno 8010 bound_to 7997
  140.4795  144.0638  150.6261 H   0  0  0  0  0  0  0  0  0  0  0  0  # atno 10167 bound_to 10162
  156.5710  130.8688  151.2838 H   0  0  0  0  0  0  0  0  0  0  0  0  # atno 10718 bound_to 10713
  154.8021  135.3246  154.7524 H   0  0  0  0  0  0  0  0  0  0  0  0  # atno 10763 bound_to 10752
  153.8190  135.6889  153.4834 H   0  0  0  0  0  0  0  0  0  0  0  0  # atno 10764 bound_to 10752
  153.1743  135.4611  154.9888 H   0  0  0  0  0  0  0  0  0  0  0  0  # atno 10765 bound_to 10752
  139.8966  134.8299  156.2607 H   0  0  0  0  0  0  0  0  0  0  0  0  # atno 11005 bound_to 11000
  145.6089  141.0343  143.1977 LP  0  0  0  0  0  0  0  0  0  0  0  0  # atno 17320 bound_to 7965
  144.7341  139.7638  143.7336 LP  0  0  0  0  0  0  0  0  0  0  0  0  # atno 17321 bound_to 7965
  140.3876  143.2769  152.0098 LP  0  0  0  0  0  0  0  0  0  0  0  0  # atno 17342 bound_to 10162
  139.4831  144.6104  151.7444 LP  0  0  0  0  0  0  0  0  0  0  0  0  # atno 17343 bound_to 10162
  157.7348  130.9752  150.2048 LP  0  0  0  0  0  0  0  0  0  0  0  0  # atno 17370 bound_to 10713
  156.2714  130.3722  149.8027 LP  0  0  0  0  0  0  0  0  0  0  0  0  # atno 17371 bound_to 10713
  141.0164  133.7066  156.1196 LP  0  0  0  0  0  0  0  0  0  0  0  0  # atno 17394 bound_to 11000
  140.7295  134.4270  157.5567 LP  0  0  0  0  0  0  0  0  0  0  0  0  # atno 17395 bound_to 11000

$$$$
