AV-unprocessed.smi:107|AV-procd|sdf|1016|dock10
  -GOLD-   2262018 13D 1   1.00000     0.00000
 Structure written by MMmdl.
 31 32  0  0  0  0  0  0  0  0  1 V2000
  151.1299  142.7503  157.8071 C   0  0  0  0  0  0  0  0  0  0  0  0
  151.0589  141.5667  156.8566 C   0  0  0  0  0  0  0  0  0  0  0  0
  150.1903  141.5219  155.8142 C   0  0  0  0  0  0  0  0  0  0  0  0
  150.0989  140.4553  154.9311 N   0  0  0  0  0  0  0  0  0  0  0  0
  149.1056  140.4777  153.7907 C   0  0  1  0  0  0  0  0  0  0  0  0
  148.0938  139.3351  153.9253 C   0  0  0  0  0  0  0  0  0  0  0  0
  146.8437  140.0606  154.3865 C   0  0  2  0  0  0  0  0  0  0  0  0
  145.6785  139.3917  153.9491 O   0  0  0  0  0  0  0  0  0  0  0  0
  147.0048  141.4381  153.7387 C   0  0  1  0  0  0  0  0  0  0  0  0
  146.2286  142.5510  154.4587 C   0  0  0  0  0  0  0  0  0  0  0  0
  144.8666  142.1962  154.5673 O   0  0  0  0  0  0  0  0  0  0  0  0
  148.4046  141.6841  153.8374 O   0  0  0  0  0  0  0  0  0  0  0  0
  150.9399  139.3366  155.1101 C   0  0  0  0  0  0  0  0  0  0  0  0
  150.9056  138.3445  154.3832 O   0  0  0  0  0  0  0  0  0  0  0  0
  151.8351  139.3840  156.1775 N   0  0  0  0  0  0  0  0  0  0  0  0
  151.9642  140.4376  157.0857 C   0  0  0  0  0  0  0  0  0  0  0  0
  152.7944  140.3617  157.9899 O   0  0  0  0  0  0  0  0  0  0  0  0
  152.4405  138.5866  156.3073 H   0  0  0  0  0  0  0  0  0  0  0  0
  150.4226  143.5330  157.5320 H   0  0  0  0  0  0  0  0  0  0  0  0
  152.1295  143.1858  157.8001 H   0  0  0  0  0  0  0  0  0  0  0  0
  150.9003  142.4350  158.8255 H   0  0  0  0  0  0  0  0  0  0  0  0
  149.5338  142.3664  155.6670 H   0  0  0  0  0  0  0  0  0  0  0  0
  149.6669  140.4412  152.8562 H   0  0  0  0  0  0  0  0  0  0  0  0
  147.9515  138.8902  152.9393 H   0  0  0  0  0  0  0  0  0  0  0  0
  148.4318  138.5599  154.6148 H   0  0  0  0  0  0  0  0  0  0  0  0
  146.8372  140.1422  155.4741 H   0  0  0  0  0  0  0  0  0  0  0  0
  145.1169  140.0160  153.5153 H   0  0  0  0  0  0  0  0  0  0  0  0
  146.7292  141.3800  152.6835 H   0  0  0  0  0  0  0  0  0  0  0  0
  146.6129  142.6830  155.4706 H   0  0  0  0  0  0  0  0  0  0  0  0
  146.3347  143.5065  153.9441 H   0  0  0  0  0  0  0  0  0  0  0  0
  144.6859  141.5037  153.9502 H   0  0  0  0  0  0  0  0  0  0  0  0
  1  2  1  0  0  0  0
  1 19  1  0  0  0  0
  1 20  1  0  0  0  0
  1 21  1  0  0  0  0
  2 16  1  0  0  0  0
  2  3  2  0  0  0  0
  3  4  1  0  0  0  0
  3 22  1  0  0  0  0
  4  5  1  0  0  0  0
  4 13  1  0  0  0  0
  5 12  1  0  0  0  0
  5  6  1  0  0  0  0
  5 23  1  0  0  0  0
  6  7  1  0  0  0  0
  6 24  1  0  0  0  0
  6 25  1  0  0  0  0
  7  8  1  0  0  0  0
  7  9  1  0  0  0  0
  7 26  1  0  0  0  0
  8 27  1  0  0  0  0
  9 10  1  0  0  0  0
  9 12  1  0  0  0  0
  9 28  1  0  0  0  0
 10 11  1  0  0  0  0
 10 29  1  0  0  0  0
 10 30  1  0  0  0  0
 11 31  1  0  0  0  0
 13 14  2  0  0  0  0
 13 15  1  0  0  0  0
 15 18  1  0  0  0  0
 15 16  1  0  0  0  0
 16 17  2  0  0  0  0
M  END
> <s_m_source_file>
AV-unprocessed.smi

> <i_m_source_file_index>
107

> <i_lp_mmshare_version>
43012

> <i_f3d_flags>
0

> <s_epik_input>
Tz1jMVtuSF1jKD1PKW4oW2NIXWMxW0NIM10pW0NAQEhdMltDSDJdW0NAQEhdKFtPSF0pW0NASF0oTzIpW0NIMl1bT0hd

> <s_epik_cmdline>
J2VwaWtfcHl0aG9uJywgJy1waCcsICc3LjAnLCAnLXRuJywgJzgnLCAnLW1hJywgJzIwMCcsICctbWV0YWxfYmluZGluZycsICctaW1hZScsICc8aW5maWxlLm1hZT4nLCAnLW9tYWUnLCAnPG91dGZpbGUubWFlPic=

> <r_lp_tautomer_probability>
0.999537

> <r_epik_Ionization_Penalty>
0.00121888

> <r_epik_Ionization_Penalty_Charging>
0.00121876

> <r_epik_Ionization_Penalty_Neutral>
1.19946e-07

> <r_epik_State_Penalty>
0.000805124

> <r_epik_Charging_Adjusted_Penalty>
0.00202389

> <i_epik_Tot_Q>
0

> <i_epik_Tot_abs_Q>
0

> <r_epik_Metal_State_Penalty>
0.662472

> <b_epik_Metal_Only>
0

> <s_epik_Chemistry_Notes>
This compound contains an acetal/aminal-like group ( X-CH(R)-Y where X, Y are N, S, or O) that may be acid/base labile, releasing an aldehyde.

> <s_lp_Force_Field>
OPLS_2005

> <r_lp_Energy>
24.9253

> <b_lp_Chiralities_Consistent>
1

> <s_lp_Variant>
AV-unprocessed.smi:107-4

> <Gold.Version>
5.8.1

> <Gold.Id.Protein>
6NUR|6NUR_protein|mol2

> <Gold.PLP.Fitness>
40.0343

> <Gold.PLP.PLP>
-28.0271

> <Gold.PLP.part.hbond>
-4.1673

> <Gold.PLP.part.metal>
0.0000

> <Gold.PLP.part.buried>
1.5871

> <Gold.PLP.part.nonpolar>
-25.0921

> <Gold.PLP.part.repulsive>
0.4878

> <Gold.PLP.ligand.clash>
0.0000

> <Gold.PLP.ligand.torsion>
0.0359

> <Gold.PLP.Chemscore.Hbond>
3.0234

> <Gold.PLP.Chemscore.CHOScore>
1.0000

> <Gold.PLP.Chemscore.Metal>
0.0000

> <Gold.Chemscore.Hbonds>
donor molecule, donor type, donor heavy atom, donor atom, acceptor molecule, acceptor atom, score
      L1  H     8    27       P1 10175  1.00
      L1  H    11    31       P1 10175  1.00
      P1  H  7997  8008       L1    17  0.87
      P1  H  8011  8017       L1    12  0.15
      L1  C     3    22       P1  8028  1.00

> <Gold.PLP.Chemscore.Internal.Correction>
0.0089

> <Gold.Rescore>
     Score         DG    S(hbond)    S(metal)    S(lipo)     H(rot)  DE(clash)    DE(int)     intcor
      8.99     -10.64       2.17        0.00      41.65       2.73       1.47       0.17       ----

> <Gold.Chemscore.Fitness>
8.9884

> <Gold.Chemscore.DG>
-10.6375

> <Gold.Chemscore.ZeroCoef>
-5.4800

> <Gold.Chemscore.Hbond>
2.1739

> <Gold.Chemscore.Metal>
0.0000

> <Gold.Chemscore.Lipo>
41.6525

> <Gold.Chemscore.Internal_Hbond>
0.0000

> <Gold.Chemscore.DEClash>
1.4745

> <Gold.Chemscore.DEInternal>
0.1746

> <Gold.Chemscore.Rot>
2.7253

> <Gold.Chemscore.Internal.Correction>
   9.000000E+99

> <Gold.Chemscore.Hbonds>
donor molecule, donor type, donor heavy atom, donor atom, acceptor molecule, acceptor atom, score
      L1  H     8    27       P1 10175  0.97
      L1  H    11    31       P1 10175  0.24
      P1  H  7997  8008       L1    17  0.31

> <Gold.Chemscore.Hbond.Weighted>
-7.2610

> <Gold.Chemscore.Metal.Weighted>
-0.0000

> <Gold.Chemscore.Lipo.Weighted>
-4.8733

> <Gold.Chemscore.Internal_Hbond.Weighted>
0.0000

> <Gold.Chemscore.DEClash.Weighted>
1.4745

> <Gold.Chemscore.DEInternal.Weighted>
0.1746

> <Gold.Chemscore.Rot.Weighted>
6.9769

> <Gold.Chemscore.Internal.Correction.Weighted>
   9.000000E+99

> <Gold.Protein.RotatedTorsions>
[ 6907 6896 6895 6894 ] final   15.25 input  -60.11 | X-H torsion
[ 7974 7965 7964 7962 ] final   44.35 input  175.53 | X-H torsion
[ 8008 7997 7996 7995 ] final  -81.30 input   59.86 | X-H torsion
[ 10167 10162 10161 10158 ] final -126.51 input  -65.29 | X-H torsion
[ 10718 10713 10712 10709 ] final    7.38 input   66.30 | X-H torsion
[ 10763 10752 10751 10750 ] final -143.36 input  -60.55 | X-H torsion
[ 11005 11000 10999 10996 ] final  124.89 input  -57.11 | X-H torsion

> <Gold.Protein.ActiveResidues>
 VAL166  LYS551  ARG553  GLY616  TRP617  ASP618  TYR619  PRO620  LYS621  CYS622 
 ASP623  PHE694  ASN695  SER759  ASP760  ASP761  ALA762  ILE779  LEU786  VAL792 
 PHE793  MET794  SER795  GLU796  ALA797  LYS798  CYS799  TRP800  GLU811  SER814 

> <Gold.Protein.RotatedAtoms>
  151.8151  135.0669  160.0417 H   0  0  0  0  0  0  0  0  0  0  0  0  # atno 6907 bound_to 6896
  152.2992  133.5634  159.5616 H   0  0  0  0  0  0  0  0  0  0  0  0  # atno 6908 bound_to 6896
  150.7265  134.0232  159.3750 H   0  0  0  0  0  0  0  0  0  0  0  0  # atno 6909 bound_to 6896
  146.0576  139.5085  142.9678 H   0  0  0  0  0  0  0  0  0  0  0  0  # atno 7974 bound_to 7965
  154.5969  140.0650  156.9316 H   0  0  0  0  0  0  0  0  0  0  0  0  # atno 8008 bound_to 7997
  155.2198  140.3329  155.4299 H   0  0  0  0  0  0  0  0  0  0  0  0  # atno 8009 bound_to 7997
  156.2293  140.1833  156.7267 H   0  0  0  0  0  0  0  0  0  0  0  0  # atno 8010 bound_to 7997
  139.9707  143.5849  152.2414 H   0  0  0  0  0  0  0  0  0  0  0  0  # atno 10167 bound_to 10162
  156.9360  130.5844  149.5651 H   0  0  0  0  0  0  0  0  0  0  0  0  # atno 10718 bound_to 10713
  154.8473  135.3470  154.6175 H   0  0  0  0  0  0  0  0  0  0  0  0  # atno 10763 bound_to 10752
  153.6784  135.6981  153.5130 H   0  0  0  0  0  0  0  0  0  0  0  0  # atno 10764 bound_to 10752
  153.2687  135.4299  155.0923 H   0  0  0  0  0  0  0  0  0  0  0  0  # atno 10765 bound_to 10752
  139.9380  134.9638  156.8476 H   0  0  0  0  0  0  0  0  0  0  0  0  # atno 11005 bound_to 11000
  145.6616  141.0239  143.1706 LP  0  0  0  0  0  0  0  0  0  0  0  0  # atno 17320 bound_to 7965
  144.7157  139.8207  143.7399 LP  0  0  0  0  0  0  0  0  0  0  0  0  # atno 17321 bound_to 7965
  139.6483  144.7659  151.2198 LP  0  0  0  0  0  0  0  0  0  0  0  0  # atno 17342 bound_to 10162
  140.7523  143.6202  150.8521 LP  0  0  0  0  0  0  0  0  0  0  0  0  # atno 17343 bound_to 10162
  156.0425  130.5506  150.8805 LP  0  0  0  0  0  0  0  0  0  0  0  0  # atno 17370 bound_to 10713
  157.5816  131.0946  150.9262 LP  0  0  0  0  0  0  0  0  0  0  0  0  # atno 17371 bound_to 10713
  140.6025  134.0158  155.7543 LP  0  0  0  0  0  0  0  0  0  0  0  0  # atno 17394 bound_to 11000
  141.1002  133.9780  157.3091 LP  0  0  0  0  0  0  0  0  0  0  0  0  # atno 17395 bound_to 11000

$$$$
