AV-unprocessed.smi:757|AV-procd|sdf|3616|dock5
  -GOLD-   22720 1 13D 1   1.00000     0.00000
 Structure written by MMmdl.
 44 45  0  0  0  0  0  0  0  0  1 V2000
  146.0628  129.5113  152.2590 C   0  0  0  0  0  0  0  0  0  0  0  0
  145.5904  130.3107  151.4660 C   0  0  0  0  0  0  0  0  0  0  0  0
  145.0025  131.2693  150.5134 C   0  0  0  0  0  0  0  0  0  0  0  0
  143.8881  132.1556  151.1100 C   0  0  0  0  0  0  0  0  0  0  0  0
  144.3399  133.5027  151.4676 N   0  0  0  0  0  0  0  0  0  0  0  0
  143.4090  134.0693  152.4464 C   0  0  0  0  0  0  0  0  0  0  0  0
  143.9017  135.4451  152.9276 C   0  0  0  0  0  0  0  0  0  0  0  0
  144.0572  136.4177  151.7471 C   0  0  0  0  0  0  0  0  0  0  0  0
  144.6612  137.6742  152.1802 N   0  0  0  0  0  0  0  0  0  0  0  0
  145.9063  137.8091  152.6581 C   0  0  0  0  0  0  0  0  0  0  0  0
  146.6971  136.8723  152.7659 O   0  0  0  0  0  0  0  0  0  0  0  0
  146.1659  139.0886  152.9768 N   0  0  0  0  0  0  0  0  0  0  0  0
  147.3429  139.6406  153.5515 C   0  0  0  0  0  0  0  0  0  0  0  0
  147.5588  141.0241  153.7592 C   0  0  0  0  0  0  0  0  0  0  0  0
  148.7797  141.4458  154.3195 C   0  0  0  0  0  0  0  0  0  0  0  0
  149.7497  140.4783  154.6483 C   0  0  0  0  0  0  0  0  0  0  0  0
  150.9437  140.9004  155.1961 O   0  0  0  0  0  0  0  0  0  0  0  0
  151.8609  139.9151  155.6585 C   0  0  0  0  0  0  0  0  0  0  0  0
  149.5546  139.1525  154.4416 N   0  0  0  0  0  0  0  0  0  0  0  0
  148.3823  138.7552  153.9040 C   0  0  0  0  0  0  0  0  0  0  0  0
  144.9338  135.7617  150.6707 C   0  0  0  0  0  0  0  0  0  0  0  0
  144.3961  134.3720  150.2877 C   0  0  0  0  0  0  0  0  0  0  0  0
  146.4723  128.8110  152.9520 H   0  0  0  0  0  0  0  0  0  0  0  0
  145.8093  131.8606  150.0826 H   0  0  0  0  0  0  0  0  0  0  0  0
  144.5893  130.6812  149.6938 H   0  0  0  0  0  0  0  0  0  0  0  0
  143.0490  132.2221  150.4158 H   0  0  0  0  0  0  0  0  0  0  0  0
  143.5057  131.6577  152.0027 H   0  0  0  0  0  0  0  0  0  0  0  0
  142.4110  134.1536  152.0128 H   0  0  0  0  0  0  0  0  0  0  0  0
  143.3287  133.4022  153.3057 H   0  0  0  0  0  0  0  0  0  0  0  0
  143.2012  135.8495  153.6591 H   0  0  0  0  0  0  0  0  0  0  0  0
  144.8554  135.3274  153.4446 H   0  0  0  0  0  0  0  0  0  0  0  0
  143.0740  136.6162  151.3154 H   0  0  0  0  0  0  0  0  0  0  0  0
  144.0834  138.4995  152.1176 H   0  0  0  0  0  0  0  0  0  0  0  0
  145.4439  139.7565  152.7489 H   0  0  0  0  0  0  0  0  0  0  0  0
  146.8265  141.7687  153.4892 H   0  0  0  0  0  0  0  0  0  0  0  0
  148.9705  142.4952  154.4890 H   0  0  0  0  0  0  0  0  0  0  0  0
  152.7456  140.4074  156.0618 H   0  0  0  0  0  0  0  0  0  0  0  0
  152.1869  139.2613  154.8484 H   0  0  0  0  0  0  0  0  0  0  0  0
  151.4275  139.3093  156.4558 H   0  0  0  0  0  0  0  0  0  0  0  0
  148.2709  137.6913  153.7524 H   0  0  0  0  0  0  0  0  0  0  0  0
  144.9748  136.3969  149.7852 H   0  0  0  0  0  0  0  0  0  0  0  0
  145.9597  135.6647  151.0301 H   0  0  0  0  0  0  0  0  0  0  0  0
  145.0539  133.9459  149.5317 H   0  0  0  0  0  0  0  0  0  0  0  0
  143.4063  134.4597  149.8368 H   0  0  0  0  0  0  0  0  0  0  0  0
  1  2  3  0  0  0  0
  1 23  1  0  0  0  0
  2  3  1  0  0  0  0
  3  4  1  0  0  0  0
  3 24  1  0  0  0  0
  3 25  1  0  0  0  0
  4  5  1  0  0  0  0
  4 26  1  0  0  0  0
  4 27  1  0  0  0  0
  5 22  1  0  0  0  0
  5  6  1  0  0  0  0
  6  7  1  0  0  0  0
  6 28  1  0  0  0  0
  6 29  1  0  0  0  0
  7  8  1  0  0  0  0
  7 30  1  0  0  0  0
  7 31  1  0  0  0  0
  8  9  1  0  0  0  0
  8 21  1  0  0  0  0
  8 32  1  0  0  0  0
  9 10  1  0  0  0  0
  9 33  1  0  0  0  0
 10 11  2  0  0  0  0
 10 12  1  0  0  0  0
 12 13  1  0  0  0  0
 12 34  1  0  0  0  0
 13 20  1  0  0  0  0
 13 14  2  0  0  0  0
 14 15  1  0  0  0  0
 14 35  1  0  0  0  0
 15 16  2  0  0  0  0
 15 36  1  0  0  0  0
 16 17  1  0  0  0  0
 16 19  1  0  0  0  0
 17 18  1  0  0  0  0
 18 37  1  0  0  0  0
 18 38  1  0  0  0  0
 18 39  1  0  0  0  0
 19 20  2  0  0  0  0
 20 40  1  0  0  0  0
 21 22  1  0  0  0  0
 21 41  1  0  0  0  0
 21 42  1  0  0  0  0
 22 43  1  0  0  0  0
 22 44  1  0  0  0  0
M  END
> <s_m_source_file>
AV-unprocessed.smi

> <i_m_source_file_index>
757

> <i_lp_mmshare_version>
43012

> <i_f3d_flags>
0

> <s_epik_input>
W0NIXSNDW0NIMl1bQ0gyXU4xW0NIMl1bQ0gyXVtDSF0oW0NIMl1bQ0gyXTEpW05IXUMoPU8pW05IXWMyW2NIXVtjSF1jKE9bQ0gzXSluW2NIXTI=

> <s_epik_cmdline>
J2VwaWtfcHl0aG9uJywgJy1waCcsICc3LjAnLCAnLXRuJywgJzgnLCAnLW1hJywgJzIwMCcsICctbWV0YWxfYmluZGluZycsICctaW1hZScsICc8aW5maWxlLm1hZT4nLCAnLW9tYWUnLCAnPG91dGZpbGUubWFlPic=

> <r_lp_tautomer_probability>
1

> <r_epik_Ionization_Penalty>
1.61445

> <r_epik_Ionization_Penalty_Charging>
0

> <r_epik_Ionization_Penalty_Neutral>
1.61445

> <r_epik_State_Penalty>
1.71357

> <r_epik_Charging_Adjusted_Penalty>
1.71357

> <i_epik_Tot_Q>
0

> <i_epik_Tot_abs_Q>
0

> <r_epik_Metal_State_Penalty>
1.71356

> <b_epik_Metal_Only>
0

> <s_lp_Force_Field>
OPLS_2005

> <r_lp_Energy>
17.5598

> <b_lp_Chiralities_Consistent>
1

> <s_lp_Variant>
AV-unprocessed.smi:757-3

> <Gold.Version>
5.8.1

> <Gold.Id.Protein>
6NUR|6NUR_protein|mol2

> <Gold.PLP.Fitness>
45.9527

> <Gold.PLP.PLP>
-37.4202

> <Gold.PLP.part.hbond>
-4.0000

> <Gold.PLP.part.metal>
0.0000

> <Gold.PLP.part.buried>
-2.1149

> <Gold.PLP.part.nonpolar>
-35.8080

> <Gold.PLP.part.repulsive>
4.2387

> <Gold.PLP.ligand.clash>
0.0000

> <Gold.PLP.ligand.torsion>
0.5559

> <Gold.PLP.Chemscore.Hbond>
2.2150

> <Gold.PLP.Chemscore.CHOScore>
0.9982

> <Gold.PLP.Chemscore.Metal>
0.0000

> <Gold.Chemscore.Hbonds>
donor molecule, donor type, donor heavy atom, donor atom, acceptor molecule, acceptor atom, score
      L1  H     9    33       P1 10175  1.00
      L1  H    12    34       P1 10175  1.00
      P1  H  7989  7998       L1    17  0.20
      L1  C    20    40       P1  7948  1.00

> <Gold.PLP.Chemscore.Internal.Correction>
0.0045

> <Gold.Rescore>
     Score         DG    S(hbond)    S(metal)    S(lipo)     H(rot)  DE(clash)    DE(int)     intcor
     15.00     -19.49       1.98        0.00      97.33       1.55       1.63       2.87       ----

> <Gold.Chemscore.Fitness>
14.9974

> <Gold.Chemscore.DG>
-19.4927

> <Gold.Chemscore.ZeroCoef>
-5.4800

> <Gold.Chemscore.Hbond>
1.9755

> <Gold.Chemscore.Metal>
0.0000

> <Gold.Chemscore.Lipo>
97.3262

> <Gold.Chemscore.Internal_Hbond>
0.0000

> <Gold.Chemscore.DEClash>
1.6276

> <Gold.Chemscore.DEInternal>
2.8678

> <Gold.Chemscore.Rot>
1.5517

> <Gold.Chemscore.Internal.Correction>
   9.000000E+99

> <Gold.Chemscore.Hbonds>
donor molecule, donor type, donor heavy atom, donor atom, acceptor molecule, acceptor atom, score
      L1  H     9    33       P1 10175  0.93
      L1  H    12    34       P1 10175  0.99

> <Gold.Chemscore.Hbond.Weighted>
-6.5980

> <Gold.Chemscore.Metal.Weighted>
-0.0000

> <Gold.Chemscore.Lipo.Weighted>
-11.3872

> <Gold.Chemscore.Internal_Hbond.Weighted>
0.0000

> <Gold.Chemscore.DEClash.Weighted>
1.6276

> <Gold.Chemscore.DEInternal.Weighted>
2.8678

> <Gold.Chemscore.Rot.Weighted>
3.9725

> <Gold.Chemscore.Internal.Correction.Weighted>
   9.000000E+99

> <Gold.Protein.RotatedTorsions>
[ 6907 6896 6895 6894 ] final -140.60 input  -60.11 | X-H torsion
[ 7974 7965 7964 7962 ] final  156.61 input  175.53 | X-H torsion
[ 8008 7997 7996 7995 ] final   48.98 input   59.86 | X-H torsion
[ 10167 10162 10161 10158 ] final  -20.32 input  -65.29 | X-H torsion
[ 10718 10713 10712 10709 ] final -178.93 input   66.30 | X-H torsion
[ 10763 10752 10751 10750 ] final   91.84 input  -60.55 | X-H torsion
[ 11005 11000 10999 10996 ] final  131.38 input  -57.11 | X-H torsion

> <Gold.Protein.ActiveResidues>
 VAL166  LYS551  ARG553  GLY616  TRP617  ASP618  TYR619  PRO620  LYS621  CYS622 
 ASP623  PHE694  ASN695  SER759  ASP760  ASP761  ALA762  ILE779  LEU786  VAL792 
 PHE793  MET794  SER795  GLU796  ALA797  LYS798  CYS799  TRP800  GLU811  SER814 

> <Gold.Protein.RotatedAtoms>
  151.0628  133.5530  159.2632 H   0  0  0  0  0  0  0  0  0  0  0  0  # atno 6907 bound_to 6896
  151.2499  135.0618  159.9067 H   0  0  0  0  0  0  0  0  0  0  0  0  # atno 6908 bound_to 6896
  152.5400  134.0390  159.8112 H   0  0  0  0  0  0  0  0  0  0  0  0  # atno 6909 bound_to 6896
  144.7952  139.7228  143.6205 H   0  0  0  0  0  0  0  0  0  0  0  0  # atno 7974 bound_to 7965
  155.3946  140.3435  155.4253 H   0  0  0  0  0  0  0  0  0  0  0  0  # atno 8008 bound_to 7997
  156.1538  140.1579  156.8759 H   0  0  0  0  0  0  0  0  0  0  0  0  # atno 8009 bound_to 7997
  154.5076  140.0798  156.7907 H   0  0  0  0  0  0  0  0  0  0  0  0  # atno 8010 bound_to 7997
  140.7275  143.4734  151.0216 H   0  0  0  0  0  0  0  0  0  0  0  0  # atno 10167 bound_to 10162
  156.8515  130.9721  151.3092 H   0  0  0  0  0  0  0  0  0  0  0  0  # atno 10718 bound_to 10713
  153.2126  135.4383  155.0397 H   0  0  0  0  0  0  0  0  0  0  0  0  # atno 10763 bound_to 10752
  154.8208  135.3337  154.7046 H   0  0  0  0  0  0  0  0  0  0  0  0  # atno 10764 bound_to 10752
  153.7483  135.7000  153.5007 H   0  0  0  0  0  0  0  0  0  0  0  0  # atno 10765 bound_to 10752
  139.9727  134.9573  156.9429 H   0  0  0  0  0  0  0  0  0  0  0  0  # atno 11005 bound_to 11000
  146.2218  139.5650  142.9613 LP  0  0  0  0  0  0  0  0  0  0  0  0  # atno 17320 bound_to 7965
  145.5691  141.0396  143.2184 LP  0  0  0  0  0  0  0  0  0  0  0  0  # atno 17321 bound_to 7965
  139.8427  143.7542  152.3180 LP  0  0  0  0  0  0  0  0  0  0  0  0  # atno 17342 bound_to 10162
  139.7696  144.7481  151.0243 LP  0  0  0  0  0  0  0  0  0  0  0  0  # atno 17343 bound_to 10162
  157.6300  130.8722  149.9258 LP  0  0  0  0  0  0  0  0  0  0  0  0  # atno 17370 bound_to 10713
  156.0825  130.3671  150.0551 LP  0  0  0  0  0  0  0  0  0  0  0  0  # atno 17371 bound_to 10713
  140.5260  134.0860  155.7304 LP  0  0  0  0  0  0  0  0  0  0  0  0  # atno 17394 bound_to 11000
  141.1405  133.9146  157.2336 LP  0  0  0  0  0  0  0  0  0  0  0  0  # atno 17395 bound_to 11000

$$$$
