AV-unprocessed.smi:67|AV-procd|sdf|638|dock4
  -GOLD-   2262016533D 1   1.00000     0.00000
 Structure written by MMmdl.
 48 50  0  0  0  0  0  0  0  0  2 V2000
  147.2510  132.4541  150.8173 O   0  0  0  0  0  0  0  0  0  0  0  0
  146.2222  132.0586  151.7041 C   0  0  2  0  0  0  0  0  0  0  0  0
  146.8433  131.2971  152.9056 C   0  0  0  0  0  0  0  0  0  0  0  0
  148.0022  131.9778  153.5509 N   0  3  2  0  0  0  0  0  0  0  0  0
  148.7676  131.0467  154.4224 C   0  0  0  0  0  0  0  0  0  0  0  0
  150.0394  131.7049  154.9841 C   0  0  0  0  0  0  0  0  0  0  0  0
  149.7170  133.0053  155.7445 C   0  0  2  0  0  0  0  0  0  0  0  0
  148.9336  132.7472  156.9080 O   0  0  0  0  0  0  0  0  0  0  0  0
  148.8364  133.6990  157.9025 C   0  0  0  0  0  0  0  0  0  0  0  0
  149.4073  134.9578  157.6266 C   0  0  0  0  0  0  0  0  0  0  0  0
  149.3625  135.9939  158.5774 C   0  0  0  0  0  0  0  0  0  0  0  0
  148.7451  135.7803  159.8231 C   0  0  0  0  0  0  0  0  0  0  0  0
  148.1720  134.5261  160.1232 C   0  0  0  0  0  0  0  0  0  0  0  0
  147.4935  134.2772  161.4621 C   0  0  0  0  0  0  0  0  0  0  0  0
  147.9353  133.1375  161.9945 F   0  0  0  0  0  0  0  0  0  0  0  0
  147.7328  135.2632  162.3275 F   0  0  0  0  0  0  0  0  0  0  0  0
  146.1777  134.1819  161.2753 F   0  0  0  0  0  0  0  0  0  0  0  0
  148.2164  133.4939  159.1612 C   0  0  0  0  0  0  0  0  0  0  0  0
  148.9010  133.9298  154.8309 C   0  0  0  0  0  0  0  0  0  0  0  0
  147.6494  133.2291  154.2742 C   0  0  0  0  0  0  0  0  0  0  0  0
  145.1146  131.2779  150.9674 C   0  0  0  0  0  0  0  0  0  0  0  0
  143.9320  132.2421  150.9013 C   0  0  0  0  0  0  0  0  0  0  0  0
  144.0915  133.1094  152.0556 N   0  0  0  0  0  0  0  0  0  0  0  0
  145.5217  133.3568  152.1586 C   0  0  0  0  0  0  0  0  0  0  0  0
  147.7478  131.6893  150.5686 H   0  0  0  0  0  0  0  0  0  0  0  0
  146.0859  131.0532  153.6525 H   0  0  0  0  0  0  0  0  0  0  0  0
  147.1990  130.3392  152.5227 H   0  0  0  0  0  0  0  0  0  0  0  0
  148.1291  130.7052  155.2389 H   0  0  0  0  0  0  0  0  0  0  0  0
  149.0540  130.1605  153.8549 H   0  0  0  0  0  0  0  0  0  0  0  0
  150.5645  130.9977  155.6253 H   0  0  0  0  0  0  0  0  0  0  0  0
  150.7205  131.9288  154.1619 H   0  0  0  0  0  0  0  0  0  0  0  0
  150.6312  133.5368  156.0096 H   0  0  0  0  0  0  0  0  0  0  0  0
  149.8850  135.1318  156.6734 H   0  0  0  0  0  0  0  0  0  0  0  0
  149.8020  136.9540  158.3505 H   0  0  0  0  0  0  0  0  0  0  0  0
  148.7148  136.5855  160.5419 H   0  0  0  0  0  0  0  0  0  0  0  0
  147.7609  132.5500  159.4162 H   0  0  0  0  0  0  0  0  0  0  0  0
  148.6133  134.8308  155.3740 H   0  0  0  0  0  0  0  0  0  0  0  0
  149.5261  134.2612  154.0005 H   0  0  0  0  0  0  0  0  0  0  0  0
  147.1507  133.9295  153.6083 H   0  0  0  0  0  0  0  0  0  0  0  0
  146.9495  133.0028  155.0802 H   0  0  0  0  0  0  0  0  0  0  0  0
  145.4180  130.9300  149.9790 H   0  0  0  0  0  0  0  0  0  0  0  0
  144.8108  130.4008  151.5396 H   0  0  0  0  0  0  0  0  0  0  0  0
  143.9896  132.8330  149.9859 H   0  0  0  0  0  0  0  0  0  0  0  0
  142.9707  131.7280  150.9057 H   0  0  0  0  0  0  0  0  0  0  0  0
  143.7912  132.6024  152.8818 H   0  0  0  0  0  0  0  0  0  0  0  0
  145.8035  133.6611  153.1669 H   0  0  0  0  0  0  0  0  0  0  0  0
  145.7812  134.1846  151.4961 H   0  0  0  0  0  0  0  0  0  0  0  0
  148.6278  132.2408  152.8027 H   0  0  0  0  0  0  0  0  0  0  0  0
  1  2  1  0  0  0  0
  1 25  1  0  0  0  0
  2 24  1  0  0  0  0
  2  3  1  0  0  0  0
  2 21  1  0  0  0  0
  3  4  1  0  0  0  0
  3 26  1  0  0  0  0
  3 27  1  0  0  0  0
  4 20  1  0  0  0  0
  4  5  1  0  0  0  0
  4 48  1  0  0  0  0
  5  6  1  0  0  0  0
  5 28  1  0  0  0  0
  5 29  1  0  0  0  0
  6  7  1  0  0  0  0
  6 30  1  0  0  0  0
  6 31  1  0  0  0  0
  7  8  1  0  0  0  0
  7 19  1  0  0  0  0
  7 32  1  0  0  0  0
  8  9  1  0  0  0  0
  9 18  1  0  0  0  0
  9 10  2  0  0  0  0
 10 11  1  0  0  0  0
 10 33  1  0  0  0  0
 11 12  2  0  0  0  0
 11 34  1  0  0  0  0
 12 13  1  0  0  0  0
 12 35  1  0  0  0  0
 13 14  1  0  0  0  0
 13 18  2  0  0  0  0
 14 15  1  0  0  0  0
 14 16  1  0  0  0  0
 14 17  1  0  0  0  0
 18 36  1  0  0  0  0
 19 20  1  0  0  0  0
 19 37  1  0  0  0  0
 19 38  1  0  0  0  0
 20 39  1  0  0  0  0
 20 40  1  0  0  0  0
 21 22  1  0  0  0  0
 21 41  1  0  0  0  0
 21 42  1  0  0  0  0
 22 23  1  0  0  0  0
 22 43  1  0  0  0  0
 22 44  1  0  0  0  0
 23 24  1  0  0  0  0
 23 45  1  0  0  0  0
 24 46  1  0  0  0  0
 24 47  1  0  0  0  0
M  CHG  1   4   1
M  END
> <s_m_source_file>
AV-unprocessed.smi

> <i_m_source_file_index>
67

> <i_lp_mmshare_version>
43012

> <i_f3d_flags>
0

> <s_epik_input>
W0NIMl0xW05IXVtDSDJdW0NIMl1bQ0BAXTEoW09IXSlbQ0gyXU4yW0NIMl1bQ0gyXVtDSF0oW0NIMl1bQ0gyXTIpT2MzW2NIXVtjSF1bY0hdYyhDKEYpKEYpRilbY0hdMw==

> <s_epik_cmdline>
J2VwaWtfcHl0aG9uJywgJy1waCcsICc3LjAnLCAnLXRuJywgJzgnLCAnLW1hJywgJzIwMCcsICctbWV0YWxfYmluZGluZycsICctaW1hZScsICc8aW5maWxlLm1hZT4nLCAnLW9tYWUnLCAnPG91dGZpbGUubWFlPic=

> <r_epik_Ionization_Penalty>
2.37709

> <r_epik_Ionization_Penalty_Charging>
0.0305656

> <r_epik_Ionization_Penalty_Neutral>
2.34653

> <r_epik_State_Penalty>
2.56959

> <r_epik_Charging_Adjusted_Penalty>
2.60016

> <i_epik_Tot_Q>
1

> <i_epik_Tot_abs_Q>
1

> <r_epik_Metal_State_Penalty>
2.56925

> <b_epik_Metal_Only>
0

> <s_lp_Force_Field>
OPLS_2005

> <r_lp_Energy>
52.4549

> <b_lp_Chiralities_Consistent>
1

> <s_lp_Variant>
AV-unprocessed.smi:67-10

> <Gold.Version>
5.8.1

> <Gold.Id.Protein>
6NUR|6NUR_protein|mol2

> <Gold.PLP.Fitness>
43.1769

> <Gold.PLP.PLP>
-39.1962

> <Gold.PLP.part.hbond>
-1.7333

> <Gold.PLP.part.metal>
0.0000

> <Gold.PLP.part.buried>
-6.9550

> <Gold.PLP.part.nonpolar>
-31.8799

> <Gold.PLP.part.repulsive>
0.0000

> <Gold.PLP.ligand.clash>
0.7427

> <Gold.PLP.ligand.torsion>
0.6584

> <Gold.PLP.Chemscore.Hbond>
1.7963

> <Gold.PLP.Chemscore.CHOScore>
0.0000

> <Gold.PLP.Chemscore.Metal>
0.0000

> <Gold.Chemscore.Hbonds>
donor molecule, donor type, donor heavy atom, donor atom, acceptor molecule, acceptor atom, score
      L1  H     1    25       P1 10747  0.94
      L1  H    23    45       P1 10957  0.17

> <Gold.PLP.Chemscore.Internal.Correction>
0.6513

> <Gold.Rescore>
     Score         DG    S(hbond)    S(metal)    S(lipo)     H(rot)  DE(clash)    DE(int)     intcor
     12.55     -13.84       1.00        0.00      90.46       2.17       0.00       1.29       ----

> <Gold.Chemscore.Fitness>
12.5510

> <Gold.Chemscore.DG>
-13.8398

> <Gold.Chemscore.ZeroCoef>
-5.4800

> <Gold.Chemscore.Hbond>
1.0000

> <Gold.Chemscore.Metal>
0.0000

> <Gold.Chemscore.Lipo>
90.4602

> <Gold.Chemscore.Internal_Hbond>
0.0000

> <Gold.Chemscore.DEClash>
0.0009

> <Gold.Chemscore.DEInternal>
1.2879

> <Gold.Chemscore.Rot>
2.1734

> <Gold.Chemscore.Internal.Correction>
   9.000000E+99

> <Gold.Chemscore.Hbonds>
donor molecule, donor type, donor heavy atom, donor atom, acceptor molecule, acceptor atom, score
      L1  H     1    25       P1 10747  0.89
      L1  H    23    45       P1 10957  0.03

> <Gold.Chemscore.Hbond.Weighted>
-3.3400

> <Gold.Chemscore.Metal.Weighted>
-0.0000

> <Gold.Chemscore.Lipo.Weighted>
-10.5838

> <Gold.Chemscore.Internal_Hbond.Weighted>
0.0000

> <Gold.Chemscore.DEClash.Weighted>
0.0009

> <Gold.Chemscore.DEInternal.Weighted>
1.2879

> <Gold.Chemscore.Rot.Weighted>
5.5640

> <Gold.Chemscore.Internal.Correction.Weighted>
   9.000000E+99

> <Gold.Protein.RotatedTorsions>
[ 6907 6896 6895 6894 ] final -135.58 input  -60.11 | X-H torsion
[ 7974 7965 7964 7962 ] final  -23.22 input  175.53 | X-H torsion
[ 8008 7997 7996 7995 ] final  -65.76 input   59.86 | X-H torsion
[ 10167 10162 10161 10158 ] final   67.56 input  -65.29 | X-H torsion
[ 10718 10713 10712 10709 ] final  -29.45 input   66.30 | X-H torsion
[ 10763 10752 10751 10750 ] final  130.36 input  -60.55 | X-H torsion
[ 11005 11000 10999 10996 ] final   87.63 input  -57.11 | X-H torsion

> <Gold.Protein.ActiveResidues>
 VAL166  LYS551  ARG553  GLY616  TRP617  ASP618  TYR619  PRO620  LYS621  CYS622 
 ASP623  PHE694  ASN695  SER759  ASP760  ASP761  ALA762  ILE779  LEU786  VAL792 
 PHE793  MET794  SER795  GLU796  ALA797  LYS798  CYS799  TRP800  GLU811  SER814 

> <Gold.Protein.RotatedAtoms>
  150.9996  133.6069  159.2696 H   0  0  0  0  0  0  0  0  0  0  0  0  # atno 6907 bound_to 6896
  151.3260  135.0829  159.9332 H   0  0  0  0  0  0  0  0  0  0  0  0  # atno 6908 bound_to 6896
  152.5270  133.9634  159.7782 H   0  0  0  0  0  0  0  0  0  0  0  0  # atno 6909 bound_to 6896
  146.1629  140.4586  142.8564 H   0  0  0  0  0  0  0  0  0  0  0  0  # atno 7974 bound_to 7965
  154.4691  140.0926  156.7099 H   0  0  0  0  0  0  0  0  0  0  0  0  # atno 8008 bound_to 7997
  155.4773  140.3466  155.4316 H   0  0  0  0  0  0  0  0  0  0  0  0  # atno 8009 bound_to 7997
  156.1009  140.1422  156.9457 H   0  0  0  0  0  0  0  0  0  0  0  0  # atno 8010 bound_to 7997
  140.0882  144.5011  150.7116 H   0  0  0  0  0  0  0  0  0  0  0  0  # atno 10167 bound_to 10162
  156.4124  130.4410  149.7243 H   0  0  0  0  0  0  0  0  0  0  0  0  # atno 10718 bound_to 10713
  153.7568  135.3201  155.3330 H   0  0  0  0  0  0  0  0  0  0  0  0  # atno 10763 bound_to 10752
  154.8244  135.4580  154.0877 H   0  0  0  0  0  0  0  0  0  0  0  0  # atno 10764 bound_to 10752
  153.2096  135.6934  153.8213 H   0  0  0  0  0  0  0  0  0  0  0  0  # atno 10765 bound_to 10752
  139.8915  134.8435  156.2887 H   0  0  0  0  0  0  0  0  0  0  0  0  # atno 11005 bound_to 11000
  144.8052  140.6286  143.6452 LP  0  0  0  0  0  0  0  0  0  0  0  0  # atno 17320 bound_to 7965
  145.4542  139.1520  143.3902 LP  0  0  0  0  0  0  0  0  0  0  0  0  # atno 17321 bound_to 7965
  140.7042  143.2456  151.4774 LP  0  0  0  0  0  0  0  0  0  0  0  0  # atno 17342 bound_to 10162
  139.5740  144.1862  152.1877 LP  0  0  0  0  0  0  0  0  0  0  0  0  # atno 17343 bound_to 10162
  156.4216  130.7771  151.2789 LP  0  0  0  0  0  0  0  0  0  0  0  0  # atno 17370 bound_to 10713
  157.7507  131.0181  150.3612 LP  0  0  0  0  0  0  0  0  0  0  0  0  # atno 17371 bound_to 10713
  140.9990  133.7163  156.0931 LP  0  0  0  0  0  0  0  0  0  0  0  0  # atno 17394 bound_to 11000
  140.7523  134.4031  157.5539 LP  0  0  0  0  0  0  0  0  0  0  0  0  # atno 17395 bound_to 11000

$$$$
