#       Name:                AV-unprocessed.smi:196
#       Creating user name   scv26
#       Creation time:       Thu Mar 26 19:39:20 2020


#       File generated by GOLD software.
#

@<TRIPOS>MOLECULE
AV-unprocessed.smi:196
    57    60     1
SMALL
NO_CHARGES


@<TRIPOS>ATOM
      1 ****        -2.6604  -0.2394   5.5815 C.3            1 S1                 0.0000
      2 ****        -2.4248  -1.0720   4.3113 C.3            1 S1                 0.0000
      3 ****        -3.6251  -1.7301   3.9073 O.3            1 S1                 0.0000
      4 ****        -3.9342  -1.4031   2.5594 C.3            1 S1                 0.0000
      5 ****        -2.5923  -1.0390   1.9381 C.3            1 S1                 0.0000
      6 ****        -1.8885  -0.3133   3.0758 C.3            1 S1                 0.0000
      7 ****        -2.3241   1.0376   3.0816 O.3            1 S1                 0.0000
      8 ****        -0.3447  -0.3314   2.9792 C.3            1 S1                 0.0000
      9 ****         0.1671   0.2881   1.7670 N.pl3          1 S1                 0.0000
     10 ****         0.4817   1.6171   1.5917 C.2            1 S1                 0.0000
     11 ****         0.9247   1.9332   0.4053 N.2            1 S1                 0.0000
     12 ****         0.9247   0.7281  -0.2854 C.ar           1 S1                 0.0000
     13 ****         1.2894   0.3496  -1.6046 C.ar           1 S1                 0.0000
     14 ****         1.7409   1.2684  -2.4993 N.3            1 S1                 0.0000
     15 ****         0.6397   1.8809  -3.2349 C.3            1 S1                 0.0000
     16 ****         0.5966   1.1917  -4.6088 C.3            1 S1                 0.0000
     17 ****        -0.4536   0.3757  -4.7054 F              1 S1                 0.0000
     18 ****         1.9035   0.3939  -4.7021 C.3            1 S1                 0.0000
     19 ****         2.7373   0.9246  -3.5241 C.3            1 S1                 0.0000
     20 ****         3.9266   0.0403  -3.0917 C.2            1 S1                 0.0000
     21 ****         4.6266  -0.5538  -4.0617 N.am           1 S1                 0.0000
     22 ****         4.2428  -0.0731  -1.9084 O.2            1 S1                 0.0000
     23 ****         1.1339  -0.9568  -1.9497 N.ar           1 S1                 0.0000
     24 ****         0.6793  -1.8389  -1.0551 C.ar           1 S1                 0.0000
     25 ****         0.3170  -1.6303   0.2123 N.ar           1 S1                 0.0000
     26 ****         0.4525  -0.3175   0.5558 C.ar           1 S1                 0.0000
     27 ****         0.5090   1.9254  -5.4106 H              1 S1                 0.0000
     28 ****         3.1844   1.8726  -3.8291 H              1 S1                 0.0000
     29 ****        -1.7502   0.2776   5.8858 H              1 S1                 0.0000
     30 ****        -2.9719  -0.8777   6.4082 H              1 S1                 0.0000
     31 ****        -3.4410   0.5072   5.4337 H              1 S1                 0.0000
     32 ****        -1.7271  -1.8737   4.5579 H              1 S1                 0.0000
     33 ****        -4.4242  -2.2321   2.0488 H              1 S1                 0.0000
     34 ****        -4.6094  -0.5465   2.5457 H              1 S1                 0.0000
     35 ****        -2.0573  -1.9561   1.6887 H              1 S1                 0.0000
     36 ****        -2.6858  -0.4469   1.0266 H              1 S1                 0.0000
     37 ****        -2.0733   1.4356   2.2622 H              1 S1                 0.0000
     38 ****         0.0920   0.1811   3.8374 H              1 S1                 0.0000
     39 ****         0.0255  -1.3567   3.0174 H              1 S1                 0.0000
     40 ****         0.3667   2.3505   2.3766 H              1 S1                 0.0000
     41 ****        -0.3210   1.8174  -2.7188 H              1 S1                 0.0000
     42 ****         0.8633   2.9420  -3.3523 H              1 S1                 0.0000
     43 ****         1.7087  -0.6742  -4.5954 H              1 S1                 0.0000
     44 ****         2.4024   0.5423  -5.6603 H              1 S1                 0.0000
     45 ****         5.4163  -1.1381  -3.8296 H              1 S1                 0.0000
     46 ****         4.3644  -0.4111  -5.0264 H              1 S1                 0.0000
     47 ****         0.5925  -2.8569  -1.4050 H              1 S1                 0.0000
     48 ****        -4.3768  -1.4384   4.4987 LP             1 S1                 0.0000
     49 ****        -3.5025  -2.7193   3.9874 LP             1 S1                 0.0000
     50 ****        -1.8948   1.5275   3.8403 LP             1 S1                 0.0000
     51 ****        -3.3183   1.0713   3.1830 LP             1 S1                 0.0000
     52 ****         1.2003   2.8344   0.0709 LP             1 S1                 0.0000
     53 ****         2.2290   1.8529  -1.8512 LP             1 S1                 0.0000
     54 ****         3.7258   0.4130  -1.2039 LP             1 S1                 0.0000
     55 ****         5.0169  -0.6515  -1.6510 LP             1 S1                 0.0000
     56 ****         1.3606  -1.2581  -2.8760 LP             1 S1                 0.0000
     57 ****        -0.0114  -2.3445   0.8303 LP             1 S1                 0.0000
@<TRIPOS>BOND
    1    1    2 1     
    2    1   29 1     
    3    1   30 1     
    4    1   31 1     
    5    2    6 1     
    6    2    3 1     
    7    2   32 1     
    8    3    4 1     
    9    4    5 1     
   10    4   33 1     
   11    4   34 1     
   12    5    6 1     
   13    5   35 1     
   14    5   36 1     
   15    6    7 1     
   16    6    8 1     
   17    7   37 1     
   18    8    9 1     
   19    8   38 1     
   20    8   39 1     
   21    9   26 1     
   22    9   10 1     
   23   10   11 2     
   24   10   40 1     
   25   11   12 1     
   26   12   26 ar    
   27   12   13 ar    
   28   13   14 1     
   29   13   23 ar    
   30   14   19 1     
   31   14   15 1     
   32   15   16 1     
   33   15   41 1     
   34   15   42 1     
   35   16   27 1     
   36   16   17 1     
   37   16   18 1     
   38   18   19 1     
   39   18   43 1     
   40   18   44 1     
   41   19   28 1     
   42   19   20 1     
   43   20   21 am    
   44   20   22 2     
   45   21   45 1     
   46   21   46 1     
   47   23   24 ar    
   48   24   25 ar    
   49   24   47 1     
   50   25   26 ar    
   51    3   48 1     
   52    3   49 1     
   53    7   50 1     
   54    7   51 1     
   55   11   52 1     
   56   14   53 1     
   57   22   54 1     
   58   22   55 1     
   59   23   56 1     
   60   25   57 1     
@<TRIPOS>SUBSTRUCTURE
      1 S1             1
@<TRIPOS>SET
LONE_PAIRS      STATIC     ATOMS    <user>   **** ""
10 48 49 50 51 52 53 54 55 56 57
DONOR_HYDROGENS      STATIC     ATOMS    <user>   **** ""
3 37 45 46
ATOM$BLUE        STATIC     ATOMS    COLORGROUP SYSTEM
10 48 49 50 51 52 53 54 55 56 57
ATOM$RED        STATIC     ATOMS    COLORGROUP SYSTEM
3 37 45 46
