AV-unprocessed.smi:741|AV-procd|sdf|3557|dock7
  -GOLD-   22720 0553D 1   1.00000     0.00000
 Structure written by MMmdl.
 43 44  0  0  0  0  0  0  0  0  3 V2000
  145.5260  142.5199  156.5485 C   0  0  0  0  0  0  0  0  0  0  0  0
  146.0182  142.2051  155.1281 C   0  0  0  0  0  0  0  0  0  0  0  0
  147.3484  141.4284  155.0884 C   0  0  1  0  0  0  0  0  0  0  0  0
  147.6810  140.9644  153.6532 C   0  0  0  0  0  0  0  0  0  0  0  0
  148.5634  139.7722  153.6197 N   0  3  0  0  0  0  0  0  0  0  0  0
  149.8262  139.9049  154.3761 C   0  0  0  0  0  0  0  0  0  0  0  0
  150.2689  138.4711  154.6436 C   0  0  0  0  0  0  0  0  0  0  0  0
  148.9489  137.7514  154.9028 C   0  0  0  0  0  0  0  0  0  0  0  0
  147.9165  138.5140  154.0606 C   0  0  0  0  0  0  0  0  0  0  0  0
  148.4257  142.2640  155.6254 N   0  0  0  0  0  0  0  0  0  0  0  0
  149.3125  141.9027  156.5645 C   0  0  0  0  0  0  0  0  0  0  0  0
  149.3566  140.7775  157.0602 O   0  0  0  0  0  0  0  0  0  0  0  0
  150.1486  142.9124  156.8623 N   0  0  0  0  0  0  0  0  0  0  0  0
  151.2042  142.9278  157.8141 C   0  0  0  0  0  0  0  0  0  0  0  0
  151.7336  144.1829  158.1880 C   0  0  0  0  0  0  0  0  0  0  0  0
  152.7704  144.2439  159.1415 C   0  0  0  0  0  0  0  0  0  0  0  0
  153.2407  143.1069  159.6975 N   0  3  0  0  0  0  0  0  0  0  0  0
  152.7556  141.8862  159.3845 C   0  0  0  0  0  0  0  0  0  0  0  0
  151.7195  141.7621  158.4362 C   0  0  0  0  0  0  0  0  0  0  0  0
  144.5614  143.0269  156.5188 H   0  0  0  0  0  0  0  0  0  0  0  0
  146.2209  143.1690  157.0816 H   0  0  0  0  0  0  0  0  0  0  0  0
  145.4025  141.6079  157.1332 H   0  0  0  0  0  0  0  0  0  0  0  0
  145.2489  141.6241  154.6182 H   0  0  0  0  0  0  0  0  0  0  0  0
  146.1148  143.1355  154.5665 H   0  0  0  0  0  0  0  0  0  0  0  0
  147.2198  140.5449  155.7162 H   0  0  0  0  0  0  0  0  0  0  0  0
  146.7681  140.7564  153.0928 H   0  0  0  0  0  0  0  0  0  0  0  0
  148.1803  141.7828  153.1316 H   0  0  0  0  0  0  0  0  0  0  0  0
  150.5769  140.4759  153.8305 H   0  0  0  0  0  0  0  0  0  0  0  0
  149.6409  140.4124  155.3242 H   0  0  0  0  0  0  0  0  0  0  0  0
  150.7496  138.0593  153.7551 H   0  0  0  0  0  0  0  0  0  0  0  0
  150.9692  138.3896  155.4754 H   0  0  0  0  0  0  0  0  0  0  0  0
  148.9945  136.6909  154.6534 H   0  0  0  0  0  0  0  0  0  0  0  0
  148.6908  137.8323  155.9596 H   0  0  0  0  0  0  0  0  0  0  0  0
  147.0166  138.7028  154.6479 H   0  0  0  0  0  0  0  0  0  0  0  0
  147.6230  137.9418  153.1801 H   0  0  0  0  0  0  0  0  0  0  0  0
  148.4727  143.2099  155.2746 H   0  0  0  0  0  0  0  0  0  0  0  0
  150.0517  143.7504  156.3075 H   0  0  0  0  0  0  0  0  0  0  0  0
  151.3560  145.0938  157.7462 H   0  0  0  0  0  0  0  0  0  0  0  0
  153.2322  145.1617  159.4756 H   0  0  0  0  0  0  0  0  0  0  0  0
  153.2031  141.0507  159.9031 H   0  0  0  0  0  0  0  0  0  0  0  0
  151.3316  140.7792  158.2156 H   0  0  0  0  0  0  0  0  0  0  0  0
  148.8243  139.6212  152.6560 H   0  0  0  0  0  0  0  0  0  0  0  0
  153.9898  143.1732  160.3875 H   0  0  0  0  0  0  0  0  0  0  0  0
  1  2  1  0  0  0  0
  1 20  1  0  0  0  0
  1 21  1  0  0  0  0
  1 22  1  0  0  0  0
  2  3  1  0  0  0  0
  2 23  1  0  0  0  0
  2 24  1  0  0  0  0
  3  4  1  0  0  0  0
  3 10  1  0  0  0  0
  3 25  1  0  0  0  0
  4  5  1  0  0  0  0
  4 26  1  0  0  0  0
  4 27  1  0  0  0  0
  5  9  1  0  0  0  0
  5  6  1  0  0  0  0
  5 42  1  0  0  0  0
  6  7  1  0  0  0  0
  6 28  1  0  0  0  0
  6 29  1  0  0  0  0
  7  8  1  0  0  0  0
  7 30  1  0  0  0  0
  7 31  1  0  0  0  0
  8  9  1  0  0  0  0
  8 32  1  0  0  0  0
  8 33  1  0  0  0  0
  9 34  1  0  0  0  0
  9 35  1  0  0  0  0
 10 11  1  0  0  0  0
 10 36  1  0  0  0  0
 11 12  2  0  0  0  0
 11 13  1  0  0  0  0
 13 14  1  0  0  0  0
 13 37  1  0  0  0  0
 14 19  1  0  0  0  0
 14 15  2  0  0  0  0
 15 16  1  0  0  0  0
 15 38  1  0  0  0  0
 16 17  2  0  0  0  0
 16 39  1  0  0  0  0
 17 18  1  0  0  0  0
 17 43  1  0  0  0  0
 18 19  2  0  0  0  0
 18 40  1  0  0  0  0
 19 41  1  0  0  0  0
M  CHG  1   5   1
M  CHG  1  17   1
M  END
> <s_m_source_file>
AV-unprocessed.smi

> <i_m_source_file_index>
741

> <i_lp_mmshare_version>
43012

> <i_f3d_flags>
0

> <s_epik_input>
W0NIMl0xW0NIMl1bQ0gyXVtDSDJdTjFbQ0gyXVtDQEBIXShbQ0gyXVtDSDNdKVtOSF1DKD1PKVtOSF1jMltjSF1bY0hdbltjSF1bY0hdMg==

> <s_epik_cmdline>
J2VwaWtfcHl0aG9uJywgJy1waCcsICc3LjAnLCAnLXRuJywgJzgnLCAnLW1hJywgJzIwMCcsICctbWV0YWxfYmluZGluZycsICctaW1hZScsICc8aW5maWxlLm1hZT4nLCAnLW9tYWUnLCAnPG91dGZpbGUubWFlPic=

> <r_epik_Ionization_Penalty>
1.10771

> <r_epik_Ionization_Penalty_Charging>
1.10769

> <r_epik_Ionization_Penalty_Neutral>
1.91663e-05

> <r_epik_State_Penalty>
1.16347

> <r_epik_Charging_Adjusted_Penalty>
2.27116

> <i_epik_Tot_Q>
2

> <i_epik_Tot_abs_Q>
2

> <r_epik_Metal_State_Penalty>
1.24871

> <b_epik_Metal_Only>
0

> <s_lp_Force_Field>
OPLS_2005

> <r_lp_Energy>
49.4137

> <b_lp_Chiralities_Consistent>
1

> <s_lp_Variant>
AV-unprocessed.smi:741-4

> <Gold.Version>
5.8.1

> <Gold.Id.Protein>
6NUR|6NUR_protein|mol2

> <Gold.PLP.Fitness>
42.4909

> <Gold.PLP.PLP>
-35.2903

> <Gold.PLP.part.hbond>
-2.8197

> <Gold.PLP.part.metal>
0.0000

> <Gold.PLP.part.buried>
-4.0600

> <Gold.PLP.part.nonpolar>
-29.3945

> <Gold.PLP.part.repulsive>
0.3025

> <Gold.PLP.ligand.clash>
0.0000

> <Gold.PLP.ligand.torsion>
0.4819

> <Gold.PLP.Chemscore.Hbond>
2.6960

> <Gold.PLP.Chemscore.CHOScore>
0.0000

> <Gold.PLP.Chemscore.Metal>
0.0000

> <Gold.Chemscore.Hbonds>
donor molecule, donor type, donor heavy atom, donor atom, acceptor molecule, acceptor atom, score
      L1  H     5    42       P1  7957  1.00
      L1  H    10    36       P1  8028  0.90
      L1  H    13    37       P1  8028  0.83

> <Gold.PLP.Chemscore.Internal.Correction>
0.0764

> <Gold.Rescore>
     Score         DG    S(hbond)    S(metal)    S(lipo)     H(rot)  DE(clash)    DE(int)     intcor
     19.38     -21.20       2.77        0.00      90.84       1.63       0.04       1.78       ----

> <Gold.Chemscore.Fitness>
19.3782

> <Gold.Chemscore.DG>
-21.2011

> <Gold.Chemscore.ZeroCoef>
-5.4800

> <Gold.Chemscore.Hbond>
2.7712

> <Gold.Chemscore.Metal>
0.0000

> <Gold.Chemscore.Lipo>
90.8372

> <Gold.Chemscore.Internal_Hbond>
0.0000

> <Gold.Chemscore.DEClash>
0.0386

> <Gold.Chemscore.DEInternal>
1.7843

> <Gold.Chemscore.Rot>
1.6260

> <Gold.Chemscore.Internal.Correction>
   9.000000E+99

> <Gold.Chemscore.Hbonds>
donor molecule, donor type, donor heavy atom, donor atom, acceptor molecule, acceptor atom, score
      L1  H     5    42       P1  7957  0.98
      L1  H    10    36       P1  8028  0.86
      L1  H    13    37       P1  8028  0.81

> <Gold.Chemscore.Hbond.Weighted>
-9.2557

> <Gold.Chemscore.Metal.Weighted>
-0.0000

> <Gold.Chemscore.Lipo.Weighted>
-10.6280

> <Gold.Chemscore.Internal_Hbond.Weighted>
0.0000

> <Gold.Chemscore.DEClash.Weighted>
0.0386

> <Gold.Chemscore.DEInternal.Weighted>
1.7843

> <Gold.Chemscore.Rot.Weighted>
4.1626

> <Gold.Chemscore.Internal.Correction.Weighted>
   9.000000E+99

> <Gold.Protein.RotatedTorsions>
[ 6907 6896 6895 6894 ] final  -22.98 input  -60.11 | X-H torsion
[ 7974 7965 7964 7962 ] final  -81.60 input  175.53 | X-H torsion
[ 8008 7997 7996 7995 ] final  -56.68 input   59.86 | X-H torsion
[ 10167 10162 10161 10158 ] final    9.19 input  -65.29 | X-H torsion
[ 10718 10713 10712 10709 ] final -155.60 input   66.30 | X-H torsion
[ 10763 10752 10751 10750 ] final -177.74 input  -60.55 | X-H torsion
[ 11005 11000 10999 10996 ] final   85.08 input  -57.11 | X-H torsion

> <Gold.Protein.ActiveResidues>
 VAL166  LYS551  ARG553  GLY616  TRP617  ASP618  TYR619  PRO620  LYS621  CYS622 
 ASP623  PHE694  ASN695  SER759  ASP760  ASP761  ALA762  ILE779  LEU786  VAL792 
 PHE793  MET794  SER795  GLU796  ALA797  LYS798  CYS799  TRP800  GLU811  SER814 

> <Gold.Protein.RotatedAtoms>
  151.2106  135.0479  159.8909 H   0  0  0  0  0  0  0  0  0  0  0  0  # atno 6907 bound_to 6896
  152.5425  134.0749  159.8220 H   0  0  0  0  0  0  0  0  0  0  0  0  # atno 6908 bound_to 6896
  151.0902  133.5274  159.2647 H   0  0  0  0  0  0  0  0  0  0  0  0  # atno 6909 bound_to 6896
  145.5445  140.9505  143.1533 H   0  0  0  0  0  0  0  0  0  0  0  0  # atno 7974 bound_to 7965
  154.4239  140.1124  156.5676 H   0  0  0  0  0  0  0  0  0  0  0  0  # atno 8008 bound_to 7997
  155.6245  140.3495  155.4644 H   0  0  0  0  0  0  0  0  0  0  0  0  # atno 8009 bound_to 7997
  155.9997  140.1196  157.0549 H   0  0  0  0  0  0  0  0  0  0  0  0  # atno 8010 bound_to 7997
  140.6269  143.8080  150.7245 H   0  0  0  0  0  0  0  0  0  0  0  0  # atno 10167 bound_to 10162
  156.5151  130.8452  151.2661 H   0  0  0  0  0  0  0  0  0  0  0  0  # atno 10718 bound_to 10713
  154.5564  135.2816  155.0961 H   0  0  0  0  0  0  0  0  0  0  0  0  # atno 10763 bound_to 10752
  154.2387  135.6361  153.5203 H   0  0  0  0  0  0  0  0  0  0  0  0  # atno 10764 bound_to 10752
  153.0017  135.5554  154.6145 H   0  0  0  0  0  0  0  0  0  0  0  0  # atno 10765 bound_to 10752
  139.8982  134.8261  156.2533 H   0  0  0  0  0  0  0  0  0  0  0  0  # atno 11005 bound_to 11000
  144.7560  139.7073  143.7254 LP  0  0  0  0  0  0  0  0  0  0  0  0  # atno 17320 bound_to 7965
  146.1958  139.5224  142.9775 LP  0  0  0  0  0  0  0  0  0  0  0  0  # atno 17321 bound_to 7965
  140.1683  143.4216  152.2019 LP  0  0  0  0  0  0  0  0  0  0  0  0  # atno 17342 bound_to 10162
  139.5488  144.7321  151.4498 LP  0  0  0  0  0  0  0  0  0  0  0  0  # atno 17343 bound_to 10162
  157.7445  130.9936  150.2679 LP  0  0  0  0  0  0  0  0  0  0  0  0  # atno 17370 bound_to 10713
  156.3203  130.3785  149.7581 LP  0  0  0  0  0  0  0  0  0  0  0  0  # atno 17371 bound_to 10713
  141.0210  133.7041  156.1268 LP  0  0  0  0  0  0  0  0  0  0  0  0  # atno 17394 bound_to 11000
  140.7234  134.4334  157.5573 LP  0  0  0  0  0  0  0  0  0  0  0  0  # atno 17395 bound_to 11000

$$$$
