AV-unprocessed.smi:3158|AV-procd|sdf|12041|dock8
  -GOLD-   2272017463D 1   1.00000     0.00000
 Structure written by MMmdl.
 40 40  0  0  0  0  0  0  0  0  2 V2000
  149.1624  140.2440  154.5240 C   0  0  0  0  0  0  0  0  0  0  0  0
  149.7536  138.8265  154.5123 C   0  0  0  0  0  0  0  0  0  0  0  0
  148.7502  137.7338  154.9256 C   0  0  2  0  0  0  0  0  0  0  0  0
  149.4605  136.4201  155.2881 C   0  0  0  0  0  0  0  0  0  0  0  0
  147.7872  137.5017  153.8512 N   0  0  0  0  0  0  0  0  0  0  0  0
  146.4519  137.5193  153.9843 C   0  0  0  0  0  0  0  0  0  0  0  0
  145.8813  137.7320  155.0551 O   0  0  0  0  0  0  0  0  0  0  0  0
  145.6378  137.2657  152.7071 C   0  0  2  0  0  0  0  0  0  0  0  0
  144.1528  137.0869  153.0587 C   0  0  0  0  0  0  0  0  0  0  0  0
  146.1246  136.0754  151.9745 N   0  3  0  0  0  0  0  0  0  0  0  0
  145.6288  135.9422  150.5865 C   0  0  0  0  0  0  0  0  0  0  0  0
  144.3495  135.0942  150.5278 C   0  0  0  0  0  0  0  0  0  0  0  0
  144.6400  133.6742  150.6097 N   0  0  0  0  0  0  0  0  0  0  0  0
  143.7539  132.6176  150.6253 C   0  0  0  0  0  0  0  0  0  0  0  0
  144.4916  131.4705  150.6913 C   0  0  0  0  0  0  0  0  0  0  0  0
  145.8368  131.9339  150.7124 C   0  0  0  0  0  0  0  0  0  0  0  0
  145.9225  133.2535  150.6605 N   0  0  0  0  0  0  0  0  0  0  0  0
  149.9231  140.9817  154.2687 H   0  0  0  0  0  0  0  0  0  0  0  0
  148.7723  140.4982  155.5099 H   0  0  0  0  0  0  0  0  0  0  0  0
  148.3499  140.3479  153.8045 H   0  0  0  0  0  0  0  0  0  0  0  0
  150.1497  138.6100  153.5191 H   0  0  0  0  0  0  0  0  0  0  0  0
  150.6078  138.8018  155.1899 H   0  0  0  0  0  0  0  0  0  0  0  0
  148.2200  138.0887  155.8113 H   0  0  0  0  0  0  0  0  0  0  0  0
  150.1716  136.5709  156.1007 H   0  0  0  0  0  0  0  0  0  0  0  0
  150.0101  136.0171  154.4367 H   0  0  0  0  0  0  0  0  0  0  0  0
  148.7484  135.6618  155.6149 H   0  0  0  0  0  0  0  0  0  0  0  0
  148.1703  137.3255  152.9335 H   0  0  0  0  0  0  0  0  0  0  0  0
  145.7301  138.1317  152.0491 H   0  0  0  0  0  0  0  0  0  0  0  0
  143.7566  137.9647  153.5713 H   0  0  0  0  0  0  0  0  0  0  0  0
  143.9953  136.2239  153.7073 H   0  0  0  0  0  0  0  0  0  0  0  0
  143.5538  136.9386  152.1597 H   0  0  0  0  0  0  0  0  0  0  0  0
  147.1346  136.1123  151.9546 H   0  0  0  0  0  0  0  0  0  0  0  0
  145.4334  136.9376  150.1866 H   0  0  0  0  0  0  0  0  0  0  0  0
  146.3923  135.4903  149.9520 H   0  0  0  0  0  0  0  0  0  0  0  0
  143.6634  135.3693  151.3305 H   0  0  0  0  0  0  0  0  0  0  0  0
  143.8242  135.2793  149.5900 H   0  0  0  0  0  0  0  0  0  0  0  0
  142.6850  132.7675  150.5853 H   0  0  0  0  0  0  0  0  0  0  0  0
  144.1263  130.4545  150.7196 H   0  0  0  0  0  0  0  0  0  0  0  0
  146.7470  131.3544  150.7617 H   0  0  0  0  0  0  0  0  0  0  0  0
  145.8448  135.2487  152.4824 H   0  0  0  0  0  0  0  0  0  0  0  0
  1  2  1  0  0  0  0
  1 18  1  0  0  0  0
  1 19  1  0  0  0  0
  1 20  1  0  0  0  0
  2  3  1  0  0  0  0
  2 21  1  0  0  0  0
  2 22  1  0  0  0  0
  3  4  1  0  0  0  0
  3  5  1  0  0  0  0
  3 23  1  0  0  0  0
  4 24  1  0  0  0  0
  4 25  1  0  0  0  0
  4 26  1  0  0  0  0
  5  6  1  0  0  0  0
  5 27  1  0  0  0  0
  6  7  2  0  0  0  0
  6  8  1  0  0  0  0
  8  9  1  0  0  0  0
  8 10  1  0  0  0  0
  8 28  1  0  0  0  0
  9 29  1  0  0  0  0
  9 30  1  0  0  0  0
  9 31  1  0  0  0  0
 10 11  1  0  0  0  0
 10 32  1  0  0  0  0
 10 40  1  0  0  0  0
 11 12  1  0  0  0  0
 11 33  1  0  0  0  0
 11 34  1  0  0  0  0
 12 13  1  0  0  0  0
 12 35  1  0  0  0  0
 12 36  1  0  0  0  0
 13 17  1  0  0  0  0
 13 14  1  0  0  0  0
 14 15  2  0  0  0  0
 14 37  1  0  0  0  0
 15 16  1  0  0  0  0
 15 38  1  0  0  0  0
 16 17  2  0  0  0  0
 16 39  1  0  0  0  0
M  CHG  1  10   1
M  END
> <s_m_source_file>
AV-unprocessed.smi

> <i_m_source_file_index>
3158

> <i_lp_mmshare_version>
43012

> <i_f3d_flags>
0

> <s_epik_input>
W0NIM11bQ0gyXVtDQEhdKFtDSDNdKVtOSF1DKD1PKVtDQEhdKFtDSDNdKVtOSF1bQ0gyXVtDSDJdbjFbY0hdW2NIXVtjSF1uMQ==

> <s_epik_cmdline>
J2VwaWtfcHl0aG9uJywgJy1waCcsICc3LjAnLCAnLXRuJywgJzgnLCAnLW1hJywgJzIwMCcsICctbWV0YWxfYmluZGluZycsICctaW1hZScsICc8aW5maWxlLm1hZT4nLCAnLW9tYWUnLCAnPG91dGZpbGUubWFlPic=

> <r_lp_tautomer_probability>
1

> <r_epik_Ionization_Penalty>
0.20724

> <r_epik_Ionization_Penalty_Charging>
0.207237

> <r_epik_Ionization_Penalty_Neutral>
3.33806e-06

> <r_epik_State_Penalty>
0.197234

> <r_epik_Charging_Adjusted_Penalty>
0.404471

> <i_epik_Tot_Q>
1

> <i_epik_Tot_abs_Q>
1

> <r_epik_Metal_State_Penalty>
0.197524

> <b_epik_Metal_Only>
0

> <s_lp_Force_Field>
OPLS_2005

> <r_lp_Energy>
5.42496

> <b_lp_Chiralities_Consistent>
1

> <s_lp_Variant>
AV-unprocessed.smi:3158-1

> <Gold.Version>
5.8.1

> <Gold.Id.Protein>
6NUR|6NUR_protein|mol2

> <Gold.PLP.Fitness>
43.7712

> <Gold.PLP.PLP>
-30.2477

> <Gold.PLP.part.hbond>
-2.0000

> <Gold.PLP.part.metal>
0.0000

> <Gold.PLP.part.buried>
-4.5178

> <Gold.PLP.part.nonpolar>
-24.7738

> <Gold.PLP.part.repulsive>
0.2665

> <Gold.PLP.ligand.clash>
0.0000

> <Gold.PLP.ligand.torsion>
0.7851

> <Gold.PLP.Chemscore.Hbond>
2.9920

> <Gold.PLP.Chemscore.CHOScore>
2.0000

> <Gold.PLP.Chemscore.Metal>
0.0000

> <Gold.Chemscore.Hbonds>
donor molecule, donor type, donor heavy atom, donor atom, acceptor molecule, acceptor atom, score
      L1  H     5    27       P1  7948  0.98
      L1  H    10    32       P1  7948  2.00
      L1  C    14    37       P1 10186  0.90
      L1  C    16    39       P1 10747  1.00

> <Gold.PLP.Chemscore.Internal.Correction>
0.1178

> <Gold.Rescore>
     Score         DG    S(hbond)    S(metal)    S(lipo)     H(rot)  DE(clash)    DE(int)     intcor
     14.20     -15.08       1.95        0.00      74.70       2.21       0.03       0.85       ----

> <Gold.Chemscore.Fitness>
14.1963

> <Gold.Chemscore.DG>
-15.0779

> <Gold.Chemscore.ZeroCoef>
-5.4800

> <Gold.Chemscore.Hbond>
1.9531

> <Gold.Chemscore.Metal>
0.0000

> <Gold.Chemscore.Lipo>
74.7032

> <Gold.Chemscore.Internal_Hbond>
0.0000

> <Gold.Chemscore.DEClash>
0.0321

> <Gold.Chemscore.DEInternal>
0.8494

> <Gold.Chemscore.Rot>
2.2132

> <Gold.Chemscore.Internal.Correction>
   9.000000E+99

> <Gold.Chemscore.Hbonds>
donor molecule, donor type, donor heavy atom, donor atom, acceptor molecule, acceptor atom, score
      L1  H     5    27       P1  7948  0.93
      L1  H    10    32       P1  7948  1.00

> <Gold.Chemscore.Hbond.Weighted>
-6.5234

> <Gold.Chemscore.Metal.Weighted>
-0.0000

> <Gold.Chemscore.Lipo.Weighted>
-8.7403

> <Gold.Chemscore.Internal_Hbond.Weighted>
0.0000

> <Gold.Chemscore.DEClash.Weighted>
0.0321

> <Gold.Chemscore.DEInternal.Weighted>
0.8494

> <Gold.Chemscore.Rot.Weighted>
5.6658

> <Gold.Chemscore.Internal.Correction.Weighted>
   9.000000E+99

> <Gold.Protein.RotatedTorsions>
[ 6907 6896 6895 6894 ] final  -21.78 input  -60.11 | X-H torsion
[ 7974 7965 7964 7962 ] final   16.27 input  175.53 | X-H torsion
[ 8008 7997 7996 7995 ] final   50.55 input   59.86 | X-H torsion
[ 10167 10162 10161 10158 ] final  155.63 input  -65.29 | X-H torsion
[ 10718 10713 10712 10709 ] final -126.30 input   66.30 | X-H torsion
[ 10763 10752 10751 10750 ] final    5.22 input  -60.55 | X-H torsion
[ 11005 11000 10999 10996 ] final  -75.45 input  -57.11 | X-H torsion

> <Gold.Protein.ActiveResidues>
 VAL166  LYS551  ARG553  GLY616  TRP617  ASP618  TYR619  PRO620  LYS621  CYS622 
 ASP623  PHE694  ASN695  SER759  ASP760  ASP761  ALA762  ILE779  LEU786  VAL792 
 PHE793  MET794  SER795  GLU796  ALA797  LYS798  CYS799  TRP800  GLU811  SER814 

> <Gold.Protein.RotatedAtoms>
  151.2283  135.0545  159.8977 H   0  0  0  0  0  0  0  0  0  0  0  0  # atno 6907 bound_to 6896
  152.5408  134.0565  159.8143 H   0  0  0  0  0  0  0  0  0  0  0  0  # atno 6908 bound_to 6896
  151.0741  133.5394  159.2656 H   0  0  0  0  0  0  0  0  0  0  0  0  # atno 6909 bound_to 6896
  146.2254  139.8772  142.8577 H   0  0  0  0  0  0  0  0  0  0  0  0  # atno 7974 bound_to 7965
  155.4206  140.3446  155.4271 H   0  0  0  0  0  0  0  0  0  0  0  0  # atno 8008 bound_to 7997
  156.1395  140.1538  156.8973 H   0  0  0  0  0  0  0  0  0  0  0  0  # atno 8009 bound_to 7997
  154.4959  140.0828  156.7676 H   0  0  0  0  0  0  0  0  0  0  0  0  # atno 8010 bound_to 7997
  139.4821  144.5081  151.8066 H   0  0  0  0  0  0  0  0  0  0  0  0  # atno 10167 bound_to 10162
  156.1752  130.6695  151.0233 H   0  0  0  0  0  0  0  0  0  0  0  0  # atno 10718 bound_to 10713
  153.2620  135.6924  153.7569 H   0  0  0  0  0  0  0  0  0  0  0  0  # atno 10763 bound_to 10752
  153.6624  135.3358  155.3132 H   0  0  0  0  0  0  0  0  0  0  0  0  # atno 10764 bound_to 10752
  154.8433  135.4480  154.1613 H   0  0  0  0  0  0  0  0  0  0  0  0  # atno 10765 bound_to 10752
  141.1645  133.6947  156.7519 H   0  0  0  0  0  0  0  0  0  0  0  0  # atno 11005 bound_to 11000
  145.2549  141.0057  143.3860 LP  0  0  0  0  0  0  0  0  0  0  0  0  # atno 17320 bound_to 7965
  144.9345  139.4260  143.6479 LP  0  0  0  0  0  0  0  0  0  0  0  0  # atno 17321 bound_to 7965
  140.4581  144.1760  150.5903 LP  0  0  0  0  0  0  0  0  0  0  0  0  # atno 17342 bound_to 10162
  140.4513  143.2485  151.9343 LP  0  0  0  0  0  0  0  0  0  0  0  0  # atno 17343 bound_to 10162
  157.6831  131.0832  150.7317 LP  0  0  0  0  0  0  0  0  0  0  0  0  # atno 17370 bound_to 10713
  156.7375  130.4728  149.5485 LP  0  0  0  0  0  0  0  0  0  0  0  0  # atno 17371 bound_to 10713
  140.2598  134.8476  157.3747 LP  0  0  0  0  0  0  0  0  0  0  0  0  # atno 17394 bound_to 11000
  140.1622  134.4714  155.7887 LP  0  0  0  0  0  0  0  0  0  0  0  0  # atno 17395 bound_to 11000

$$$$
