AV-unprocessed.smi:11|AV-procd|sdf|56|dock4
  -GOLD-   2262015173D 1   1.00000     0.00000
 Structure written by MMmdl.
 33 35  0  0  0  0  0  0  0  0  1 V2000
  151.8974  144.6918  158.0223 C   0  0  0  0  0  0  0  0  0  0  0  0
  152.8075  143.8180  158.9027 C   0  0  0  0  0  0  0  0  0  0  0  0
  152.0941  142.6670  159.6553 C   0  0  2  0  0  0  0  0  0  0  0  0
  151.3572  143.2169  160.7300 O   0  0  0  0  0  0  0  0  0  0  0  0
  153.0992  141.6384  160.1919 C   0  0  0  0  0  0  0  0  0  0  0  0
  153.2766  140.6757  159.0197 C   0  0  0  0  0  0  0  0  0  0  0  0
  151.9766  140.6479  158.3654 N   0  0  0  0  0  0  0  0  0  0  0  0
  151.8097  140.0512  157.0991 C   0  0  0  0  0  0  0  0  0  0  0  0
  152.6514  139.0431  156.7526 N   0  0  0  0  0  0  0  0  0  0  0  0
  152.5323  138.4538  155.5597 C   0  0  0  0  0  0  0  0  0  0  0  0
  151.6558  138.7095  154.5861 N   0  0  0  0  0  0  0  0  0  0  0  0
  150.8010  139.7102  154.9388 C   0  0  0  0  0  0  0  0  0  0  0  0
  149.7679  140.2249  154.1840 N   0  0  0  0  0  0  0  0  0  0  0  0
  149.1136  141.2239  154.8829 C   0  0  0  0  0  0  0  0  0  0  0  0
  149.7127  141.3781  156.1070 C   0  0  0  0  0  0  0  0  0  0  0  0
  150.7996  140.4323  156.1676 C   0  0  0  0  0  0  0  0  0  0  0  0
  151.1882  141.8116  158.7480 C   0  0  0  0  0  0  0  0  0  0  0  0
  149.5028  139.9295  153.2555 H   0  0  0  0  0  0  0  0  0  0  0  0
  152.4734  145.4899  157.5539 H   0  0  0  0  0  0  0  0  0  0  0  0
  151.1061  145.1620  158.6060 H   0  0  0  0  0  0  0  0  0  0  0  0
  151.4297  144.1193  157.2222 H   0  0  0  0  0  0  0  0  0  0  0  0
  153.6034  143.4093  158.2790 H   0  0  0  0  0  0  0  0  0  0  0  0
  153.3025  144.4649  159.6283 H   0  0  0  0  0  0  0  0  0  0  0  0
  151.6816  144.0881  160.9003 H   0  0  0  0  0  0  0  0  0  0  0  0
  154.0390  142.0778  160.5279 H   0  0  0  0  0  0  0  0  0  0  0  0
  152.6702  141.0935  161.0346 H   0  0  0  0  0  0  0  0  0  0  0  0
  154.0330  141.0520  158.3296 H   0  0  0  0  0  0  0  0  0  0  0  0
  153.5787  139.6827  159.3538 H   0  0  0  0  0  0  0  0  0  0  0  0
  153.2414  137.6652  155.3555 H   0  0  0  0  0  0  0  0  0  0  0  0
  148.2702  141.7435  154.4520 H   0  0  0  0  0  0  0  0  0  0  0  0
  149.4257  142.0755  156.8793 H   0  0  0  0  0  0  0  0  0  0  0  0
  150.3137  141.4573  159.2953 H   0  0  0  0  0  0  0  0  0  0  0  0
  150.8364  142.3672  157.8798 H   0  0  0  0  0  0  0  0  0  0  0  0
  1  2  1  0  0  0  0
  1 19  1  0  0  0  0
  1 20  1  0  0  0  0
  1 21  1  0  0  0  0
  2  3  1  0  0  0  0
  2 22  1  0  0  0  0
  2 23  1  0  0  0  0
  3 17  1  0  0  0  0
  3  4  1  0  0  0  0
  3  5  1  0  0  0  0
  4 24  1  0  0  0  0
  5  6  1  0  0  0  0
  5 25  1  0  0  0  0
  5 26  1  0  0  0  0
  6  7  1  0  0  0  0
  6 27  1  0  0  0  0
  6 28  1  0  0  0  0
  7  8  1  0  0  0  0
  7 17  1  0  0  0  0
  8 16  1  0  0  0  0
  8  9  2  0  0  0  0
  9 10  1  0  0  0  0
 10 11  2  0  0  0  0
 10 29  1  0  0  0  0
 11 12  1  0  0  0  0
 12 16  2  0  0  0  0
 12 13  1  0  0  0  0
 13 18  1  0  0  0  0
 13 14  1  0  0  0  0
 14 15  2  0  0  0  0
 14 30  1  0  0  0  0
 15 16  1  0  0  0  0
 15 31  1  0  0  0  0
 17 32  1  0  0  0  0
 17 33  1  0  0  0  0
M  END
> <s_m_source_file>
AV-unprocessed.smi

> <i_m_source_file_index>
11

> <i_lp_mmshare_version>
43012

> <i_f3d_flags>
0

> <s_epik_input>
W0NIM11bQ0gyXVtDQEBdMShbT0hdKVtDSDJdW0NIMl1OKFtDSDJdMSljKG5bY0hdbjIpYyhjMjMpW2NIXVtjSF1bbkhdMw==

> <s_epik_cmdline>
J2VwaWtfcHl0aG9uJywgJy1waCcsICc3LjAnLCAnLXRuJywgJzgnLCAnLW1hJywgJzIwMCcsICctbWV0YWxfYmluZGluZycsICctaW1hZScsICc8aW5maWxlLm1hZT4nLCAnLW9tYWUnLCAnPG91dGZpbGUubWFlPic=

> <r_lp_tautomer_probability>
0.999998

> <r_epik_Ionization_Penalty>
0.0511253

> <r_epik_Ionization_Penalty_Charging>
0

> <r_epik_Ionization_Penalty_Neutral>
0.0511253

> <r_epik_State_Penalty>
0.0394181

> <r_epik_Charging_Adjusted_Penalty>
0.0394181

> <i_epik_Tot_Q>
0

> <i_epik_Tot_abs_Q>
0

> <r_epik_Metal_State_Penalty>
0.0367127

> <b_epik_Metal_Only>
0

> <s_lp_Force_Field>
OPLS_2005

> <r_lp_Energy>
27.4112

> <b_lp_Chiralities_Consistent>
1

> <s_lp_Variant>
AV-unprocessed.smi:11-2

> <Gold.Version>
5.8.1

> <Gold.Id.Protein>
6NUR|6NUR_protein|mol2

> <Gold.PLP.Fitness>
43.5438

> <Gold.PLP.PLP>
-37.8919

> <Gold.PLP.part.hbond>
-3.0982

> <Gold.PLP.part.metal>
0.0000

> <Gold.PLP.part.buried>
-3.0974

> <Gold.PLP.part.nonpolar>
-33.6065

> <Gold.PLP.part.repulsive>
2.6493

> <Gold.PLP.ligand.clash>
0.0000

> <Gold.PLP.ligand.torsion>
0.3019

> <Gold.PLP.Chemscore.Hbond>
2.0000

> <Gold.PLP.Chemscore.CHOScore>
0.0000

> <Gold.PLP.Chemscore.Metal>
0.0000

> <Gold.Chemscore.Hbonds>
donor molecule, donor type, donor heavy atom, donor atom, acceptor molecule, acceptor atom, score
      L1  H    13    18       P1  7957  0.83
      P1  H  7997  8009       L1     9  1.00

> <Gold.PLP.Chemscore.Internal.Correction>
0.2557

> <Gold.Rescore>
     Score         DG    S(hbond)    S(metal)    S(lipo)     H(rot)  DE(clash)    DE(int)     intcor
     12.03     -15.03       0.96        0.00      85.47       1.43       1.70       1.29       ----

> <Gold.Chemscore.Fitness>
12.0333

> <Gold.Chemscore.DG>
-15.0321

> <Gold.Chemscore.ZeroCoef>
-5.4800

> <Gold.Chemscore.Hbond>
0.9609

> <Gold.Chemscore.Metal>
0.0000

> <Gold.Chemscore.Lipo>
85.4654

> <Gold.Chemscore.Internal_Hbond>
0.0000

> <Gold.Chemscore.DEClash>
1.7040

> <Gold.Chemscore.DEInternal>
1.2949

> <Gold.Chemscore.Rot>
1.4283

> <Gold.Chemscore.Internal.Correction>
   9.000000E+99

> <Gold.Chemscore.Hbonds>
donor molecule, donor type, donor heavy atom, donor atom, acceptor molecule, acceptor atom, score
      L1  H    13    18       P1  7957  0.78
      P1  H  6933  6945       L1     4  0.01
      P1  H  7997  8009       L1     9  0.11

> <Gold.Chemscore.Hbond.Weighted>
-3.2093

> <Gold.Chemscore.Metal.Weighted>
-0.0000

> <Gold.Chemscore.Lipo.Weighted>
-9.9995

> <Gold.Chemscore.Internal_Hbond.Weighted>
0.0000

> <Gold.Chemscore.DEClash.Weighted>
1.7040

> <Gold.Chemscore.DEInternal.Weighted>
1.2949

> <Gold.Chemscore.Rot.Weighted>
3.6566

> <Gold.Chemscore.Internal.Correction.Weighted>
   9.000000E+99

> <Gold.Protein.RotatedTorsions>
[ 6907 6896 6895 6894 ] final  -32.58 input  -60.11 | X-H torsion
[ 7974 7965 7964 7962 ] final  -24.36 input  175.53 | X-H torsion
[ 8008 7997 7996 7995 ] final  179.90 input   59.86 | X-H torsion
[ 10167 10162 10161 10158 ] final  -98.73 input  -65.29 | X-H torsion
[ 10718 10713 10712 10709 ] final  102.95 input   66.30 | X-H torsion
[ 10763 10752 10751 10750 ] final -139.42 input  -60.55 | X-H torsion
[ 11005 11000 10999 10996 ] final   14.11 input  -57.11 | X-H torsion

> <Gold.Protein.ActiveResidues>
 VAL166  LYS551  ARG553  GLY616  TRP617  ASP618  TYR619  PRO620  LYS621  CYS622 
 ASP623  PHE694  ASN695  SER759  ASP760  ASP761  ALA762  ILE779  LEU786  VAL792 
 PHE793  MET794  SER795  GLU796  ALA797  LYS798  CYS799  TRP800  GLU811  SER814 

> <Gold.Protein.RotatedAtoms>
  151.0768  134.9833  159.8335 H   0  0  0  0  0  0  0  0  0  0  0  0  # atno 6907 bound_to 6896
  152.5415  134.2231  159.8805 H   0  0  0  0  0  0  0  0  0  0  0  0  # atno 6908 bound_to 6896
  151.2258  133.4433  159.2635 H   0  0  0  0  0  0  0  0  0  0  0  0  # atno 6909 bound_to 6896
  146.1559  140.4741  142.8591 H   0  0  0  0  0  0  0  0  0  0  0  0  # atno 7974 bound_to 7965
  156.0382  140.1297  157.0185 H   0  0  0  0  0  0  0  0  0  0  0  0  # atno 8008 bound_to 7997
  154.4379  140.1035  156.6268 H   0  0  0  0  0  0  0  0  0  0  0  0  # atno 8009 bound_to 7997
  155.5706  140.3466  155.4516 H   0  0  0  0  0  0  0  0  0  0  0  0  # atno 8010 bound_to 7997
  140.2699  143.3351  152.0545 H   0  0  0  0  0  0  0  0  0  0  0  0  # atno 10167 bound_to 10162
  157.6787  131.0766  150.5482 H   0  0  0  0  0  0  0  0  0  0  0  0  # atno 10718 bound_to 10713
  154.8609  135.3583  154.5543 H   0  0  0  0  0  0  0  0  0  0  0  0  # atno 10763 bound_to 10752
  153.6160  135.7007  153.5333 H   0  0  0  0  0  0  0  0  0  0  0  0  # atno 10764 bound_to 10752
  153.3169  135.4162  155.1344 H   0  0  0  0  0  0  0  0  0  0  0  0  # atno 10765 bound_to 10752
  140.4732  134.1010  155.7736 H   0  0  0  0  0  0  0  0  0  0  0  0  # atno 11005 bound_to 11000
  144.7963  140.6129  143.6508 LP  0  0  0  0  0  0  0  0  0  0  0  0  # atno 17320 bound_to 7965
  145.4709  139.1503  143.3815 LP  0  0  0  0  0  0  0  0  0  0  0  0  # atno 17321 bound_to 7965
  139.4992  144.6663  151.6348 LP  0  0  0  0  0  0  0  0  0  0  0  0  # atno 17342 bound_to 10162
  140.5898  143.9799  150.6318 LP  0  0  0  0  0  0  0  0  0  0  0  0  # atno 17343 bound_to 10162
  156.5787  130.4299  149.5987 LP  0  0  0  0  0  0  0  0  0  0  0  0  # atno 17370 bound_to 10713
  156.2679  130.7000  151.1789 LP  0  0  0  0  0  0  0  0  0  0  0  0  # atno 17371 bound_to 10713
  141.1567  133.8870  157.1959 LP  0  0  0  0  0  0  0  0  0  0  0  0  # atno 17394 bound_to 11000
  139.9872  135.0078  156.9890 LP  0  0  0  0  0  0  0  0  0  0  0  0  # atno 17395 bound_to 11000

$$$$
