AV-unprocessed.smi:1795|AV-procd|sdf|7239|dock1
  -GOLD-   22720 8483D 1   1.00000     0.00000
 Structure written by MMmdl.
 47 48  0  0  0  0  0  0  0  0  1 V2000
  152.8840  138.4088  154.6980 C   0  0  0  0  0  0  0  0  0  0  0  0
  151.4436  138.0002  154.3437 C   0  0  2  0  0  0  0  0  0  0  0  0
  150.4951  139.2023  154.1621 C   0  0  0  0  0  0  0  0  0  0  0  0
  150.1111  139.8470  155.4240 N   0  0  0  0  0  0  0  0  0  0  0  0
  149.1791  140.9823  155.2257 C   0  0  1  0  0  0  0  0  0  0  0  0
  147.8968  140.5792  154.4525 C   0  0  0  0  0  0  0  0  0  0  0  0
  148.7623  141.6708  156.5547 C   0  0  0  0  0  0  0  0  0  0  0  0
  149.8064  142.5461  157.0777 N   0  0  0  0  0  0  0  0  0  0  0  0
  150.9683  142.1305  157.6019 C   0  0  0  0  0  0  0  0  0  0  0  0
  151.2796  140.9420  157.6923 O   0  0  0  0  0  0  0  0  0  0  0  0
  151.9073  143.2388  158.1010 C   0  0  0  0  0  0  0  0  0  0  0  0
  152.2927  143.0961  159.5151 N   0  0  0  0  0  0  0  0  0  0  0  0
  151.8874  144.1207  160.3937 C   0  0  0  0  0  0  0  0  0  0  0  0
  152.1815  144.0913  161.7031 C   0  0  0  0  0  0  0  0  0  0  0  0
  152.9364  142.9690  162.2076 C   0  0  0  0  0  0  0  0  0  0  0  0
  153.3250  141.9810  161.3771 C   0  0  0  0  0  0  0  0  0  0  0  0
  153.0035  142.0080  159.9454 C   0  0  0  0  0  0  0  0  0  0  0  0
  153.3517  141.1080  159.1804 O   0  0  0  0  0  0  0  0  0  0  0  0
  149.5655  138.8138  156.3091 C   0  0  0  0  0  0  0  0  0  0  0  0
  150.5440  137.6486  156.5393 C   0  0  1  0  0  0  0  0  0  0  0  0
  149.9306  136.5442  157.4068 C   0  0  0  0  0  0  0  0  0  0  0  0
  150.9042  137.0770  155.2866 O   0  0  0  0  0  0  0  0  0  0  0  0
  153.3226  139.0104  153.9017 H   0  0  0  0  0  0  0  0  0  0  0  0
  153.5157  137.5308  154.8334 H   0  0  0  0  0  0  0  0  0  0  0  0
  152.9298  138.9992  155.6127 H   0  0  0  0  0  0  0  0  0  0  0  0
  151.4923  137.4684  153.3931 H   0  0  0  0  0  0  0  0  0  0  0  0
  150.9947  139.9049  153.4988 H   0  0  0  0  0  0  0  0  0  0  0  0
  149.5970  138.8666  153.6412 H   0  0  0  0  0  0  0  0  0  0  0  0
  149.6904  141.7344  154.6224 H   0  0  0  0  0  0  0  0  0  0  0  0
  147.1809  141.3965  154.3714 H   0  0  0  0  0  0  0  0  0  0  0  0
  147.3873  139.7479  154.9413 H   0  0  0  0  0  0  0  0  0  0  0  0
  148.1096  140.2885  153.4248 H   0  0  0  0  0  0  0  0  0  0  0  0
  147.8350  142.2261  156.4021 H   0  0  0  0  0  0  0  0  0  0  0  0
  148.5733  140.9468  157.3451 H   0  0  0  0  0  0  0  0  0  0  0  0
  149.6286  143.5394  157.0415 H   0  0  0  0  0  0  0  0  0  0  0  0
  152.7944  143.2615  157.4652 H   0  0  0  0  0  0  0  0  0  0  0  0
  151.4191  144.2014  157.9403 H   0  0  0  0  0  0  0  0  0  0  0  0
  151.3211  144.9199  159.9379 H   0  0  0  0  0  0  0  0  0  0  0  0
  151.8586  144.8836  162.3624 H   0  0  0  0  0  0  0  0  0  0  0  0
  153.1896  142.9207  163.2565 H   0  0  0  0  0  0  0  0  0  0  0  0
  153.8875  141.1481  161.7731 H   0  0  0  0  0  0  0  0  0  0  0  0
  149.3368  139.2301  157.2883 H   0  0  0  0  0  0  0  0  0  0  0  0
  148.6286  138.4333  155.8990 H   0  0  0  0  0  0  0  0  0  0  0  0
  151.4383  138.0188  157.0414 H   0  0  0  0  0  0  0  0  0  0  0  0
  149.6517  136.9265  158.3890 H   0  0  0  0  0  0  0  0  0  0  0  0
  150.6385  135.7289  157.5574 H   0  0  0  0  0  0  0  0  0  0  0  0
  149.0362  136.1278  156.9425 H   0  0  0  0  0  0  0  0  0  0  0  0
  1  2  1  0  0  0  0
  1 23  1  0  0  0  0
  1 24  1  0  0  0  0
  1 25  1  0  0  0  0
  2 22  1  0  0  0  0
  2  3  1  0  0  0  0
  2 26  1  0  0  0  0
  3  4  1  0  0  0  0
  3 27  1  0  0  0  0
  3 28  1  0  0  0  0
  4  5  1  0  0  0  0
  4 19  1  0  0  0  0
  5  6  1  0  0  0  0
  5  7  1  0  0  0  0
  5 29  1  0  0  0  0
  6 30  1  0  0  0  0
  6 31  1  0  0  0  0
  6 32  1  0  0  0  0
  7  8  1  0  0  0  0
  7 33  1  0  0  0  0
  7 34  1  0  0  0  0
  8  9  1  0  0  0  0
  8 35  1  0  0  0  0
  9 10  2  0  0  0  0
  9 11  1  0  0  0  0
 11 12  1  0  0  0  0
 11 36  1  0  0  0  0
 11 37  1  0  0  0  0
 12 17  1  0  0  0  0
 12 13  1  0  0  0  0
 13 14  2  0  0  0  0
 13 38  1  0  0  0  0
 14 15  1  0  0  0  0
 14 39  1  0  0  0  0
 15 16  2  0  0  0  0
 15 40  1  0  0  0  0
 16 17  1  0  0  0  0
 16 41  1  0  0  0  0
 17 18  2  0  0  0  0
 19 20  1  0  0  0  0
 19 42  1  0  0  0  0
 19 43  1  0  0  0  0
 20 21  1  0  0  0  0
 20 22  1  0  0  0  0
 20 44  1  0  0  0  0
 21 45  1  0  0  0  0
 21 46  1  0  0  0  0
 21 47  1  0  0  0  0
M  END
> <s_m_source_file>
AV-unprocessed.smi

> <i_m_source_file_index>
1795

> <i_lp_mmshare_version>
43012

> <i_f3d_flags>
0

> <s_epik_input>
W0NIM11bQ0BASF0xW0NIMl1OKFtDSDJdW0NASF0oTzEpW0NIM10pW0NASF0oW0NIM10pW0NIMl1bTkhdQyg9TylbQ0gyXW4yW2NIXVtjSF1bY0hdW2NIXWMyPU8=

> <s_epik_cmdline>
J2VwaWtfcHl0aG9uJywgJy1waCcsICc3LjAnLCAnLXRuJywgJzgnLCAnLW1hJywgJzIwMCcsICctbWV0YWxfYmluZGluZycsICctaW1hZScsICc8aW5maWxlLm1hZT4nLCAnLW9tYWUnLCAnPG91dGZpbGUubWFlPic=

> <r_lp_tautomer_probability>
1

> <r_epik_Ionization_Penalty>
0.237383

> <r_epik_Ionization_Penalty_Charging>
3.58805e-07

> <r_epik_Ionization_Penalty_Neutral>
0.237382

> <r_epik_State_Penalty>
0.228245

> <r_epik_Charging_Adjusted_Penalty>
0.228245

> <i_epik_Tot_Q>
0

> <i_epik_Tot_abs_Q>
0

> <r_epik_Metal_State_Penalty>
0.228221

> <b_epik_Metal_Only>
0

> <s_lp_Force_Field>
OPLS_2005

> <r_lp_Energy>
40.7521

> <b_lp_Chiralities_Consistent>
1

> <s_lp_Variant>
AV-unprocessed.smi:1795-3

> <Gold.Version>
5.8.1

> <Gold.Id.Protein>
6NUR|6NUR_protein|mol2

> <Gold.PLP.Fitness>
46.5358

> <Gold.PLP.PLP>
-44.9554

> <Gold.PLP.part.hbond>
-1.0000

> <Gold.PLP.part.metal>
0.0000

> <Gold.PLP.part.buried>
-4.0077

> <Gold.PLP.part.nonpolar>
-38.8207

> <Gold.PLP.part.repulsive>
0.1538

> <Gold.PLP.ligand.clash>
0.0000

> <Gold.PLP.ligand.torsion>
0.2837

> <Gold.PLP.Chemscore.Hbond>
0.6880

> <Gold.PLP.Chemscore.CHOScore>
0.0000

> <Gold.PLP.Chemscore.Metal>
0.0000

> <Gold.Chemscore.Hbonds>
donor molecule, donor type, donor heavy atom, donor atom, acceptor molecule, acceptor atom, score
      L1  H     8    35       P1  8028  0.69

> <Gold.PLP.Chemscore.Internal.Correction>
0.0837

> <Gold.Rescore>
     Score         DG    S(hbond)    S(metal)    S(lipo)     H(rot)  DE(clash)    DE(int)     intcor
     13.40     -16.65       0.92        0.00     109.20       1.83       0.02       3.24       ----

> <Gold.Chemscore.Fitness>
13.3955

> <Gold.Chemscore.DG>
-16.6511

> <Gold.Chemscore.ZeroCoef>
-5.4800

> <Gold.Chemscore.Hbond>
0.9184

> <Gold.Chemscore.Metal>
0.0000

> <Gold.Chemscore.Lipo>
109.1978

> <Gold.Chemscore.Internal_Hbond>
0.0000

> <Gold.Chemscore.DEClash>
0.0189

> <Gold.Chemscore.DEInternal>
3.2368

> <Gold.Chemscore.Rot>
1.8251

> <Gold.Chemscore.Internal.Correction>
   9.000000E+99

> <Gold.Chemscore.Hbonds>
donor molecule, donor type, donor heavy atom, donor atom, acceptor molecule, acceptor atom, score
      L1  H     8    35       P1  8028  0.63

> <Gold.Chemscore.Hbond.Weighted>
-3.0674

> <Gold.Chemscore.Metal.Weighted>
-0.0000

> <Gold.Chemscore.Lipo.Weighted>
-12.7761

> <Gold.Chemscore.Internal_Hbond.Weighted>
0.0000

> <Gold.Chemscore.DEClash.Weighted>
0.0189

> <Gold.Chemscore.DEInternal.Weighted>
3.2368

> <Gold.Chemscore.Rot.Weighted>
4.6724

> <Gold.Chemscore.Internal.Correction.Weighted>
   9.000000E+99

> <Gold.Protein.RotatedTorsions>
[ 6907 6896 6895 6894 ] final  -70.81 input  -60.11 | X-H torsion
[ 7974 7965 7964 7962 ] final   73.76 input  175.53 | X-H torsion
[ 8008 7997 7996 7995 ] final  118.16 input   59.86 | X-H torsion
[ 10167 10162 10161 10158 ] final   -9.95 input  -65.29 | X-H torsion
[ 10718 10713 10712 10709 ] final -119.89 input   66.30 | X-H torsion
[ 10763 10752 10751 10750 ] final  -47.82 input  -60.55 | X-H torsion
[ 11005 11000 10999 10996 ] final   63.22 input  -57.11 | X-H torsion

> <Gold.Protein.ActiveResidues>
 VAL166  LYS551  ARG553  GLY616  TRP617  ASP618  TYR619  PRO620  LYS621  CYS622 
 ASP623  PHE694  ASN695  SER759  ASP760  ASP761  ALA762  ILE779  LEU786  VAL792 
 PHE793  MET794  SER795  GLU796  ALA797  LYS798  CYS799  TRP800  GLU811  SER814 

> <Gold.Protein.RotatedAtoms>
  150.7240  134.5399  159.5741 H   0  0  0  0  0  0  0  0  0  0  0  0  # atno 6907 bound_to 6896
  152.2912  134.7716  160.0386 H   0  0  0  0  0  0  0  0  0  0  0  0  # atno 6908 bound_to 6896
  151.8329  133.3376  159.3655 H   0  0  0  0  0  0  0  0  0  0  0  0  # atno 6909 bound_to 6896
  145.7368  139.2705  143.1509 H   0  0  0  0  0  0  0  0  0  0  0  0  # atno 7974 bound_to 7965
  156.2532  140.2881  156.0791 H   0  0  0  0  0  0  0  0  0  0  0  0  # atno 8008 bound_to 7997
  155.1587  140.0399  157.2855 H   0  0  0  0  0  0  0  0  0  0  0  0  # atno 8009 bound_to 7997
  154.6408  140.2522  155.7330 H   0  0  0  0  0  0  0  0  0  0  0  0  # atno 8010 bound_to 7997
  140.7101  143.5801  150.9001 H   0  0  0  0  0  0  0  0  0  0  0  0  # atno 10167 bound_to 10162
  156.1216  130.6327  150.9473 H   0  0  0  0  0  0  0  0  0  0  0  0  # atno 10718 bound_to 10713
  154.0677  135.6609  153.4820 H   0  0  0  0  0  0  0  0  0  0  0  0  # atno 10763 bound_to 10752
  153.0402  135.5150  154.7597 H   0  0  0  0  0  0  0  0  0  0  0  0  # atno 10764 bound_to 10752
  154.6653  135.3021  154.9780 H   0  0  0  0  0  0  0  0  0  0  0  0  # atno 10765 bound_to 10752
  140.0039  134.6399  155.9886 H   0  0  0  0  0  0  0  0  0  0  0  0  # atno 11005 bound_to 11000
  146.0485  140.8093  142.9793 LP  0  0  0  0  0  0  0  0  0  0  0  0  # atno 17320 bound_to 7965
  144.6880  140.3017  143.7262 LP  0  0  0  0  0  0  0  0  0  0  0  0  # atno 17321 bound_to 7965
  139.9527  143.6254  152.3024 LP  0  0  0  0  0  0  0  0  0  0  0  0  # atno 17342 bound_to 10162
  139.6778  144.7657  151.1664 LP  0  0  0  0  0  0  0  0  0  0  0  0  # atno 17343 bound_to 10162
  157.6399  131.0911  150.8272 LP  0  0  0  0  0  0  0  0  0  0  0  0  # atno 17370 bound_to 10713
  156.8368  130.5034  149.5325 LP  0  0  0  0  0  0  0  0  0  0  0  0  # atno 17371 bound_to 10713
  141.1663  133.6537  156.4490 LP  0  0  0  0  0  0  0  0  0  0  0  0  # atno 17394 bound_to 11000
  140.4677  134.6783  157.5114 LP  0  0  0  0  0  0  0  0  0  0  0  0  # atno 17395 bound_to 11000

$$$$
