#       Name:                AV-unprocessed.smi:1780
#       Creating user name   scv26
#       Creation time:       Fri Mar 27 08:42:31 2020


#       File generated by GOLD software.
#

@<TRIPOS>MOLECULE
AV-unprocessed.smi:1780
    49    50     1
SMALL
NO_CHARGES


@<TRIPOS>ATOM
      1 ****        -5.8383   3.6539   0.1115 C.3            1 S1                 0.0000
      2 ****        -5.1116   3.3906  -1.2133 C.3            1 S1                 0.0000
      3 ****        -4.5816   2.0424  -1.2795 N.pl3          1 S1                 0.0000
      4 ****        -3.2674   1.6355  -1.1618 C.2            1 S1                 0.0000
      5 ****        -3.2887   0.2758  -1.2950 C.2            1 S1                 0.0000
      6 ****        -2.2158  -0.6495  -1.2500 N.am           1 S1                 0.0000
      7 ****        -0.9106  -0.3772  -1.0896 C.2            1 S1                 0.0000
      8 ****        -0.4306   0.7509  -0.9757 O.2            1 S1                 0.0000
      9 ****        -0.1793  -1.5001  -1.0660 N.am           1 S1                 0.0000
     10 ****         1.2695  -1.5558  -0.8912 C.3            1 S1                 0.0000
     11 ****         1.7372  -1.2607   0.5645 C.3            1 S1                 0.0000
     12 ****         0.9896  -2.2093   1.5364 C.3            1 S1                 0.0000
     13 ****         3.2087  -1.3187   0.7258 N.3            1 S1                 0.0000
     14 ****         3.9156  -0.3945  -0.1688 C.3            1 S1                 0.0000
     15 ****         5.4424  -0.4333   0.0175 C.3            1 S1                 0.0000
     16 ****         5.7688  -0.1483   1.3706 O.3            1 S1                 0.0000
     17 ****         5.1657  -1.0686   2.2694 C.3            1 S1                 0.0000
     18 ****         3.6370  -1.0317   2.0998 C.3            1 S1                 0.0000
     19 ****        -4.6502  -0.0730  -1.4911 C.2            1 S1                 0.0000
     20 ****        -5.4256   1.0005  -1.4837 N.2            1 S1                 0.0000
     21 ****        -6.2083   4.6783   0.1533 H              1 S1                 0.0000
     22 ****        -5.1724   3.5050   0.9622 H              1 S1                 0.0000
     23 ****        -6.6930   2.9874   0.2335 H              1 S1                 0.0000
     24 ****        -5.7879   3.5434  -2.0556 H              1 S1                 0.0000
     25 ****        -4.2884   4.0953  -1.3358 H              1 S1                 0.0000
     26 ****        -2.4623   2.3360  -0.9963 H              1 S1                 0.0000
     27 ****        -2.4699  -1.6219  -1.3434 H              1 S1                 0.0000
     28 ****        -0.6581  -2.3829  -1.1681 H              1 S1                 0.0000
     29 ****         1.6072  -2.5473  -1.1944 H              1 S1                 0.0000
     30 ****         1.6958  -0.8532  -1.6062 H              1 S1                 0.0000
     31 ****         1.4169  -0.2460   0.8060 H              1 S1                 0.0000
     32 ****        -0.0891  -2.1955   1.3853 H              1 S1                 0.0000
     33 ****         1.1293  -1.9269   2.5788 H              1 S1                 0.0000
     34 ****         1.3243  -3.2402   1.4174 H              1 S1                 0.0000
     35 ****         3.7205  -0.6397  -1.2107 H              1 S1                 0.0000
     36 ****         3.5564   0.6234  -0.0087 H              1 S1                 0.0000
     37 ****         5.8412  -1.4093  -0.2639 H              1 S1                 0.0000
     38 ****         5.9209   0.3048  -0.6263 H              1 S1                 0.0000
     39 ****         5.5508  -2.0733   2.0882 H              1 S1                 0.0000
     40 ****         5.4396  -0.8004   3.2898 H              1 S1                 0.0000
     41 ****         3.2625  -0.0543   2.4075 H              1 S1                 0.0000
     42 ****         3.2231  -1.7621   2.7924 H              1 S1                 0.0000
     43 ****        -5.0928  -1.0475  -1.6361 H              1 S1                 0.0000
     44 ****        -1.0274   1.5529  -0.9995 LP             1 S1                 0.0000
     45 ****         0.5560   0.8650  -0.8593 LP             1 S1                 0.0000
     46 ****         3.4481  -2.2602   0.4885 LP             1 S1                 0.0000
     47 ****         5.4515   0.7738   1.5918 LP             1 S1                 0.0000
     48 ****         6.7617  -0.1943   1.4797 LP             1 S1                 0.0000
     49 ****        -6.4179   1.0353  -1.6028 LP             1 S1                 0.0000
@<TRIPOS>BOND
    1    1    2 1     
    2    1   21 1     
    3    1   22 1     
    4    1   23 1     
    5    2    3 1     
    6    2   24 1     
    7    2   25 1     
    8    3   20 1     
    9    3    4 1     
   10    4    5 2     
   11    4   26 1     
   12    5    6 1     
   13    5   19 1     
   14    6    7 am    
   15    6   27 1     
   16    7    8 2     
   17    7    9 am    
   18    9   10 1     
   19    9   28 1     
   20   10   11 1     
   21   10   29 1     
   22   10   30 1     
   23   11   12 1     
   24   11   13 1     
   25   11   31 1     
   26   12   32 1     
   27   12   33 1     
   28   12   34 1     
   29   13   18 1     
   30   13   14 1     
   31   14   15 1     
   32   14   35 1     
   33   14   36 1     
   34   15   16 1     
   35   15   37 1     
   36   15   38 1     
   37   16   17 1     
   38   17   18 1     
   39   17   39 1     
   40   17   40 1     
   41   18   41 1     
   42   18   42 1     
   43   19   20 2     
   44   19   43 1     
   45    8   44 1     
   46    8   45 1     
   47   13   46 1     
   48   16   47 1     
   49   16   48 1     
   50   20   49 1     
@<TRIPOS>SUBSTRUCTURE
      1 S1             1
@<TRIPOS>SET
LONE_PAIRS      STATIC     ATOMS    <user>   **** ""
6 44 45 46 47 48 49
DONOR_HYDROGENS      STATIC     ATOMS    <user>   **** ""
2 27 28
ATOM$BLUE        STATIC     ATOMS    COLORGROUP SYSTEM
6 44 45 46 47 48 49
ATOM$RED        STATIC     ATOMS    COLORGROUP SYSTEM
2 27 28
