#       Name:                AV-unprocessed.smi:749
#       Creating user name   scv26
#       Creation time:       Fri Mar 27 00:58:03 2020


#       File generated by GOLD software.
#

@<TRIPOS>MOLECULE
AV-unprocessed.smi:749
    50    51     1
SMALL
NO_CHARGES


@<TRIPOS>ATOM
      1 ****        -5.6472   1.1402   1.9321 C.3            1 S1                 0.0000
      2 ****        -4.8540   1.0311   0.7067 N.am           1 S1                 0.0000
      3 ****        -3.4032   1.1887   0.8934 C.3            1 S1                 0.0000
      4 ****        -2.6199   1.4221  -0.4129 C.3            1 S1                 0.0000
      5 ****        -1.1885   1.2351  -0.2009 N.am           1 S1                 0.0000
      6 ****        -0.3464   2.1523   0.3035 C.2            1 S1                 0.0000
      7 ****        -0.7128   3.2759   0.6441 O.2            1 S1                 0.0000
      8 ****         0.9454   1.7772   0.4149 N.am           1 S1                 0.0000
      9 ****         2.0830   2.4838   0.8984 C.2            1 S1                 0.0000
     10 ****         3.3445   1.8373   0.9855 C.2            1 S1                 0.0000
     11 ****         4.1709   2.8155   1.4685 C.2            1 S1                 0.0000
     12 ****         5.6350   2.8599   1.8070 C.3            1 S1                 0.0000
     13 ****         6.2961   1.4880   1.5664 C.3            1 S1                 0.0000
     14 ****         5.8225   3.2357   3.2887 C.3            1 S1                 0.0000
     15 ****         6.3469   3.9026   0.9246 C.3            1 S1                 0.0000
     16 ****         3.4657   3.9663   1.6548 O.3            1 S1                 0.0000
     17 ****         2.1333   3.7484   1.2887 N.2            1 S1                 0.0000
     18 ****        -3.1130   0.4542  -1.4898 C.3            1 S1                 0.0000
     19 ****        -4.6090   0.6636  -1.7517 C.3            1 S1                 0.0000
     20 ****        -5.4543   0.7319  -0.4708 C.2            1 S1                 0.0000
     21 ****        -6.6671   0.5408  -0.5658 O.2            1 S1                 0.0000
     22 ****        -6.3494   1.9719   1.8593 H              1 S1                 0.0000
     23 ****        -5.0252   1.3081   2.8123 H              1 S1                 0.0000
     24 ****        -6.2164   0.2261   2.1072 H              1 S1                 0.0000
     25 ****        -3.2071   2.0132   1.5807 H              1 S1                 0.0000
     26 ****        -3.0404   0.2832   1.3826 H              1 S1                 0.0000
     27 ****        -2.8002   2.4407  -0.7626 H              1 S1                 0.0000
     28 ****        -0.8048   0.3358  -0.4554 H              1 S1                 0.0000
     29 ****         1.1431   0.8457   0.0793 H              1 S1                 0.0000
     30 ****         3.6032   0.8196   0.7338 H              1 S1                 0.0000
     31 ****         7.3594   1.5107   1.8078 H              1 S1                 0.0000
     32 ****         6.2055   1.1784   0.5244 H              1 S1                 0.0000
     33 ****         5.8390   0.7120   2.1819 H              1 S1                 0.0000
     34 ****         5.3325   2.5153   3.9448 H              1 S1                 0.0000
     35 ****         5.4021   4.2176   3.5088 H              1 S1                 0.0000
     36 ****         6.8780   3.2647   3.5623 H              1 S1                 0.0000
     37 ****         7.4141   3.9498   1.1445 H              1 S1                 0.0000
     38 ****         5.9379   4.9021   1.0775 H              1 S1                 0.0000
     39 ****         6.2397   3.6635  -0.1342 H              1 S1                 0.0000
     40 ****        -2.5561   0.6039  -2.4157 H              1 S1                 0.0000
     41 ****        -2.9321  -0.5769  -1.1816 H              1 S1                 0.0000
     42 ****        -4.7560   1.5987  -2.2936 H              1 S1                 0.0000
     43 ****        -4.9878  -0.1313  -2.3949 H              1 S1                 0.0000
     44 ****        -1.6731   3.5385   0.5502 LP             1 S1                 0.0000
     45 ****        -0.0504   3.9268   1.0149 LP             1 S1                 0.0000
     46 ****         3.8544   4.6931   1.0884 LP             1 S1                 0.0000
     47 ****         3.5095   4.2343   2.6172 LP             1 S1                 0.0000
     48 ****         1.3805   4.4061   1.3159 LP             1 S1                 0.0000
     49 ****        -7.2483   0.6043   0.2454 LP             1 S1                 0.0000
     50 ****        -7.0707   0.3221  -1.4542 LP             1 S1                 0.0000
@<TRIPOS>BOND
    1    1    2 1     
    2    1   22 1     
    3    1   23 1     
    4    1   24 1     
    5    2   20 am    
    6    2    3 1     
    7    3    4 1     
    8    3   25 1     
    9    3   26 1     
   10    4    5 1     
   11    4   18 1     
   12    4   27 1     
   13    5    6 am    
   14    5   28 1     
   15    6    7 2     
   16    6    8 am    
   17    8    9 1     
   18    8   29 1     
   19    9   17 2     
   20    9   10 1     
   21   10   11 2     
   22   10   30 1     
   23   11   12 1     
   24   11   16 1     
   25   12   13 1     
   26   12   14 1     
   27   12   15 1     
   28   13   31 1     
   29   13   32 1     
   30   13   33 1     
   31   14   34 1     
   32   14   35 1     
   33   14   36 1     
   34   15   37 1     
   35   15   38 1     
   36   15   39 1     
   37   16   17 1     
   38   18   19 1     
   39   18   40 1     
   40   18   41 1     
   41   19   20 1     
   42   19   42 1     
   43   19   43 1     
   44   20   21 2     
   45    7   44 1     
   46    7   45 1     
   47   16   46 1     
   48   16   47 1     
   49   17   48 1     
   50   21   49 1     
   51   21   50 1     
@<TRIPOS>SUBSTRUCTURE
      1 S1             1
@<TRIPOS>SET
LONE_PAIRS      STATIC     ATOMS    <user>   **** ""
7 44 45 46 47 48 49 50
DONOR_HYDROGENS      STATIC     ATOMS    <user>   **** ""
2 28 29
ATOM$BLUE        STATIC     ATOMS    COLORGROUP SYSTEM
7 44 45 46 47 48 49 50
ATOM$RED        STATIC     ATOMS    COLORGROUP SYSTEM
2 28 29
