AV-unprocessed.smi:243|AV-procd|sdf|1859|dock3
  -GOLD-   2262020493D 1   1.00000     0.00000
 Structure written by MMmdl.
 58 61  0  0  0  0  0  0  0  0  2 V2000
  145.0819  134.1275  150.6208 C   0  0  0  0  0  0  0  0  0  0  0  0
  146.1505  133.0869  150.2562 C   0  0  0  0  0  0  0  0  0  0  0  0
  146.6926  132.3884  151.4487 N   0  3  1  0  0  0  0  0  0  0  0  0
  147.4833  133.2961  152.3186 C   0  0  0  0  0  0  0  0  0  0  0  0
  148.1584  132.5216  153.4606 C   0  0  0  0  0  0  0  0  0  0  0  0
  147.1162  131.7367  154.2804 C   0  0  2  0  0  0  0  0  0  0  0  0
  147.6810  131.0735  155.4671 N   0  0  0  0  0  0  0  0  0  0  0  0
  147.1777  129.7739  155.9191 C   0  0  0  0  0  0  0  0  0  0  0  0
  148.1981  131.8915  156.4240 C   0  0  0  0  0  0  0  0  0  0  0  0
  149.2772  132.6636  156.1228 N   0  0  0  0  0  0  0  0  0  0  0  0
  149.8203  133.4621  157.0458 C   0  0  0  0  0  0  0  0  0  0  0  0
  149.4496  133.6417  158.3140 N   0  0  0  0  0  0  0  0  0  0  0  0
  148.3637  132.8783  158.6246 C   0  0  0  0  0  0  0  0  0  0  0  0
  147.6836  131.9820  157.7507 C   0  0  0  0  0  0  0  0  0  0  0  0
  146.6223  131.3880  158.4249 N   0  0  0  0  0  0  0  0  0  0  0  0
  146.6796  131.8929  159.6264 C   0  0  0  0  0  0  0  0  0  0  0  0
  147.6890  132.8051  159.8307 N   0  0  0  0  0  0  0  0  0  0  0  0
  147.9764  133.5284  161.0599 C   0  0  0  0  0  0  0  0  0  0  0  0
  147.0467  134.7434  161.2880 C   0  0  1  0  0  0  0  0  0  0  0  0
  145.7069  134.3526  161.0419 O   0  0  0  0  0  0  0  0  0  0  0  0
  147.1278  135.3374  162.6921 C   0  0  0  0  0  0  0  0  0  0  0  0
  146.8643  136.8172  162.4516 C   0  0  0  0  0  0  0  0  0  0  0  0
  147.5689  137.0609  161.2465 O   0  0  0  0  0  0  0  0  0  0  0  0
  147.3797  135.9454  160.3814 C   0  0  0  0  0  0  0  0  0  0  0  0
  146.2667  130.8176  153.3616 C   0  0  2  0  0  0  0  0  0  0  0  0
  146.9982  129.5808  152.8061 C   0  0  0  0  0  0  0  0  0  0  0  0
  145.6520  131.6588  152.2230 C   0  0  0  0  0  0  0  0  0  0  0  0
  144.6409  134.5542  149.7194 H   0  0  0  0  0  0  0  0  0  0  0  0
  145.4920  134.9539  151.2004 H   0  0  0  0  0  0  0  0  0  0  0  0
  144.2753  133.6769  151.2001 H   0  0  0  0  0  0  0  0  0  0  0  0
  145.6854  132.3571  149.5922 H   0  0  0  0  0  0  0  0  0  0  0  0
  146.9610  133.5465  149.6887 H   0  0  0  0  0  0  0  0  0  0  0  0
  148.2512  133.7988  151.7291 H   0  0  0  0  0  0  0  0  0  0  0  0
  146.8335  134.0744  152.7220 H   0  0  0  0  0  0  0  0  0  0  0  0
  148.9075  131.8501  153.0404 H   0  0  0  0  0  0  0  0  0  0  0  0
  148.6929  133.2194  154.1064 H   0  0  0  0  0  0  0  0  0  0  0  0
  146.4373  132.5023  154.6494 H   0  0  0  0  0  0  0  0  0  0  0  0
  147.8204  129.3587  156.6967 H   0  0  0  0  0  0  0  0  0  0  0  0
  147.1729  129.0503  155.1049 H   0  0  0  0  0  0  0  0  0  0  0  0
  146.1679  129.8428  156.3194 H   0  0  0  0  0  0  0  0  0  0  0  0
  150.6742  134.0388  156.7219 H   0  0  0  0  0  0  0  0  0  0  0  0
  145.9769  131.6173  160.3991 H   0  0  0  0  0  0  0  0  0  0  0  0
  147.8929  132.8285  161.8921 H   0  0  0  0  0  0  0  0  0  0  0  0
  149.0185  133.8505  161.0362 H   0  0  0  0  0  0  0  0  0  0  0  0
  145.7145  133.5776  160.5012 H   0  0  0  0  0  0  0  0  0  0  0  0
  146.4356  134.8858  163.4044 H   0  0  0  0  0  0  0  0  0  0  0  0
  148.1362  135.2253  163.0920 H   0  0  0  0  0  0  0  0  0  0  0  0
  145.8004  137.0101  162.3048 H   0  0  0  0  0  0  0  0  0  0  0  0
  147.2238  137.4491  163.2641 H   0  0  0  0  0  0  0  0  0  0  0  0
  148.2876  135.7880  159.7980 H   0  0  0  0  0  0  0  0  0  0  0  0
  146.5747  136.1639  159.6776 H   0  0  0  0  0  0  0  0  0  0  0  0
  145.4299  130.4387  153.9504 H   0  0  0  0  0  0  0  0  0  0  0  0
  147.9181  129.8453  152.2854 H   0  0  0  0  0  0  0  0  0  0  0  0
  146.3668  129.0397  152.1010 H   0  0  0  0  0  0  0  0  0  0  0  0
  147.2450  128.8778  153.6004 H   0  0  0  0  0  0  0  0  0  0  0  0
  144.9472  132.3809  152.6390 H   0  0  0  0  0  0  0  0  0  0  0  0
  145.0718  131.0092  151.5685 H   0  0  0  0  0  0  0  0  0  0  0  0
  147.3414  131.6961  151.1026 H   0  0  0  0  0  0  0  0  0  0  0  0
  1  2  1  0  0  0  0
  1 28  1  0  0  0  0
  1 29  1  0  0  0  0
  1 30  1  0  0  0  0
  2  3  1  0  0  0  0
  2 31  1  0  0  0  0
  2 32  1  0  0  0  0
  3 27  1  0  0  0  0
  3  4  1  0  0  0  0
  3 58  1  0  0  0  0
  4  5  1  0  0  0  0
  4 33  1  0  0  0  0
  4 34  1  0  0  0  0
  5  6  1  0  0  0  0
  5 35  1  0  0  0  0
  5 36  1  0  0  0  0
  6  7  1  0  0  0  0
  6 25  1  0  0  0  0
  6 37  1  0  0  0  0
  7  8  1  0  0  0  0
  7  9  1  0  0  0  0
  8 38  1  0  0  0  0
  8 39  1  0  0  0  0
  8 40  1  0  0  0  0
  9 14  1  0  0  0  0
  9 10  2  0  0  0  0
 10 11  1  0  0  0  0
 11 12  2  0  0  0  0
 11 41  1  0  0  0  0
 12 13  1  0  0  0  0
 13 17  1  0  0  0  0
 13 14  2  0  0  0  0
 14 15  1  0  0  0  0
 15 16  2  0  0  0  0
 16 17  1  0  0  0  0
 16 42  1  0  0  0  0
 17 18  1  0  0  0  0
 18 19  1  0  0  0  0
 18 43  1  0  0  0  0
 18 44  1  0  0  0  0
 19 24  1  0  0  0  0
 19 20  1  0  0  0  0
 19 21  1  0  0  0  0
 20 45  1  0  0  0  0
 21 22  1  0  0  0  0
 21 46  1  0  0  0  0
 21 47  1  0  0  0  0
 22 23  1  0  0  0  0
 22 48  1  0  0  0  0
 22 49  1  0  0  0  0
 23 24  1  0  0  0  0
 24 50  1  0  0  0  0
 24 51  1  0  0  0  0
 25 26  1  0  0  0  0
 25 27  1  0  0  0  0
 25 52  1  0  0  0  0
 26 53  1  0  0  0  0
 26 54  1  0  0  0  0
 26 55  1  0  0  0  0
 27 56  1  0  0  0  0
 27 57  1  0  0  0  0
M  CHG  1   3   1
M  END
> <s_m_source_file>
AV-unprocessed.smi

> <i_m_source_file_index>
243

> <i_lp_mmshare_version>
43012

> <i_f3d_flags>
0

> <s_epik_input>
W0NIM11bQ0gyXU4xW0NIMl1bQ0gyXVtDQEhdKFtDQEBIXShbQ0gzXSlbQ0gyXTEpTihbQ0gzXSljKG5bY0hdbjIpYyhjMjMpbltjSF1uM1tDSDJdW0NAQF00KFtPSF0pW0NIMl1bQ0gyXU9bQ0gyXTQ=

> <s_epik_cmdline>
J2VwaWtfcHl0aG9uJywgJy1waCcsICc3LjAnLCAnLXRuJywgJzgnLCAnLW1hJywgJzIwMCcsICctbWV0YWxfYmluZGluZycsICctaW1hZScsICc8aW5maWxlLm1hZT4nLCAnLW9tYWUnLCAnPG91dGZpbGUubWFlPic=

> <r_lp_tautomer_probability>
1

> <r_epik_Ionization_Penalty>
0.00253099

> <r_epik_Ionization_Penalty_Charging>
0.00137877

> <r_epik_Ionization_Penalty_Neutral>
0.00115221

> <r_epik_State_Penalty>
-0

> <r_epik_Charging_Adjusted_Penalty>
0.00137877

> <i_epik_Tot_Q>
1

> <i_epik_Tot_abs_Q>
1

> <r_epik_Metal_State_Penalty>
-0

> <b_epik_Metal_Only>
0

> <s_lp_Force_Field>
OPLS_2005

> <r_lp_Energy>
49.5807

> <b_lp_Chiralities_Consistent>
1

> <s_lp_Variant>
AV-unprocessed.smi:243-12

> <Gold.Version>
5.8.1

> <Gold.Id.Protein>
6NUR|6NUR_protein|mol2

> <Gold.PLP.Fitness>
46.2044

> <Gold.PLP.PLP>
-36.8569

> <Gold.PLP.part.hbond>
-4.0000

> <Gold.PLP.part.metal>
0.0000

> <Gold.PLP.part.buried>
-4.2790

> <Gold.PLP.part.nonpolar>
-28.1926

> <Gold.PLP.part.repulsive>
0.0269

> <Gold.PLP.ligand.clash>
0.0000

> <Gold.PLP.ligand.torsion>
1.6354

> <Gold.PLP.Chemscore.Hbond>
3.8960

> <Gold.PLP.Chemscore.CHOScore>
0.0000

> <Gold.PLP.Chemscore.Metal>
0.0000

> <Gold.Chemscore.Hbonds>
donor molecule, donor type, donor heavy atom, donor atom, acceptor molecule, acceptor atom, score
      L1  H     3    58       P1 10747  1.00
      P1  H  6896  6907       L1    12  0.96
      P1  H  6931  6943       L1    23  0.98
      P1  H  6934  6947       L1    23  0.93

> <Gold.PLP.Chemscore.Internal.Correction>
0.9304

> <Gold.Rescore>
     Score         DG    S(hbond)    S(metal)    S(lipo)     H(rot)  DE(clash)    DE(int)     intcor
     13.95     -19.01       2.71        0.00      87.28       2.24       0.12       4.95       ----

> <Gold.Chemscore.Fitness>
13.9469

> <Gold.Chemscore.DG>
-19.0087

> <Gold.Chemscore.ZeroCoef>
-5.4800

> <Gold.Chemscore.Hbond>
2.7084

> <Gold.Chemscore.Metal>
0.0000

> <Gold.Chemscore.Lipo>
87.2805

> <Gold.Chemscore.Internal_Hbond>
0.0000

> <Gold.Chemscore.DEClash>
0.1164

> <Gold.Chemscore.DEInternal>
4.9453

> <Gold.Chemscore.Rot>
2.2379

> <Gold.Chemscore.Internal.Correction>
   9.000000E+99

> <Gold.Chemscore.Hbonds>
donor molecule, donor type, donor heavy atom, donor atom, acceptor molecule, acceptor atom, score
      L1  H     3    58       P1 10747  0.94
      P1  H  6896  6907       L1    12  0.51
      P1  H  6931  6943       L1    23  0.27
      P1  H  6934  6947       L1    23  0.29

> <Gold.Chemscore.Hbond.Weighted>
-9.0460

> <Gold.Chemscore.Metal.Weighted>
-0.0000

> <Gold.Chemscore.Lipo.Weighted>
-10.2118

> <Gold.Chemscore.Internal_Hbond.Weighted>
0.0000

> <Gold.Chemscore.DEClash.Weighted>
0.1164

> <Gold.Chemscore.DEInternal.Weighted>
4.9453

> <Gold.Chemscore.Rot.Weighted>
5.7291

> <Gold.Chemscore.Internal.Correction.Weighted>
   9.000000E+99

> <Gold.Protein.RotatedTorsions>
[ 6907 6896 6895 6894 ] final -133.00 input  -60.11 | X-H torsion
[ 7974 7965 7964 7962 ] final   28.75 input  175.53 | X-H torsion
[ 8008 7997 7996 7995 ] final  113.54 input   59.86 | X-H torsion
[ 10167 10162 10161 10158 ] final   93.73 input  -65.29 | X-H torsion
[ 10718 10713 10712 10709 ] final   64.41 input   66.30 | X-H torsion
[ 10763 10752 10751 10750 ] final   10.35 input  -60.55 | X-H torsion
[ 11005 11000 10999 10996 ] final -130.80 input  -57.11 | X-H torsion

> <Gold.Protein.ActiveResidues>
 VAL166  LYS551  ARG553  GLY616  TRP617  ASP618  TYR619  PRO620  LYS621  CYS622 
 ASP623  PHE694  ASN695  SER759  ASP760  ASP761  ALA762  ILE779  LEU786  VAL792 
 PHE793  MET794  SER795  GLU796  ALA797  LYS798  CYS799  TRP800  GLU811  SER814 

> <Gold.Protein.RotatedAtoms>
  150.9689  133.6365  159.2741 H   0  0  0  0  0  0  0  0  0  0  0  0  # atno 6907 bound_to 6896
  151.3661  135.0912  159.9460 H   0  0  0  0  0  0  0  0  0  0  0  0  # atno 6908 bound_to 6896
  152.5175  133.9252  159.7608 H   0  0  0  0  0  0  0  0  0  0  0  0  # atno 6909 bound_to 6896
  146.1711  139.7013  142.8967 H   0  0  0  0  0  0  0  0  0  0  0  0  # atno 7974 bound_to 7965
  156.2264  140.2977  156.0078 H   0  0  0  0  0  0  0  0  0  0  0  0  # atno 8008 bound_to 7997
  155.2344  140.0420  157.2984 H   0  0  0  0  0  0  0  0  0  0  0  0  # atno 8009 bound_to 7997
  154.5923  140.2404  155.7912 H   0  0  0  0  0  0  0  0  0  0  0  0  # atno 8010 bound_to 7997
  139.8152  144.6756  150.9589 H   0  0  0  0  0  0  0  0  0  0  0  0  # atno 10167 bound_to 10162
  157.6038  130.9158  149.9842 H   0  0  0  0  0  0  0  0  0  0  0  0  # atno 10718 bound_to 10713
  153.2042  135.6860  153.8193 H   0  0  0  0  0  0  0  0  0  0  0  0  # atno 10763 bound_to 10752
  153.7449  135.3232  155.3312 H   0  0  0  0  0  0  0  0  0  0  0  0  # atno 10764 bound_to 10752
  154.8188  135.4667  154.0821 H   0  0  0  0  0  0  0  0  0  0  0  0  # atno 10765 bound_to 10752
  140.9314  134.1314  157.4231 H   0  0  0  0  0  0  0  0  0  0  0  0  # atno 11005 bound_to 11000
  145.4338  141.0417  143.2896 LP  0  0  0  0  0  0  0  0  0  0  0  0  # atno 17320 bound_to 7965
  144.8164  139.5869  143.7006 LP  0  0  0  0  0  0  0  0  0  0  0  0  # atno 17321 bound_to 7965
  140.7816  143.4146  151.0938 LP  0  0  0  0  0  0  0  0  0  0  0  0  # atno 17342 bound_to 10162
  139.7810  143.8356  152.3137 LP  0  0  0  0  0  0  0  0  0  0  0  0  # atno 17343 bound_to 10162
  156.1118  130.3649  150.0036 LP  0  0  0  0  0  0  0  0  0  0  0  0  # atno 17370 bound_to 10713
  156.8133  130.9332  151.3643 LP  0  0  0  0  0  0  0  0  0  0  0  0  # atno 17371 bound_to 10713
  139.8797  135.0006  156.6021 LP  0  0  0  0  0  0  0  0  0  0  0  0  # atno 17394 bound_to 11000
  140.7857  133.8623  155.8604 LP  0  0  0  0  0  0  0  0  0  0  0  0  # atno 17395 bound_to 11000

$$$$
