AV-unprocessed.smi:153|AV-procd|sdf|1252|dock5
  -GOLD-   2262018483D 1   1.00000     0.00000
 Structure written by MMmdl.
 60 63  0  0  0  0  0  0  0  0  2 V2000
  147.4234  141.7557  156.6379 C   0  0  0  0  0  0  0  0  0  0  0  0
  148.7996  141.0858  156.7956 C   0  0  2  0  0  0  0  0  0  0  0  0
  149.4837  141.6317  157.9218 O   0  0  0  0  0  0  0  0  0  0  0  0
  150.6774  142.2708  157.4971 C   0  0  0  0  0  0  0  0  0  0  0  0
  151.0982  141.4783  156.2669 C   0  0  0  0  0  0  0  0  0  0  0  0
  149.7672  141.1903  155.5876 C   0  0  2  0  0  0  0  0  0  0  0  0
  149.4398  142.3068  154.7751 O   0  0  0  0  0  0  0  0  0  0  0  0
  149.8184  139.9262  154.6941 C   0  0  0  0  0  0  0  0  0  0  0  0
  148.5032  139.4436  154.3042 N   0  0  0  0  0  0  0  0  0  0  0  0
  147.9051  139.5864  153.0733 C   0  0  0  0  0  0  0  0  0  0  0  0
  146.7333  139.0254  152.9579 N   0  0  0  0  0  0  0  0  0  0  0  0
  146.4886  138.4765  154.2119 C   0  0  0  0  0  0  0  0  0  0  0  0
  145.4327  137.7007  154.7765 C   0  0  0  0  0  0  0  0  0  0  0  0
  144.3329  137.2826  154.1003 N   0  0  0  0  0  0  0  0  0  0  0  0
  144.3880  137.2017  152.6463 C   0  0  0  0  0  0  0  0  0  0  0  0
  143.3617  136.4543  154.8178 C   0  0  0  0  0  0  0  0  0  0  0  0
  143.1707  135.0537  154.1935 C   0  0  2  0  0  0  0  0  0  0  0  0
  142.5332  134.2503  155.1662 O   0  0  0  0  0  0  0  0  0  0  0  0
  144.5001  134.3676  153.7985 C   0  0  0  0  0  0  0  0  0  0  0  0
  144.3201  133.1696  152.9394 N   0  3  0  0  0  0  0  0  0  0  0  0
  143.7581  133.4805  151.5991 C   0  0  0  0  0  0  0  0  0  0  0  0
  143.6206  132.2030  150.7537 C   0  0  0  0  0  0  0  0  0  0  0  0
  144.8816  131.5555  150.6530 O   0  0  0  0  0  0  0  0  0  0  0  0
  145.3706  131.1548  151.9259 C   0  0  0  0  0  0  0  0  0  0  0  0
  145.5792  132.3966  152.8080 C   0  0  0  0  0  0  0  0  0  0  0  0
  145.5692  137.3070  156.0691 N   0  0  0  0  0  0  0  0  0  0  0  0
  146.6525  137.6500  156.7709 C   0  0  0  0  0  0  0  0  0  0  0  0
  147.7136  138.3536  156.3743 N   0  0  0  0  0  0  0  0  0  0  0  0
  147.5913  138.7426  155.0733 C   0  0  0  0  0  0  0  0  0  0  0  0
  146.9062  141.3865  155.7529 H   0  0  0  0  0  0  0  0  0  0  0  0
  147.5131  142.8385  156.5463 H   0  0  0  0  0  0  0  0  0  0  0  0
  146.7908  141.5523  157.5021 H   0  0  0  0  0  0  0  0  0  0  0  0
  148.6428  140.0341  157.0368 H   0  0  0  0  0  0  0  0  0  0  0  0
  150.4577  143.3067  157.2350 H   0  0  0  0  0  0  0  0  0  0  0  0
  151.4347  142.2689  158.2811 H   0  0  0  0  0  0  0  0  0  0  0  0
  151.8090  142.0127  155.6351 H   0  0  0  0  0  0  0  0  0  0  0  0
  151.5710  140.5487  156.5870 H   0  0  0  0  0  0  0  0  0  0  0  0
  149.5456  143.0937  155.2879 H   0  0  0  0  0  0  0  0  0  0  0  0
  150.3981  140.1207  153.7907 H   0  0  0  0  0  0  0  0  0  0  0  0
  150.3307  139.1172  155.2165 H   0  0  0  0  0  0  0  0  0  0  0  0
  148.3768  140.1048  152.2514 H   0  0  0  0  0  0  0  0  0  0  0  0
  144.9311  138.0497  152.2274 H   0  0  0  0  0  0  0  0  0  0  0  0
  143.3811  137.2141  152.2284 H   0  0  0  0  0  0  0  0  0  0  0  0
  144.8759  136.2816  152.3242 H   0  0  0  0  0  0  0  0  0  0  0  0
  143.6157  136.3664  155.8747 H   0  0  0  0  0  0  0  0  0  0  0  0
  142.4113  136.9891  154.7918 H   0  0  0  0  0  0  0  0  0  0  0  0
  142.4957  135.1399  153.3438 H   0  0  0  0  0  0  0  0  0  0  0  0
  142.8303  133.3588  155.0713 H   0  0  0  0  0  0  0  0  0  0  0  0
  145.1562  135.0495  153.2620 H   0  0  0  0  0  0  0  0  0  0  0  0
  145.0360  134.0944  154.7093 H   0  0  0  0  0  0  0  0  0  0  0  0
  142.7794  133.9489  151.6905 H   0  0  0  0  0  0  0  0  0  0  0  0
  144.4017  134.1952  151.0856 H   0  0  0  0  0  0  0  0  0  0  0  0
  142.8829  131.5257  151.1876 H   0  0  0  0  0  0  0  0  0  0  0  0
  143.2717  132.4525  149.7514 H   0  0  0  0  0  0  0  0  0  0  0  0
  144.6775  130.4537  152.3938 H   0  0  0  0  0  0  0  0  0  0  0  0
  146.3150  130.6271  151.7915 H   0  0  0  0  0  0  0  0  0  0  0  0
  146.3554  133.0311  152.3774 H   0  0  0  0  0  0  0  0  0  0  0  0
  145.9288  132.0899  153.7945 H   0  0  0  0  0  0  0  0  0  0  0  0
  146.6770  137.3025  157.7934 H   0  0  0  0  0  0  0  0  0  0  0  0
  143.6613  132.5649  153.4092 H   0  0  0  0  0  0  0  0  0  0  0  0
  1  2  1  0  0  0  0
  1 30  1  0  0  0  0
  1 31  1  0  0  0  0
  1 32  1  0  0  0  0
  2  6  1  0  0  0  0
  2  3  1  0  0  0  0
  2 33  1  0  0  0  0
  3  4  1  0  0  0  0
  4  5  1  0  0  0  0
  4 34  1  0  0  0  0
  4 35  1  0  0  0  0
  5  6  1  0  0  0  0
  5 36  1  0  0  0  0
  5 37  1  0  0  0  0
  6  7  1  0  0  0  0
  6  8  1  0  0  0  0
  7 38  1  0  0  0  0
  8  9  1  0  0  0  0
  8 39  1  0  0  0  0
  8 40  1  0  0  0  0
  9 29  1  0  0  0  0
  9 10  1  0  0  0  0
 10 11  2  0  0  0  0
 10 41  1  0  0  0  0
 11 12  1  0  0  0  0
 12 29  2  0  0  0  0
 12 13  1  0  0  0  0
 13 14  1  0  0  0  0
 13 26  2  0  0  0  0
 14 15  1  0  0  0  0
 14 16  1  0  0  0  0
 15 42  1  0  0  0  0
 15 43  1  0  0  0  0
 15 44  1  0  0  0  0
 16 17  1  0  0  0  0
 16 45  1  0  0  0  0
 16 46  1  0  0  0  0
 17 18  1  0  0  0  0
 17 19  1  0  0  0  0
 17 47  1  0  0  0  0
 18 48  1  0  0  0  0
 19 20  1  0  0  0  0
 19 49  1  0  0  0  0
 19 50  1  0  0  0  0
 20 25  1  0  0  0  0
 20 21  1  0  0  0  0
 20 60  1  0  0  0  0
 21 22  1  0  0  0  0
 21 51  1  0  0  0  0
 21 52  1  0  0  0  0
 22 23  1  0  0  0  0
 22 53  1  0  0  0  0
 22 54  1  0  0  0  0
 23 24  1  0  0  0  0
 24 25  1  0  0  0  0
 24 55  1  0  0  0  0
 24 56  1  0  0  0  0
 25 57  1  0  0  0  0
 25 58  1  0  0  0  0
 26 27  1  0  0  0  0
 27 28  2  0  0  0  0
 27 59  1  0  0  0  0
 28 29  1  0  0  0  0
M  CHG  1  20   1
M  END
> <s_m_source_file>
AV-unprocessed.smi

> <i_m_source_file_index>
153

> <i_lp_mmshare_version>
43012

> <i_f3d_flags>
0

> <s_epik_input>
W0NIMl0xW0NIMl1PW0NAQEhdKFtDSDNdKVtDQEBdMShbT0hdKVtDSDJdbihbY0hdbjIpYyhjMjMpbltjSF1uYzNOKFtDSDNdKVtDSDJdW0NASF0oW09IXSlbQ0gyXU40W0NIMl1bQ0gyXU9bQ0gyXVtDSDJdNA==

> <s_epik_cmdline>
J2VwaWtfcHl0aG9uJywgJy1waCcsICc3LjAnLCAnLXRuJywgJzgnLCAnLW1hJywgJzIwMCcsICctbWV0YWxfYmluZGluZycsICctaW1hZScsICc8aW5maWxlLm1hZT4nLCAnLW9tYWUnLCAnPG91dGZpbGUubWFlPic=

> <r_lp_tautomer_probability>
1

> <r_epik_Ionization_Penalty>
0.403509

> <r_epik_Ionization_Penalty_Charging>
0.40072

> <r_epik_Ionization_Penalty_Neutral>
0.00278876

> <r_epik_State_Penalty>
0.400058

> <r_epik_Charging_Adjusted_Penalty>
0.800778

> <i_epik_Tot_Q>
1

> <i_epik_Tot_abs_Q>
1

> <r_epik_Metal_State_Penalty>
0.400321

> <b_epik_Metal_Only>
0

> <s_lp_Force_Field>
OPLS_2005

> <r_lp_Energy>
42.6993

> <b_lp_Chiralities_Consistent>
1

> <s_lp_Variant>
AV-unprocessed.smi:153-3

> <Gold.Version>
5.8.1

> <Gold.Id.Protein>
6NUR|6NUR_protein|mol2

> <Gold.PLP.Fitness>
48.2212

> <Gold.PLP.PLP>
-33.5062

> <Gold.PLP.part.hbond>
-4.3359

> <Gold.PLP.part.metal>
0.0000

> <Gold.PLP.part.buried>
-1.5715

> <Gold.PLP.part.nonpolar>
-28.0680

> <Gold.PLP.part.repulsive>
0.5416

> <Gold.PLP.ligand.clash>
0.0000

> <Gold.PLP.ligand.torsion>
0.8663

> <Gold.PLP.Chemscore.Hbond>
4.7520

> <Gold.PLP.Chemscore.CHOScore>
0.5382

> <Gold.PLP.Chemscore.Metal>
0.0000

> <Gold.Chemscore.Hbonds>
donor molecule, donor type, donor heavy atom, donor atom, acceptor molecule, acceptor atom, score
      L1  H     7    38       P1  8028  0.90
      L1  H    18    48       P1 10957  1.00
      L1  H    20    60       P1 10957  2.00
      P1  H 11000 11005       L1    18  0.54
      L1  C    10    41       P1  7957  0.01

> <Gold.PLP.Chemscore.Internal.Correction>
0.5770

> <Gold.Rescore>
     Score         DG    S(hbond)    S(metal)    S(lipo)     H(rot)  DE(clash)    DE(int)     intcor
      9.41     -13.87       2.66        0.00      74.85       3.62       1.45       3.01       ----

> <Gold.Chemscore.Fitness>
9.4079

> <Gold.Chemscore.DG>
-13.8706

> <Gold.Chemscore.ZeroCoef>
-5.4800

> <Gold.Chemscore.Hbond>
2.6634

> <Gold.Chemscore.Metal>
0.0000

> <Gold.Chemscore.Lipo>
74.8471

> <Gold.Chemscore.Internal_Hbond>
0.0000

> <Gold.Chemscore.DEClash>
1.4493

> <Gold.Chemscore.DEInternal>
3.0134

> <Gold.Chemscore.Rot>
3.6182

> <Gold.Chemscore.Internal.Correction>
   9.000000E+99

> <Gold.Chemscore.Hbonds>
donor molecule, donor type, donor heavy atom, donor atom, acceptor molecule, acceptor atom, score
      L1  H     7    38       P1  8028  0.88
      L1  H    18    48       P1 10957  0.97
      L1  H    20    60       P1 10957  0.35
      P1  H  8011  8017       L1     7  0.01
      P1  H 11000 11005       L1    18  0.06

> <Gold.Chemscore.Hbond.Weighted>
-8.8959

> <Gold.Chemscore.Metal.Weighted>
-0.0000

> <Gold.Chemscore.Lipo.Weighted>
-8.7571

> <Gold.Chemscore.Internal_Hbond.Weighted>
0.0000

> <Gold.Chemscore.DEClash.Weighted>
1.4493

> <Gold.Chemscore.DEInternal.Weighted>
3.0134

> <Gold.Chemscore.Rot.Weighted>
9.2625

> <Gold.Chemscore.Internal.Correction.Weighted>
   9.000000E+99

> <Gold.Protein.RotatedTorsions>
[ 6907 6896 6895 6894 ] final  -38.92 input  -60.11 | X-H torsion
[ 7974 7965 7964 7962 ] final -128.69 input  175.53 | X-H torsion
[ 8008 7997 7996 7995 ] final  -15.72 input   59.86 | X-H torsion
[ 10167 10162 10161 10158 ] final   58.18 input  -65.29 | X-H torsion
[ 10718 10713 10712 10709 ] final  -75.96 input   66.30 | X-H torsion
[ 10763 10752 10751 10750 ] final  -46.58 input  -60.55 | X-H torsion
[ 11005 11000 10999 10996 ] final  -24.74 input  -57.11 | X-H torsion

> <Gold.Protein.ActiveResidues>
 VAL166  LYS551  ARG553  GLY616  TRP617  ASP618  TYR619  PRO620  LYS621  CYS622 
 ASP623  PHE694  ASN695  SER759  ASP760  ASP761  ALA762  ILE779  LEU786  VAL792 
 PHE793  MET794  SER795  GLU796  ALA797  LYS798  CYS799  TRP800  GLU811  SER814 

> <Gold.Protein.RotatedAtoms>
  150.9966  134.9288  159.7929 H   0  0  0  0  0  0  0  0  0  0  0  0  # atno 6907 bound_to 6896
  152.5266  134.3211  159.9158 H   0  0  0  0  0  0  0  0  0  0  0  0  # atno 6908 bound_to 6896
  151.3216  133.3996  159.2689 H   0  0  0  0  0  0  0  0  0  0  0  0  # atno 6909 bound_to 6896
  144.9646  140.7482  143.4708 H   0  0  0  0  0  0  0  0  0  0  0  0  # atno 7974 bound_to 7965
  154.5108  140.2189  155.9159 H   0  0  0  0  0  0  0  0  0  0  0  0  # atno 8008 bound_to 7997
  156.1550  140.3154  155.8677 H   0  0  0  0  0  0  0  0  0  0  0  0  # atno 8009 bound_to 7997
  155.3864  140.0475  157.3033 H   0  0  0  0  0  0  0  0  0  0  0  0  # atno 8010 bound_to 7997
  140.1900  144.4095  150.6575 H   0  0  0  0  0  0  0  0  0  0  0  0  # atno 10167 bound_to 10162
  156.0190  130.4454  150.3122 H   0  0  0  0  0  0  0  0  0  0  0  0  # atno 10718 bound_to 10713
  154.0473  135.6636  153.4796 H   0  0  0  0  0  0  0  0  0  0  0  0  # atno 10763 bound_to 10752
  153.0478  135.5104  154.7785 H   0  0  0  0  0  0  0  0  0  0  0  0  # atno 10764 bound_to 10752
  154.6780  135.3040  154.9618 H   0  0  0  0  0  0  0  0  0  0  0  0  # atno 10765 bound_to 10752
  140.8873  133.7612  156.0377 H   0  0  0  0  0  0  0  0  0  0  0  0  # atno 11005 bound_to 11000
  145.2649  139.1977  143.4872 LP  0  0  0  0  0  0  0  0  0  0  0  0  # atno 17320 bound_to 7965
  146.3363  140.2586  142.8601 LP  0  0  0  0  0  0  0  0  0  0  0  0  # atno 17321 bound_to 7965
  140.6462  143.2214  151.6181 LP  0  0  0  0  0  0  0  0  0  0  0  0  # atno 17342 bound_to 10162
  139.5260  144.3059  152.1034 LP  0  0  0  0  0  0  0  0  0  0  0  0  # atno 17343 bound_to 10162
  157.1224  131.0250  151.3004 LP  0  0  0  0  0  0  0  0  0  0  0  0  # atno 17370 bound_to 10713
  157.4617  130.7657  149.7242 LP  0  0  0  0  0  0  0  0  0  0  0  0  # atno 17371 bound_to 10713
  140.8389  134.3090  157.5321 LP  0  0  0  0  0  0  0  0  0  0  0  0  # atno 17394 bound_to 11000
  139.8726  134.9405  156.3771 LP  0  0  0  0  0  0  0  0  0  0  0  0  # atno 17395 bound_to 11000

$$$$
