AV-unprocessed.smi:2422|AV-procd|sdf|9557|dock5
  -GOLD-   2272013193D 1   1.00000     0.00000
 Structure written by MMmdl.
 46 47  0  0  0  0  0  0  0  0  1 V2000
  143.5362  135.5249  161.8980 C   0  0  0  0  0  0  0  0  0  0  0  0
  144.7496  135.3565  162.6096 O   0  0  0  0  0  0  0  0  0  0  0  0
  145.8633  135.9130  161.9267 C   0  0  0  0  0  0  0  0  0  0  0  0
  146.5442  134.8401  161.0436 C   0  0  0  0  0  0  0  0  0  0  0  0
  147.0822  133.7050  161.9350 C   0  0  0  0  0  0  0  0  0  0  0  0
  145.5237  134.2421  160.0516 C   0  0  0  0  0  0  0  0  0  0  0  0
  147.6909  135.4031  160.3184 N   0  0  0  0  0  0  0  0  0  0  0  0
  147.8891  136.6735  159.9272 C   0  0  0  0  0  0  0  0  0  0  0  0
  147.0864  137.5868  160.1193 O   0  0  0  0  0  0  0  0  0  0  0  0
  149.0741  136.8043  159.3062 N   0  0  0  0  0  0  0  0  0  0  0  0
  149.6531  137.9779  158.7573 C   0  0  0  0  0  0  0  0  0  0  0  0
  149.3030  138.5190  157.5499 N   0  0  0  0  0  0  0  0  0  0  0  0
  150.1229  139.5614  157.5403 C   0  0  0  0  0  0  0  0  0  0  0  0
  150.8936  139.6579  158.6277 N   0  0  0  0  0  0  0  0  0  0  0  0
  151.9103  140.6404  158.9710 C   0  0  0  0  0  0  0  0  0  0  0  0
  152.5489  140.3339  160.3411 C   0  0  0  0  0  0  0  0  0  0  0  0
  153.6342  141.3649  160.6926 C   0  0  0  0  0  0  0  0  0  0  0  0
  153.0779  142.7973  160.6500 C   0  0  0  0  0  0  0  0  0  0  0  0
  152.4392  143.1072  159.2866 C   0  0  0  0  0  0  0  0  0  0  0  0
  151.3516  142.0790  158.9357 C   0  0  0  0  0  0  0  0  0  0  0  0
  150.6033  138.6120  159.4411 N   0  0  0  0  0  0  0  0  0  0  0  0
  142.7157  135.0833  162.4635 H   0  0  0  0  0  0  0  0  0  0  0  0
  143.5779  135.0338  160.9251 H   0  0  0  0  0  0  0  0  0  0  0  0
  143.3106  136.5815  161.7480 H   0  0  0  0  0  0  0  0  0  0  0  0
  145.5309  136.7470  161.3064 H   0  0  0  0  0  0  0  0  0  0  0  0
  146.5684  136.3267  162.6490 H   0  0  0  0  0  0  0  0  0  0  0  0
  146.2837  133.2469  162.5194 H   0  0  0  0  0  0  0  0  0  0  0  0
  147.8349  134.0669  162.6366 H   0  0  0  0  0  0  0  0  0  0  0  0
  147.5444  132.9169  161.3391 H   0  0  0  0  0  0  0  0  0  0  0  0
  144.7100  133.7434  160.5791 H   0  0  0  0  0  0  0  0  0  0  0  0
  145.9902  133.5049  159.3970 H   0  0  0  0  0  0  0  0  0  0  0  0
  145.0712  135.0050  159.4180 H   0  0  0  0  0  0  0  0  0  0  0  0
  148.4270  134.7466  160.1045 H   0  0  0  0  0  0  0  0  0  0  0  0
  149.6325  135.9680  159.2229 H   0  0  0  0  0  0  0  0  0  0  0  0
  150.1624  140.2682  156.7245 H   0  0  0  0  0  0  0  0  0  0  0  0
  152.6913  140.5660  158.2123 H   0  0  0  0  0  0  0  0  0  0  0  0
  151.7842  140.3361  161.1192 H   0  0  0  0  0  0  0  0  0  0  0  0
  152.9817  139.3329  160.3359 H   0  0  0  0  0  0  0  0  0  0  0  0
  154.0421  141.1536  161.6815 H   0  0  0  0  0  0  0  0  0  0  0  0
  154.4641  141.2749  159.9906 H   0  0  0  0  0  0  0  0  0  0  0  0
  152.3346  142.9240  161.4384 H   0  0  0  0  0  0  0  0  0  0  0  0
  153.8745  143.5121  160.8585 H   0  0  0  0  0  0  0  0  0  0  0  0
  152.0130  144.1109  159.2952 H   0  0  0  0  0  0  0  0  0  0  0  0
  153.2081  143.1049  158.5128 H   0  0  0  0  0  0  0  0  0  0  0  0
  150.9427  142.2978  157.9486 H   0  0  0  0  0  0  0  0  0  0  0  0
  150.5256  142.1794  159.6414 H   0  0  0  0  0  0  0  0  0  0  0  0
  1  2  1  0  0  0  0
  1 22  1  0  0  0  0
  1 23  1  0  0  0  0
  1 24  1  0  0  0  0
  2  3  1  0  0  0  0
  3  4  1  0  0  0  0
  3 25  1  0  0  0  0
  3 26  1  0  0  0  0
  4  5  1  0  0  0  0
  4  6  1  0  0  0  0
  4  7  1  0  0  0  0
  5 27  1  0  0  0  0
  5 28  1  0  0  0  0
  5 29  1  0  0  0  0
  6 30  1  0  0  0  0
  6 31  1  0  0  0  0
  6 32  1  0  0  0  0
  7  8  1  0  0  0  0
  7 33  1  0  0  0  0
  8  9  2  0  0  0  0
  8 10  1  0  0  0  0
 10 11  1  0  0  0  0
 10 34  1  0  0  0  0
 11 21  2  0  0  0  0
 11 12  1  0  0  0  0
 12 13  2  0  0  0  0
 13 14  1  0  0  0  0
 13 35  1  0  0  0  0
 14 15  1  0  0  0  0
 14 21  1  0  0  0  0
 15 20  1  0  0  0  0
 15 16  1  0  0  0  0
 15 36  1  0  0  0  0
 16 17  1  0  0  0  0
 16 37  1  0  0  0  0
 16 38  1  0  0  0  0
 17 18  1  0  0  0  0
 17 39  1  0  0  0  0
 17 40  1  0  0  0  0
 18 19  1  0  0  0  0
 18 41  1  0  0  0  0
 18 42  1  0  0  0  0
 19 20  1  0  0  0  0
 19 43  1  0  0  0  0
 19 44  1  0  0  0  0
 20 45  1  0  0  0  0
 20 46  1  0  0  0  0
M  END
> <s_m_source_file>
AV-unprocessed.smi

> <i_m_source_file_index>
2422

> <i_lp_mmshare_version>
43012

> <i_f3d_flags>
0

> <s_epik_input>
W0NIM11PW0NIMl1DKFtDSDNdKShbQ0gzXSlbTkhdQyg9TylbTkhdYzFuW2NIXW4objEpW0NIXTJbQ0gyXVtDSDJdW0NIMl1bQ0gyXVtDSDJdMg==

> <s_epik_cmdline>
J2VwaWtfcHl0aG9uJywgJy1waCcsICc3LjAnLCAnLXRuJywgJzgnLCAnLW1hJywgJzIwMCcsICctbWV0YWxfYmluZGluZycsICctaW1hZScsICc8aW5maWxlLm1hZT4nLCAnLW9tYWUnLCAnPG91dGZpbGUubWFlPic=

> <r_lp_tautomer_probability>
1

> <r_epik_Ionization_Penalty>
0.000103736

> <r_epik_Ionization_Penalty_Charging>
0

> <r_epik_Ionization_Penalty_Neutral>
0.000103736

> <r_epik_State_Penalty>
-0

> <r_epik_Charging_Adjusted_Penalty>
0

> <i_epik_Tot_Q>
0

> <i_epik_Tot_abs_Q>
0

> <r_epik_Metal_State_Penalty>
-0

> <b_epik_Metal_Only>
0

> <s_lp_Force_Field>
OPLS_2005

> <r_lp_Energy>
18.085

> <b_lp_Chiralities_Consistent>
1

> <s_lp_Variant>
AV-unprocessed.smi:2422-1

> <Gold.Version>
5.8.1

> <Gold.Id.Protein>
6NUR|6NUR_protein|mol2

> <Gold.PLP.Fitness>
39.1666

> <Gold.PLP.PLP>
-37.8860

> <Gold.PLP.part.hbond>
-3.3924

> <Gold.PLP.part.metal>
0.0000

> <Gold.PLP.part.buried>
-6.4023

> <Gold.PLP.part.nonpolar>
-27.0834

> <Gold.PLP.part.repulsive>
0.2948

> <Gold.PLP.ligand.clash>
0.0000

> <Gold.PLP.ligand.torsion>
1.5060

> <Gold.PLP.Chemscore.Hbond>
1.3968

> <Gold.PLP.Chemscore.CHOScore>
0.0000

> <Gold.PLP.Chemscore.Metal>
0.0000

> <Gold.Chemscore.Hbonds>
donor molecule, donor type, donor heavy atom, donor atom, acceptor molecule, acceptor atom, score
      P1  H  6934  6947       L1     9  1.00

> <Gold.PLP.Chemscore.Internal.Correction>
0.1022

> <Gold.Rescore>
     Score         DG    S(hbond)    S(metal)    S(lipo)     H(rot)  DE(clash)    DE(int)     intcor
     12.72     -15.94       1.33        0.00      88.50       1.70       0.07       3.15       ----

> <Gold.Chemscore.Fitness>
12.7205

> <Gold.Chemscore.DG>
-15.9424

> <Gold.Chemscore.ZeroCoef>
-5.4800

> <Gold.Chemscore.Hbond>
1.3319

> <Gold.Chemscore.Metal>
0.0000

> <Gold.Chemscore.Lipo>
88.4978

> <Gold.Chemscore.Internal_Hbond>
0.0000

> <Gold.Chemscore.DEClash>
0.0739

> <Gold.Chemscore.DEInternal>
3.1481

> <Gold.Chemscore.Rot>
1.6954

> <Gold.Chemscore.Internal.Correction>
   9.000000E+99

> <Gold.Chemscore.Hbonds>
donor molecule, donor type, donor heavy atom, donor atom, acceptor molecule, acceptor atom, score
      P1  H  6934  6947       L1     9  0.98

> <Gold.Chemscore.Hbond.Weighted>
-4.4484

> <Gold.Chemscore.Metal.Weighted>
-0.0000

> <Gold.Chemscore.Lipo.Weighted>
-10.3542

> <Gold.Chemscore.Internal_Hbond.Weighted>
0.0000

> <Gold.Chemscore.DEClash.Weighted>
0.0739

> <Gold.Chemscore.DEInternal.Weighted>
3.1481

> <Gold.Chemscore.Rot.Weighted>
4.3402

> <Gold.Chemscore.Internal.Correction.Weighted>
   9.000000E+99

> <Gold.Protein.RotatedTorsions>
[ 6907 6896 6895 6894 ] final -123.26 input  -60.11 | X-H torsion
[ 7974 7965 7964 7962 ] final    5.78 input  175.53 | X-H torsion
[ 8008 7997 7996 7995 ] final   18.29 input   59.86 | X-H torsion
[ 10167 10162 10161 10158 ] final  -18.10 input  -65.29 | X-H torsion
[ 10718 10713 10712 10709 ] final -103.42 input   66.30 | X-H torsion
[ 10763 10752 10751 10750 ] final   38.59 input  -60.55 | X-H torsion
[ 11005 11000 10999 10996 ] final -178.08 input  -57.11 | X-H torsion

> <Gold.Protein.ActiveResidues>
 VAL166  LYS551  ARG553  GLY616  TRP617  ASP618  TYR619  PRO620  LYS621  CYS622 
 ASP623  PHE694  ASN695  SER759  ASP760  ASP761  ALA762  ILE779  LEU786  VAL792 
 PHE793  MET794  SER795  GLU796  ALA797  LYS798  CYS799  TRP800  GLU811  SER814 

> <Gold.Protein.RotatedAtoms>
  150.8654  133.7583  159.2978 H   0  0  0  0  0  0  0  0  0  0  0  0  # atno 6907 bound_to 6896
  151.5212  135.1065  159.9888 H   0  0  0  0  0  0  0  0  0  0  0  0  # atno 6908 bound_to 6896
  152.4657  133.7873  159.6938 H   0  0  0  0  0  0  0  0  0  0  0  0  # atno 6909 bound_to 6896
  146.2439  140.0332  142.8388 H   0  0  0  0  0  0  0  0  0  0  0  0  # atno 7974 bound_to 7965
  154.9038  140.3004  155.5303 H   0  0  0  0  0  0  0  0  0  0  0  0  # atno 8008 bound_to 7997
  156.3017  140.2402  156.4004 H   0  0  0  0  0  0  0  0  0  0  0  0  # atno 8009 bound_to 7997
  154.8494  140.0410  157.1583 H   0  0  0  0  0  0  0  0  0  0  0  0  # atno 8010 bound_to 7997
  140.7255  143.4949  150.9943 H   0  0  0  0  0  0  0  0  0  0  0  0  # atno 10167 bound_to 10162
  156.0265  130.5467  150.7251 H   0  0  0  0  0  0  0  0  0  0  0  0  # atno 10718 bound_to 10713
  152.9995  135.6245  154.2330 H   0  0  0  0  0  0  0  0  0  0  0  0  # atno 10763 bound_to 10752
  154.2072  135.2801  155.2972 H   0  0  0  0  0  0  0  0  0  0  0  0  # atno 10764 bound_to 10752
  154.5636  135.5697  153.7089 H   0  0  0  0  0  0  0  0  0  0  0  0  # atno 10765 bound_to 10752
  140.4338  134.6494  157.4725 H   0  0  0  0  0  0  0  0  0  0  0  0  # atno 11005 bound_to 11000
  145.1136  140.9420  143.4642 LP  0  0  0  0  0  0  0  0  0  0  0  0  # atno 17320 bound_to 7965
  145.0552  139.3149  143.5908 LP  0  0  0  0  0  0  0  0  0  0  0  0  # atno 17321 bound_to 7965
  139.8656  143.7259  152.3170 LP  0  0  0  0  0  0  0  0  0  0  0  0  # atno 17342 bound_to 10162
  139.7489  144.7539  151.0537 LP  0  0  0  0  0  0  0  0  0  0  0  0  # atno 17343 bound_to 10162
  157.4857  131.0906  151.0485 LP  0  0  0  0  0  0  0  0  0  0  0  0  # atno 17370 bound_to 10713
  157.0906  130.5940  149.5439 LP  0  0  0  0  0  0  0  0  0  0  0  0  # atno 17371 bound_to 10713
  140.0116  134.6682  155.9372 LP  0  0  0  0  0  0  0  0  0  0  0  0  # atno 17394 bound_to 11000
  141.1734  133.6538  156.4738 LP  0  0  0  0  0  0  0  0  0  0  0  0  # atno 17395 bound_to 11000

$$$$
