AV-unprocessed.smi:2109|AV-procd|sdf|8607|dock4
  -GOLD-   2272011343D 1   1.00000     0.00000
 Structure written by MMmdl.
 46 47  0  0  0  0  0  0  0  0  2 V2000
  148.0977  132.7072  153.7503 C   0  0  0  0  0  0  0  0  0  0  0  0
  149.0035  132.6566  154.9932 C   0  0  0  0  0  0  0  0  0  0  0  0
  148.7845  131.3465  155.7641 C   0  0  0  0  0  0  0  0  0  0  0  0
  148.8112  133.8725  155.9239 C   0  0  0  0  0  0  0  0  0  0  0  0
  149.2024  135.1276  155.2878 N   0  0  0  0  0  0  0  0  0  0  0  0
  150.2753  135.8629  155.6120 C   0  0  0  0  0  0  0  0  0  0  0  0
  151.0749  135.5697  156.5006 O   0  0  0  0  0  0  0  0  0  0  0  0
  150.3785  136.9573  154.8449 N   0  0  0  0  0  0  0  0  0  0  0  0
  151.4114  137.9822  154.9788 C   0  0  0  0  0  0  0  0  0  0  0  0
  150.9188  139.3804  155.3397 C   0  0  0  0  0  0  0  0  0  0  0  0
  149.8483  139.9308  154.6044 C   0  0  0  0  0  0  0  0  0  0  0  0
  149.3797  141.2179  154.9252 C   0  0  0  0  0  0  0  0  0  0  0  0
  149.9529  141.9090  155.9324 N   0  3  0  0  0  0  0  0  0  0  0  0
  150.9787  141.4385  156.6824 C   0  0  0  0  0  0  0  0  0  0  0  0
  151.4747  142.2611  157.7184 N   0  0  0  0  0  0  0  0  0  0  0  0
  152.4518  141.6930  158.6436 C   0  0  0  0  0  0  0  0  0  0  0  0
  152.6349  142.6080  159.8661 C   0  0  0  0  0  0  0  0  0  0  0  0
  152.9715  143.9215  159.4352 O   0  0  0  0  0  0  0  0  0  0  0  0
  151.9346  144.4993  158.6501 C   0  0  0  0  0  0  0  0  0  0  0  0
  151.7174  143.6625  157.3779 C   0  0  0  0  0  0  0  0  0  0  0  0
  151.4835  140.1456  156.3898 C   0  0  0  0  0  0  0  0  0  0  0  0
  147.0448  132.7569  154.0299 H   0  0  0  0  0  0  0  0  0  0  0  0
  148.2347  131.8217  153.1290 H   0  0  0  0  0  0  0  0  0  0  0  0
  148.3180  133.5731  153.1261 H   0  0  0  0  0  0  0  0  0  0  0  0
  150.0382  132.6589  154.6473 H   0  0  0  0  0  0  0  0  0  0  0  0
  147.7622  131.2724  156.1369 H   0  0  0  0  0  0  0  0  0  0  0  0
  149.4567  131.2747  156.6197 H   0  0  0  0  0  0  0  0  0  0  0  0
  148.9707  130.4800  155.1286 H   0  0  0  0  0  0  0  0  0  0  0  0
  147.7813  133.9166  156.2827 H   0  0  0  0  0  0  0  0  0  0  0  0
  149.4329  133.7547  156.8116 H   0  0  0  0  0  0  0  0  0  0  0  0
  148.6066  135.4604  154.5437 H   0  0  0  0  0  0  0  0  0  0  0  0
  149.6744  137.1106  154.1376 H   0  0  0  0  0  0  0  0  0  0  0  0
  152.0989  137.6494  155.7569 H   0  0  0  0  0  0  0  0  0  0  0  0
  152.0010  138.0445  154.0625 H   0  0  0  0  0  0  0  0  0  0  0  0
  149.3897  139.3730  153.8005 H   0  0  0  0  0  0  0  0  0  0  0  0
  148.5666  141.7112  154.4125 H   0  0  0  0  0  0  0  0  0  0  0  0
  152.1234  140.7120  158.9880 H   0  0  0  0  0  0  0  0  0  0  0  0
  153.4036  141.5615  158.1274 H   0  0  0  0  0  0  0  0  0  0  0  0
  151.7284  142.6334  160.4732 H   0  0  0  0  0  0  0  0  0  0  0  0
  153.4332  142.2269  160.5031 H   0  0  0  0  0  0  0  0  0  0  0  0
  151.0148  144.5664  159.2337 H   0  0  0  0  0  0  0  0  0  0  0  0
  152.2167  145.5182  158.3844 H   0  0  0  0  0  0  0  0  0  0  0  0
  152.5986  143.7204  156.7376 H   0  0  0  0  0  0  0  0  0  0  0  0
  150.8858  144.0892  156.8173 H   0  0  0  0  0  0  0  0  0  0  0  0
  152.3017  139.7396  156.9620 H   0  0  0  0  0  0  0  0  0  0  0  0
  149.5870  142.8372  156.1454 H   0  0  0  0  0  0  0  0  0  0  0  0
  1  2  1  0  0  0  0
  1 22  1  0  0  0  0
  1 23  1  0  0  0  0
  1 24  1  0  0  0  0
  2  3  1  0  0  0  0
  2  4  1  0  0  0  0
  2 25  1  0  0  0  0
  3 26  1  0  0  0  0
  3 27  1  0  0  0  0
  3 28  1  0  0  0  0
  4  5  1  0  0  0  0
  4 29  1  0  0  0  0
  4 30  1  0  0  0  0
  5  6  1  0  0  0  0
  5 31  1  0  0  0  0
  6  7  2  0  0  0  0
  6  8  1  0  0  0  0
  8  9  1  0  0  0  0
  8 32  1  0  0  0  0
  9 10  1  0  0  0  0
  9 33  1  0  0  0  0
  9 34  1  0  0  0  0
 10 21  1  0  0  0  0
 10 11  2  0  0  0  0
 11 12  1  0  0  0  0
 11 35  1  0  0  0  0
 12 13  2  0  0  0  0
 12 36  1  0  0  0  0
 13 14  1  0  0  0  0
 13 46  1  0  0  0  0
 14 15  1  0  0  0  0
 14 21  2  0  0  0  0
 15 20  1  0  0  0  0
 15 16  1  0  0  0  0
 16 17  1  0  0  0  0
 16 37  1  0  0  0  0
 16 38  1  0  0  0  0
 17 18  1  0  0  0  0
 17 39  1  0  0  0  0
 17 40  1  0  0  0  0
 18 19  1  0  0  0  0
 19 20  1  0  0  0  0
 19 41  1  0  0  0  0
 19 42  1  0  0  0  0
 20 43  1  0  0  0  0
 20 44  1  0  0  0  0
 21 45  1  0  0  0  0
M  CHG  1  13   1
M  END
> <s_m_source_file>
AV-unprocessed.smi

> <i_m_source_file_index>
2109

> <i_lp_mmshare_version>
43012

> <i_f3d_flags>
0

> <s_epik_input>
W0NIM11bQ0hdKFtDSDNdKVtDSDJdW05IXUMoPU8pW05IXVtDSDJdYzFbY0hdW2NIXW5jKFtjSF0xKU4yW0NIMl1bQ0gyXU9bQ0gyXVtDSDJdMg==

> <s_epik_cmdline>
J2VwaWtfcHl0aG9uJywgJy1waCcsICc3LjAnLCAnLXRuJywgJzgnLCAnLW1hJywgJzIwMCcsICctbWV0YWxfYmluZGluZycsICctaW1hZScsICc8aW5maWxlLm1hZT4nLCAnLW9tYWUnLCAnPG91dGZpbGUubWFlPic=

> <r_lp_tautomer_probability>
0.999994

> <r_epik_Ionization_Penalty>
2.29114

> <r_epik_Ionization_Penalty_Charging>
2.2911

> <r_epik_Ionization_Penalty_Neutral>
4.11828e-05

> <r_epik_State_Penalty>
2.44112

> <r_epik_Charging_Adjusted_Penalty>
4.73222

> <i_epik_Tot_Q>
1

> <i_epik_Tot_abs_Q>
1

> <r_epik_Metal_State_Penalty>
2.45346

> <b_epik_Metal_Only>
0

> <s_lp_Force_Field>
OPLS_2005

> <r_lp_Energy>
19.1618

> <b_lp_Chiralities_Consistent>
1

> <s_lp_Variant>
AV-unprocessed.smi:2109-2

> <Gold.Version>
5.8.1

> <Gold.Id.Protein>
6NUR|6NUR_protein|mol2

> <Gold.PLP.Fitness>
58.7780

> <Gold.PLP.PLP>
-47.3221

> <Gold.PLP.part.hbond>
-4.5322

> <Gold.PLP.part.metal>
0.0000

> <Gold.PLP.part.buried>
-1.9248

> <Gold.PLP.part.nonpolar>
-40.4364

> <Gold.PLP.part.repulsive>
0.3320

> <Gold.PLP.ligand.clash>
0.0000

> <Gold.PLP.ligand.torsion>
0.4113

> <Gold.PLP.Chemscore.Hbond>
3.9271

> <Gold.PLP.Chemscore.CHOScore>
0.0000

> <Gold.PLP.Chemscore.Metal>
0.0000

> <Gold.Chemscore.Hbonds>
donor molecule, donor type, donor heavy atom, donor atom, acceptor molecule, acceptor atom, score
      L1  H    13    46       P1  8028  1.82

> <Gold.PLP.Chemscore.Internal.Correction>
0.4972

> <Gold.Rescore>
     Score         DG    S(hbond)    S(metal)    S(lipo)     H(rot)  DE(clash)    DE(int)     intcor
     18.09     -18.43       1.69        0.00     102.26       1.82       0.02       0.33       ----

> <Gold.Chemscore.Fitness>
18.0897

> <Gold.Chemscore.DG>
-18.4324

> <Gold.Chemscore.ZeroCoef>
-5.4800

> <Gold.Chemscore.Hbond>
1.6891

> <Gold.Chemscore.Metal>
0.0000

> <Gold.Chemscore.Lipo>
102.2637

> <Gold.Chemscore.Internal_Hbond>
0.0000

> <Gold.Chemscore.DEClash>
0.0151

> <Gold.Chemscore.DEInternal>
0.3276

> <Gold.Chemscore.Rot>
1.8180

> <Gold.Chemscore.Internal.Correction>
   9.000000E+99

> <Gold.Chemscore.Hbonds>
donor molecule, donor type, donor heavy atom, donor atom, acceptor molecule, acceptor atom, score
      L1  H     8    32       P1  7948  0.01
      L1  H    13    46       P1  8028  0.85

> <Gold.Chemscore.Hbond.Weighted>
-5.6416

> <Gold.Chemscore.Metal.Weighted>
-0.0000

> <Gold.Chemscore.Lipo.Weighted>
-11.9649

> <Gold.Chemscore.Internal_Hbond.Weighted>
0.0000

> <Gold.Chemscore.DEClash.Weighted>
0.0151

> <Gold.Chemscore.DEInternal.Weighted>
0.3276

> <Gold.Chemscore.Rot.Weighted>
4.6541

> <Gold.Chemscore.Internal.Correction.Weighted>
   9.000000E+99

> <Gold.Protein.RotatedTorsions>
[ 6907 6896 6895 6894 ] final  137.71 input  -60.11 | X-H torsion
[ 7974 7965 7964 7962 ] final   88.55 input  175.53 | X-H torsion
[ 8008 7997 7996 7995 ] final  141.11 input   59.86 | X-H torsion
[ 10167 10162 10161 10158 ] final  -78.95 input  -65.29 | X-H torsion
[ 10718 10713 10712 10709 ] final -112.46 input   66.30 | X-H torsion
[ 10763 10752 10751 10750 ] final -138.94 input  -60.55 | X-H torsion
[ 11005 11000 10999 10996 ] final   32.75 input  -57.11 | X-H torsion

> <Gold.Protein.ActiveResidues>
 VAL166  LYS551  ARG553  GLY616  TRP617  ASP618  TYR619  PRO620  LYS621  CYS622 
 ASP623  PHE694  ASN695  SER759  ASP760  ASP761  ALA762  ILE779  LEU786  VAL792 
 PHE793  MET794  SER795  GLU796  ALA797  LYS798  CYS799  TRP800  GLU811  SER814 

> <Gold.Protein.RotatedAtoms>
  152.2749  133.5417  159.5461 H   0  0  0  0  0  0  0  0  0  0  0  0  # atno 6907 bound_to 6896
  150.7173  134.0645  159.3852 H   0  0  0  0  0  0  0  0  0  0  0  0  # atno 6908 bound_to 6896
  151.8558  135.0542  160.0515 H   0  0  0  0  0  0  0  0  0  0  0  0  # atno 6909 bound_to 6896
  145.5442  139.2290  143.2549 H   0  0  0  0  0  0  0  0  0  0  0  0  # atno 7974 bound_to 7965
  156.2970  140.2324  156.4511 H   0  0  0  0  0  0  0  0  0  0  0  0  # atno 8008 bound_to 7997
  154.8101  140.0443  157.1357 H   0  0  0  0  0  0  0  0  0  0  0  0  # atno 8009 bound_to 7997
  154.9433  140.3032  155.5113 H   0  0  0  0  0  0  0  0  0  0  0  0  # atno 8010 bound_to 7997
  140.4637  143.2446  151.8311 H   0  0  0  0  0  0  0  0  0  0  0  0  # atno 10167 bound_to 10162
  156.0707  130.5921  150.8512 H   0  0  0  0  0  0  0  0  0  0  0  0  # atno 10718 bound_to 10713
  154.8623  135.3597  154.5466 H   0  0  0  0  0  0  0  0  0  0  0  0  # atno 10763 bound_to 10752
  153.6086  135.7010  153.5360 H   0  0  0  0  0  0  0  0  0  0  0  0  # atno 10764 bound_to 10752
  153.3229  135.4146  155.1392 H   0  0  0  0  0  0  0  0  0  0  0  0  # atno 10765 bound_to 10752
  140.2703  134.3090  155.7830 H   0  0  0  0  0  0  0  0  0  0  0  0  # atno 11005 bound_to 11000
  146.1961  140.6263  142.9124 LP  0  0  0  0  0  0  0  0  0  0  0  0  # atno 17320 bound_to 7965
  144.7562  140.5312  143.6767 LP  0  0  0  0  0  0  0  0  0  0  0  0  # atno 17321 bound_to 7965
  139.4809  144.4977  151.9102 LP  0  0  0  0  0  0  0  0  0  0  0  0  # atno 17342 bound_to 10162
  140.4063  144.2428  150.5890 LP  0  0  0  0  0  0  0  0  0  0  0  0  # atno 17343 bound_to 10162
  157.5776  131.0946  150.9321 LP  0  0  0  0  0  0  0  0  0  0  0  0  # atno 17370 bound_to 10713
  156.9524  130.5424  149.5283 LP  0  0  0  0  0  0  0  0  0  0  0  0  # atno 17371 bound_to 10713
  141.2178  133.7462  156.9323 LP  0  0  0  0  0  0  0  0  0  0  0  0  # atno 17394 bound_to 11000
  140.1380  134.9312  157.2428 LP  0  0  0  0  0  0  0  0  0  0  0  0  # atno 17395 bound_to 11000

$$$$
