#       Name:                AV-unprocessed.smi:1554
#       Creating user name   scv26
#       Creation time:       Fri Mar 27 06:44:22 2020


#       File generated by GOLD software.
#

@<TRIPOS>MOLECULE
AV-unprocessed.smi:1554
    53    55     1
SMALL
NO_CHARGES


@<TRIPOS>ATOM
      1 ****        -3.7198   4.3660   3.3688 C.3            1 S1                 0.0000
      2 ****        -3.2439   3.3566   2.3379 C.ar           1 S1                 0.0000
      3 ****        -3.2585   3.7269   0.9744 C.ar           1 S1                 0.0000
      4 ****        -2.8145   2.7830   0.0559 C.ar           1 S1                 0.0000
      5 ****        -2.7069   2.8424  -1.3348 N.pl3          1 S1                 1.0000
      6 ****        -2.2126   1.6633  -1.8033 C.2            1 S1                 0.0000
      7 ****        -2.0025   0.8504  -0.7320 N.pl3          1 S1                 0.0000
      8 ****        -1.4821  -0.5244  -0.6871 C.3            1 S1                 0.0000
      9 ****         0.0587  -0.5828  -0.6815 C.3            1 S1                 0.0000
     10 ****         0.5573   0.0826   0.4634 O.3            1 S1                 0.0000
     11 ****         0.5758  -2.0354  -0.6740 C.3            1 S1                 0.0000
     12 ****         2.0537  -2.1188  -0.8018 N.4            1 S1                 1.0000
     13 ****         2.5996  -3.3832  -0.2543 C.3            1 S1                 0.0000
     14 ****         4.1338  -3.3936  -0.3532 C.3            1 S1                 0.0000
     15 ****         4.5246  -3.2022  -1.7071 O.3            1 S1                 0.0000
     16 ****         4.0868  -1.9501  -2.2233 C.3            1 S1                 0.0000
     17 ****         4.6338  -1.8011  -3.6473 C.3            1 S1                 0.0000
     18 ****         2.5468  -1.8998  -2.1844 C.3            1 S1                 0.0000
     19 ****        -2.3668   1.5069   0.4505 C.ar           1 S1                 0.0000
     20 ****        -2.3481   1.1260   1.7905 C.ar           1 S1                 0.0000
     21 ****        -2.7954   2.0719   2.7405 C.ar           1 S1                 0.0000
     22 ****        -2.7845   1.6840   4.2094 C.3            1 S1                 0.0000
     23 ****        -4.0136   5.3061   2.9009 H              1 S1                 0.0000
     24 ****        -2.9276   4.5846   4.0854 H              1 S1                 0.0000
     25 ****        -4.5826   3.9803   3.9121 H              1 S1                 0.0000
     26 ****        -3.5992   4.7029   0.6605 H              1 S1                 0.0000
     27 ****        -2.0225   1.4184  -2.8383 H              1 S1                 0.0000
     28 ****        -1.9048  -1.0440   0.1731 H              1 S1                 0.0000
     29 ****        -1.8667  -1.0372  -1.5696 H              1 S1                 0.0000
     30 ****         0.4233  -0.0552  -1.5624 H              1 S1                 0.0000
     31 ****         0.2106  -0.3394   1.2347 H              1 S1                 0.0000
     32 ****         0.2604  -2.5096   0.2570 H              1 S1                 0.0000
     33 ****         0.1142  -2.6115  -1.4775 H              1 S1                 0.0000
     34 ****         2.3008  -3.4970   0.7885 H              1 S1                 0.0000
     35 ****         2.1833  -4.2296  -0.8029 H              1 S1                 0.0000
     36 ****         4.5714  -2.6192   0.2788 H              1 S1                 0.0000
     37 ****         4.5263  -4.3486  -0.0036 H              1 S1                 0.0000
     38 ****         4.4965  -1.1462  -1.6091 H              1 S1                 0.0000
     39 ****         4.3379  -0.8469  -4.0842 H              1 S1                 0.0000
     40 ****         4.2664  -2.5956  -4.2976 H              1 S1                 0.0000
     41 ****         5.7232  -1.8442  -3.6526 H              1 S1                 0.0000
     42 ****         2.1300  -2.6621  -2.8449 H              1 S1                 0.0000
     43 ****         2.2089  -0.9345  -2.5596 H              1 S1                 0.0000
     44 ****        -2.0044   0.1510   2.1011 H              1 S1                 0.0000
     45 ****        -2.4469   0.6565   4.3485 H              1 S1                 0.0000
     46 ****        -3.7847   1.7649   4.6357 H              1 S1                 0.0000
     47 ****        -2.1139   2.3344   4.7714 H              1 S1                 0.0000
     48 ****         2.4324  -1.3766  -0.2303 H              1 S1                 0.0000
     49 ****        -2.9525   3.6285  -1.9232 H              1 S1                 0.0000
     50 ****         0.2713   1.0407   0.4469 LP             1 S1                 0.0000
     51 ****         1.5560   0.0330   0.4730 LP             1 S1                 0.0000
     52 ****         4.1304  -3.9346  -2.2623 LP             1 S1                 0.0000
     53 ****         5.5222  -3.2419  -1.7626 LP             1 S1                 0.0000
@<TRIPOS>BOND
    1    1    2 1     
    2    1   23 1     
    3    1   24 1     
    4    1   25 1     
    5    2   21 ar    
    6    2    3 ar    
    7    3    4 ar    
    8    3   26 1     
    9    4   19 ar    
   10    4    5 1     
   11    5    6 2     
   12    5   49 1     
   13    6    7 1     
   14    6   27 1     
   15    7    8 1     
   16    7   19 1     
   17    8    9 1     
   18    8   28 1     
   19    8   29 1     
   20    9   10 1     
   21    9   11 1     
   22    9   30 1     
   23   10   31 1     
   24   11   12 1     
   25   11   32 1     
   26   11   33 1     
   27   12   18 1     
   28   12   13 1     
   29   12   48 1     
   30   13   14 1     
   31   13   34 1     
   32   13   35 1     
   33   14   15 1     
   34   14   36 1     
   35   14   37 1     
   36   15   16 1     
   37   16   17 1     
   38   16   18 1     
   39   16   38 1     
   40   17   39 1     
   41   17   40 1     
   42   17   41 1     
   43   18   42 1     
   44   18   43 1     
   45   19   20 ar    
   46   20   21 ar    
   47   20   44 1     
   48   21   22 1     
   49   22   45 1     
   50   22   46 1     
   51   22   47 1     
   52   10   50 1     
   53   10   51 1     
   54   15   52 1     
   55   15   53 1     
@<TRIPOS>SUBSTRUCTURE
      1 S1             1
@<TRIPOS>SET
LONE_PAIRS      STATIC     ATOMS    <user>   **** ""
4 50 51 52 53
DONOR_HYDROGENS      STATIC     ATOMS    <user>   **** ""
3 49 31 48
ATOM$BLUE        STATIC     ATOMS    COLORGROUP SYSTEM
4 50 51 52 53
ATOM$RED        STATIC     ATOMS    COLORGROUP SYSTEM
3 49 31 48
