#       Name:                AV-unprocessed.smi:3019
#       Creating user name   scv26
#       Creation time:       Fri Mar 27 16:42:51 2020


#       File generated by GOLD software.
#

@<TRIPOS>MOLECULE
AV-unprocessed.smi:3019
    35    36     1
SMALL
NO_CHARGES


@<TRIPOS>ATOM
      1 ****        -3.7372   0.8391   0.4694 C.3            1 S1                 0.0000
      2 ****        -3.0999   0.9660  -0.9220 C.3            1 S1                 0.0000
      3 ****        -3.5563  -0.1539  -1.8686 C.3            1 S1                 0.0000
      4 ****        -1.6059   1.0487  -0.8414 C.2            1 S1                 0.0000
      5 ****        -0.9300   2.1325  -1.2299 N.pl3          1 S1                 0.0000
      6 ****         0.3908   1.9303  -1.0382 N.2            1 S1                 0.0000
      7 ****         0.4144   0.6916  -0.5486 C.2            1 S1                 0.0000
      8 ****         1.7048   0.0529  -0.1391 C.3            1 S1                 0.0000
      9 ****         2.0253   0.2933   1.3482 C.3            1 S1                 0.0000
     10 ****         3.2482  -0.4425   1.7238 N.4            1 S1                 1.0000
     11 ****         3.1358  -1.8784   1.3990 C.3            1 S1                 0.0000
     12 ****         2.7695  -2.0602  -0.0849 C.3            1 S1                 0.0000
     13 ****         1.5723  -1.3471  -0.3771 O.3            1 S1                 0.0000
     14 ****        -0.8043   0.0919  -0.3829 N.2            1 S1                 0.0000
     15 ****        -3.4541   1.6763   1.1080 H              1 S1                 0.0000
     16 ****        -3.4256  -0.0794   0.9677 H              1 S1                 0.0000
     17 ****        -4.8255   0.8280   0.4032 H              1 S1                 0.0000
     18 ****        -3.4530   1.9059  -1.3490 H              1 S1                 0.0000
     19 ****        -3.1453  -0.0135  -2.8687 H              1 S1                 0.0000
     20 ****        -4.6428  -0.1736  -1.9588 H              1 S1                 0.0000
     21 ****        -3.2358  -1.1327  -1.5107 H              1 S1                 0.0000
     22 ****         2.5066   0.4489  -0.7658 H              1 S1                 0.0000
     23 ****         2.1672   1.3561   1.5465 H              1 S1                 0.0000
     24 ****         1.1994  -0.0448   1.9759 H              1 S1                 0.0000
     25 ****         4.0288  -0.0552   1.2128 H              1 S1                 0.0000
     26 ****         4.0791  -2.3759   1.6256 H              1 S1                 0.0000
     27 ****         2.3721  -2.3307   2.0334 H              1 S1                 0.0000
     28 ****         3.5782  -1.7145  -0.7307 H              1 S1                 0.0000
     29 ****         2.6148  -3.1162  -0.3075 H              1 S1                 0.0000
     30 ****         3.4158  -0.3333   2.7141 H              1 S1                 0.0000
     31 ****        -1.3089   2.9906  -1.6051 H              1 S1                 0.0000
     32 ****         1.1546   2.5504  -1.2174 LP             1 S1                 0.0000
     33 ****         1.3400  -1.4892  -1.3393 LP             1 S1                 0.0000
     34 ****         0.8370  -1.7032   0.1995 LP             1 S1                 0.0000
     35 ****        -1.0290  -0.8121  -0.0191 LP             1 S1                 0.0000
@<TRIPOS>BOND
    1    1    2 1     
    2    1   15 1     
    3    1   16 1     
    4    1   17 1     
    5    2    3 1     
    6    2    4 1     
    7    2   18 1     
    8    3   19 1     
    9    3   20 1     
   10    3   21 1     
   11    4   14 2     
   12    4    5 1     
   13    5    6 1     
   14    5   31 1     
   15    6    7 2     
   16    7    8 1     
   17    7   14 1     
   18    8   13 1     
   19    8    9 1     
   20    8   22 1     
   21    9   10 1     
   22    9   23 1     
   23    9   24 1     
   24   10   11 1     
   25   10   25 1     
   26   10   30 1     
   27   11   12 1     
   28   11   26 1     
   29   11   27 1     
   30   12   13 1     
   31   12   28 1     
   32   12   29 1     
   33    6   32 1     
   34   13   33 1     
   35   13   34 1     
   36   14   35 1     
@<TRIPOS>SUBSTRUCTURE
      1 S1             1
@<TRIPOS>SET
LONE_PAIRS      STATIC     ATOMS    <user>   **** ""
4 32 33 34 35
DONOR_HYDROGENS      STATIC     ATOMS    <user>   **** ""
3 31 25 30
ATOM$BLUE        STATIC     ATOMS    COLORGROUP SYSTEM
4 32 33 34 35
ATOM$RED        STATIC     ATOMS    COLORGROUP SYSTEM
3 31 25 30
