AV-unprocessed.smi:841|AV-procd|sdf|3915|dock6
  -GOLD-   22720 1373D 1   1.00000     0.00000
 Structure written by MMmdl.
 30 31  0  0  0  0  0  0  0  0  1 V2000
  152.7248  139.9430  157.6363 O   0  0  0  0  0  0  0  0  0  0  0  0
  151.7120  140.6413  157.6801 C   0  0  0  0  0  0  0  0  0  0  0  0
  150.5877  140.4288  156.6631 C   0  0  0  0  0  0  0  0  0  0  0  0
  150.8131  139.2404  155.8580 N   0  0  0  0  0  0  0  0  0  0  0  0
  150.9434  137.9317  156.2760 C   0  0  0  0  0  0  0  0  0  0  0  0
  151.1554  137.1678  155.1644 C   0  0  0  0  0  0  0  0  0  0  0  0
  151.1441  138.1111  154.0994 C   0  0  0  0  0  0  0  0  0  0  0  0
  150.9418  139.3502  154.5175 N   0  0  0  0  0  0  0  0  0  0  0  0
  151.5187  141.6076  158.5914 N   0  0  0  0  0  0  0  0  0  0  0  0
  152.4531  141.9755  159.6506 C   0  0  0  0  0  0  0  0  0  0  0  0
  152.5520  143.5028  159.8229 C   0  0  2  0  0  0  0  0  0  0  0  0
  151.3453  144.1221  160.4978 C   0  0  0  0  0  0  0  0  0  0  0  0
  151.4941  145.5944  160.1254 C   0  0  0  0  0  0  0  0  0  0  0  0
  152.1433  145.6128  158.8573 O   0  0  0  0  0  0  0  0  0  0  0  0
  152.5954  144.3047  158.5207 C   0  0  0  0  0  0  0  0  0  0  0  0
  149.6381  140.3396  157.1929 H   0  0  0  0  0  0  0  0  0  0  0  0
  150.5021  141.2862  155.9938 H   0  0  0  0  0  0  0  0  0  0  0  0
  150.8736  137.6571  157.3181 H   0  0  0  0  0  0  0  0  0  0  0  0
  151.2991  136.0985  155.1191 H   0  0  0  0  0  0  0  0  0  0  0  0
  151.2783  137.9339  153.0426 H   0  0  0  0  0  0  0  0  0  0  0  0
  150.6544  142.1280  158.5500 H   0  0  0  0  0  0  0  0  0  0  0  0
  152.1835  141.4962  160.5935 H   0  0  0  0  0  0  0  0  0  0  0  0
  153.4311  141.5778  159.3784 H   0  0  0  0  0  0  0  0  0  0  0  0
  153.4374  143.7449  160.4135 H   0  0  0  0  0  0  0  0  0  0  0  0
  150.4237  143.7210  160.0733 H   0  0  0  0  0  0  0  0  0  0  0  0
  151.3246  143.9576  161.5756 H   0  0  0  0  0  0  0  0  0  0  0  0
  150.5360  146.1133  160.0912 H   0  0  0  0  0  0  0  0  0  0  0  0
  152.1309  146.1072  160.8470 H   0  0  0  0  0  0  0  0  0  0  0  0
  153.5910  144.3312  158.0774 H   0  0  0  0  0  0  0  0  0  0  0  0
  151.9088  143.8839  157.7849 H   0  0  0  0  0  0  0  0  0  0  0  0
  1  2  2  0  0  0  0
  2  3  1  0  0  0  0
  2  9  1  0  0  0  0
  3  4  1  0  0  0  0
  3 16  1  0  0  0  0
  3 17  1  0  0  0  0
  4  8  1  0  0  0  0
  4  5  1  0  0  0  0
  5  6  2  0  0  0  0
  5 18  1  0  0  0  0
  6  7  1  0  0  0  0
  6 19  1  0  0  0  0
  7  8  2  0  0  0  0
  7 20  1  0  0  0  0
  9 10  1  0  0  0  0
  9 21  1  0  0  0  0
 10 11  1  0  0  0  0
 10 22  1  0  0  0  0
 10 23  1  0  0  0  0
 11 15  1  0  0  0  0
 11 12  1  0  0  0  0
 11 24  1  0  0  0  0
 12 13  1  0  0  0  0
 12 25  1  0  0  0  0
 12 26  1  0  0  0  0
 13 14  1  0  0  0  0
 13 27  1  0  0  0  0
 13 28  1  0  0  0  0
 14 15  1  0  0  0  0
 15 29  1  0  0  0  0
 15 30  1  0  0  0  0
M  END
> <s_m_source_file>
AV-unprocessed.smi

> <i_m_source_file_index>
841

> <i_lp_mmshare_version>
43012

> <i_f3d_flags>
0

> <s_epik_input>
bjFbY0hdW2NIXVtjSF1uMVtDSDJdQyg9TylbTkhdW0NIMl1bQ0BASF0yW0NIMl1bQ0gyXU9bQ0gyXTI=

> <s_epik_cmdline>
J2VwaWtfcHl0aG9uJywgJy1waCcsICc3LjAnLCAnLXRuJywgJzgnLCAnLW1hJywgJzIwMCcsICctbWV0YWxfYmluZGluZycsICctaW1hZScsICc8aW5maWxlLm1hZT4nLCAnLW9tYWUnLCAnPG91dGZpbGUubWFlPic=

> <r_lp_tautomer_probability>
1

> <r_epik_Ionization_Penalty>
1.49823e-05

> <r_epik_Ionization_Penalty_Charging>
0

> <r_epik_Ionization_Penalty_Neutral>
1.49823e-05

> <r_epik_State_Penalty>
-0

> <r_epik_Charging_Adjusted_Penalty>
0

> <i_epik_Tot_Q>
0

> <i_epik_Tot_abs_Q>
0

> <r_epik_Metal_State_Penalty>
-0

> <b_epik_Metal_Only>
0

> <s_lp_Force_Field>
OPLS_2005

> <r_lp_Energy>
19.4913

> <b_lp_Chiralities_Consistent>
1

> <s_lp_Variant>
AV-unprocessed.smi:841-1

> <Gold.Version>
5.8.1

> <Gold.Id.Protein>
6NUR|6NUR_protein|mol2

> <Gold.PLP.Fitness>
41.4064

> <Gold.PLP.PLP>
-33.0372

> <Gold.PLP.part.hbond>
-2.7570

> <Gold.PLP.part.metal>
0.0000

> <Gold.PLP.part.buried>
-3.2526

> <Gold.PLP.part.nonpolar>
-27.0172

> <Gold.PLP.part.repulsive>
0.2928

> <Gold.PLP.ligand.clash>
0.0000

> <Gold.PLP.ligand.torsion>
0.3205

> <Gold.PLP.Chemscore.Hbond>
2.0000

> <Gold.PLP.Chemscore.CHOScore>
1.0000

> <Gold.PLP.Chemscore.Metal>
0.0000

> <Gold.Chemscore.Hbonds>
donor molecule, donor type, donor heavy atom, donor atom, acceptor molecule, acceptor atom, score
      P1  H  7989  7998       L1     8  1.00
      P1  H  7997  8008       L1     1  1.00
      L1  C     7    20       P1  7949  1.00

> <Gold.PLP.Chemscore.Internal.Correction>
0.0101

> <Gold.Rescore>
     Score         DG    S(hbond)    S(metal)    S(lipo)     H(rot)  DE(clash)    DE(int)     intcor
     17.11     -17.53       1.96        0.00      83.61       1.68       0.10       0.32       ----

> <Gold.Chemscore.Fitness>
17.1090

> <Gold.Chemscore.DG>
-17.5297

> <Gold.Chemscore.ZeroCoef>
-5.4800

> <Gold.Chemscore.Hbond>
1.9642

> <Gold.Chemscore.Metal>
0.0000

> <Gold.Chemscore.Lipo>
83.6136

> <Gold.Chemscore.Internal_Hbond>
0.0000

> <Gold.Chemscore.DEClash>
0.0985

> <Gold.Chemscore.DEInternal>
0.3222

> <Gold.Chemscore.Rot>
1.6771

> <Gold.Chemscore.Internal.Correction>
   9.000000E+99

> <Gold.Chemscore.Hbonds>
donor molecule, donor type, donor heavy atom, donor atom, acceptor molecule, acceptor atom, score
      P1  H  7989  7998       L1     8  0.97
      P1  H  7997  8008       L1     1  0.99

> <Gold.Chemscore.Hbond.Weighted>
-6.5603

> <Gold.Chemscore.Metal.Weighted>
-0.0000

> <Gold.Chemscore.Lipo.Weighted>
-9.7828

> <Gold.Chemscore.Internal_Hbond.Weighted>
0.0000

> <Gold.Chemscore.DEClash.Weighted>
0.0985

> <Gold.Chemscore.DEInternal.Weighted>
0.3222

> <Gold.Chemscore.Rot.Weighted>
4.2934

> <Gold.Chemscore.Internal.Correction.Weighted>
   9.000000E+99

> <Gold.Protein.RotatedTorsions>
[ 6907 6896 6895 6894 ] final  177.32 input  -60.11 | X-H torsion
[ 7974 7965 7964 7962 ] final  -28.53 input  175.53 | X-H torsion
[ 8008 7997 7996 7995 ] final  -71.89 input   59.86 | X-H torsion
[ 10167 10162 10161 10158 ] final -136.20 input  -65.29 | X-H torsion
[ 10718 10713 10712 10709 ] final  -25.26 input   66.30 | X-H torsion
[ 10763 10752 10751 10750 ] final  114.27 input  -60.55 | X-H torsion
[ 11005 11000 10999 10996 ] final   33.42 input  -57.11 | X-H torsion

> <Gold.Protein.ActiveResidues>
 VAL166  LYS551  ARG553  GLY616  TRP617  ASP618  TYR619  PRO620  LYS621  CYS622 
 ASP623  PHE694  ASN695  SER759  ASP760  ASP761  ALA762  ILE779  LEU786  VAL792 
 PHE793  MET794  SER795  GLU796  ALA797  LYS798  CYS799  TRP800  GLU811  SER814 

> <Gold.Protein.RotatedAtoms>
  151.7059  133.3311  159.3278 H   0  0  0  0  0  0  0  0  0  0  0  0  # atno 6907 bound_to 6896
  150.7715  134.6575  159.6331 H   0  0  0  0  0  0  0  0  0  0  0  0  # atno 6908 bound_to 6896
  152.3741  134.6692  160.0218 H   0  0  0  0  0  0  0  0  0  0  0  0  # atno 6909 bound_to 6896
  146.1281  140.5294  142.8705 H   0  0  0  0  0  0  0  0  0  0  0  0  # atno 7974 bound_to 7965
  154.5123  140.0807  156.8014 H   0  0  0  0  0  0  0  0  0  0  0  0  # atno 8008 bound_to 7997
  155.3757  140.3425  155.4226 H   0  0  0  0  0  0  0  0  0  0  0  0  # atno 8009 bound_to 7997
  156.1587  140.1581  156.8635 H   0  0  0  0  0  0  0  0  0  0  0  0  # atno 8010 bound_to 7997
  139.8701  143.6967  152.2640 H   0  0  0  0  0  0  0  0  0  0  0  0  # atno 10167 bound_to 10162
  156.4667  130.4515  149.6894 H   0  0  0  0  0  0  0  0  0  0  0  0  # atno 10718 bound_to 10713
  153.5048  135.3630  155.2558 H   0  0  0  0  0  0  0  0  0  0  0  0  # atno 10763 bound_to 10752
  154.8745  135.4008  154.3436 H   0  0  0  0  0  0  0  0  0  0  0  0  # atno 10764 bound_to 10752
  153.4079  135.7077  153.6446 H   0  0  0  0  0  0  0  0  0  0  0  0  # atno 10765 bound_to 10752
  140.2633  134.3167  155.7851 H   0  0  0  0  0  0  0  0  0  0  0  0  # atno 11005 bound_to 11000
  144.7663  140.5538  143.6701 LP  0  0  0  0  0  0  0  0  0  0  0  0  # atno 17320 bound_to 7965
  145.5320  139.1475  143.3494 LP  0  0  0  0  0  0  0  0  0  0  0  0  # atno 17321 bound_to 7965
  139.7291  144.7586  151.0830 LP  0  0  0  0  0  0  0  0  0  0  0  0  # atno 17342 bound_to 10162
  140.7762  143.5110  150.9652 LP  0  0  0  0  0  0  0  0  0  0  0  0  # atno 17343 bound_to 10162
  156.3660  130.7506  151.2484 LP  0  0  0  0  0  0  0  0  0  0  0  0  # atno 17370 bound_to 10713
  157.7494  131.0336  150.4282 LP  0  0  0  0  0  0  0  0  0  0  0  0  # atno 17371 bound_to 10713
  141.2187  133.7422  156.9221 LP  0  0  0  0  0  0  0  0  0  0  0  0  # atno 17394 bound_to 11000
  140.1443  134.9272  157.2509 LP  0  0  0  0  0  0  0  0  0  0  0  0  # atno 17395 bound_to 11000

$$$$
