AV-unprocessed.smi:2027|AV-procd|sdf|8210|dock8
  -GOLD-   2272010473D 1   1.00000     0.00000
 Structure written by MMmdl.
 49 51  0  0  0  0  0  0  0  0  1 V2000
  146.8448  130.4324  152.6355 C   0  0  0  0  0  0  0  0  0  0  0  0
  146.4088  131.8781  152.4755 C   0  0  0  0  0  0  0  0  0  0  0  0
  145.4950  132.2112  151.4492 C   0  0  0  0  0  0  0  0  0  0  0  0
  145.0661  133.5443  151.2655 C   0  0  0  0  0  0  0  0  0  0  0  0
  144.1925  134.0934  150.3415 N   0  0  0  0  0  0  0  0  0  0  0  0
  144.2088  135.3788  150.6851 C   0  0  0  0  0  0  0  0  0  0  0  0
  144.9943  135.7264  151.7220 N   0  0  0  0  0  0  0  0  0  0  0  0
  145.1909  137.0457  152.2890 C   0  0  0  0  0  0  0  0  0  0  0  0
  146.5688  137.6290  151.9163 C   0  0  1  0  0  0  0  0  0  0  0  0
  146.6704  137.6975  150.5090 O   0  0  0  0  0  0  0  0  0  0  0  0
  146.7973  139.0391  152.4994 C   0  0  0  0  0  0  0  0  0  0  0  0
  146.5256  139.1658  153.9342 N   0  0  0  0  0  0  0  0  0  0  0  0
  146.7155  140.5463  154.3681 C   0  0  0  0  0  0  0  0  0  0  0  0
  147.3281  138.2478  154.7485 C   0  0  0  0  0  0  0  0  0  0  0  0
  148.7192  138.7624  155.0078 C   0  0  0  0  0  0  0  0  0  0  0  0
  149.8384  138.7420  154.1277 C   0  0  0  0  0  0  0  0  0  0  0  0
  150.9313  139.2516  154.6728 N   0  0  0  0  0  0  0  0  0  0  0  0
  150.5504  139.6115  155.9158 N   0  0  0  0  0  0  0  0  0  0  0  0
  151.5145  140.2074  156.8158 C   0  0  0  0  0  0  0  0  0  0  0  0
  149.2225  139.3271  156.1464 C   0  0  0  0  0  0  0  0  0  0  0  0
  145.5821  134.5404  152.1432 C   0  0  0  0  0  0  0  0  0  0  0  0
  146.4901  134.2225  153.1679 C   0  0  0  0  0  0  0  0  0  0  0  0
  146.9065  132.8867  153.3397 C   0  0  0  0  0  0  0  0  0  0  0  0
  147.8870  132.5568  154.4515 C   0  0  0  0  0  0  0  0  0  0  0  0
  146.4336  129.8028  151.8457 H   0  0  0  0  0  0  0  0  0  0  0  0
  146.5039  130.0363  153.5924 H   0  0  0  0  0  0  0  0  0  0  0  0
  147.9312  130.3524  152.5936 H   0  0  0  0  0  0  0  0  0  0  0  0
  145.1150  131.4428  150.7921 H   0  0  0  0  0  0  0  0  0  0  0  0
  143.6189  136.1098  150.1514 H   0  0  0  0  0  0  0  0  0  0  0  0
  144.3829  137.7048  151.9686 H   0  0  0  0  0  0  0  0  0  0  0  0
  145.0962  136.9468  153.3708 H   0  0  0  0  0  0  0  0  0  0  0  0
  147.3574  136.9539  152.2452 H   0  0  0  0  0  0  0  0  0  0  0  0
  145.9313  138.1858  150.1797 H   0  0  0  0  0  0  0  0  0  0  0  0
  147.8205  139.3592  152.2962 H   0  0  0  0  0  0  0  0  0  0  0  0
  146.1543  139.7295  151.9514 H   0  0  0  0  0  0  0  0  0  0  0  0
  146.4545  140.6701  155.4194 H   0  0  0  0  0  0  0  0  0  0  0  0
  146.0803  141.2230  153.7954 H   0  0  0  0  0  0  0  0  0  0  0  0
  147.7515  140.8612  154.2356 H   0  0  0  0  0  0  0  0  0  0  0  0
  146.8501  138.0796  155.7107 H   0  0  0  0  0  0  0  0  0  0  0  0
  147.3561  137.2670  154.2715 H   0  0  0  0  0  0  0  0  0  0  0  0
  149.8890  138.3701  153.1149 H   0  0  0  0  0  0  0  0  0  0  0  0
  151.0012  140.6603  157.6645 H   0  0  0  0  0  0  0  0  0  0  0  0
  152.0845  140.9782  156.2955 H   0  0  0  0  0  0  0  0  0  0  0  0
  152.1971  139.4403  157.1818 H   0  0  0  0  0  0  0  0  0  0  0  0
  148.7488  139.5425  157.0931 H   0  0  0  0  0  0  0  0  0  0  0  0
  146.8634  135.0021  153.8147 H   0  0  0  0  0  0  0  0  0  0  0  0
  148.0919  133.4296  155.0725 H   0  0  0  0  0  0  0  0  0  0  0  0
  148.8331  132.2115  154.0340 H   0  0  0  0  0  0  0  0  0  0  0  0
  147.4869  131.7754  155.0978 H   0  0  0  0  0  0  0  0  0  0  0  0
  1  2  1  0  0  0  0
  1 25  1  0  0  0  0
  1 26  1  0  0  0  0
  1 27  1  0  0  0  0
  2 23  1  0  0  0  0
  2  3  2  0  0  0  0
  3  4  1  0  0  0  0
  3 28  1  0  0  0  0
  4 21  2  0  0  0  0
  4  5  1  0  0  0  0
  5  6  2  0  0  0  0
  6  7  1  0  0  0  0
  6 29  1  0  0  0  0
  7  8  1  0  0  0  0
  7 21  1  0  0  0  0
  8  9  1  0  0  0  0
  8 30  1  0  0  0  0
  8 31  1  0  0  0  0
  9 10  1  0  0  0  0
  9 11  1  0  0  0  0
  9 32  1  0  0  0  0
 10 33  1  0  0  0  0
 11 12  1  0  0  0  0
 11 34  1  0  0  0  0
 11 35  1  0  0  0  0
 12 13  1  0  0  0  0
 12 14  1  0  0  0  0
 13 36  1  0  0  0  0
 13 37  1  0  0  0  0
 13 38  1  0  0  0  0
 14 15  1  0  0  0  0
 14 39  1  0  0  0  0
 14 40  1  0  0  0  0
 15 20  2  0  0  0  0
 15 16  1  0  0  0  0
 16 17  2  0  0  0  0
 16 41  1  0  0  0  0
 17 18  1  0  0  0  0
 18 19  1  0  0  0  0
 18 20  1  0  0  0  0
 19 42  1  0  0  0  0
 19 43  1  0  0  0  0
 19 44  1  0  0  0  0
 20 45  1  0  0  0  0
 21 22  1  0  0  0  0
 22 23  2  0  0  0  0
 22 46  1  0  0  0  0
 23 24  1  0  0  0  0
 24 47  1  0  0  0  0
 24 48  1  0  0  0  0
 24 49  1  0  0  0  0
M  END
> <s_m_source_file>
AV-unprocessed.smi

> <i_m_source_file_index>
2027

> <i_lp_mmshare_version>
43012

> <i_f3d_flags>
0

> <s_epik_input>
W0NIM11jKFtjSF0xKWMoW0NIM10pW2NIXWMoYzEyKW4oW2NIXW4yKVtDSDJdW0NASF0oW09IXSlbQ0gyXU4oW0NIM10pW0NIMl1jM1tjSF1ubihbQ0gzXSlbY0hdMw==

> <s_epik_cmdline>
J2VwaWtfcHl0aG9uJywgJy1waCcsICc3LjAnLCAnLXRuJywgJzgnLCAnLW1hJywgJzIwMCcsICctbWV0YWxfYmluZGluZycsICctaW1hZScsICc8aW5maWxlLm1hZT4nLCAnLW9tYWUnLCAnPG91dGZpbGUubWFlPic=

> <r_lp_tautomer_probability>
1

> <r_epik_Ionization_Penalty>
0.374241

> <r_epik_Ionization_Penalty_Charging>
0

> <r_epik_Ionization_Penalty_Neutral>
0.374241

> <r_epik_State_Penalty>
0.350767

> <r_epik_Charging_Adjusted_Penalty>
0.350767

> <i_epik_Tot_Q>
0

> <i_epik_Tot_abs_Q>
0

> <r_epik_Metal_State_Penalty>
0.343203

> <b_epik_Metal_Only>
0

> <s_lp_Force_Field>
OPLS_2005

> <r_lp_Energy>
13.5697

> <b_lp_Chiralities_Consistent>
1

> <s_lp_Variant>
AV-unprocessed.smi:2027-2

> <Gold.Version>
5.8.1

> <Gold.Id.Protein>
6NUR|6NUR_protein|mol2

> <Gold.PLP.Fitness>
51.7494

> <Gold.PLP.PLP>
-35.7722

> <Gold.PLP.part.hbond>
-3.7653

> <Gold.PLP.part.metal>
0.0000

> <Gold.PLP.part.buried>
-0.2997

> <Gold.PLP.part.nonpolar>
-33.2663

> <Gold.PLP.part.repulsive>
0.4990

> <Gold.PLP.ligand.clash>
0.0000

> <Gold.PLP.ligand.torsion>
0.6330

> <Gold.PLP.Chemscore.Hbond>
2.9440

> <Gold.PLP.Chemscore.CHOScore>
2.7379

> <Gold.PLP.Chemscore.Metal>
0.0000

> <Gold.Chemscore.Hbonds>
donor molecule, donor type, donor heavy atom, donor atom, acceptor molecule, acceptor atom, score
      L1  H    10    33       P1 10171  0.80
      P1  H  7954  7966       L1    10  0.99
      P1  H  7989  7998       L1    17  0.80
      L1  C     6    29       P1 10171  1.00
      L1  C    16    41       P1  7948  0.82
      L1  C    16    41       P1  7957  0.72

> <Gold.PLP.Chemscore.Internal.Correction>
0.1976

> <Gold.Rescore>
     Score         DG    S(hbond)    S(metal)    S(lipo)     H(rot)  DE(clash)    DE(int)     intcor
     16.48     -18.47       2.67        0.00      87.65       2.42       1.39       0.60       ----

> <Gold.Chemscore.Fitness>
16.4776

> <Gold.Chemscore.DG>
-18.4672

> <Gold.Chemscore.ZeroCoef>
-5.4800

> <Gold.Chemscore.Hbond>
2.6728

> <Gold.Chemscore.Metal>
0.0000

> <Gold.Chemscore.Lipo>
87.6473

> <Gold.Chemscore.Internal_Hbond>
0.0000

> <Gold.Chemscore.DEClash>
1.3881

> <Gold.Chemscore.DEInternal>
0.6015

> <Gold.Chemscore.Rot>
2.4198

> <Gold.Chemscore.Internal.Correction>
   9.000000E+99

> <Gold.Chemscore.Hbonds>
donor molecule, donor type, donor heavy atom, donor atom, acceptor molecule, acceptor atom, score
      L1  H    10    33       P1 10171  0.78
      P1  H  7954  7966       L1    10  0.89
      P1  H  7989  7998       L1    17  0.52

> <Gold.Chemscore.Hbond.Weighted>
-8.9272

> <Gold.Chemscore.Metal.Weighted>
-0.0000

> <Gold.Chemscore.Lipo.Weighted>
-10.2547

> <Gold.Chemscore.Internal_Hbond.Weighted>
0.0000

> <Gold.Chemscore.DEClash.Weighted>
1.3881

> <Gold.Chemscore.DEInternal.Weighted>
0.6015

> <Gold.Chemscore.Rot.Weighted>
6.1948

> <Gold.Chemscore.Internal.Correction.Weighted>
   9.000000E+99

> <Gold.Protein.RotatedTorsions>
[ 6907 6896 6895 6894 ] final  171.06 input  -60.11 | X-H torsion
[ 7974 7965 7964 7962 ] final -114.85 input  175.53 | X-H torsion
[ 8008 7997 7996 7995 ] final  132.36 input   59.86 | X-H torsion
[ 10167 10162 10161 10158 ] final  121.71 input  -65.29 | X-H torsion
[ 10718 10713 10712 10709 ] final  134.95 input   66.30 | X-H torsion
[ 10763 10752 10751 10750 ] final  156.58 input  -60.55 | X-H torsion
[ 11005 11000 10999 10996 ] final -171.81 input  -57.11 | X-H torsion

> <Gold.Protein.ActiveResidues>
 VAL166  LYS551  ARG553  GLY616  TRP617  ASP618  TYR619  PRO620  LYS621  CYS622 
 ASP623  PHE694  ASN695  SER759  ASP760  ASP761  ALA762  ILE779  LEU786  VAL792 
 PHE793  MET794  SER795  GLU796  ALA797  LYS798  CYS799  TRP800  GLU811  SER814 

> <Gold.Protein.RotatedAtoms>
  151.8062  133.3376  159.3541 H   0  0  0  0  0  0  0  0  0  0  0  0  # atno 6907 bound_to 6896
  150.7341  134.5707  159.5898 H   0  0  0  0  0  0  0  0  0  0  0  0  # atno 6908 bound_to 6896
  152.3108  134.7501  160.0388 H   0  0  0  0  0  0  0  0  0  0  0  0  # atno 6909 bound_to 6896
  145.1153  140.8636  143.3846 H   0  0  0  0  0  0  0  0  0  0  0  0  # atno 7974 bound_to 7965
  156.2981  140.2548  156.3077 H   0  0  0  0  0  0  0  0  0  0  0  0  # atno 8008 bound_to 7997
  154.9356  140.0397  157.2089 H   0  0  0  0  0  0  0  0  0  0  0  0  # atno 8009 bound_to 7997
  154.8176  140.2854  155.5814 H   0  0  0  0  0  0  0  0  0  0  0  0  # atno 8010 bound_to 7997
  139.5903  144.7022  151.3307 H   0  0  0  0  0  0  0  0  0  0  0  0  # atno 10167 bound_to 10162
  157.4621  131.1074  150.9907 H   0  0  0  0  0  0  0  0  0  0  0  0  # atno 10718 bound_to 10713
  154.1865  135.2797  155.3035 H   0  0  0  0  0  0  0  0  0  0  0  0  # atno 10763 bound_to 10752
  154.5962  135.5544  153.7331 H   0  0  0  0  0  0  0  0  0  0  0  0  # atno 10764 bound_to 10752
  153.0124  135.6380  154.2004 H   0  0  0  0  0  0  0  0  0  0  0  0  # atno 10765 bound_to 10752
  140.5041  134.5865  157.4997 H   0  0  0  0  0  0  0  0  0  0  0  0  # atno 11005 bound_to 11000
  145.0801  139.2966  143.5788 LP  0  0  0  0  0  0  0  0  0  0  0  0  # atno 17320 bound_to 7965
  146.3524  140.0304  142.8651 LP  0  0  0  0  0  0  0  0  0  0  0  0  # atno 17321 bound_to 7965
  140.7167  143.7246  150.7669 LP  0  0  0  0  0  0  0  0  0  0  0  0  # atno 17342 bound_to 10162
  140.0801  143.4977  152.2535 LP  0  0  0  0  0  0  0  0  0  0  0  0  # atno 17343 bound_to 10162
  157.0701  130.5861  149.5401 LP  0  0  0  0  0  0  0  0  0  0  0  0  # atno 17370 bound_to 10713
  156.0033  130.5116  150.7742 LP  0  0  0  0  0  0  0  0  0  0  0  0  # atno 17371 bound_to 10713
  139.9696  134.7314  156.0067 LP  0  0  0  0  0  0  0  0  0  0  0  0  # atno 17394 bound_to 11000
  141.1420  133.6563  156.3758 LP  0  0  0  0  0  0  0  0  0  0  0  0  # atno 17395 bound_to 11000

$$$$
