#       Name:                AV-unprocessed.smi:515
#       Creating user name   scv26
#       Creation time:       Thu Mar 26 23:25:12 2020


#       File generated by GOLD software.
#

@<TRIPOS>MOLECULE
AV-unprocessed.smi:515
    57    59     1
SMALL
NO_CHARGES


@<TRIPOS>ATOM
      1 ****        -3.2623   1.7502  -0.7642 C.3            1 S1                 0.0000
      2 ****        -2.7640   0.7596  -1.8167 C.3            1 S1                 0.0000
      3 ****        -1.3859   0.5025  -1.6031 O.3            1 S1                 0.0000
      4 ****        -0.8629  -0.4234  -2.5411 C.3            1 S1                 0.0000
      5 ****         0.6326  -0.6659  -2.2850 C.3            1 S1                 0.0000
      6 ****         0.9079  -1.1419  -0.9318 N.pl3          1 S1                 0.0000
      7 ****         1.4543  -0.4564   0.1086 C.2            1 S1                 0.0000
      8 ****         1.9037   0.9731   0.0184 C.3            1 S1                 0.0000
      9 ****         0.8407   1.9523   0.2399 N.3            1 S1                 0.0000
     10 ****         0.3673   1.9444   1.6238 C.3            1 S1                 0.0000
     11 ****        -0.6959   3.0254   1.8879 C.3            1 S1                 0.0000
     12 ****        -0.1949   4.3032   1.5105 O.3            1 S1                 0.0000
     13 ****         0.2064   4.3522   0.1459 C.3            1 S1                 0.0000
     14 ****         1.2949   3.2951  -0.1020 C.3            1 S1                 0.0000
     15 ****         1.5843  -1.1746   1.2293 N.2            1 S1                 0.0000
     16 ****         1.0863  -2.4180   0.8724 C.2            1 S1                 0.0000
     17 ****         0.6916  -2.4234  -0.4251 C.2            1 S1                 0.0000
     18 ****         0.1573  -3.6236  -1.0818 C.2            1 S1                 0.0000
     19 ****        -0.1838  -3.6561  -2.2621 O.2            1 S1                 0.0000
     20 ****         0.0908  -4.6957  -0.2556 N.am           1 S1                 0.0000
     21 ****         0.4658  -4.7572   1.0588 C.2            1 S1                 0.0000
     22 ****         0.3554  -5.8138   1.6806 O.2            1 S1                 0.0000
     23 ****         0.9624  -3.6151   1.6340 N.am           1 S1                 0.0000
     24 ****         1.3872  -3.6223   3.0349 C.3            1 S1                 0.0000
     25 ****        -0.2696  -5.5487  -0.6577 H              1 S1                 0.0000
     26 ****        -4.3194   1.9734  -0.9085 H              1 S1                 0.0000
     27 ****        -2.7117   2.6892  -0.8210 H              1 S1                 0.0000
     28 ****        -3.1412   1.3441   0.2401 H              1 S1                 0.0000
     29 ****        -3.3354  -0.1675  -1.7497 H              1 S1                 0.0000
     30 ****        -2.9189   1.1716  -2.8150 H              1 S1                 0.0000
     31 ****        -1.4175  -1.3594  -2.4761 H              1 S1                 0.0000
     32 ****        -0.9979  -0.0413  -3.5538 H              1 S1                 0.0000
     33 ****         1.0221  -1.3955  -2.9951 H              1 S1                 0.0000
     34 ****         1.1825   0.2530  -2.4768 H              1 S1                 0.0000
     35 ****         2.7042   1.1290   0.7433 H              1 S1                 0.0000
     36 ****         2.3662   1.1330  -0.9547 H              1 S1                 0.0000
     37 ****        -0.0529   0.9698   1.8721 H              1 S1                 0.0000
     38 ****         1.2080   2.1031   2.3009 H              1 S1                 0.0000
     39 ****        -1.6106   2.8125   1.3370 H              1 S1                 0.0000
     40 ****        -0.9599   3.0450   2.9452 H              1 S1                 0.0000
     41 ****        -0.6541   4.1829  -0.5032 H              1 S1                 0.0000
     42 ****         0.5868   5.3488  -0.0782 H              1 S1                 0.0000
     43 ****         2.1800   3.5476   0.4844 H              1 S1                 0.0000
     44 ****         1.5952   3.3274  -1.1499 H              1 S1                 0.0000
     45 ****         0.6270  -4.0743   3.6739 H              1 S1                 0.0000
     46 ****         1.5696  -2.6186   3.4189 H              1 S1                 0.0000
     47 ****         2.3095  -4.1940   3.1456 H              1 S1                 0.0000
     48 ****        -1.2664   0.1307  -0.6824 LP             1 S1                 0.0000
     49 ****        -0.8815   1.3622  -1.6834 LP             1 S1                 0.0000
     50 ****         0.0809   1.6910  -0.3555 LP             1 S1                 0.0000
     51 ****         0.5947   4.5200   2.0846 LP             1 S1                 0.0000
     52 ****        -0.9117   4.9847   1.6583 LP             1 S1                 0.0000
     53 ****         1.9524  -0.8843   2.1127 LP             1 S1                 0.0000
     54 ****        -0.1039  -2.8358  -2.8284 LP             1 S1                 0.0000
     55 ****        -0.5413  -4.5029  -2.6561 LP             1 S1                 0.0000
     56 ****        -0.0082  -6.6264   1.2251 LP             1 S1                 0.0000
     57 ****         0.6292  -5.8596   2.6413 LP             1 S1                 0.0000
@<TRIPOS>BOND
    1    1    2 1     
    2    1   26 1     
    3    1   27 1     
    4    1   28 1     
    5    2    3 1     
    6    2   29 1     
    7    2   30 1     
    8    3    4 1     
    9    4    5 1     
   10    4   31 1     
   11    4   32 1     
   12    5    6 1     
   13    5   33 1     
   14    5   34 1     
   15    6   17 1     
   16    6    7 1     
   17    7    8 1     
   18    7   15 2     
   19    8    9 1     
   20    8   35 1     
   21    8   36 1     
   22    9   14 1     
   23    9   10 1     
   24   10   11 1     
   25   10   37 1     
   26   10   38 1     
   27   11   12 1     
   28   11   39 1     
   29   11   40 1     
   30   12   13 1     
   31   13   14 1     
   32   13   41 1     
   33   13   42 1     
   34   14   43 1     
   35   14   44 1     
   36   15   16 1     
   37   16   23 1     
   38   16   17 2     
   39   17   18 1     
   40   18   19 2     
   41   18   20 1     
   42   20   25 1     
   43   20   21 1     
   44   21   22 2     
   45   21   23 1     
   46   23   24 1     
   47   24   45 1     
   48   24   46 1     
   49   24   47 1     
   50    3   48 1     
   51    3   49 1     
   52    9   50 1     
   53   12   51 1     
   54   12   52 1     
   55   15   53 1     
   56   19   54 1     
   57   19   55 1     
   58   22   56 1     
   59   22   57 1     
@<TRIPOS>SUBSTRUCTURE
      1 S1             1
@<TRIPOS>SET
LONE_PAIRS      STATIC     ATOMS    <user>   **** ""
10 48 49 50 51 52 53 54 55 56 57
DONOR_HYDROGENS      STATIC     ATOMS    <user>   **** ""
1 25
ATOM$BLUE        STATIC     ATOMS    COLORGROUP SYSTEM
10 48 49 50 51 52 53 54 55 56 57
ATOM$RED        STATIC     ATOMS    COLORGROUP SYSTEM
1 25
