AV-unprocessed.smi:3243|AV-procd|sdf|12397|dock1
  -GOLD-   2272018273D 1   1.00000     0.00000
 Structure written by MMmdl.
 37 38  0  0  0  0  0  0  0  0  1 V2000
  152.8876  145.0007  158.3050 C   0  0  0  0  0  0  0  0  0  0  0  0
  151.8766  144.3605  159.2670 C   0  0  0  0  0  0  0  0  0  0  0  0
  151.1634  145.3852  160.1608 C   0  0  0  0  0  0  0  0  0  0  0  0
  152.4825  143.2456  160.0603 C   0  0  0  0  0  0  0  0  0  0  0  0
  153.3926  142.3964  159.5729 N   0  0  0  0  0  0  0  0  0  0  0  0
  153.8001  141.4429  160.5109 C   0  0  0  0  0  0  0  0  0  0  0  0
  154.8209  140.4122  160.1347 C   0  0  0  0  0  0  0  0  0  0  0  0
  154.2076  139.0127  159.9900 C   0  0  0  0  0  0  0  0  0  0  0  0
  154.5637  138.1755  161.1276 N   0  0  0  0  0  0  0  0  0  0  0  0
  154.6971  136.8426  161.0772 C   0  0  0  0  0  0  0  0  0  0  0  0
  154.5311  136.1916  160.0447 O   0  0  0  0  0  0  0  0  0  0  0  0
  155.0641  136.2208  162.3852 C   0  0  1  0  0  0  0  0  0  0  0  0
  154.1512  136.4832  163.5657 C   0  0  0  0  0  0  0  0  0  0  0  0
  154.1696  135.1185  162.9214 C   0  0  2  0  0  0  0  0  0  0  0  0
  154.7688  133.9287  163.6396 C   0  0  0  0  0  0  0  0  0  0  0  0
  153.1821  141.5834  161.7283 C   0  0  0  0  0  0  0  0  0  0  0  0
  152.0640  142.9191  161.7388 S   0  0  0  0  0  0  0  0  0  0  0  0
  153.3122  144.2569  157.6303 H   0  0  0  0  0  0  0  0  0  0  0  0
  153.7107  145.4670  158.8472 H   0  0  0  0  0  0  0  0  0  0  0  0
  152.4152  145.7697  157.6933 H   0  0  0  0  0  0  0  0  0  0  0  0
  151.1044  143.9080  158.6436 H   0  0  0  0  0  0  0  0  0  0  0  0
  150.3968  144.9069  160.7712 H   0  0  0  0  0  0  0  0  0  0  0  0
  150.6759  146.1558  159.5632 H   0  0  0  0  0  0  0  0  0  0  0  0
  151.8644  145.8804  160.8335 H   0  0  0  0  0  0  0  0  0  0  0  0
  155.3044  140.6950  159.1986 H   0  0  0  0  0  0  0  0  0  0  0  0
  155.6131  140.3865  160.8842 H   0  0  0  0  0  0  0  0  0  0  0  0
  153.1208  139.0833  159.9204 H   0  0  0  0  0  0  0  0  0  0  0  0
  154.5606  138.5435  159.0701 H   0  0  0  0  0  0  0  0  0  0  0  0
  154.7150  138.6391  162.0118 H   0  0  0  0  0  0  0  0  0  0  0  0
  156.1285  136.1411  162.6016 H   0  0  0  0  0  0  0  0  0  0  0  0
  154.6265  136.6020  164.5372 H   0  0  0  0  0  0  0  0  0  0  0  0
  153.2642  137.0955  163.4124 H   0  0  0  0  0  0  0  0  0  0  0  0
  153.2904  134.8631  162.3318 H   0  0  0  0  0  0  0  0  0  0  0  0
  155.6435  134.2253  164.2193 H   0  0  0  0  0  0  0  0  0  0  0  0
  155.0710  133.1695  162.9182 H   0  0  0  0  0  0  0  0  0  0  0  0
  154.0346  133.4925  164.3171 H   0  0  0  0  0  0  0  0  0  0  0  0
  153.3175  140.9851  162.6171 H   0  0  0  0  0  0  0  0  0  0  0  0
  1  2  1  0  0  0  0
  1 18  1  0  0  0  0
  1 19  1  0  0  0  0
  1 20  1  0  0  0  0
  2  3  1  0  0  0  0
  2  4  1  0  0  0  0
  2 21  1  0  0  0  0
  3 22  1  0  0  0  0
  3 23  1  0  0  0  0
  3 24  1  0  0  0  0
  4 17  1  0  0  0  0
  4  5  2  0  0  0  0
  5  6  1  0  0  0  0
  6  7  1  0  0  0  0
  6 16  2  0  0  0  0
  7  8  1  0  0  0  0
  7 25  1  0  0  0  0
  7 26  1  0  0  0  0
  8  9  1  0  0  0  0
  8 27  1  0  0  0  0
  8 28  1  0  0  0  0
  9 10  1  0  0  0  0
  9 29  1  0  0  0  0
 10 11  2  0  0  0  0
 10 12  1  0  0  0  0
 12 14  1  0  0  0  0
 12 13  1  0  0  0  0
 12 30  1  0  0  0  0
 13 14  1  0  0  0  0
 13 31  1  0  0  0  0
 13 32  1  0  0  0  0
 14 15  1  0  0  0  0
 14 33  1  0  0  0  0
 15 34  1  0  0  0  0
 15 35  1  0  0  0  0
 15 36  1  0  0  0  0
 16 17  1  0  0  0  0
 16 37  1  0  0  0  0
M  END
> <s_m_source_file>
AV-unprocessed.smi

> <i_m_source_file_index>
3243

> <i_lp_mmshare_version>
43012

> <i_f3d_flags>
0

> <s_epik_input>
W0NIM11bQ0hdKFtDSDNdKWMxbmMoW2NIXXMxKVtDSDJdW0NIMl1bTkhdQyg9TylbQ0BASF0yW0NIMl1bQ0BIXTJbQ0gzXQ==

> <s_epik_cmdline>
J2VwaWtfcHl0aG9uJywgJy1waCcsICc3LjAnLCAnLXRuJywgJzgnLCAnLW1hJywgJzIwMCcsICctbWV0YWxfYmluZGluZycsICctaW1hZScsICc8aW5maWxlLm1hZT4nLCAnLW9tYWUnLCAnPG91dGZpbGUubWFlPic=

> <r_epik_Ionization_Penalty>
0.00084212

> <r_epik_Ionization_Penalty_Charging>
0

> <r_epik_Ionization_Penalty_Neutral>
0.00084212

> <r_epik_State_Penalty>
0.000542609

> <r_epik_Charging_Adjusted_Penalty>
0.000542609

> <i_epik_Tot_Q>
0

> <i_epik_Tot_abs_Q>
0

> <r_epik_Metal_State_Penalty>
-0

> <b_epik_Metal_Only>
0

> <s_lp_Force_Field>
OPLS_2005

> <r_lp_Energy>
-2.05964

> <b_lp_Chiralities_Consistent>
1

> <s_lp_Variant>
AV-unprocessed.smi:3243-4

> <Gold.Version>
5.8.1

> <Gold.Id.Protein>
6NUR|6NUR_protein|mol2

> <Gold.PLP.Fitness>
49.7904

> <Gold.PLP.PLP>
-49.1131

> <Gold.PLP.part.hbond>
-1.0000

> <Gold.PLP.part.metal>
0.0000

> <Gold.PLP.part.buried>
-5.8048

> <Gold.PLP.part.nonpolar>
-43.1503

> <Gold.PLP.part.repulsive>
0.0011

> <Gold.PLP.ligand.clash>
0.0000

> <Gold.PLP.ligand.torsion>
1.2048

> <Gold.PLP.Chemscore.Hbond>
0.9588

> <Gold.PLP.Chemscore.CHOScore>
0.0000

> <Gold.PLP.Chemscore.Metal>
0.0000

> <Gold.PLP.Chemscore.Internal.Correction>
0.2106

> <Gold.Rescore>
     Score         DG    S(hbond)    S(metal)    S(lipo)     H(rot)  DE(clash)    DE(int)     intcor
     19.33     -20.05       0.99        0.00     128.95       1.49       0.00       0.72       ----

> <Gold.Chemscore.Fitness>
19.3321

> <Gold.Chemscore.DG>
-20.0518

> <Gold.Chemscore.ZeroCoef>
-5.4800

> <Gold.Chemscore.Hbond>
0.9853

> <Gold.Chemscore.Metal>
0.0000

> <Gold.Chemscore.Lipo>
128.9548

> <Gold.Chemscore.Internal_Hbond>
0.0000

> <Gold.Chemscore.DEClash>
0.0000

> <Gold.Chemscore.DEInternal>
0.7198

> <Gold.Chemscore.Rot>
1.4870

> <Gold.Chemscore.Internal.Correction>
   9.000000E+99

> <Gold.Chemscore.Hbond.Weighted>
-3.2908

> <Gold.Chemscore.Metal.Weighted>
-0.0000

> <Gold.Chemscore.Lipo.Weighted>
-15.0877

> <Gold.Chemscore.Internal_Hbond.Weighted>
0.0000

> <Gold.Chemscore.DEClash.Weighted>
0.0000

> <Gold.Chemscore.DEInternal.Weighted>
0.7198

> <Gold.Chemscore.Rot.Weighted>
3.8067

> <Gold.Chemscore.Internal.Correction.Weighted>
   9.000000E+99

> <Gold.Protein.RotatedTorsions>
[ 6907 6896 6895 6894 ] final  161.09 input  -60.11 | X-H torsion
[ 7974 7965 7964 7962 ] final  -28.65 input  175.53 | X-H torsion
[ 8008 7997 7996 7995 ] final  -88.23 input   59.86 | X-H torsion
[ 10167 10162 10161 10158 ] final  -89.37 input  -65.29 | X-H torsion
[ 10718 10713 10712 10709 ] final   71.96 input   66.30 | X-H torsion
[ 10763 10752 10751 10750 ] final  145.10 input  -60.55 | X-H torsion
[ 11005 11000 10999 10996 ] final  -48.00 input  -57.11 | X-H torsion

> <Gold.Protein.ActiveResidues>
 VAL166  LYS551  ARG553  GLY616  TRP617  ASP618  TYR619  PRO620  LYS621  CYS622 
 ASP623  PHE694  ASN695  SER759  ASP760  ASP761  ALA762  ILE779  LEU786  VAL792 
 PHE793  MET794  SER795  GLU796  ALA797  LYS798  CYS799  TRP800  GLU811  SER814 

> <Gold.Protein.RotatedAtoms>
  151.9609  133.3695  159.4034 H   0  0  0  0  0  0  0  0  0  0  0  0  # atno 6907 bound_to 6896
  150.6964  134.4242  159.5228 H   0  0  0  0  0  0  0  0  0  0  0  0  # atno 6908 bound_to 6896
  152.1930  134.8655  160.0566 H   0  0  0  0  0  0  0  0  0  0  0  0  # atno 6909 bound_to 6896
  146.1273  140.5310  142.8709 H   0  0  0  0  0  0  0  0  0  0  0  0  # atno 7974 bound_to 7965
  154.6724  140.0556  157.0180 H   0  0  0  0  0  0  0  0  0  0  0  0  # atno 8008 bound_to 7997
  155.1069  140.3234  155.4513 H   0  0  0  0  0  0  0  0  0  0  0  0  # atno 8009 bound_to 7997
  156.2663  140.2021  156.6194 H   0  0  0  0  0  0  0  0  0  0  0  0  # atno 8010 bound_to 7997
  140.3655  143.2820  151.9564 H   0  0  0  0  0  0  0  0  0  0  0  0  # atno 10167 bound_to 10162
  157.6477  130.9555  150.0862 H   0  0  0  0  0  0  0  0  0  0  0  0  # atno 10718 bound_to 10713
  153.9998  135.2924  155.3404 H   0  0  0  0  0  0  0  0  0  0  0  0  # atno 10763 bound_to 10752
  154.7166  135.5127  153.8750 H   0  0  0  0  0  0  0  0  0  0  0  0  # atno 10764 bound_to 10752
  153.0771  135.6667  154.0241 H   0  0  0  0  0  0  0  0  0  0  0  0  # atno 10765 bound_to 10752
  141.0675  133.6689  156.3379 H   0  0  0  0  0  0  0  0  0  0  0  0  # atno 11005 bound_to 11000
  144.7655  140.5520  143.6706 LP  0  0  0  0  0  0  0  0  0  0  0  0  # atno 17320 bound_to 7965
  145.5337  139.1475  143.3485 LP  0  0  0  0  0  0  0  0  0  0  0  0  # atno 17321 bound_to 7965
  139.4809  144.5955  151.7698 LP  0  0  0  0  0  0  0  0  0  0  0  0  # atno 17342 bound_to 10162
  140.5085  144.1061  150.5989 LP  0  0  0  0  0  0  0  0  0  0  0  0  # atno 17343 bound_to 10162
  156.1824  130.3650  149.9017 LP  0  0  0  0  0  0  0  0  0  0  0  0  # atno 17370 bound_to 10713
  156.6966  130.8917  151.3594 LP  0  0  0  0  0  0  0  0  0  0  0  0  # atno 17371 bound_to 10713
  140.5743  134.5809  157.5465 LP  0  0  0  0  0  0  0  0  0  0  0  0  # atno 17394 bound_to 11000
  139.9490  134.7650  156.0492 LP  0  0  0  0  0  0  0  0  0  0  0  0  # atno 17395 bound_to 11000

$$$$
