#       Name:                AV-unprocessed.smi:2420
#       Creating user name   scv26
#       Creation time:       Fri Mar 27 13:18:48 2020


#       File generated by GOLD software.
#

@<TRIPOS>MOLECULE
AV-unprocessed.smi:2420
    36    37     1
SMALL
NO_CHARGES


@<TRIPOS>ATOM
      1 ****        -1.0909   1.5209  -4.4426 C.3            1 S1                 0.0000
      2 ****        -1.8051   1.5388  -3.0833 C.3            1 S1                 0.0000
      3 ****        -1.2618   0.5199  -2.0861 C.3            1 S1                 0.0000
      4 ****         0.1176   0.9386  -1.5688 C.3            1 S1                 0.0000
      5 ****         0.7430   0.0750  -0.5699 N.am           1 S1                 0.0000
      6 ****         0.7097   0.2715   0.7561 C.2            1 S1                 0.0000
      7 ****         0.1268   1.2134   1.2936 O.2            1 S1                 0.0000
      8 ****         1.3628  -0.7016   1.4122 N.am           1 S1                 0.0000
      9 ****         1.4998  -0.8336   2.8179 C.ar           1 S1                 0.0000
     10 ****         1.3286  -2.1115   3.3892 C.ar           1 S1                 0.0000
     11 ****         1.4836  -2.2557   4.7824 C.ar           1 S1                 0.0000
     12 ****         1.8052  -1.2334   5.6033 N.ar           1 S1                 0.0000
     13 ****         1.9941  -0.0162   5.0497 C.ar           1 S1                 0.0000
     14 ****         1.8642   0.2384   3.6692 C.ar           1 S1                 0.0000
     15 ****         2.1170   1.4792   3.1872 F              1 S1                 0.0000
     16 ****        -2.2477  -0.1789  -1.1664 C.3            1 S1                 0.0000
     17 ****        -1.5867  -0.9478  -2.2832 C.3            1 S1                 0.0000
     18 ****        -1.5710   2.2107  -5.1369 H              1 S1                 0.0000
     19 ****        -1.1205   0.5276  -4.8909 H              1 S1                 0.0000
     20 ****        -0.0473   1.8215  -4.3571 H              1 S1                 0.0000
     21 ****        -1.7524   2.5362  -2.6450 H              1 S1                 0.0000
     22 ****        -2.8644   1.3389  -3.2485 H              1 S1                 0.0000
     23 ****         0.8072   0.9733  -2.4113 H              1 S1                 0.0000
     24 ****         0.0582   1.9610  -1.1918 H              1 S1                 0.0000
     25 ****         1.2393  -0.7321  -0.9182 H              1 S1                 0.0000
     26 ****         1.6855  -1.4826   0.8605 H              1 S1                 0.0000
     27 ****         1.0725  -2.9645   2.7779 H              1 S1                 0.0000
     28 ****         1.3482  -3.2199   5.2497 H              1 S1                 0.0000
     29 ****         2.2712   0.7782   5.7269 H              1 S1                 0.0000
     30 ****        -1.9424  -0.4162  -0.1503 H              1 S1                 0.0000
     31 ****        -3.3044   0.0537  -1.2811 H              1 S1                 0.0000
     32 ****        -2.2053  -1.2189  -3.1364 H              1 S1                 0.0000
     33 ****        -0.8333  -1.6830  -2.0083 H              1 S1                 0.0000
     34 ****        -0.3581   1.8860   0.7345 LP             1 S1                 0.0000
     35 ****         0.1381   1.3058   2.2893 LP             1 S1                 0.0000
     36 ****         1.9004  -1.3729   6.5889 LP             1 S1                 0.0000
@<TRIPOS>BOND
    1    1    2 1     
    2    1   18 1     
    3    1   19 1     
    4    1   20 1     
    5    2    3 1     
    6    2   21 1     
    7    2   22 1     
    8    3   17 1     
    9    3    4 1     
   10    3   16 1     
   11    4    5 1     
   12    4   23 1     
   13    4   24 1     
   14    5    6 am    
   15    5   25 1     
   16    6    7 2     
   17    6    8 am    
   18    8    9 1     
   19    8   26 1     
   20    9   14 ar    
   21    9   10 ar    
   22   10   11 ar    
   23   10   27 1     
   24   11   12 ar    
   25   11   28 1     
   26   12   13 ar    
   27   13   14 ar    
   28   13   29 1     
   29   14   15 1     
   30   16   17 1     
   31   16   30 1     
   32   16   31 1     
   33   17   32 1     
   34   17   33 1     
   35    7   34 1     
   36    7   35 1     
   37   12   36 1     
@<TRIPOS>SUBSTRUCTURE
      1 S1             1
@<TRIPOS>SET
LONE_PAIRS      STATIC     ATOMS    <user>   **** ""
3 34 35 36
DONOR_HYDROGENS      STATIC     ATOMS    <user>   **** ""
2 25 26
ATOM$BLUE        STATIC     ATOMS    COLORGROUP SYSTEM
3 34 35 36
ATOM$RED        STATIC     ATOMS    COLORGROUP SYSTEM
2 25 26
