AV-unprocessed.smi:3033|AV-procd|sdf|11576|dock8
  -GOLD-   2272016543D 1   1.00000     0.00000
 Structure written by MMmdl.
 32 33  0  0  0  0  0  0  0  0  2 V2000
  143.6049  132.4783  148.1323 C   0  0  0  0  0  0  0  0  0  0  0  0
  143.9818  131.9243  149.3846 O   0  0  0  0  0  0  0  0  0  0  0  0
  144.6396  132.7381  150.2819 C   0  0  0  0  0  0  0  0  0  0  0  0
  144.3712  134.1201  150.2085 C   0  0  0  0  0  0  0  0  0  0  0  0
  144.9946  135.0222  151.0907 C   0  0  0  0  0  0  0  0  0  0  0  0
  145.9007  134.5494  152.0571 C   0  0  0  0  0  0  0  0  0  0  0  0
  146.1900  133.1704  152.1415 C   0  0  0  0  0  0  0  0  0  0  0  0
  147.1596  132.6380  153.1870 C   0  0  1  0  0  0  0  0  0  0  0  0
  147.4341  131.2636  152.9938 O   0  0  0  0  0  0  0  0  0  0  0  0
  148.4905  133.4184  153.1497 C   0  0  0  0  0  0  0  0  0  0  0  0
  149.1662  133.4240  154.4554 N   0  0  0  0  0  0  0  0  0  0  0  0
  149.6712  132.2016  154.9291 C   0  0  0  0  0  0  0  0  0  0  0  0
  150.3068  132.1008  156.1127 C   0  0  0  0  0  0  0  0  0  0  0  0
  150.9152  130.5831  156.6708 Cl  0  0  0  0  0  0  0  0  0  0  0  0
  150.4642  133.3144  156.9120 C   0  0  0  0  0  0  0  0  0  0  0  0
  151.0451  133.2594  157.9950 O   0  0  0  0  0  0  0  0  0  0  0  0
  149.9488  134.4753  156.4107 N   0  5  0  0  0  0  0  0  0  0  0  0
  149.3024  134.5569  155.2069 C   0  0  0  0  0  0  0  0  0  0  0  0
  148.8370  135.6141  154.7794 O   0  0  0  0  0  0  0  0  0  0  0  0
  145.5549  132.2707  151.2588 C   0  0  0  0  0  0  0  0  0  0  0  0
  143.1006  131.7158  147.5390 H   0  0  0  0  0  0  0  0  0  0  0  0
  144.4755  132.8138  147.5670 H   0  0  0  0  0  0  0  0  0  0  0  0
  142.9114  133.3109  148.2568 H   0  0  0  0  0  0  0  0  0  0  0  0
  143.6765  134.4924  149.4701 H   0  0  0  0  0  0  0  0  0  0  0  0
  144.7754  136.0777  151.0267 H   0  0  0  0  0  0  0  0  0  0  0  0
  146.3695  135.2488  152.7339 H   0  0  0  0  0  0  0  0  0  0  0  0
  146.6898  132.7409  154.1661 H   0  0  0  0  0  0  0  0  0  0  0  0
  147.9644  131.1726  152.2172 H   0  0  0  0  0  0  0  0  0  0  0  0
  149.1412  133.0326  152.3630 H   0  0  0  0  0  0  0  0  0  0  0  0
  148.2970  134.4542  152.8633 H   0  0  0  0  0  0  0  0  0  0  0  0
  149.5060  131.3561  154.2773 H   0  0  0  0  0  0  0  0  0  0  0  0
  145.7831  131.2196  151.3515 H   0  0  0  0  0  0  0  0  0  0  0  0
  1  2  1  0  0  0  0
  1 21  1  0  0  0  0
  1 22  1  0  0  0  0
  1 23  1  0  0  0  0
  2  3  1  0  0  0  0
  3 20  1  0  0  0  0
  3  4  2  0  0  0  0
  4  5  1  0  0  0  0
  4 24  1  0  0  0  0
  5  6  2  0  0  0  0
  5 25  1  0  0  0  0
  6  7  1  0  0  0  0
  6 26  1  0  0  0  0
  7  8  1  0  0  0  0
  7 20  2  0  0  0  0
  8  9  1  0  0  0  0
  8 10  1  0  0  0  0
  8 27  1  0  0  0  0
  9 28  1  0  0  0  0
 10 11  1  0  0  0  0
 10 29  1  0  0  0  0
 10 30  1  0  0  0  0
 11 18  1  0  0  0  0
 11 12  1  0  0  0  0
 12 13  2  0  0  0  0
 12 31  1  0  0  0  0
 13 14  1  0  0  0  0
 13 15  1  0  0  0  0
 15 16  2  0  0  0  0
 15 17  1  0  0  0  0
 17 18  1  0  0  0  0
 18 19  2  0  0  0  0
 20 32  1  0  0  0  0
M  CHG  1  17  -1
M  END
> <s_m_source_file>
AV-unprocessed.smi

> <i_m_source_file_index>
3033

> <i_lp_mmshare_version>
43012

> <i_f3d_flags>
0

> <s_epik_input>
W0NIM11PYzFbY0hdW2NIXVtjSF1jKFtjSF0xKVtDQEhdKFtPSF0pW0NIMl1uMltjSF1jKENsKWMoPU8pW25IXWMyPU8=

> <s_epik_cmdline>
J2VwaWtfcHl0aG9uJywgJy1waCcsICc3LjAnLCAnLXRuJywgJzgnLCAnLW1hJywgJzIwMCcsICctbWV0YWxfYmluZGluZycsICctaW1hZScsICc8aW5maWxlLm1hZT4nLCAnLW9tYWUnLCAnPG91dGZpbGUubWFlPic=

> <r_lp_tautomer_probability>
1

> <r_epik_Ionization_Penalty>
1.7979

> <r_epik_Ionization_Penalty_Charging>
3.23819e-08

> <r_epik_Ionization_Penalty_Neutral>
1.7979

> <r_epik_State_Penalty>
1.91135

> <r_epik_Charging_Adjusted_Penalty>
1.91135

> <i_epik_Tot_Q>
-1

> <i_epik_Tot_abs_Q>
1

> <r_epik_Metal_State_Penalty>
0.014155

> <b_epik_Metal_Only>
0

> <s_lp_Force_Field>
OPLS_2005

> <r_lp_Energy>
25.1118

> <b_lp_Chiralities_Consistent>
1

> <s_lp_Variant>
AV-unprocessed.smi:3033-4

> <Gold.Version>
5.8.1

> <Gold.Id.Protein>
6NUR|6NUR_protein|mol2

> <Gold.PLP.Fitness>
45.6924

> <Gold.PLP.PLP>
-39.4110

> <Gold.PLP.part.hbond>
-3.0000

> <Gold.PLP.part.metal>
0.0000

> <Gold.PLP.part.buried>
-5.3103

> <Gold.PLP.part.nonpolar>
-32.2766

> <Gold.PLP.part.repulsive>
0.4748

> <Gold.PLP.ligand.clash>
0.0423

> <Gold.PLP.ligand.torsion>
0.8724

> <Gold.PLP.Chemscore.Hbond>
2.6817

> <Gold.PLP.Chemscore.CHOScore>
0.0000

> <Gold.PLP.Chemscore.Metal>
0.0000

> <Gold.Chemscore.Hbonds>
donor molecule, donor type, donor heavy atom, donor atom, acceptor molecule, acceptor atom, score
      L1  H     9    28       P1 10747  0.57
      P1  H  6896  6907       L1    16  0.24
      P1  H 10785 10796       L1     2  0.28

> <Gold.PLP.Chemscore.Internal.Correction>
0.0234

> <Gold.Rescore>
     Score         DG    S(hbond)    S(metal)    S(lipo)     H(rot)  DE(clash)    DE(int)     intcor
     14.06     -15.25       2.07        0.00      78.00       2.45       0.09       1.10       ----

> <Gold.Chemscore.Fitness>
14.0627

> <Gold.Chemscore.DG>
-15.2489

> <Gold.Chemscore.ZeroCoef>
-5.4800

> <Gold.Chemscore.Hbond>
2.0695

> <Gold.Chemscore.Metal>
0.0000

> <Gold.Chemscore.Lipo>
78.0042

> <Gold.Chemscore.Internal_Hbond>
0.0000

> <Gold.Chemscore.DEClash>
0.0908

> <Gold.Chemscore.DEInternal>
1.0954

> <Gold.Chemscore.Rot>
2.4491

> <Gold.Chemscore.Internal.Correction>
   9.000000E+99

> <Gold.Chemscore.Hbonds>
donor molecule, donor type, donor heavy atom, donor atom, acceptor molecule, acceptor atom, score
      L1  H     9    28       P1 10747  0.56
      P1  H  6896  6907       L1    16  0.24
      P1  H 10785 10796       L1     2  0.01

> <Gold.Chemscore.Hbond.Weighted>
-6.9120

> <Gold.Chemscore.Metal.Weighted>
-0.0000

> <Gold.Chemscore.Lipo.Weighted>
-9.1265

> <Gold.Chemscore.Internal_Hbond.Weighted>
0.0000

> <Gold.Chemscore.DEClash.Weighted>
0.0908

> <Gold.Chemscore.DEInternal.Weighted>
1.0954

> <Gold.Chemscore.Rot.Weighted>
6.2696

> <Gold.Chemscore.Internal.Correction.Weighted>
   9.000000E+99

> <Gold.Protein.RotatedTorsions>
[ 6907 6896 6895 6894 ] final -160.26 input  -60.11 | X-H torsion
[ 7974 7965 7964 7962 ] final  170.62 input  175.53 | X-H torsion
[ 8008 7997 7996 7995 ] final -165.79 input   59.86 | X-H torsion
[ 10167 10162 10161 10158 ] final -125.92 input  -65.29 | X-H torsion
[ 10718 10713 10712 10709 ] final  122.20 input   66.30 | X-H torsion
[ 10763 10752 10751 10750 ] final   84.10 input  -60.55 | X-H torsion
[ 11005 11000 10999 10996 ] final  170.63 input  -57.11 | X-H torsion

> <Gold.Protein.ActiveResidues>
 VAL166  LYS551  ARG553  GLY616  TRP617  ASP618  TYR619  PRO620  LYS621  CYS622 
 ASP623  PHE694  ASN695  SER759  ASP760  ASP761  ALA762  ILE779  LEU786  VAL792 
 PHE793  MET794  SER795  GLU796  ALA797  LYS798  CYS799  TRP800  GLU811  SER814 

> <Gold.Protein.RotatedAtoms>
  151.3463  133.3942  159.2675 H   0  0  0  0  0  0  0  0  0  0  0  0  # atno 6907 bound_to 6896
  150.9837  134.9187  159.7869 H   0  0  0  0  0  0  0  0  0  0  0  0  # atno 6908 bound_to 6896
  152.5225  134.3428  159.9275 H   0  0  0  0  0  0  0  0  0  0  0  0  # atno 6909 bound_to 6896
  144.7318  139.9228  143.6421 H   0  0  0  0  0  0  0  0  0  0  0  0  # atno 7974 bound_to 7965
  155.8548  140.0968  157.1652 H   0  0  0  0  0  0  0  0  0  0  0  0  # atno 8008 bound_to 7997
  154.3987  140.1376  156.3950 H   0  0  0  0  0  0  0  0  0  0  0  0  # atno 8009 bound_to 7997
  155.7922  140.3455  155.5358 H   0  0  0  0  0  0  0  0  0  0  0  0  # atno 8010 bound_to 7997
  139.9770  143.5783  152.2392 H   0  0  0  0  0  0  0  0  0  0  0  0  # atno 10167 bound_to 10162
  157.5760  131.1079  150.8277 H   0  0  0  0  0  0  0  0  0  0  0  0  # atno 10718 bound_to 10713
  153.1351  135.4667  154.9409 H   0  0  0  0  0  0  0  0  0  0  0  0  # atno 10763 bound_to 10752
  154.7698  135.3155  154.8214 H   0  0  0  0  0  0  0  0  0  0  0  0  # atno 10764 bound_to 10752
  153.8748  135.6900  153.4825 H   0  0  0  0  0  0  0  0  0  0  0  0  # atno 10765 bound_to 10752
  140.3104  134.7521  157.3987 H   0  0  0  0  0  0  0  0  0  0  0  0  # atno 11005 bound_to 11000
  146.0916  139.3906  143.0402 LP  0  0  0  0  0  0  0  0  0  0  0  0  # atno 17320 bound_to 7965
  145.7703  140.9899  143.1153 LP  0  0  0  0  0  0  0  0  0  0  0  0  # atno 17321 bound_to 7965
  139.6438  144.7656  151.2285 LP  0  0  0  0  0  0  0  0  0  0  0  0  # atno 17342 bound_to 10162
  140.7502  143.6273  150.8456 LP  0  0  0  0  0  0  0  0  0  0  0  0  # atno 17343 bound_to 10162
  156.8736  130.5154  149.5295 LP  0  0  0  0  0  0  0  0  0  0  0  0  # atno 17370 bound_to 10713
  156.0805  130.5817  150.9554 LP  0  0  0  0  0  0  0  0  0  0  0  0  # atno 17371 bound_to 10713
  140.1029  134.5448  155.8336 LP  0  0  0  0  0  0  0  0  0  0  0  0  # atno 17394 bound_to 11000
  141.2109  133.6700  156.6545 LP  0  0  0  0  0  0  0  0  0  0  0  0  # atno 17395 bound_to 11000

$$$$
