#       Name:                AV-unprocessed.smi:1859
#       Creating user name   scv26
#       Creation time:       Fri Mar 27 09:25:50 2020


#       File generated by GOLD software.
#

@<TRIPOS>MOLECULE
AV-unprocessed.smi:1859
    50    52     1
SMALL
NO_CHARGES


@<TRIPOS>ATOM
      1 ****         0.8878   0.0306  -1.2934 O.2            1 S1                 0.0000
      2 ****         0.4245  -1.0993  -1.4497 C.2            1 S1                 0.0000
      3 ****         1.1857  -2.2056  -1.4578 N.am           1 S1                 0.0000
      4 ****         2.6391  -2.2381  -1.3122 C.3            1 S1                 0.0000
      5 ****         3.0829  -2.6108   0.1149 C.3            1 S1                 0.0000
      6 ****         2.5893  -1.6533   1.1864 C.ar           1 S1                 0.0000
      7 ****         1.5634  -2.0340   2.0779 C.ar           1 S1                 0.0000
      8 ****         1.1523  -1.1122   3.0596 C.ar           1 S1                 0.0000
      9 ****         1.7744   0.1502   3.1082 C.ar           1 S1                 0.0000
     10 ****         2.7846   0.4357   2.1687 C.ar           1 S1                 0.0000
     11 ****         3.1940  -0.4446   1.2300 N.ar           1 S1                 0.0000
     12 ****        -1.0879  -1.3093  -1.6592 C.3            1 S1                 0.0000
     13 ****        -1.6004  -0.5909  -2.9338 C.3            1 S1                 0.0000
     14 ****        -1.8389   0.9207  -2.7344 C.3            1 S1                 0.0000
     15 ****        -2.6739   1.1732  -1.4695 C.3            1 S1                 0.0000
     16 ****        -1.9883   0.5772  -0.3150 N.am           1 S1                 0.0000
     17 ****        -1.4624   1.2537   0.7361 C.2            1 S1                 0.0000
     18 ****        -1.1515   0.6833   1.7822 O.2            1 S1                 0.0000
     19 ****        -1.2194   2.7256   0.5633 C.3            1 S1                 0.0000
     20 ****        -0.3164   3.4210   1.5659 C.3            1 S1                 0.0000
     21 ****        -1.8055   3.6503   1.6093 C.3            1 S1                 0.0000
     22 ****        -1.9268  -0.8890  -0.4236 C.3            1 S1                 0.0000
     23 ****         0.7236  -3.0935  -1.5901 H              1 S1                 0.0000
     24 ****         3.0280  -2.9757  -2.0143 H              1 S1                 0.0000
     25 ****         3.0807  -1.2841  -1.6048 H              1 S1                 0.0000
     26 ****         2.7394  -3.6187   0.3514 H              1 S1                 0.0000
     27 ****         4.1720  -2.6481   0.1587 H              1 S1                 0.0000
     28 ****         1.1008  -3.0078   2.0128 H              1 S1                 0.0000
     29 ****         0.3688  -1.3656   3.7582 H              1 S1                 0.0000
     30 ****         1.4781   0.8850   3.8419 H              1 S1                 0.0000
     31 ****         3.2795   1.3955   2.1740 H              1 S1                 0.0000
     32 ****        -1.2420  -2.3796  -1.8073 H              1 S1                 0.0000
     33 ****        -0.9150  -0.7500  -3.7677 H              1 S1                 0.0000
     34 ****        -2.5418  -1.0528  -3.2337 H              1 S1                 0.0000
     35 ****        -0.8883   1.4492  -2.6598 H              1 S1                 0.0000
     36 ****        -2.3484   1.3320  -3.6062 H              1 S1                 0.0000
     37 ****        -2.8914   2.2338  -1.3520 H              1 S1                 0.0000
     38 ****        -3.6514   0.7008  -1.5784 H              1 S1                 0.0000
     39 ****        -1.1347   3.1037  -0.4530 H              1 S1                 0.0000
     40 ****         0.1244   2.8412   2.3749 H              1 S1                 0.0000
     41 ****         0.3119   4.2243   1.1865 H              1 S1                 0.0000
     42 ****        -2.1876   4.6080   1.2621 H              1 S1                 0.0000
     43 ****        -2.3549   3.2084   2.4389 H              1 S1                 0.0000
     44 ****        -2.9414  -1.2789  -0.5168 H              1 S1                 0.0000
     45 ****        -1.5179  -1.3618   0.4712 H              1 S1                 0.0000
     46 ****         1.8718   0.1542  -1.1650 LP             1 S1                 0.0000
     47 ****         0.2801   0.8248  -1.2949 LP             1 S1                 0.0000
     48 ****         3.9225  -0.2097   0.5865 LP             1 S1                 0.0000
     49 ****        -1.2849  -0.3036   1.8723 LP             1 S1                 0.0000
     50 ****        -0.7655   1.2070   2.5416 LP             1 S1                 0.0000
@<TRIPOS>BOND
    1    1    2 2     
    2    2    3 am    
    3    2   12 1     
    4    3    4 1     
    5    3   23 1     
    6    4    5 1     
    7    4   24 1     
    8    4   25 1     
    9    5    6 1     
   10    5   26 1     
   11    5   27 1     
   12    6   11 ar    
   13    6    7 ar    
   14    7    8 ar    
   15    7   28 1     
   16    8    9 ar    
   17    8   29 1     
   18    9   10 ar    
   19    9   30 1     
   20   10   11 ar    
   21   10   31 1     
   22   12   22 1     
   23   12   13 1     
   24   12   32 1     
   25   13   14 1     
   26   13   33 1     
   27   13   34 1     
   28   14   15 1     
   29   14   35 1     
   30   14   36 1     
   31   15   16 1     
   32   15   37 1     
   33   15   38 1     
   34   16   17 am    
   35   16   22 1     
   36   17   18 2     
   37   17   19 1     
   38   19   21 1     
   39   19   20 1     
   40   19   39 1     
   41   20   21 1     
   42   20   40 1     
   43   20   41 1     
   44   21   42 1     
   45   21   43 1     
   46   22   44 1     
   47   22   45 1     
   48    1   46 1     
   49    1   47 1     
   50   11   48 1     
   51   18   49 1     
   52   18   50 1     
@<TRIPOS>SUBSTRUCTURE
      1 S1             1
@<TRIPOS>SET
LONE_PAIRS      STATIC     ATOMS    <user>   **** ""
5 46 47 48 49 50
DONOR_HYDROGENS      STATIC     ATOMS    <user>   **** ""
1 23
ATOM$BLUE        STATIC     ATOMS    COLORGROUP SYSTEM
5 46 47 48 49 50
ATOM$RED        STATIC     ATOMS    COLORGROUP SYSTEM
1 23
