#       Name:                AV-unprocessed.smi:156
#       Creating user name   scv26
#       Creation time:       Thu Mar 26 18:56:43 2020


#       File generated by GOLD software.
#

@<TRIPOS>MOLECULE
AV-unprocessed.smi:156
    58    60     1
SMALL
NO_CHARGES


@<TRIPOS>ATOM
      1 ****        -2.9471  -1.9688  -0.6857 C.3            1 S1                 0.0000
      2 ****        -2.5553  -1.6073   0.7608 C.3            1 S1                 0.0000
      3 ****        -3.3261  -2.4441   1.8273 C.3            1 S1                 0.0000
      4 ****        -4.8542  -2.3956   1.6384 C.3            1 S1                 0.0000
      5 ****        -2.9129  -1.9533   3.5810 S.o2           1 S1                 0.0000
      6 ****        -3.5060  -0.2116   3.6885 C.3            1 S1                 0.0000
      7 ****        -3.7444  -2.7543   4.4924 O.2            1 S1                 0.0000
      8 ****        -1.4536  -1.9421   3.7623 O.2            1 S1                 0.0000
      9 ****        -1.0926  -1.6956   0.9041 N.pl3          1 S1                 0.0000
     10 ****        -0.4200  -2.9836   0.7500 C.3            1 S1                 0.0000
     11 ****        -0.3498  -0.5620   0.7559 C.ar           1 S1                 0.0000
     12 ****        -0.7920   0.5733   1.3585 N.ar           1 S1                 0.0000
     13 ****        -0.1004   1.7117   1.2694 C.ar           1 S1                 0.0000
     14 ****         1.0482   1.9400   0.6339 N.ar           1 S1                 0.0000
     15 ****         1.5035   0.8122   0.0182 C.ar           1 S1                 0.0000
     16 ****         0.8780  -0.4694   0.0292 C.ar           1 S1                 0.0000
     17 ****         1.6474  -1.3614  -0.7114 N.2            1 S1                 0.0000
     18 ****         2.6663  -0.6569  -1.1189 C.2            1 S1                 0.0000
     19 ****         2.6529   0.6656  -0.7404 N.pl3          1 S1                 0.0000
     20 ****         3.6554   1.6771  -1.0479 C.3            1 S1                 0.0000
     21 ****         3.4593   2.4010  -2.4025 C.3            1 S1                 0.0000
     22 ****         4.4942   3.5309  -2.4931 C.3            1 S1                 0.0000
     23 ****         4.2107   4.5625  -1.5697 O.3            1 S1                 0.0000
     24 ****         3.3753   1.4940  -3.6418 C.3            1 S1                 0.0000
     25 ****         1.9400   1.6248  -3.7084 O.3            1 S1                 0.0000
     26 ****         2.0234   2.7609  -2.8224 C.3            1 S1                 0.0000
     27 ****        -3.9904  -1.7333  -0.8936 H              1 S1                 0.0000
     28 ****        -2.7963  -3.0295  -0.8887 H              1 S1                 0.0000
     29 ****        -2.3503  -1.4057  -1.4042 H              1 S1                 0.0000
     30 ****        -2.8751  -0.5754   0.8942 H              1 S1                 0.0000
     31 ****        -3.0386  -3.4907   1.7399 H              1 S1                 0.0000
     32 ****        -5.1585  -2.8889   0.7157 H              1 S1                 0.0000
     33 ****        -5.2226  -1.3707   1.6030 H              1 S1                 0.0000
     34 ****        -5.3718  -2.9085   2.4488 H              1 S1                 0.0000
     35 ****        -3.2915   0.1753   4.6844 H              1 S1                 0.0000
     36 ****        -4.5810  -0.1719   3.5189 H              1 S1                 0.0000
     37 ****        -2.9961   0.4070   2.9530 H              1 S1                 0.0000
     38 ****         0.5610  -2.9682   1.2262 H              1 S1                 0.0000
     39 ****        -0.2928  -3.2278  -0.3049 H              1 S1                 0.0000
     40 ****        -0.9827  -3.7915   1.2135 H              1 S1                 0.0000
     41 ****        -0.5283   2.5603   1.7824 H              1 S1                 0.0000
     42 ****         3.4591  -1.0889  -1.7114 H              1 S1                 0.0000
     43 ****         3.6595   2.3905  -0.2232 H              1 S1                 0.0000
     44 ****         4.6319   1.1922  -1.0199 H              1 S1                 0.0000
     45 ****         5.5020   3.1571  -2.3094 H              1 S1                 0.0000
     46 ****         4.5038   3.9719  -3.4905 H              1 S1                 0.0000
     47 ****         4.8636   5.2394  -1.6635 H              1 S1                 0.0000
     48 ****         3.8561   1.9083  -4.5295 H              1 S1                 0.0000
     49 ****         3.7030   0.4683  -3.4793 H              1 S1                 0.0000
     50 ****         1.2878   2.7302  -2.0204 H              1 S1                 0.0000
     51 ****         1.9494   3.7023  -3.3697 H              1 S1                 0.0000
     52 ****        -1.6476   0.5555   1.8759 LP             1 S1                 0.0000
     53 ****         1.5155   2.8238   0.6115 LP             1 S1                 0.0000
     54 ****         1.4606  -2.3272  -0.8911 LP             1 S1                 0.0000
     55 ****         4.2352   4.1976  -0.6390 LP             1 S1                 0.0000
     56 ****         3.3039   4.9411  -1.7555 LP             1 S1                 0.0000
     57 ****         1.4382   0.8459  -3.3322 LP             1 S1                 0.0000
     58 ****         1.5884   1.8390  -4.6197 LP             1 S1                 0.0000
@<TRIPOS>BOND
    1    1    2 1     
    2    1   27 1     
    3    1   28 1     
    4    1   29 1     
    5    2    3 1     
    6    2    9 1     
    7    2   30 1     
    8    3    4 1     
    9    3    5 1     
   10    3   31 1     
   11    4   32 1     
   12    4   33 1     
   13    4   34 1     
   14    5    6 1     
   15    5    7 2     
   16    5    8 2     
   17    6   35 1     
   18    6   36 1     
   19    6   37 1     
   20    9   10 1     
   21    9   11 1     
   22   10   38 1     
   23   10   39 1     
   24   10   40 1     
   25   11   16 ar    
   26   11   12 ar    
   27   12   13 ar    
   28   13   14 ar    
   29   13   41 1     
   30   14   15 ar    
   31   15   19 1     
   32   15   16 ar    
   33   16   17 1     
   34   17   18 2     
   35   18   19 1     
   36   18   42 1     
   37   19   20 1     
   38   20   21 1     
   39   20   43 1     
   40   20   44 1     
   41   21   26 1     
   42   21   22 1     
   43   21   24 1     
   44   22   23 1     
   45   22   45 1     
   46   22   46 1     
   47   23   47 1     
   48   24   25 1     
   49   24   48 1     
   50   24   49 1     
   51   25   26 1     
   52   26   50 1     
   53   26   51 1     
   54   12   52 1     
   55   14   53 1     
   56   17   54 1     
   57   23   55 1     
   58   23   56 1     
   59   25   57 1     
   60   25   58 1     
@<TRIPOS>SUBSTRUCTURE
      1 S1             1
@<TRIPOS>SET
LONE_PAIRS      STATIC     ATOMS    <user>   **** ""
9 7 8 52 53 54 55 56 57 58
DONOR_HYDROGENS      STATIC     ATOMS    <user>   **** ""
1 47
ATOM$BLUE        STATIC     ATOMS    COLORGROUP SYSTEM
9 7 8 52 53 54 55 56 57 58
ATOM$RED        STATIC     ATOMS    COLORGROUP SYSTEM
1 47
