AV-unprocessed.smi:497|AV-procd|sdf|2725|dock4
  -GOLD-   2262023173D 1   1.00000     0.00000
 Structure written by MMmdl.
 40 42  0  0  0  0  0  0  0  0  2 V2000
  150.3846  137.9567  154.5843 C   0  0  0  0  0  0  0  0  0  0  0  0
  151.0972  139.1804  154.6206 O   0  0  0  0  0  0  0  0  0  0  0  0
  152.1078  139.1922  155.6161 C   0  0  0  0  0  0  0  0  0  0  0  0
  151.4846  139.5301  156.9776 C   0  0  0  0  0  0  0  0  0  0  0  0
  151.1502  140.9573  157.0974 N   0  0  0  0  0  0  0  0  0  0  0  0
  150.3060  141.7383  156.3613 C   0  0  0  0  0  0  0  0  0  0  0  0
  149.4662  141.3207  155.1942 C   0  0  0  0  0  0  0  0  0  0  0  0
  148.2792  142.1496  155.0252 N   0  0  0  0  0  0  0  0  0  0  0  0
  147.0180  141.6922  154.9798 C   0  0  0  0  0  0  0  0  0  0  0  0
  146.7246  140.5016  155.0844 O   0  0  0  0  0  0  0  0  0  0  0  0
  145.9712  142.7127  154.7827 C   0  0  0  0  0  0  0  0  0  0  0  0
  145.7976  143.6570  153.8045 C   0  0  0  0  0  0  0  0  0  0  0  0
  144.6128  144.3717  154.1340 C   0  0  0  0  0  0  0  0  0  0  0  0
  144.1478  143.8151  155.2908 C   0  0  0  0  0  0  0  0  0  0  0  0
  144.9647  142.8067  155.7001 O   0  0  0  0  0  0  0  0  0  0  0  0
  150.3626  142.9958  156.8851 N   0  3  0  0  0  0  0  0  0  0  0  0
  151.2538  143.0224  157.9579 C   0  0  0  0  0  0  0  0  0  0  0  0
  151.6428  144.0643  158.7942 C   0  0  0  0  0  0  0  0  0  0  0  0
  152.5851  143.7531  159.7964 C   0  0  0  0  0  0  0  0  0  0  0  0
  153.1029  142.4492  159.9379 C   0  0  0  0  0  0  0  0  0  0  0  0
  152.6996  141.4007  159.0847 C   0  0  0  0  0  0  0  0  0  0  0  0
  151.7663  141.7166  158.0979 C   0  0  0  0  0  0  0  0  0  0  0  0
  149.6263  137.9978  153.8023 H   0  0  0  0  0  0  0  0  0  0  0  0
  149.8804  137.7660  155.5327 H   0  0  0  0  0  0  0  0  0  0  0  0
  151.0487  137.1195  154.3656 H   0  0  0  0  0  0  0  0  0  0  0  0
  152.5974  138.2184  155.6662 H   0  0  0  0  0  0  0  0  0  0  0  0
  152.8720  139.9282  155.3611 H   0  0  0  0  0  0  0  0  0  0  0  0
  150.5705  138.9555  157.1233 H   0  0  0  0  0  0  0  0  0  0  0  0
  152.1502  139.2502  157.7946 H   0  0  0  0  0  0  0  0  0  0  0  0
  150.0683  141.3952  154.2885 H   0  0  0  0  0  0  0  0  0  0  0  0
  149.1808  140.2723  155.2849 H   0  0  0  0  0  0  0  0  0  0  0  0
  148.4255  143.1433  154.9220 H   0  0  0  0  0  0  0  0  0  0  0  0
  146.4431  143.8171  152.9533 H   0  0  0  0  0  0  0  0  0  0  0  0
  144.1586  145.1891  153.5936 H   0  0  0  0  0  0  0  0  0  0  0  0
  143.2952  144.0055  155.9261 H   0  0  0  0  0  0  0  0  0  0  0  0
  151.2485  145.0643  158.6867 H   0  0  0  0  0  0  0  0  0  0  0  0
  152.9183  144.5302  160.4693 H   0  0  0  0  0  0  0  0  0  0  0  0
  153.8246  142.2487  160.7166 H   0  0  0  0  0  0  0  0  0  0  0  0
  153.1036  140.4059  159.2005 H   0  0  0  0  0  0  0  0  0  0  0  0
  149.8294  143.7786  156.5297 H   0  0  0  0  0  0  0  0  0  0  0  0
  1  2  1  0  0  0  0
  1 23  1  0  0  0  0
  1 24  1  0  0  0  0
  1 25  1  0  0  0  0
  2  3  1  0  0  0  0
  3  4  1  0  0  0  0
  3 26  1  0  0  0  0
  3 27  1  0  0  0  0
  4  5  1  0  0  0  0
  4 28  1  0  0  0  0
  4 29  1  0  0  0  0
  5 22  1  0  0  0  0
  5  6  1  0  0  0  0
  6  7  1  0  0  0  0
  6 16  2  0  0  0  0
  7  8  1  0  0  0  0
  7 30  1  0  0  0  0
  7 31  1  0  0  0  0
  8  9  1  0  0  0  0
  8 32  1  0  0  0  0
  9 10  2  0  0  0  0
  9 11  1  0  0  0  0
 11 15  1  0  0  0  0
 11 12  2  0  0  0  0
 12 13  1  0  0  0  0
 12 33  1  0  0  0  0
 13 14  2  0  0  0  0
 13 34  1  0  0  0  0
 14 15  1  0  0  0  0
 14 35  1  0  0  0  0
 16 17  1  0  0  0  0
 16 40  1  0  0  0  0
 17 22  2  0  0  0  0
 17 18  1  0  0  0  0
 18 19  2  0  0  0  0
 18 36  1  0  0  0  0
 19 20  1  0  0  0  0
 19 37  1  0  0  0  0
 20 21  2  0  0  0  0
 20 38  1  0  0  0  0
 21 22  1  0  0  0  0
 21 39  1  0  0  0  0
M  CHG  1  16   1
M  END
> <s_m_source_file>
AV-unprocessed.smi

> <i_m_source_file_index>
497

> <i_lp_mmshare_version>
43012

> <i_f3d_flags>
0

> <s_epik_input>
W2NIXTFbY0hdW2NIXVtjSF1jKGMxMiluKFtDSDJdW0NIMl1PW0NIM10pYyhuMilbQ0gyXVtOSF1DKD1PKWMzW2NIXVtjSF1bY0hdbzM=

> <s_epik_cmdline>
J2VwaWtfcHl0aG9uJywgJy1waCcsICc3LjAnLCAnLXRuJywgJzgnLCAnLW1hJywgJzIwMCcsICctbWV0YWxfYmluZGluZycsICctaW1hZScsICc8aW5maWxlLm1hZT4nLCAnLW9tYWUnLCAnPG91dGZpbGUubWFlPic=

> <r_epik_Ionization_Penalty>
1.26486

> <r_epik_Ionization_Penalty_Charging>
1.26483

> <r_epik_Ionization_Penalty_Neutral>
2.77772e-05

> <r_epik_State_Penalty>
1.33577

> <r_epik_Charging_Adjusted_Penalty>
2.6006

> <i_epik_Tot_Q>
1

> <i_epik_Tot_abs_Q>
1

> <r_epik_Metal_State_Penalty>
1.44158

> <b_epik_Metal_Only>
0

> <s_lp_Force_Field>
OPLS_2005

> <r_lp_Energy>
9.51778

> <b_lp_Chiralities_Consistent>
1

> <s_lp_Variant>
AV-unprocessed.smi:497-2

> <Gold.Version>
5.8.1

> <Gold.Id.Protein>
6NUR|6NUR_protein|mol2

> <Gold.PLP.Fitness>
58.9147

> <Gold.PLP.PLP>
-50.0296

> <Gold.PLP.part.hbond>
-3.0000

> <Gold.PLP.part.metal>
0.0000

> <Gold.PLP.part.buried>
-6.7261

> <Gold.PLP.part.nonpolar>
-41.7173

> <Gold.PLP.part.repulsive>
0.5540

> <Gold.PLP.ligand.clash>
0.0000

> <Gold.PLP.ligand.torsion>
1.5785

> <Gold.PLP.Chemscore.Hbond>
4.0000

> <Gold.PLP.Chemscore.CHOScore>
0.0000

> <Gold.PLP.Chemscore.Metal>
0.0000

> <Gold.Chemscore.Hbonds>
donor molecule, donor type, donor heavy atom, donor atom, acceptor molecule, acceptor atom, score
      L1  H     8    32       P1  8028  1.00
      L1  H    16    40       P1  8028  2.00
      P1  H  7989  7998       L1     2  0.84

> <Gold.PLP.Chemscore.Internal.Correction>
0.0420

> <Gold.Rescore>
     Score         DG    S(hbond)    S(metal)    S(lipo)     H(rot)  DE(clash)    DE(int)     intcor
     20.84     -23.44       2.83        0.00     115.63       1.96       0.05       2.55       ----

> <Gold.Chemscore.Fitness>
20.8445

> <Gold.Chemscore.DG>
-23.4445

> <Gold.Chemscore.ZeroCoef>
-5.4800

> <Gold.Chemscore.Hbond>
2.8283

> <Gold.Chemscore.Metal>
0.0000

> <Gold.Chemscore.Lipo>
115.6282

> <Gold.Chemscore.Internal_Hbond>
0.0000

> <Gold.Chemscore.DEClash>
0.0466

> <Gold.Chemscore.DEInternal>
2.5535

> <Gold.Chemscore.Rot>
1.9573

> <Gold.Chemscore.Internal.Correction>
   9.000000E+99

> <Gold.Chemscore.Hbonds>
donor molecule, donor type, donor heavy atom, donor atom, acceptor molecule, acceptor atom, score
      L1  H     8    32       P1  8028  0.94
      L1  H    16    40       P1  8028  0.98
      P1  H  7989  7998       L1     2  0.25

> <Gold.Chemscore.Hbond.Weighted>
-9.4467

> <Gold.Chemscore.Metal.Weighted>
-0.0000

> <Gold.Chemscore.Lipo.Weighted>
-13.5285

> <Gold.Chemscore.Internal_Hbond.Weighted>
0.0000

> <Gold.Chemscore.DEClash.Weighted>
0.0466

> <Gold.Chemscore.DEInternal.Weighted>
2.5535

> <Gold.Chemscore.Rot.Weighted>
5.0107

> <Gold.Chemscore.Internal.Correction.Weighted>
   9.000000E+99

> <Gold.Protein.RotatedTorsions>
[ 6907 6896 6895 6894 ] final   -8.94 input  -60.11 | X-H torsion
[ 7974 7965 7964 7962 ] final   30.94 input  175.53 | X-H torsion
[ 8008 7997 7996 7995 ] final -129.27 input   59.86 | X-H torsion
[ 10167 10162 10161 10158 ] final   73.46 input  -65.29 | X-H torsion
[ 10718 10713 10712 10709 ] final   -0.94 input   66.30 | X-H torsion
[ 10763 10752 10751 10750 ] final   30.12 input  -60.55 | X-H torsion
[ 11005 11000 10999 10996 ] final  -19.12 input  -57.11 | X-H torsion

> <Gold.Protein.ActiveResidues>
 VAL166  LYS551  ARG553  GLY616  TRP617  ASP618  TYR619  PRO620  LYS621  CYS622 
 ASP623  PHE694  ASN695  SER759  ASP760  ASP761  ALA762  ILE779  LEU786  VAL792 
 PHE793  MET794  SER795  GLU796  ALA797  LYS798  CYS799  TRP800  GLU811  SER814 

> <Gold.Protein.RotatedAtoms>
  151.4257  135.1003  159.9626 H   0  0  0  0  0  0  0  0  0  0  0  0  # atno 6907 bound_to 6896
  152.4973  133.8665  159.7287 H   0  0  0  0  0  0  0  0  0  0  0  0  # atno 6908 bound_to 6896
  150.9191  133.6844  159.2864 H   0  0  0  0  0  0  0  0  0  0  0  0  # atno 6909 bound_to 6896
  146.1581  139.6721  142.9053 H   0  0  0  0  0  0  0  0  0  0  0  0  # atno 7974 bound_to 7965
  155.2765  140.0442  157.3011 H   0  0  0  0  0  0  0  0  0  0  0  0  # atno 8008 bound_to 7997
  154.5622  140.2349  155.8286 H   0  0  0  0  0  0  0  0  0  0  0  0  # atno 8009 bound_to 7997
  156.2056  140.3013  155.9628 H   0  0  0  0  0  0  0  0  0  0  0  0  # atno 8010 bound_to 7997
  140.0243  144.5516  150.7557 H   0  0  0  0  0  0  0  0  0  0  0  0  # atno 10167 bound_to 10162
  156.8130  130.5431  149.5706 H   0  0  0  0  0  0  0  0  0  0  0  0  # atno 10718 bound_to 10713
  153.0390  135.6472  154.0995 H   0  0  0  0  0  0  0  0  0  0  0  0  # atno 10763 bound_to 10752
  154.0705  135.2881  155.3310 H   0  0  0  0  0  0  0  0  0  0  0  0  # atno 10764 bound_to 10752
  154.6597  135.5396  153.8068 H   0  0  0  0  0  0  0  0  0  0  0  0  # atno 10765 bound_to 10752
  140.8335  133.7979  155.9784 H   0  0  0  0  0  0  0  0  0  0  0  0  # atno 11005 bound_to 11000
  145.4658  141.0434  143.2726 LP  0  0  0  0  0  0  0  0  0  0  0  0  # atno 17320 bound_to 7965
  144.7989  139.6179  143.7080 LP  0  0  0  0  0  0  0  0  0  0  0  0  # atno 17321 bound_to 7965
  140.7329  143.2711  151.3885 LP  0  0  0  0  0  0  0  0  0  0  0  0  # atno 17342 bound_to 10162
  139.6119  144.1081  152.2307 LP  0  0  0  0  0  0  0  0  0  0  0  0  # atno 17343 bound_to 10162
  156.1033  130.5985  150.9930 LP  0  0  0  0  0  0  0  0  0  0  0  0  # atno 17370 bound_to 10713
  157.6496  131.0899  150.8080 LP  0  0  0  0  0  0  0  0  0  0  0  0  # atno 17371 bound_to 10713
  140.8973  134.2422  157.5062 LP  0  0  0  0  0  0  0  0  0  0  0  0  # atno 17394 bound_to 11000
  139.8704  134.9690  156.4650 LP  0  0  0  0  0  0  0  0  0  0  0  0  # atno 17395 bound_to 11000

$$$$
