AV-unprocessed.smi:370|AV-procd|sdf|2439|dock10
  -GOLD-   2262022383D 1   1.00000     0.00000
 Structure written by MMmdl.
 42 43  0  0  0  0  0  0  0  0  3 V2000
  146.2138  136.4540  162.6247 C   0  0  0  0  0  0  0  0  0  0  0  0
  147.1207  136.2912  161.4531 C   0  0  0  0  0  0  0  0  0  0  0  0
  147.3629  135.2467  160.6070 C   0  0  0  0  0  0  0  0  0  0  0  0
  148.3363  135.7714  159.7136 C   0  0  0  0  0  0  0  0  0  0  0  0
  148.9082  135.1106  158.6954 N   0  5  0  0  0  0  0  0  0  0  0  0
  148.3896  135.1990  157.4499 C   0  0  0  0  0  0  0  0  0  0  0  0
  147.2025  135.3674  157.1615 O   0  0  0  0  0  0  0  0  0  0  0  0
  149.3050  135.0727  156.4783 N   0  0  0  0  0  0  0  0  0  0  0  0
  149.0562  135.1058  155.0373 C   0  0  0  0  0  0  0  0  0  0  0  0
  148.4755  133.7779  154.4598 C   0  0  0  0  0  0  0  0  0  0  0  0
  149.6721  132.8473  154.1268 C   0  0  0  0  0  0  0  0  0  0  0  0
  147.5943  133.0548  155.5081 C   0  0  0  0  0  0  0  0  0  0  0  0
  147.6809  134.1083  153.2194 N   0  3  0  0  0  0  0  0  0  0  0  0
  147.3504  132.9661  152.3192 C   0  0  0  0  0  0  0  0  0  0  0  0
  146.6800  133.4637  151.0262 C   0  0  0  0  0  0  0  0  0  0  0  0
  145.5224  134.2263  151.3348 O   0  0  0  0  0  0  0  0  0  0  0  0
  145.8437  135.3725  152.1090 C   0  0  0  0  0  0  0  0  0  0  0  0
  146.4537  134.9258  153.4462 C   0  0  0  0  0  0  0  0  0  0  0  0
  148.6677  137.0187  160.0021 N   0  0  0  0  0  0  0  0  0  0  0  0
  147.8874  137.3620  161.1127 O   0  0  0  0  0  0  0  0  0  0  0  0
  146.4625  135.7361  163.4063 H   0  0  0  0  0  0  0  0  0  0  0  0
  145.1760  136.2918  162.3336 H   0  0  0  0  0  0  0  0  0  0  0  0
  146.2933  137.4553  163.0484 H   0  0  0  0  0  0  0  0  0  0  0  0
  146.9137  134.2650  160.6217 H   0  0  0  0  0  0  0  0  0  0  0  0
  150.2624  134.9384  156.7693 H   0  0  0  0  0  0  0  0  0  0  0  0
  148.4203  135.9609  154.8149 H   0  0  0  0  0  0  0  0  0  0  0  0
  150.0099  135.3226  154.5551 H   0  0  0  0  0  0  0  0  0  0  0  0
  150.3143  132.6804  154.9918 H   0  0  0  0  0  0  0  0  0  0  0  0
  150.2975  133.2660  153.3375 H   0  0  0  0  0  0  0  0  0  0  0  0
  149.3483  131.8543  153.8143 H   0  0  0  0  0  0  0  0  0  0  0  0
  148.1886  132.6959  156.3488 H   0  0  0  0  0  0  0  0  0  0  0  0
  147.0936  132.1843  155.0845 H   0  0  0  0  0  0  0  0  0  0  0  0
  146.8298  133.7114  155.9235 H   0  0  0  0  0  0  0  0  0  0  0  0
  148.2421  132.4194  152.0181 H   0  0  0  0  0  0  0  0  0  0  0  0
  146.6945  132.2629  152.8337 H   0  0  0  0  0  0  0  0  0  0  0  0
  147.3753  134.0623  150.4352 H   0  0  0  0  0  0  0  0  0  0  0  0
  146.3873  132.6163  150.4060 H   0  0  0  0  0  0  0  0  0  0  0  0
  146.5284  136.0234  151.5629 H   0  0  0  0  0  0  0  0  0  0  0  0
  144.9320  135.9438  152.2846 H   0  0  0  0  0  0  0  0  0  0  0  0
  145.7108  134.3454  153.9945 H   0  0  0  0  0  0  0  0  0  0  0  0
  146.6618  135.8135  154.0391 H   0  0  0  0  0  0  0  0  0  0  0  0
  148.2985  134.6930  152.6745 H   0  0  0  0  0  0  0  0  0  0  0  0
  1  2  1  0  0  0  0
  1 21  1  0  0  0  0
  1 22  1  0  0  0  0
  1 23  1  0  0  0  0
  2 20  1  0  0  0  0
  2  3  2  0  0  0  0
  3  4  1  0  0  0  0
  3 24  1  0  0  0  0
  4  5  1  0  0  0  0
  4 19  2  0  0  0  0
  5  6  1  0  0  0  0
  6  7  2  0  0  0  0
  6  8  1  0  0  0  0
  8  9  1  0  0  0  0
  8 25  1  0  0  0  0
  9 10  1  0  0  0  0
  9 26  1  0  0  0  0
  9 27  1  0  0  0  0
 10 11  1  0  0  0  0
 10 12  1  0  0  0  0
 10 13  1  0  0  0  0
 11 28  1  0  0  0  0
 11 29  1  0  0  0  0
 11 30  1  0  0  0  0
 12 31  1  0  0  0  0
 12 32  1  0  0  0  0
 12 33  1  0  0  0  0
 13 18  1  0  0  0  0
 13 14  1  0  0  0  0
 13 42  1  0  0  0  0
 14 15  1  0  0  0  0
 14 34  1  0  0  0  0
 14 35  1  0  0  0  0
 15 16  1  0  0  0  0
 15 36  1  0  0  0  0
 15 37  1  0  0  0  0
 16 17  1  0  0  0  0
 17 18  1  0  0  0  0
 17 38  1  0  0  0  0
 17 39  1  0  0  0  0
 18 40  1  0  0  0  0
 18 41  1  0  0  0  0
 19 20  1  0  0  0  0
M  CHG  1   5  -1
M  CHG  1  13   1
M  END
> <s_m_source_file>
AV-unprocessed.smi

> <i_m_source_file_index>
370

> <i_lp_mmshare_version>
43012

> <i_f3d_flags>
0

> <s_epik_input>
W0NIM11jMVtjSF1jKG5vMSlbTkhdQyg9TylbTkhdW0NIMl1DKFtDSDNdKShbQ0gzXSlOMltDSDJdW0NIMl1PW0NIMl1bQ0gyXTI=

> <s_epik_cmdline>
J2VwaWtfcHl0aG9uJywgJy1waCcsICc3LjAnLCAnLXRuJywgJzgnLCAnLW1hJywgJzIwMCcsICctbWV0YWxfYmluZGluZycsICctaW1hZScsICc8aW5maWxlLm1hZT4nLCAnLW9tYWUnLCAnPG91dGZpbGUubWFlPic=

> <r_epik_Ionization_Penalty>
6.73014

> <r_epik_Ionization_Penalty_Charging>
6.73004

> <r_epik_Ionization_Penalty_Neutral>
9.76201e-05

> <r_epik_State_Penalty>
6.93052

> <r_epik_Charging_Adjusted_Penalty>
13.6606

> <i_epik_Tot_Q>
0

> <i_epik_Tot_abs_Q>
2

> <r_epik_Metal_State_Penalty>
2.86736

> <b_epik_Metal_Only>
1

> <s_lp_Force_Field>
OPLS_2005

> <r_lp_Energy>
13.9603

> <b_lp_Chiralities_Consistent>
1

> <s_lp_Variant>
AV-unprocessed.smi:370-4

> <Gold.Version>
5.8.1

> <Gold.Id.Protein>
6NUR|6NUR_protein|mol2

> <Gold.PLP.Fitness>
40.2559

> <Gold.PLP.PLP>
-26.5166

> <Gold.PLP.part.hbond>
-4.7592

> <Gold.PLP.part.metal>
0.0000

> <Gold.PLP.part.buried>
-2.3404

> <Gold.PLP.part.nonpolar>
-18.9907

> <Gold.PLP.part.repulsive>
0.1710

> <Gold.PLP.ligand.clash>
0.0000

> <Gold.PLP.ligand.torsion>
1.7114

> <Gold.PLP.Chemscore.Hbond>
5.6880

> <Gold.PLP.Chemscore.CHOScore>
0.0000

> <Gold.PLP.Chemscore.Metal>
0.0000

> <Gold.Chemscore.Hbonds>
donor molecule, donor type, donor heavy atom, donor atom, acceptor molecule, acceptor atom, score
      L1  H    13    42       P1  7948  2.00
      P1  H  6896  6909       L1     5  1.58
      P1  H  6931  6943       L1    20  0.75
      P1  H  6934  6947       L1    20  0.74

> <Gold.PLP.Chemscore.Internal.Correction>
0.0981

> <Gold.Rescore>
     Score         DG    S(hbond)    S(metal)    S(lipo)     H(rot)  DE(clash)    DE(int)     intcor
     11.82     -16.06       2.33        0.00      58.25       1.57       0.16       4.08       ----

> <Gold.Chemscore.Fitness>
11.8182

> <Gold.Chemscore.DG>
-16.0584

> <Gold.Chemscore.ZeroCoef>
-5.4800

> <Gold.Chemscore.Hbond>
2.3300

> <Gold.Chemscore.Metal>
0.0000

> <Gold.Chemscore.Lipo>
58.2522

> <Gold.Chemscore.Internal_Hbond>
0.0000

> <Gold.Chemscore.DEClash>
0.1606

> <Gold.Chemscore.DEInternal>
4.0795

> <Gold.Chemscore.Rot>
1.5701

> <Gold.Chemscore.Internal.Correction>
   9.000000E+99

> <Gold.Chemscore.Hbonds>
donor molecule, donor type, donor heavy atom, donor atom, acceptor molecule, acceptor atom, score
      L1  H    13    42       P1  7948  0.39
      P1  H  6896  6909       L1     5  0.55
      P1  H  6931  6943       L1    20  0.13
      P1  H  6934  6947       L1    20  0.57

> <Gold.Chemscore.Hbond.Weighted>
-7.7822

> <Gold.Chemscore.Metal.Weighted>
-0.0000

> <Gold.Chemscore.Lipo.Weighted>
-6.8155

> <Gold.Chemscore.Internal_Hbond.Weighted>
0.0000

> <Gold.Chemscore.DEClash.Weighted>
0.1606

> <Gold.Chemscore.DEInternal.Weighted>
4.0795

> <Gold.Chemscore.Rot.Weighted>
4.0194

> <Gold.Chemscore.Internal.Correction.Weighted>
   9.000000E+99

> <Gold.Protein.RotatedTorsions>
[ 6907 6896 6895 6894 ] final   20.25 input  -60.11 | X-H torsion
[ 7974 7965 7964 7962 ] final  -14.35 input  175.53 | X-H torsion
[ 8008 7997 7996 7995 ] final -109.36 input   59.86 | X-H torsion
[ 10167 10162 10161 10158 ] final   23.25 input  -65.29 | X-H torsion
[ 10718 10713 10712 10709 ] final   -9.57 input   66.30 | X-H torsion
[ 10763 10752 10751 10750 ] final   39.42 input  -60.55 | X-H torsion
[ 11005 11000 10999 10996 ] final  -83.00 input  -57.11 | X-H torsion

> <Gold.Protein.ActiveResidues>
 VAL166  LYS551  ARG553  GLY616  TRP617  ASP618  TYR619  PRO620  LYS621  CYS622 
 ASP623  PHE694  ASN695  SER759  ASP760  ASP761  ALA762  ILE779  LEU786  VAL792 
 PHE793  MET794  SER795  GLU796  ALA797  LYS798  CYS799  TRP800  GLU811  SER814 

> <Gold.Protein.RotatedAtoms>
  151.8935  135.0407  160.0499 H   0  0  0  0  0  0  0  0  0  0  0  0  # atno 6907 bound_to 6896
  152.2417  133.5136  159.5282 H   0  0  0  0  0  0  0  0  0  0  0  0  # atno 6908 bound_to 6896
  150.7055  134.0997  159.4004 H   0  0  0  0  0  0  0  0  0  0  0  0  # atno 6909 bound_to 6896
  146.2078  140.3336  142.8401 H   0  0  0  0  0  0  0  0  0  0  0  0  # atno 7974 bound_to 7965
  154.9582  140.0399  157.2177 H   0  0  0  0  0  0  0  0  0  0  0  0  # atno 8008 bound_to 7997
  154.7914  140.2836  155.5966 H   0  0  0  0  0  0  0  0  0  0  0  0  # atno 8009 bound_to 7997
  156.2950  140.2572  156.2762 H   0  0  0  0  0  0  0  0  0  0  0  0  # atno 8010 bound_to 7997
  140.5284  143.9884  150.6452 H   0  0  0  0  0  0  0  0  0  0  0  0  # atno 10167 bound_to 10162
  156.6861  130.5051  149.5957 H   0  0  0  0  0  0  0  0  0  0  0  0  # atno 10718 bound_to 10713
  152.9968  135.6221  154.2462 H   0  0  0  0  0  0  0  0  0  0  0  0  # atno 10763 bound_to 10752
  154.2202  135.2796  155.2929 H   0  0  0  0  0  0  0  0  0  0  0  0  # atno 10764 bound_to 10752
  154.5535  135.5726  153.7001 H   0  0  0  0  0  0  0  0  0  0  0  0  # atno 10765 bound_to 10752
  141.1660  133.7272  156.8656 H   0  0  0  0  0  0  0  0  0  0  0  0  # atno 11005 bound_to 11000
  144.8835  140.7431  143.5971 LP  0  0  0  0  0  0  0  0  0  0  0  0  # atno 17320 bound_to 7965
  145.3256  139.1775  143.4564 LP  0  0  0  0  0  0  0  0  0  0  0  0  # atno 17321 bound_to 7965
  140.3252  143.3112  152.0744 LP  0  0  0  0  0  0  0  0  0  0  0  0  # atno 17342 bound_to 10162
  139.4946  144.6547  151.6599 LP  0  0  0  0  0  0  0  0  0  0  0  0  # atno 17343 bound_to 10162
  156.1831  130.6512  151.0975 LP  0  0  0  0  0  0  0  0  0  0  0  0  # atno 17370 bound_to 10713
  157.7026  131.0770  150.6772 LP  0  0  0  0  0  0  0  0  0  0  0  0  # atno 17371 bound_to 10713
  140.1818  134.9028  157.2957 LP  0  0  0  0  0  0  0  0  0  0  0  0  # atno 17394 bound_to 11000
  140.2387  134.3822  155.7490 LP  0  0  0  0  0  0  0  0  0  0  0  0  # atno 17395 bound_to 11000

$$$$
