AV-unprocessed.smi:252|AV-procd|sdf|1936|dock10
  -GOLD-   2262021 63D 1   1.00000     0.00000
 Structure written by MMmdl.
 56 59  0  0  0  0  0  0  0  0  1 V2000
  154.0394  135.4850  164.5513 C   0  0  0  0  0  0  0  0  0  0  0  0
  154.5468  135.4550  163.1010 C   0  0  0  0  0  0  0  0  0  0  0  0
  154.8637  136.8435  162.5363 C   0  0  0  0  0  0  0  0  0  0  0  0
  155.6445  137.5987  163.1165 O   0  0  0  0  0  0  0  0  0  0  0  0
  154.2427  137.1664  161.3917 N   0  0  0  0  0  0  0  0  0  0  0  0
  154.3887  138.4324  160.6807 C   0  0  2  0  0  0  0  0  0  0  0  0
  154.3137  139.6186  161.6623 C   0  0  0  0  0  0  0  0  0  0  0  0
  154.3576  140.9504  160.8987 C   0  0  0  0  0  0  0  0  0  0  0  0
  153.2599  141.0063  159.8246 C   0  0  0  0  0  0  0  0  0  0  0  0
  153.3435  139.8461  158.9359 N   0  0  0  0  0  0  0  0  0  0  0  0
  152.6659  139.9014  157.7611 C   0  0  0  0  0  0  0  0  0  0  0  0
  152.9071  138.9764  156.7933 N   0  0  0  0  0  0  0  0  0  0  0  0
  152.2575  139.0341  155.6271 C   0  0  0  0  0  0  0  0  0  0  0  0
  151.3406  139.9160  155.2255 N   0  0  0  0  0  0  0  0  0  0  0  0
  151.0842  140.8396  156.1956 C   0  0  0  0  0  0  0  0  0  0  0  0
  151.6964  140.9052  157.4793 C   0  0  0  0  0  0  0  0  0  0  0  0
  151.1770  141.9776  158.1954 N   0  0  0  0  0  0  0  0  0  0  0  0
  150.3170  142.5207  157.3782 C   0  0  0  0  0  0  0  0  0  0  0  0
  150.1928  141.8979  156.1569 N   0  0  0  0  0  0  0  0  0  0  0  0
  149.3161  142.2891  155.0632 C   0  0  0  0  0  0  0  0  0  0  0  0
  148.6211  141.0905  154.3648 C   0  0  1  0  0  0  0  0  0  0  0  0
  149.4628  140.6449  153.3144 O   0  0  0  0  0  0  0  0  0  0  0  0
  148.3696  139.9054  155.2942 C   0  0  0  0  0  0  0  0  0  0  0  0
  147.1308  139.2560  154.6968 C   0  0  0  0  0  0  0  0  0  0  0  0
  146.3541  140.3775  154.3169 O   0  0  0  0  0  0  0  0  0  0  0  0
  147.2153  141.3663  153.7589 C   0  0  1  0  0  0  0  0  0  0  0  0
  146.5932  142.7420  154.0454 C   0  0  0  0  0  0  0  0  0  0  0  0
  153.2911  138.5475  159.6071 C   0  0  0  0  0  0  0  0  0  0  0  0
  153.7840  134.4808  164.8903 H   0  0  0  0  0  0  0  0  0  0  0  0
  153.1458  136.1029  164.6479 H   0  0  0  0  0  0  0  0  0  0  0  0
  154.7968  135.8779  165.2308 H   0  0  0  0  0  0  0  0  0  0  0  0
  155.4451  134.8399  163.0379 H   0  0  0  0  0  0  0  0  0  0  0  0
  153.7958  134.9796  162.4683 H   0  0  0  0  0  0  0  0  0  0  0  0
  153.6193  136.4848  160.9839 H   0  0  0  0  0  0  0  0  0  0  0  0
  155.3564  138.4515  160.1752 H   0  0  0  0  0  0  0  0  0  0  0  0
  153.3917  139.5632  162.2428 H   0  0  0  0  0  0  0  0  0  0  0  0
  155.1363  139.5746  162.3770 H   0  0  0  0  0  0  0  0  0  0  0  0
  154.2452  141.7845  161.5917 H   0  0  0  0  0  0  0  0  0  0  0  0
  155.3343  141.0677  160.4274 H   0  0  0  0  0  0  0  0  0  0  0  0
  152.2772  141.0280  160.2982 H   0  0  0  0  0  0  0  0  0  0  0  0
  153.3630  141.9278  159.2502 H   0  0  0  0  0  0  0  0  0  0  0  0
  152.5103  138.2645  154.9127 H   0  0  0  0  0  0  0  0  0  0  0  0
  149.7436  143.3956  157.6479 H   0  0  0  0  0  0  0  0  0  0  0  0
  148.5735  142.9759  155.4704 H   0  0  0  0  0  0  0  0  0  0  0  0
  149.9037  142.8605  154.3437 H   0  0  0  0  0  0  0  0  0  0  0  0
  148.9489  140.1199  152.7200 H   0  0  0  0  0  0  0  0  0  0  0  0
  149.2155  139.2216  155.3788 H   0  0  0  0  0  0  0  0  0  0  0  0
  148.1281  140.2599  156.2969 H   0  0  0  0  0  0  0  0  0  0  0  0
  147.3810  138.6623  153.8161 H   0  0  0  0  0  0  0  0  0  0  0  0
  146.6015  138.6204  155.4068 H   0  0  0  0  0  0  0  0  0  0  0  0
  147.2313  141.2162  152.6776 H   0  0  0  0  0  0  0  0  0  0  0  0
  147.1997  143.5475  153.6312 H   0  0  0  0  0  0  0  0  0  0  0  0
  146.4774  142.9152  155.1155 H   0  0  0  0  0  0  0  0  0  0  0  0
  145.6030  142.8166  153.5955 H   0  0  0  0  0  0  0  0  0  0  0  0
  153.3956  137.7282  158.8962 H   0  0  0  0  0  0  0  0  0  0  0  0
  152.3068  138.4372  160.0650 H   0  0  0  0  0  0  0  0  0  0  0  0
  1  2  1  0  0  0  0
  1 29  1  0  0  0  0
  1 30  1  0  0  0  0
  1 31  1  0  0  0  0
  2  3  1  0  0  0  0
  2 32  1  0  0  0  0
  2 33  1  0  0  0  0
  3  4  2  0  0  0  0
  3  5  1  0  0  0  0
  5  6  1  0  0  0  0
  5 34  1  0  0  0  0
  6 28  1  0  0  0  0
  6  7  1  0  0  0  0
  6 35  1  0  0  0  0
  7  8  1  0  0  0  0
  7 36  1  0  0  0  0
  7 37  1  0  0  0  0
  8  9  1  0  0  0  0
  8 38  1  0  0  0  0
  8 39  1  0  0  0  0
  9 10  1  0  0  0  0
  9 40  1  0  0  0  0
  9 41  1  0  0  0  0
 10 11  1  0  0  0  0
 10 28  1  0  0  0  0
 11 16  1  0  0  0  0
 11 12  2  0  0  0  0
 12 13  1  0  0  0  0
 13 14  2  0  0  0  0
 13 42  1  0  0  0  0
 14 15  1  0  0  0  0
 15 19  1  0  0  0  0
 15 16  2  0  0  0  0
 16 17  1  0  0  0  0
 17 18  2  0  0  0  0
 18 19  1  0  0  0  0
 18 43  1  0  0  0  0
 19 20  1  0  0  0  0
 20 21  1  0  0  0  0
 20 44  1  0  0  0  0
 20 45  1  0  0  0  0
 21 26  1  0  0  0  0
 21 22  1  0  0  0  0
 21 23  1  0  0  0  0
 22 46  1  0  0  0  0
 23 24  1  0  0  0  0
 23 47  1  0  0  0  0
 23 48  1  0  0  0  0
 24 25  1  0  0  0  0
 24 49  1  0  0  0  0
 24 50  1  0  0  0  0
 25 26  1  0  0  0  0
 26 27  1  0  0  0  0
 26 51  1  0  0  0  0
 27 52  1  0  0  0  0
 27 53  1  0  0  0  0
 27 54  1  0  0  0  0
 28 55  1  0  0  0  0
 28 56  1  0  0  0  0
M  END
> <s_m_source_file>
AV-unprocessed.smi

> <i_m_source_file_index>
252

> <i_lp_mmshare_version>
43012

> <i_f3d_flags>
0

> <s_epik_input>
W0NIM11bQ0gyXUMoPU8pW05IXVtDQEBIXTFbQ0gyXVtDSDJdW0NIMl1OKFtDSDJdMSljKG5bY0hdbjIpYyhjMjMpbltjSF1uM1tDSDJdW0NAQF00KFtPSF0pW0NIMl1bQ0gyXU9bQ0BIXTRbQ0gzXQ==

> <s_epik_cmdline>
J2VwaWtfcHl0aG9uJywgJy1waCcsICc3LjAnLCAnLXRuJywgJzgnLCAnLW1hJywgJzIwMCcsICctbWV0YWxfYmluZGluZycsICctaW1hZScsICc8aW5maWxlLm1hZT4nLCAnLW9tYWUnLCAnPG91dGZpbGUubWFlPic=

> <r_lp_tautomer_probability>
1

> <r_epik_Ionization_Penalty>
0.00182575

> <r_epik_Ionization_Penalty_Charging>
0

> <r_epik_Ionization_Penalty_Neutral>
0.00182575

> <r_epik_State_Penalty>
0.00104524

> <r_epik_Charging_Adjusted_Penalty>
0.00104524

> <i_epik_Tot_Q>
0

> <i_epik_Tot_abs_Q>
0

> <r_epik_Metal_State_Penalty>
-0

> <b_epik_Metal_Only>
0

> <s_lp_Force_Field>
OPLS_2005

> <r_lp_Energy>
34.3477

> <b_lp_Chiralities_Consistent>
1

> <s_lp_Variant>
AV-unprocessed.smi:252-1

> <Gold.Version>
5.8.1

> <Gold.Id.Protein>
6NUR|6NUR_protein|mol2

> <Gold.PLP.Fitness>
50.6468

> <Gold.PLP.PLP>
-43.5067

> <Gold.PLP.part.hbond>
-3.9037

> <Gold.PLP.part.metal>
0.0000

> <Gold.PLP.part.buried>
0.9102

> <Gold.PLP.part.nonpolar>
-39.3637

> <Gold.PLP.part.repulsive>
0.2463

> <Gold.PLP.ligand.clash>
0.0000

> <Gold.PLP.ligand.torsion>
1.1939

> <Gold.PLP.Chemscore.Hbond>
2.3520

> <Gold.PLP.Chemscore.CHOScore>
0.6832

> <Gold.PLP.Chemscore.Metal>
0.0000

> <Gold.Chemscore.Hbonds>
donor molecule, donor type, donor heavy atom, donor atom, acceptor molecule, acceptor atom, score
      L1  H    22    46       P1  7957  0.27
      P1  H  7989  7998       L1    14  1.00
      P1  H  8011  8017       L1    22  0.96
      L1  C    18    43       P1  8028  0.70

> <Gold.PLP.Chemscore.Internal.Correction>
0.4225

> <Gold.Rescore>
     Score         DG    S(hbond)    S(metal)    S(lipo)     H(rot)  DE(clash)    DE(int)     intcor
      9.06     -14.94       1.54        0.00      95.93       2.70       1.92       3.96       ----

> <Gold.Chemscore.Fitness>
9.0562

> <Gold.Chemscore.DG>
-14.9367

> <Gold.Chemscore.ZeroCoef>
-5.4800

> <Gold.Chemscore.Hbond>
1.5434

> <Gold.Chemscore.Metal>
0.0000

> <Gold.Chemscore.Lipo>
95.9348

> <Gold.Chemscore.Internal_Hbond>
0.0000

> <Gold.Chemscore.DEClash>
1.9165

> <Gold.Chemscore.DEInternal>
3.9641

> <Gold.Chemscore.Rot>
2.7041

> <Gold.Chemscore.Internal.Correction>
   9.000000E+99

> <Gold.Chemscore.Hbonds>
donor molecule, donor type, donor heavy atom, donor atom, acceptor molecule, acceptor atom, score
      L1  H    22    46       P1  7957  0.26
      P1  H  7989  7998       L1    14  0.64
      P1  H  8011  8017       L1    22  0.14

> <Gold.Chemscore.Hbond.Weighted>
-5.1548

> <Gold.Chemscore.Metal.Weighted>
-0.0000

> <Gold.Chemscore.Lipo.Weighted>
-11.2244

> <Gold.Chemscore.Internal_Hbond.Weighted>
0.0000

> <Gold.Chemscore.DEClash.Weighted>
1.9165

> <Gold.Chemscore.DEInternal.Weighted>
3.9641

> <Gold.Chemscore.Rot.Weighted>
6.9225

> <Gold.Chemscore.Internal.Correction.Weighted>
   9.000000E+99

> <Gold.Protein.RotatedTorsions>
[ 6907 6896 6895 6894 ] final  -57.06 input  -60.11 | X-H torsion
[ 7974 7965 7964 7962 ] final  126.84 input  175.53 | X-H torsion
[ 8008 7997 7996 7995 ] final  178.74 input   59.86 | X-H torsion
[ 10167 10162 10161 10158 ] final  -70.72 input  -65.29 | X-H torsion
[ 10718 10713 10712 10709 ] final  -43.29 input   66.30 | X-H torsion
[ 10763 10752 10751 10750 ] final  177.80 input  -60.55 | X-H torsion
[ 11005 11000 10999 10996 ] final  -59.51 input  -57.11 | X-H torsion

> <Gold.Protein.ActiveResidues>
 VAL166  LYS551  ARG553  GLY616  TRP617  ASP618  TYR619  PRO620  LYS621  CYS622 
 ASP623  PHE694  ASN695  SER759  ASP760  ASP761  ALA762  ILE779  LEU786  VAL792 
 PHE793  MET794  SER795  GLU796  ALA797  LYS798  CYS799  TRP800  GLU811  SER814 

> <Gold.Protein.RotatedAtoms>
  150.8117  134.7275  159.6693 H   0  0  0  0  0  0  0  0  0  0  0  0  # atno 6907 bound_to 6896
  152.4237  134.5905  159.9983 H   0  0  0  0  0  0  0  0  0  0  0  0  # atno 6908 bound_to 6896
  151.6113  133.3310  159.3104 H   0  0  0  0  0  0  0  0  0  0  0  0  # atno 6909 bound_to 6896
  145.0572  139.3834  143.5024 H   0  0  0  0  0  0  0  0  0  0  0  0  # atno 7974 bound_to 7965
  156.0512  140.1326  157.0048 H   0  0  0  0  0  0  0  0  0  0  0  0  # atno 8008 bound_to 7997
  154.4436  140.1010  156.6450 H   0  0  0  0  0  0  0  0  0  0  0  0  # atno 8009 bound_to 7997
  155.5520  140.3463  155.4473 H   0  0  0  0  0  0  0  0  0  0  0  0  # atno 8010 bound_to 7997
  140.5330  143.2320  151.7228 H   0  0  0  0  0  0  0  0  0  0  0  0  # atno 10167 bound_to 10162
  156.2506  130.4187  149.8654 H   0  0  0  0  0  0  0  0  0  0  0  0  # atno 10718 bound_to 10713
  154.4993  135.2783  155.1434 H   0  0  0  0  0  0  0  0  0  0  0  0  # atno 10763 bound_to 10752
  154.3073  135.6236  153.5454 H   0  0  0  0  0  0  0  0  0  0  0  0  # atno 10764 bound_to 10752
  152.9900  135.5711  154.5432 H   0  0  0  0  0  0  0  0  0  0  0  0  # atno 10765 bound_to 10752
  141.1251  133.6617  156.5083 H   0  0  0  0  0  0  0  0  0  0  0  0  # atno 11005 bound_to 11000
  146.3522  140.0252  142.8655 LP  0  0  0  0  0  0  0  0  0  0  0  0  # atno 17320 bound_to 7965
  145.1453  140.9594  143.4464 LP  0  0  0  0  0  0  0  0  0  0  0  0  # atno 17321 bound_to 7965
  139.4961  144.4085  152.0106 LP  0  0  0  0  0  0  0  0  0  0  0  0  # atno 17342 bound_to 10162
  140.3189  144.3451  150.6014 LP  0  0  0  0  0  0  0  0  0  0  0  0  # atno 17343 bound_to 10162
  156.6204  130.8624  151.3474 LP  0  0  0  0  0  0  0  0  0  0  0  0  # atno 17370 bound_to 10713
  157.7213  130.9562  150.1449 LP  0  0  0  0  0  0  0  0  0  0  0  0  # atno 17371 bound_to 10713
  140.4389  134.7033  157.4981 LP  0  0  0  0  0  0  0  0  0  0  0  0  # atno 17394 bound_to 11000
  140.0242  134.6501  155.9196 LP  0  0  0  0  0  0  0  0  0  0  0  0  # atno 17395 bound_to 11000

$$$$
