AV-unprocessed.smi:155|AV-procd|sdf|1286|dock6
  -GOLD-   2262018563D 1   1.00000     0.00000
 Structure written by MMmdl.
 64 67  0  0  0  0  0  0  0  0  3 V2000
  145.6080  131.8912  150.1726 C   0  0  0  0  0  0  0  0  0  0  0  0
  145.3581  132.7680  151.3396 N   0  3  0  0  0  0  0  0  0  0  0  0
  145.0779  134.1603  150.9232 C   0  0  0  0  0  0  0  0  0  0  0  0
  146.4294  132.6956  152.3652 C   0  0  0  0  0  0  0  0  0  0  0  0
  146.3588  133.8561  153.3801 C   0  0  0  0  0  0  0  0  0  0  0  0
  147.2993  133.6781  154.5185 N   0  3  1  0  0  0  0  0  0  0  0  0
  146.6957  132.9479  155.6655 C   0  0  0  0  0  0  0  0  0  0  0  0
  147.0727  133.6254  156.9948 C   0  0  0  0  0  0  0  0  0  0  0  0
  148.5394  133.4166  157.4110 C   0  0  0  0  0  0  0  0  0  0  0  0
  149.4868  133.8228  156.3747 N   0  0  0  0  0  0  0  0  0  0  0  0
  149.8785  135.1245  156.2198 C   0  0  0  0  0  0  0  0  0  0  0  0
  150.3171  135.5086  154.9902 N   0  0  0  0  0  0  0  0  0  0  0  0
  150.7132  136.7614  154.7558 C   0  0  0  0  0  0  0  0  0  0  0  0
  150.7473  137.7922  155.5977 N   0  0  0  0  0  0  0  0  0  0  0  0
  150.3122  137.4297  156.8366 C   0  0  0  0  0  0  0  0  0  0  0  0
  149.8650  136.1339  157.2353 C   0  0  0  0  0  0  0  0  0  0  0  0
  149.4994  136.1764  158.5782 N   0  0  0  0  0  0  0  0  0  0  0  0
  149.7202  137.4075  158.9473 C   0  0  0  0  0  0  0  0  0  0  0  0
  150.2103  138.2288  157.9614 N   0  0  0  0  0  0  0  0  0  0  0  0
  150.5404  139.6381  158.0935 C   0  0  0  0  0  0  0  0  0  0  0  0
  151.7376  139.8796  159.0377 C   0  0  1  0  0  0  0  0  0  0  0  0
  152.9118  139.4353  158.3851 O   0  0  0  0  0  0  0  0  0  0  0  0
  151.9357  141.3660  159.3982 C   0  0  1  0  0  0  0  0  0  0  0  0
  153.2858  141.7010  160.0344 C   0  0  0  0  0  0  0  0  0  0  0  0
  153.4579  143.1807  159.7381 C   0  0  0  0  0  0  0  0  0  0  0  0
  152.5200  143.4268  158.5542 C   0  0  0  0  0  0  0  0  0  0  0  0
  151.9997  142.1482  158.2147 O   0  0  0  0  0  0  0  0  0  0  0  0
  149.6243  132.8913  155.2509 C   0  0  0  0  0  0  0  0  0  0  0  0
  148.6251  133.1417  154.0979 C   0  0  0  0  0  0  0  0  0  0  0  0
  146.5229  132.1804  149.6539 H   0  0  0  0  0  0  0  0  0  0  0  0
  144.7823  131.9538  149.4629 H   0  0  0  0  0  0  0  0  0  0  0  0
  145.6989  130.8474  150.4716 H   0  0  0  0  0  0  0  0  0  0  0  0
  145.9515  134.6112  150.4505 H   0  0  0  0  0  0  0  0  0  0  0  0
  144.7977  134.7733  151.7803 H   0  0  0  0  0  0  0  0  0  0  0  0
  144.2505  134.1924  150.2133 H   0  0  0  0  0  0  0  0  0  0  0  0
  146.3919  131.7264  152.8644 H   0  0  0  0  0  0  0  0  0  0  0  0
  147.3940  132.7480  151.8570 H   0  0  0  0  0  0  0  0  0  0  0  0
  146.6254  134.7706  152.8480 H   0  0  0  0  0  0  0  0  0  0  0  0
  145.3451  133.9957  153.7578 H   0  0  0  0  0  0  0  0  0  0  0  0
  145.6078  132.9610  155.5936 H   0  0  0  0  0  0  0  0  0  0  0  0
  146.9773  131.8938  155.6558 H   0  0  0  0  0  0  0  0  0  0  0  0
  146.8421  134.6894  156.9370 H   0  0  0  0  0  0  0  0  0  0  0  0
  146.4363  133.2277  157.7859 H   0  0  0  0  0  0  0  0  0  0  0  0
  148.7576  133.9082  158.3572 H   0  0  0  0  0  0  0  0  0  0  0  0
  148.6953  132.3569  157.6168 H   0  0  0  0  0  0  0  0  0  0  0  0
  151.0514  136.9669  153.7507 H   0  0  0  0  0  0  0  0  0  0  0  0
  149.5309  137.7523  159.9537 H   0  0  0  0  0  0  0  0  0  0  0  0
  150.7465  140.0478  157.1039 H   0  0  0  0  0  0  0  0  0  0  0  0
  149.6518  140.1509  158.4618 H   0  0  0  0  0  0  0  0  0  0  0  0
  151.6003  139.2964  159.9492 H   0  0  0  0  0  0  0  0  0  0  0  0
  153.2208  138.6552  158.8194 H   0  0  0  0  0  0  0  0  0  0  0  0
  151.1288  141.7267  160.0398 H   0  0  0  0  0  0  0  0  0  0  0  0
  153.3193  141.4795  161.1015 H   0  0  0  0  0  0  0  0  0  0  0  0
  154.0815  141.1366  159.5460 H   0  0  0  0  0  0  0  0  0  0  0  0
  153.1572  143.7892  160.5917 H   0  0  0  0  0  0  0  0  0  0  0  0
  154.4944  143.4218  159.5005 H   0  0  0  0  0  0  0  0  0  0  0  0
  151.7010  144.0873  158.8422 H   0  0  0  0  0  0  0  0  0  0  0  0
  153.0332  143.8716  157.7019 H   0  0  0  0  0  0  0  0  0  0  0  0
  150.6478  132.8826  154.8739 H   0  0  0  0  0  0  0  0  0  0  0  0
  149.4643  131.8815  155.6307 H   0  0  0  0  0  0  0  0  0  0  0  0
  148.4934  132.2205  153.5287 H   0  0  0  0  0  0  0  0  0  0  0  0
  149.0810  133.8595  153.4169 H   0  0  0  0  0  0  0  0  0  0  0  0
  144.5114  132.4347  151.7782 H   0  0  0  0  0  0  0  0  0  0  0  0
  147.4724  134.6084  154.8717 H   0  0  0  0  0  0  0  0  0  0  0  0
  1  2  1  0  0  0  0
  1 30  1  0  0  0  0
  1 31  1  0  0  0  0
  1 32  1  0  0  0  0
  2  3  1  0  0  0  0
  2  4  1  0  0  0  0
  2 63  1  0  0  0  0
  3 33  1  0  0  0  0
  3 34  1  0  0  0  0
  3 35  1  0  0  0  0
  4  5  1  0  0  0  0
  4 36  1  0  0  0  0
  4 37  1  0  0  0  0
  5  6  1  0  0  0  0
  5 38  1  0  0  0  0
  5 39  1  0  0  0  0
  6 29  1  0  0  0  0
  6  7  1  0  0  0  0
  6 64  1  0  0  0  0
  7  8  1  0  0  0  0
  7 40  1  0  0  0  0
  7 41  1  0  0  0  0
  8  9  1  0  0  0  0
  8 42  1  0  0  0  0
  8 43  1  0  0  0  0
  9 10  1  0  0  0  0
  9 44  1  0  0  0  0
  9 45  1  0  0  0  0
 10 11  1  0  0  0  0
 10 28  1  0  0  0  0
 11 16  1  0  0  0  0
 11 12  2  0  0  0  0
 12 13  1  0  0  0  0
 13 14  2  0  0  0  0
 13 46  1  0  0  0  0
 14 15  1  0  0  0  0
 15 19  1  0  0  0  0
 15 16  2  0  0  0  0
 16 17  1  0  0  0  0
 17 18  2  0  0  0  0
 18 19  1  0  0  0  0
 18 47  1  0  0  0  0
 19 20  1  0  0  0  0
 20 21  1  0  0  0  0
 20 48  1  0  0  0  0
 20 49  1  0  0  0  0
 21 22  1  0  0  0  0
 21 23  1  0  0  0  0
 21 50  1  0  0  0  0
 22 51  1  0  0  0  0
 23 27  1  0  0  0  0
 23 24  1  0  0  0  0
 23 52  1  0  0  0  0
 24 25  1  0  0  0  0
 24 53  1  0  0  0  0
 24 54  1  0  0  0  0
 25 26  1  0  0  0  0
 25 55  1  0  0  0  0
 25 56  1  0  0  0  0
 26 27  1  0  0  0  0
 26 57  1  0  0  0  0
 26 58  1  0  0  0  0
 28 29  1  0  0  0  0
 28 59  1  0  0  0  0
 28 60  1  0  0  0  0
 29 61  1  0  0  0  0
 29 62  1  0  0  0  0
M  CHG  1   2   1
M  CHG  1   6   1
M  END
> <s_m_source_file>
AV-unprocessed.smi

> <i_m_source_file_index>
155

> <i_lp_mmshare_version>
43012

> <i_f3d_flags>
0

> <s_epik_input>
W0NIM11OKFtDSDNdKVtDSDJdW0NIMl1OMVtDSDJdW0NIMl1bQ0gyXU4oW0NIMl1bQ0gyXTEpYyhuW2NIXW4yKWMoYzIzKW5bY0hdbjNbQ0gyXVtDQEhdKFtPSF0pW0NAQEhdNFtDSDJdW0NIMl1bQ0gyXU80

> <s_epik_cmdline>
J2VwaWtfcHl0aG9uJywgJy1waCcsICc3LjAnLCAnLXRuJywgJzgnLCAnLW1hJywgJzIwMCcsICctbWV0YWxfYmluZGluZycsICctaW1hZScsICc8aW5maWxlLm1hZT4nLCAnLW9tYWUnLCAnPG91dGZpbGUubWFlPic=

> <r_lp_tautomer_probability>
1

> <r_epik_Ionization_Penalty>
3.0333

> <r_epik_Ionization_Penalty_Charging>
3.03317

> <r_epik_Ionization_Penalty_Neutral>
0.000131872

> <r_epik_State_Penalty>
1.99939

> <r_epik_Charging_Adjusted_Penalty>
5.03256

> <i_epik_Tot_Q>
2

> <i_epik_Tot_abs_Q>
2

> <r_epik_Metal_State_Penalty>
2.00021

> <b_epik_Metal_Only>
0

> <s_lp_Force_Field>
OPLS_2005

> <r_lp_Energy>
62.6942

> <b_lp_Chiralities_Consistent>
1

> <s_lp_Variant>
AV-unprocessed.smi:155-20

> <Gold.Version>
5.8.1

> <Gold.Id.Protein>
6NUR|6NUR_protein|mol2

> <Gold.PLP.Fitness>
51.1172

> <Gold.PLP.PLP>
-43.2452

> <Gold.PLP.part.hbond>
-2.1025

> <Gold.PLP.part.metal>
0.0000

> <Gold.PLP.part.buried>
-7.5425

> <Gold.PLP.part.nonpolar>
-34.8853

> <Gold.PLP.part.repulsive>
0.2787

> <Gold.PLP.ligand.clash>
0.0000

> <Gold.PLP.ligand.torsion>
0.8208

> <Gold.PLP.Chemscore.Hbond>
2.0089

> <Gold.PLP.Chemscore.CHOScore>
0.9971

> <Gold.PLP.Chemscore.Metal>
0.0000

> <Gold.Chemscore.Hbonds>
donor molecule, donor type, donor heavy atom, donor atom, acceptor molecule, acceptor atom, score
      P1  H  6896  6909       L1    17  0.65
      P1  H  7997  8009       L1    22  0.44
      L1  C    13    46       P1  7948  0.02
      L1  C    13    46       P1  7949  1.00

> <Gold.PLP.Chemscore.Internal.Correction>
0.4956

> <Gold.Rescore>
     Score         DG    S(hbond)    S(metal)    S(lipo)     H(rot)  DE(clash)    DE(int)     intcor
     13.53     -15.35       1.51        0.00     101.44       2.75       0.11       1.71       ----

> <Gold.Chemscore.Fitness>
13.5268

> <Gold.Chemscore.DG>
-15.3464

> <Gold.Chemscore.ZeroCoef>
-5.4800

> <Gold.Chemscore.Hbond>
1.5079

> <Gold.Chemscore.Metal>
0.0000

> <Gold.Chemscore.Lipo>
101.4388

> <Gold.Chemscore.Internal_Hbond>
0.0000

> <Gold.Chemscore.DEClash>
0.1055

> <Gold.Chemscore.DEInternal>
1.7141

> <Gold.Chemscore.Rot>
2.7493

> <Gold.Chemscore.Internal.Correction>
   9.000000E+99

> <Gold.Chemscore.Hbonds>
donor molecule, donor type, donor heavy atom, donor atom, acceptor molecule, acceptor atom, score
      P1  H  6896  6909       L1    17  0.33
      P1  H  7997  8009       L1    22  0.28

> <Gold.Chemscore.Hbond.Weighted>
-5.0363

> <Gold.Chemscore.Metal.Weighted>
-0.0000

> <Gold.Chemscore.Lipo.Weighted>
-11.8683

> <Gold.Chemscore.Internal_Hbond.Weighted>
0.0000

> <Gold.Chemscore.DEClash.Weighted>
0.1055

> <Gold.Chemscore.DEInternal.Weighted>
1.7141

> <Gold.Chemscore.Rot.Weighted>
7.0383

> <Gold.Chemscore.Internal.Correction.Weighted>
   9.000000E+99

> <Gold.Protein.RotatedTorsions>
[ 6907 6896 6895 6894 ] final   65.58 input  -60.11 | X-H torsion
[ 7974 7965 7964 7962 ] final -150.61 input  175.53 | X-H torsion
[ 8008 7997 7996 7995 ] final  165.27 input   59.86 | X-H torsion
[ 10167 10162 10161 10158 ] final  -58.40 input  -65.29 | X-H torsion
[ 10718 10713 10712 10709 ] final  140.30 input   66.30 | X-H torsion
[ 10763 10752 10751 10750 ] final  -54.79 input  -60.55 | X-H torsion
[ 11005 11000 10999 10996 ] final   21.71 input  -57.11 | X-H torsion

> <Gold.Protein.ActiveResidues>
 VAL166  LYS551  ARG553  GLY616  TRP617  ASP618  TYR619  PRO620  LYS621  CYS622 
 ASP623  PHE694  ASN695  SER759  ASP760  ASP761  ALA762  ILE779  LEU786  VAL792 
 PHE793  MET794  SER795  GLU796  ALA797  LYS798  CYS799  TRP800  GLU811  SER814 

> <Gold.Protein.RotatedAtoms>
  152.4418  134.5575  159.9884 H   0  0  0  0  0  0  0  0  0  0  0  0  # atno 6907 bound_to 6896
  151.5671  133.3389  159.2990 H   0  0  0  0  0  0  0  0  0  0  0  0  # atno 6908 bound_to 6896
  150.8326  134.7619  159.6930 H   0  0  0  0  0  0  0  0  0  0  0  0  # atno 6909 bound_to 6896
  144.7897  140.4909  143.5781 H   0  0  0  0  0  0  0  0  0  0  0  0  # atno 7974 bound_to 7965
  156.1814  140.1674  156.8268 H   0  0  0  0  0  0  0  0  0  0  0  0  # atno 8008 bound_to 7997
  154.5364  140.0746  156.8467 H   0  0  0  0  0  0  0  0  0  0  0  0  # atno 8009 bound_to 7997
  155.3303  140.3378  155.4242 H   0  0  0  0  0  0  0  0  0  0  0  0  # atno 8010 bound_to 7997
  140.6200  143.2416  151.5505 H   0  0  0  0  0  0  0  0  0  0  0  0  # atno 10167 bound_to 10162
  157.4048  131.1021  151.0515 H   0  0  0  0  0  0  0  0  0  0  0  0  # atno 10718 bound_to 10713
  154.1805  135.6444  153.5033 H   0  0  0  0  0  0  0  0  0  0  0  0  # atno 10763 bound_to 10752
  153.0060  135.5405  154.6520 H   0  0  0  0  0  0  0  0  0  0  0  0  # atno 10764 bound_to 10752
  154.5882  135.2931  155.0635 H   0  0  0  0  0  0  0  0  0  0  0  0  # atno 10765 bound_to 10752
  140.3886  134.1843  155.7663 H   0  0  0  0  0  0  0  0  0  0  0  0  # atno 11005 bound_to 11000
  145.5826  139.1490  143.3227 LP  0  0  0  0  0  0  0  0  0  0  0  0  # atno 17320 bound_to 7965
  146.2145  140.5955  142.9045 LP  0  0  0  0  0  0  0  0  0  0  0  0  # atno 17321 bound_to 7965
  139.5430  144.2596  152.1388 LP  0  0  0  0  0  0  0  0  0  0  0  0  # atno 17342 bound_to 10162
  140.1814  144.4841  150.6526 LP  0  0  0  0  0  0  0  0  0  0  0  0  # atno 17343 bound_to 10162
  157.1501  130.6180  149.5580 LP  0  0  0  0  0  0  0  0  0  0  0  0  # atno 17370 bound_to 10713
  155.9833  130.4852  150.6927 LP  0  0  0  0  0  0  0  0  0  0  0  0  # atno 17371 bound_to 10713
  141.1899  133.8229  157.0940 LP  0  0  0  0  0  0  0  0  0  0  0  0  # atno 17394 bound_to 11000
  140.0424  134.9848  157.0986 LP  0  0  0  0  0  0  0  0  0  0  0  0  # atno 17395 bound_to 11000

$$$$
