#       Name:                AV-unprocessed.smi:3172
#       Creating user name   scv26
#       Creation time:       Fri Mar 27 17:55:19 2020


#       File generated by GOLD software.
#

@<TRIPOS>MOLECULE
AV-unprocessed.smi:3172
    44    45     1
SMALL
NO_CHARGES


@<TRIPOS>ATOM
      1 ****        -2.8334   3.3737  -1.3249 C.3            1 S1                 0.0000
      2 ****        -2.7103   2.0018  -0.7514 C.2            1 S1                 0.0000
      3 ****        -3.0430   1.7224   0.5474 N.pl3          1 S1                 1.0000
      4 ****        -2.8440   0.4312   0.8149 C.2            1 S1                 0.0000
      5 ****        -2.3726  -0.1290  -0.3052 N.pl3          1 S1                 0.0000
      6 ****        -2.0366  -1.5607  -0.3692 C.3            1 S1                 0.0000
      7 ****        -0.5171  -1.8176  -0.4167 C.3            1 S1                 0.0000
      8 ****        -0.2159  -3.3092  -0.6239 C.3            1 S1                 0.0000
      9 ****         0.1288  -1.3326   0.8256 N.4            1 S1                 1.0000
     10 ****         1.5175  -0.8428   0.6785 C.3            1 S1                 0.0000
     11 ****         2.2272  -0.8696   2.0455 C.3            1 S1                 0.0000
     12 ****         3.6640  -0.3317   1.9464 C.3            1 S1                 0.0000
     13 ****         3.6874   1.0854   1.3536 C.3            1 S1                 0.0000
     14 ****         2.9781   1.1273  -0.0086 C.3            1 S1                 0.0000
     15 ****         1.5429   0.5860   0.0919 C.3            1 S1                 0.0000
     16 ****        -2.2855   0.8159  -1.3055 C.2            1 S1                 0.0000
     17 ****        -1.8057   0.5162  -2.6896 C.3            1 S1                 0.0000
     18 ****        -3.1277   3.3227  -2.3733 H              1 S1                 0.0000
     19 ****        -1.8787   3.8954  -1.2565 H              1 S1                 0.0000
     20 ****        -3.5855   3.9500  -0.7852 H              1 S1                 0.0000
     21 ****        -3.0276  -0.0592   1.7545 H              1 S1                 0.0000
     22 ****        -2.4854  -2.0639   0.4891 H              1 S1                 0.0000
     23 ****        -2.5231  -1.9709  -1.2547 H              1 S1                 0.0000
     24 ****        -0.1109  -1.2767  -1.2703 H              1 S1                 0.0000
     25 ****        -0.6728  -3.6764  -1.5434 H              1 S1                 0.0000
     26 ****        -0.6008  -3.9111   0.2001 H              1 S1                 0.0000
     27 ****         0.8562  -3.4936  -0.6976 H              1 S1                 0.0000
     28 ****        -0.4188  -0.5732   1.2038 H              1 S1                 0.0000
     29 ****         2.0552  -1.5155   0.0084 H              1 S1                 0.0000
     30 ****         1.6673  -0.2727   2.7671 H              1 S1                 0.0000
     31 ****         2.2466  -1.8877   2.4365 H              1 S1                 0.0000
     32 ****         4.1296  -0.3289   2.9326 H              1 S1                 0.0000
     33 ****         4.2628  -0.9984   1.3245 H              1 S1                 0.0000
     34 ****         3.2010   1.7784   2.0416 H              1 S1                 0.0000
     35 ****         4.7173   1.4279   1.2473 H              1 S1                 0.0000
     36 ****         2.9649   2.1493  -0.3885 H              1 S1                 0.0000
     37 ****         3.5415   0.5363  -0.7320 H              1 S1                 0.0000
     38 ****         1.0870   0.6077  -0.8976 H              1 S1                 0.0000
     39 ****         0.9475   1.2534   0.7168 H              1 S1                 0.0000
     40 ****        -2.1922   1.2543  -3.3923 H              1 S1                 0.0000
     41 ****        -2.1412  -0.4677  -3.0172 H              1 S1                 0.0000
     42 ****        -0.7171   0.5475  -2.7263 H              1 S1                 0.0000
     43 ****         0.1225  -2.0921   1.4919 H              1 S1                 0.0000
     44 ****        -3.3982   2.3992   1.2117 H              1 S1                 0.0000
@<TRIPOS>BOND
    1    1    2 1     
    2    1   18 1     
    3    1   19 1     
    4    1   20 1     
    5    2   16 2     
    6    2    3 1     
    7    3    4 2     
    8    3   44 1     
    9    4    5 1     
   10    4   21 1     
   11    5    6 1     
   12    5   16 1     
   13    6    7 1     
   14    6   22 1     
   15    6   23 1     
   16    7    8 1     
   17    7    9 1     
   18    7   24 1     
   19    8   25 1     
   20    8   26 1     
   21    8   27 1     
   22    9   10 1     
   23    9   28 1     
   24    9   43 1     
   25   10   15 1     
   26   10   11 1     
   27   10   29 1     
   28   11   12 1     
   29   11   30 1     
   30   11   31 1     
   31   12   13 1     
   32   12   32 1     
   33   12   33 1     
   34   13   14 1     
   35   13   34 1     
   36   13   35 1     
   37   14   15 1     
   38   14   36 1     
   39   14   37 1     
   40   15   38 1     
   41   15   39 1     
   42   16   17 1     
   43   17   40 1     
   44   17   41 1     
   45   17   42 1     
@<TRIPOS>SUBSTRUCTURE
      1 S1             1
@<TRIPOS>SET
DONOR_HYDROGENS      STATIC     ATOMS    <user>   **** ""
3 44 28 43
ATOM$RED        STATIC     ATOMS    COLORGROUP SYSTEM
3 44 28 43
