AV-unprocessed.smi:1089|AV-procd|sdf|4734|dock3
  -GOLD-   22720 3273D 1   1.00000     0.00000
 Structure written by MMmdl.
 18 19  0  0  0  0  0  0  0  0  2 V2000
  153.0172  138.3290  154.8393 C   0  0  0  0  0  0  0  0  0  0  0  0
  151.9593  137.5143  154.5505 N   0  0  0  0  0  0  0  0  0  0  0  0
  150.9657  138.3785  154.7018 C   0  0  0  0  0  0  0  0  0  0  0  0
  151.3645  139.6039  155.0487 N   0  0  0  0  0  0  0  0  0  0  0  0
  150.6068  140.7951  155.3020 C   0  0  0  0  0  0  0  0  0  0  0  0
  150.4751  141.3600  156.7159 C   0  0  0  0  0  0  0  0  0  0  0  0
  149.1303  141.7910  156.3536 N   0  3  0  0  0  0  0  0  0  0  0  0
  149.0788  140.7699  155.3144 C   0  0  0  0  0  0  0  0  0  0  0  0
  152.7152  139.5913  155.1444 N   0  0  0  0  0  0  0  0  0  0  0  0
  154.0399  137.9820  154.8243 H   0  0  0  0  0  0  0  0  0  0  0  0
  149.9290  138.1119  154.5567 H   0  0  0  0  0  0  0  0  0  0  0  0
  150.9746  141.5599  154.6136 H   0  0  0  0  0  0  0  0  0  0  0  0
  150.4626  140.5994  157.4991 H   0  0  0  0  0  0  0  0  0  0  0  0
  151.1563  142.1785  156.9497 H   0  0  0  0  0  0  0  0  0  0  0  0
  148.4473  141.6652  157.0871 H   0  0  0  0  0  0  0  0  0  0  0  0
  148.6056  141.1004  154.3895 H   0  0  0  0  0  0  0  0  0  0  0  0
  148.6527  139.8345  155.6823 H   0  0  0  0  0  0  0  0  0  0  0  0
  149.1336  142.7206  155.9589 H   0  0  0  0  0  0  0  0  0  0  0  0
  1  9  2  0  0  0  0
  1  2  1  0  0  0  0
  1 10  1  0  0  0  0
  2  3  2  0  0  0  0
  3  4  1  0  0  0  0
  3 11  1  0  0  0  0
  4  5  1  0  0  0  0
  4  9  1  0  0  0  0
  5  8  1  0  0  0  0
  5  6  1  0  0  0  0
  5 12  1  0  0  0  0
  6  7  1  0  0  0  0
  6 13  1  0  0  0  0
  6 14  1  0  0  0  0
  7  8  1  0  0  0  0
  7 15  1  0  0  0  0
  7 18  1  0  0  0  0
  8 16  1  0  0  0  0
  8 17  1  0  0  0  0
M  CHG  1   7   1
M  END
> <s_m_source_file>
AV-unprocessed.smi

> <i_m_source_file_index>
1089

> <i_lp_mmshare_version>
43012

> <i_f3d_flags>
0

> <s_epik_input>
bjFbY0hdbltjSF1uMVtDSF0yW0NIMl1bTkhdW0NIMl0y

> <s_epik_cmdline>
J2VwaWtfcHl0aG9uJywgJy1waCcsICc3LjAnLCAnLXRuJywgJzgnLCAnLW1hJywgJzIwMCcsICctbWV0YWxfYmluZGluZycsICctaW1hZScsICc8aW5maWxlLm1hZT4nLCAnLW9tYWUnLCAnPG91dGZpbGUubWFlPic=

> <r_lp_tautomer_probability>
1

> <r_epik_Ionization_Penalty>
0.0079223

> <r_epik_Ionization_Penalty_Charging>
0.00792139

> <r_epik_Ionization_Penalty_Neutral>
9.13162e-07

> <r_epik_State_Penalty>
0.00594323

> <r_epik_Charging_Adjusted_Penalty>
0.0138646

> <i_epik_Tot_Q>
1

> <i_epik_Tot_abs_Q>
1

> <r_epik_Metal_State_Penalty>
-0

> <b_epik_Metal_Only>
0

> <s_lp_Force_Field>
OPLS_2005

> <r_lp_Energy>
16.5639

> <b_lp_Chiralities_Consistent>
1

> <s_lp_Variant>
AV-unprocessed.smi:1089-1

> <Gold.Version>
5.8.1

> <Gold.Id.Protein>
6NUR|6NUR_protein|mol2

> <Gold.PLP.Fitness>
29.0346

> <Gold.PLP.PLP>
-17.8227

> <Gold.PLP.part.hbond>
-4.0000

> <Gold.PLP.part.metal>
0.0000

> <Gold.PLP.part.buried>
0.9421

> <Gold.PLP.part.nonpolar>
-15.2711

> <Gold.PLP.part.repulsive>
0.1804

> <Gold.PLP.ligand.clash>
0.0000

> <Gold.PLP.ligand.torsion>
0.1308

> <Gold.PLP.Chemscore.Hbond>
3.7426

> <Gold.PLP.Chemscore.CHOScore>
0.0000

> <Gold.PLP.Chemscore.Metal>
0.0000

> <Gold.Chemscore.Hbonds>
donor molecule, donor type, donor heavy atom, donor atom, acceptor molecule, acceptor atom, score
      L1  H     7    18       P1  8028  1.98
      P1  H  7997  8010       L1     9  1.00
      P1  H 10752 10765       L1     2  0.71

> <Gold.PLP.Chemscore.Internal.Correction>
0.2457

> <Gold.Rescore>
     Score         DG    S(hbond)    S(metal)    S(lipo)     H(rot)  DE(clash)    DE(int)     intcor
     10.77     -11.07       1.76        0.00      19.45       1.00       0.18       0.12       ----

> <Gold.Chemscore.Fitness>
10.7725

> <Gold.Chemscore.DG>
-11.0746

> <Gold.Chemscore.ZeroCoef>
-5.4800

> <Gold.Chemscore.Hbond>
1.7603

> <Gold.Chemscore.Metal>
0.0000

> <Gold.Chemscore.Lipo>
19.4460

> <Gold.Chemscore.Internal_Hbond>
0.0000

> <Gold.Chemscore.DEClash>
0.1783

> <Gold.Chemscore.DEInternal>
0.1238

> <Gold.Chemscore.Rot>
1.0000

> <Gold.Chemscore.Internal.Correction>
   9.000000E+99

> <Gold.Chemscore.Hbonds>
donor molecule, donor type, donor heavy atom, donor atom, acceptor molecule, acceptor atom, score
      L1  H     7    18       P1  8028  0.92
      P1  H  7997  8010       L1     9  0.25
      P1  H 10752 10765       L1     2  0.18

> <Gold.Chemscore.Hbond.Weighted>
-5.8794

> <Gold.Chemscore.Metal.Weighted>
-0.0000

> <Gold.Chemscore.Lipo.Weighted>
-2.2752

> <Gold.Chemscore.Internal_Hbond.Weighted>
0.0000

> <Gold.Chemscore.DEClash.Weighted>
0.1783

> <Gold.Chemscore.DEInternal.Weighted>
0.1238

> <Gold.Chemscore.Rot.Weighted>
2.5600

> <Gold.Chemscore.Internal.Correction.Weighted>
   9.000000E+99

> <Gold.Protein.RotatedTorsions>
[ 6907 6896 6895 6894 ] final  -81.27 input  -60.11 | X-H torsion
[ 7974 7965 7964 7962 ] final  -10.15 input  175.53 | X-H torsion
[ 8008 7997 7996 7995 ] final  106.09 input   59.86 | X-H torsion
[ 10167 10162 10161 10158 ] final  158.42 input  -65.29 | X-H torsion
[ 10718 10713 10712 10709 ] final  -82.16 input   66.30 | X-H torsion
[ 10763 10752 10751 10750 ] final  164.41 input  -60.55 | X-H torsion
[ 11005 11000 10999 10996 ] final    9.06 input  -57.11 | X-H torsion

> <Gold.Protein.ActiveResidues>
 VAL166  LYS551  ARG553  GLY616  TRP617  ASP618  TYR619  PRO620  LYS621  CYS622 
 ASP623  PHE694  ASN695  SER759  ASP760  ASP761  ALA762  ILE779  LEU786  VAL792 
 PHE793  MET794  SER795  GLU796  ALA797  LYS798  CYS799  TRP800  GLU811  SER814 

> <Gold.Protein.RotatedAtoms>
  150.6915  134.3843  159.5047 H   0  0  0  0  0  0  0  0  0  0  0  0  # atno 6907 bound_to 6896
  152.1641  134.8885  160.0548 H   0  0  0  0  0  0  0  0  0  0  0  0  # atno 6908 bound_to 6896
  151.9936  133.3765  159.4191 H   0  0  0  0  0  0  0  0  0  0  0  0  # atno 6909 bound_to 6896
  146.2230  140.2721  142.8357 H   0  0  0  0  0  0  0  0  0  0  0  0  # atno 7974 bound_to 7965
  156.1714  140.3119  155.8980 H   0  0  0  0  0  0  0  0  0  0  0  0  # atno 8008 bound_to 7997
  155.3579  140.0475  157.3063 H   0  0  0  0  0  0  0  0  0  0  0  0  # atno 8009 bound_to 7997
  154.5245  140.2209  155.8926 H   0  0  0  0  0  0  0  0  0  0  0  0  # atno 8010 bound_to 7997
  139.4827  144.4826  151.8423 H   0  0  0  0  0  0  0  0  0  0  0  0  # atno 10167 bound_to 10162
  156.0038  130.4626  150.4063 H   0  0  0  0  0  0  0  0  0  0  0  0  # atno 10718 bound_to 10713
  154.3085  135.2758  155.2577 H   0  0  0  0  0  0  0  0  0  0  0  0  # atno 10763 bound_to 10752
  154.4983  135.5815  153.6515 H   0  0  0  0  0  0  0  0  0  0  0  0  # atno 10764 bound_to 10752
  152.9891  135.6151  154.3260 H   0  0  0  0  0  0  0  0  0  0  0  0  # atno 10765 bound_to 10752
  140.5300  134.0476  155.7870 H   0  0  0  0  0  0  0  0  0  0  0  0  # atno 11005 bound_to 11000
  144.9260  140.7922  143.5718 LP  0  0  0  0  0  0  0  0  0  0  0  0  # atno 17320 bound_to 7965
  145.2661  139.1973  143.4866 LP  0  0  0  0  0  0  0  0  0  0  0  0  # atno 17321 bound_to 7965
  140.4303  144.2124  150.5888 LP  0  0  0  0  0  0  0  0  0  0  0  0  # atno 17342 bound_to 10162
  140.4786  143.2387  151.8988 LP  0  0  0  0  0  0  0  0  0  0  0  0  # atno 17343 bound_to 10162
  157.2128  131.0464  151.2589 LP  0  0  0  0  0  0  0  0  0  0  0  0  # atno 17370 bound_to 10713
  157.3873  130.7263  149.6672 LP  0  0  0  0  0  0  0  0  0  0  0  0  # atno 17371 bound_to 10713
  141.1287  133.9339  157.2582 LP  0  0  0  0  0  0  0  0  0  0  0  0  # atno 17394 bound_to 11000
  139.9559  135.0165  156.9127 LP  0  0  0  0  0  0  0  0  0  0  0  0  # atno 17395 bound_to 11000

$$$$
