AV-unprocessed.smi:3348|AV-procd|sdf|12915|dock4
  -GOLD-   2272019333D 1   1.00000     0.00000
 Structure written by MMmdl.
 47 48  0  0  0  0  0  0  0  0  2 V2000
  144.1269  136.5563  152.3000 C   0  0  0  0  0  0  0  0  0  0  0  0
  145.5643  136.2646  151.8479 C   0  0  2  0  0  0  0  0  0  0  0  0
  145.9275  134.7887  152.1226 C   0  0  0  0  0  0  0  0  0  0  0  0
  145.4670  133.8769  151.0910 N   0  0  0  0  0  0  0  0  0  0  0  0
  146.1751  132.8844  150.4464 C   0  0  0  0  0  0  0  0  0  0  0  0
  145.3224  132.2836  149.5656 C   0  0  0  0  0  0  0  0  0  0  0  0
  144.0956  132.9795  149.7540 C   0  0  0  0  0  0  0  0  0  0  0  0
  144.1849  133.9308  150.6699 N   0  0  0  0  0  0  0  0  0  0  0  0
  146.4884  137.1882  152.5452 N   0  3  0  0  0  0  0  0  0  0  0  0
  146.5848  137.0036  154.0089 C   0  0  0  0  0  0  0  0  0  0  0  0
  147.5584  138.0137  154.6220 C   0  0  0  0  0  0  0  0  0  0  0  0
  148.1193  138.7927  153.5758 O   0  0  0  0  0  0  0  0  0  0  0  0
  149.3001  139.5006  153.9345 C   0  0  2  0  0  0  0  0  0  0  0  0
  150.3432  138.5092  154.4937 C   0  0  0  0  0  0  0  0  0  0  0  0
  151.5854  139.2367  155.0278 C   0  0  0  0  0  0  0  0  0  0  0  0
  151.2001  140.2764  156.0889 C   0  0  0  0  0  0  0  0  0  0  0  0
  150.1711  141.2729  155.5349 C   0  0  0  0  0  0  0  0  0  0  0  0
  148.9156  140.5590  154.9939 C   0  0  1  0  0  0  0  0  0  0  0  0
  147.9100  141.5815  154.4399 C   0  0  0  0  0  0  0  0  0  0  0  0
  143.4141  135.9145  151.7813 H   0  0  0  0  0  0  0  0  0  0  0  0
  143.8499  137.5896  152.0886 H   0  0  0  0  0  0  0  0  0  0  0  0
  144.0045  136.3907  153.3711 H   0  0  0  0  0  0  0  0  0  0  0  0
  145.6062  136.4562  150.7743 H   0  0  0  0  0  0  0  0  0  0  0  0
  147.0071  134.6763  152.2310 H   0  0  0  0  0  0  0  0  0  0  0  0
  145.4885  134.4662  153.0680 H   0  0  0  0  0  0  0  0  0  0  0  0
  147.2152  132.6903  150.6638 H   0  0  0  0  0  0  0  0  0  0  0  0
  145.5398  131.4671  148.8928 H   0  0  0  0  0  0  0  0  0  0  0  0
  143.1495  132.8218  149.2572 H   0  0  0  0  0  0  0  0  0  0  0  0
  147.4142  137.0344  152.1712 H   0  0  0  0  0  0  0  0  0  0  0  0
  145.6023  137.1334  154.4606 H   0  0  0  0  0  0  0  0  0  0  0  0
  146.9091  135.9867  154.2335 H   0  0  0  0  0  0  0  0  0  0  0  0
  147.0424  138.6351  155.3541 H   0  0  0  0  0  0  0  0  0  0  0  0
  148.3543  137.4832  155.1466 H   0  0  0  0  0  0  0  0  0  0  0  0
  149.7110  140.0160  153.0639 H   0  0  0  0  0  0  0  0  0  0  0  0
  149.8953  137.9218  155.2963 H   0  0  0  0  0  0  0  0  0  0  0  0
  150.6498  137.7982  153.7273 H   0  0  0  0  0  0  0  0  0  0  0  0
  152.2863  138.5162  155.4503 H   0  0  0  0  0  0  0  0  0  0  0  0
  152.1046  139.7280  154.2040 H   0  0  0  0  0  0  0  0  0  0  0  0
  150.7890  139.7730  156.9650 H   0  0  0  0  0  0  0  0  0  0  0  0
  152.0891  140.8096  156.4268 H   0  0  0  0  0  0  0  0  0  0  0  0
  149.8910  141.9779  156.3184 H   0  0  0  0  0  0  0  0  0  0  0  0
  150.6310  141.8633  154.7410 H   0  0  0  0  0  0  0  0  0  0  0  0
  148.4387  140.0446  155.8297 H   0  0  0  0  0  0  0  0  0  0  0  0
  148.3268  142.1288  153.5937 H   0  0  0  0  0  0  0  0  0  0  0  0
  147.6322  142.3102  155.2019 H   0  0  0  0  0  0  0  0  0  0  0  0
  146.9928  141.0975  154.1035 H   0  0  0  0  0  0  0  0  0  0  0  0
  146.2174  138.1395  152.3411 H   0  0  0  0  0  0  0  0  0  0  0  0
  1  2  1  0  0  0  0
  1 20  1  0  0  0  0
  1 21  1  0  0  0  0
  1 22  1  0  0  0  0
  2  3  1  0  0  0  0
  2  9  1  0  0  0  0
  2 23  1  0  0  0  0
  3  4  1  0  0  0  0
  3 24  1  0  0  0  0
  3 25  1  0  0  0  0
  4  8  1  0  0  0  0
  4  5  1  0  0  0  0
  5  6  2  0  0  0  0
  5 26  1  0  0  0  0
  6  7  1  0  0  0  0
  6 27  1  0  0  0  0
  7  8  2  0  0  0  0
  7 28  1  0  0  0  0
  9 10  1  0  0  0  0
  9 29  1  0  0  0  0
  9 47  1  0  0  0  0
 10 11  1  0  0  0  0
 10 30  1  0  0  0  0
 10 31  1  0  0  0  0
 11 12  1  0  0  0  0
 11 32  1  0  0  0  0
 11 33  1  0  0  0  0
 12 13  1  0  0  0  0
 13 18  1  0  0  0  0
 13 14  1  0  0  0  0
 13 34  1  0  0  0  0
 14 15  1  0  0  0  0
 14 35  1  0  0  0  0
 14 36  1  0  0  0  0
 15 16  1  0  0  0  0
 15 37  1  0  0  0  0
 15 38  1  0  0  0  0
 16 17  1  0  0  0  0
 16 39  1  0  0  0  0
 16 40  1  0  0  0  0
 17 18  1  0  0  0  0
 17 41  1  0  0  0  0
 17 42  1  0  0  0  0
 18 19  1  0  0  0  0
 18 43  1  0  0  0  0
 19 44  1  0  0  0  0
 19 45  1  0  0  0  0
 19 46  1  0  0  0  0
M  CHG  1   9   1
M  END
> <s_m_source_file>
AV-unprocessed.smi

> <i_m_source_file_index>
3348

> <i_lp_mmshare_version>
43012

> <i_f3d_flags>
0

> <s_epik_input>
bjFbY0hdW2NIXVtjSF1uMVtDSDJdW0NAQEhdKFtDSDNdKVtOSF1bQ0gyXVtDSDJdT1tDQEBIXTJbQ0gyXVtDSDJdW0NIMl1bQ0gyXVtDQEhdMltDSDNd

> <s_epik_cmdline>
J2VwaWtfcHl0aG9uJywgJy1waCcsICc3LjAnLCAnLXRuJywgJzgnLCAnLW1hJywgJzIwMCcsICctbWV0YWxfYmluZGluZycsICctaW1hZScsICc8aW5maWxlLm1hZT4nLCAnLW9tYWUnLCAnPG91dGZpbGUubWFlPic=

> <r_lp_tautomer_probability>
1

> <r_epik_Ionization_Penalty>
0.00925088

> <r_epik_Ionization_Penalty_Charging>
0.00924645

> <r_epik_Ionization_Penalty_Neutral>
4.42413e-06

> <r_epik_State_Penalty>
0.0070118

> <r_epik_Charging_Adjusted_Penalty>
0.0162583

> <i_epik_Tot_Q>
1

> <i_epik_Tot_abs_Q>
1

> <r_epik_Metal_State_Penalty>
0.00701222

> <b_epik_Metal_Only>
0

> <s_lp_Force_Field>
OPLS_2005

> <r_lp_Energy>
16.8222

> <b_lp_Chiralities_Consistent>
1

> <s_lp_Variant>
AV-unprocessed.smi:3348-1

> <Gold.Version>
5.8.1

> <Gold.Id.Protein>
6NUR|6NUR_protein|mol2

> <Gold.PLP.Fitness>
45.9602

> <Gold.PLP.PLP>
-36.0954

> <Gold.PLP.part.hbond>
-1.0000

> <Gold.PLP.part.metal>
0.0000

> <Gold.PLP.part.buried>
-3.2223

> <Gold.PLP.part.nonpolar>
-33.3519

> <Gold.PLP.part.repulsive>
0.6590

> <Gold.PLP.ligand.clash>
0.0000

> <Gold.PLP.ligand.torsion>
0.8306

> <Gold.PLP.Chemscore.Hbond>
2.0000

> <Gold.PLP.Chemscore.CHOScore>
1.7670

> <Gold.PLP.Chemscore.Metal>
0.0000

> <Gold.Chemscore.Hbonds>
donor molecule, donor type, donor heavy atom, donor atom, acceptor molecule, acceptor atom, score
      L1  H     9    29       P1  7948  2.00
      L1  C     5    26       P1 10747  0.92
      L1  C     7    28       P1 10186  0.55

> <Gold.PLP.Chemscore.Internal.Correction>
0.2250

> <Gold.Rescore>
     Score         DG    S(hbond)    S(metal)    S(lipo)     H(rot)  DE(clash)    DE(int)     intcor
     14.18     -15.11       0.99        0.00      93.89       1.82       0.24       0.69       ----

> <Gold.Chemscore.Fitness>
14.1796

> <Gold.Chemscore.DG>
-15.1080

> <Gold.Chemscore.ZeroCoef>
-5.4800

> <Gold.Chemscore.Hbond>
0.9858

> <Gold.Chemscore.Metal>
0.0000

> <Gold.Chemscore.Lipo>
93.8905

> <Gold.Chemscore.Internal_Hbond>
0.0000

> <Gold.Chemscore.DEClash>
0.2380

> <Gold.Chemscore.DEInternal>
0.6903

> <Gold.Chemscore.Rot>
1.8163

> <Gold.Chemscore.Internal.Correction>
   9.000000E+99

> <Gold.Chemscore.Hbonds>
donor molecule, donor type, donor heavy atom, donor atom, acceptor molecule, acceptor atom, score
      L1  H     9    29       P1  7948  1.00

> <Gold.Chemscore.Hbond.Weighted>
-3.2925

> <Gold.Chemscore.Metal.Weighted>
-0.0000

> <Gold.Chemscore.Lipo.Weighted>
-10.9852

> <Gold.Chemscore.Internal_Hbond.Weighted>
0.0000

> <Gold.Chemscore.DEClash.Weighted>
0.2380

> <Gold.Chemscore.DEInternal.Weighted>
0.6903

> <Gold.Chemscore.Rot.Weighted>
4.6497

> <Gold.Chemscore.Internal.Correction.Weighted>
   9.000000E+99

> <Gold.Protein.RotatedTorsions>
[ 6907 6896 6895 6894 ] final   94.01 input  -60.11 | X-H torsion
[ 7974 7965 7964 7962 ] final -110.97 input  175.53 | X-H torsion
[ 8008 7997 7996 7995 ] final  -33.46 input   59.86 | X-H torsion
[ 10167 10162 10161 10158 ] final  -17.50 input  -65.29 | X-H torsion
[ 10718 10713 10712 10709 ] final  106.79 input   66.30 | X-H torsion
[ 10763 10752 10751 10750 ] final  128.33 input  -60.55 | X-H torsion
[ 11005 11000 10999 10996 ] final  102.85 input  -57.11 | X-H torsion

> <Gold.Protein.ActiveResidues>
 VAL166  LYS551  ARG553  GLY616  TRP617  ASP618  TYR619  PRO620  LYS621  CYS622 
 ASP623  PHE694  ASN695  SER759  ASP760  ASP761  ALA762  ILE779  LEU786  VAL792 
 PHE793  MET794  SER795  GLU796  ALA797  LYS798  CYS799  TRP800  GLU811  SER814 

> <Gold.Protein.RotatedAtoms>
  152.5451  134.1259  159.8418 H   0  0  0  0  0  0  0  0  0  0  0  0  # atno 6907 bound_to 6896
  151.1310  133.5030  159.2606 H   0  0  0  0  0  0  0  0  0  0  0  0  # atno 6908 bound_to 6896
  151.1675  135.0312  159.8792 H   0  0  0  0  0  0  0  0  0  0  0  0  # atno 6909 bound_to 6896
  145.1617  140.8882  143.3586 H   0  0  0  0  0  0  0  0  0  0  0  0  # atno 7974 bound_to 7965
  154.4148  140.1710  156.1891 H   0  0  0  0  0  0  0  0  0  0  0  0  # atno 8008 bound_to 7997
  155.9618  140.3393  155.6474 H   0  0  0  0  0  0  0  0  0  0  0  0  # atno 8009 bound_to 7997
  155.6738  140.0715  157.2501 H   0  0  0  0  0  0  0  0  0  0  0  0  # atno 8010 bound_to 7997
  140.7248  143.5009  150.9870 H   0  0  0  0  0  0  0  0  0  0  0  0  # atno 10167 bound_to 10162
  157.6654  131.0858  150.6059 H   0  0  0  0  0  0  0  0  0  0  0  0  # atno 10718 bound_to 10713
  153.7238  135.3249  155.3272 H   0  0  0  0  0  0  0  0  0  0  0  0  # atno 10763 bound_to 10752
  154.8347  135.4506  154.1190 H   0  0  0  0  0  0  0  0  0  0  0  0  # atno 10764 bound_to 10752
  153.2318  135.6961  153.7961 H   0  0  0  0  0  0  0  0  0  0  0  0  # atno 10765 bound_to 10752
  139.8780  134.9240  156.5121 H   0  0  0  0  0  0  0  0  0  0  0  0  # atno 11005 bound_to 11000
  145.0324  139.3330  143.6018 LP  0  0  0  0  0  0  0  0  0  0  0  0  # atno 17320 bound_to 7965
  146.3481  139.9666  142.8711 LP  0  0  0  0  0  0  0  0  0  0  0  0  # atno 17321 bound_to 7965
  139.8718  143.7182  152.3165 LP  0  0  0  0  0  0  0  0  0  0  0  0  # atno 17342 bound_to 10162
  139.7434  144.7553  151.0617 LP  0  0  0  0  0  0  0  0  0  0  0  0  # atno 17343 bound_to 10162
  156.6360  130.4445  149.5769 LP  0  0  0  0  0  0  0  0  0  0  0  0  # atno 17370 bound_to 10713
  156.2245  130.6757  151.1402 LP  0  0  0  0  0  0  0  0  0  0  0  0  # atno 17371 bound_to 10713
  140.8512  133.8130  155.9171 LP  0  0  0  0  0  0  0  0  0  0  0  0  # atno 17394 bound_to 11000
  140.9142  134.2223  157.4967 LP  0  0  0  0  0  0  0  0  0  0  0  0  # atno 17395 bound_to 11000

$$$$
