AV-unprocessed.smi:1629|AV-procd|sdf|6523|dock5
  -GOLD-   22720 7203D 1   1.00000     0.00000
 Structure written by MMmdl.
 43 44  0  0  0  0  0  0  0  0  2 V2000
  156.3612  131.9815  159.9719 C   0  0  0  0  0  0  0  0  0  0  0  0
  155.0616  132.1458  158.6844 S   0  0  0  0  0  0  0  0  0  0  0  0
  155.7739  132.1580  157.3964 O   0  0  0  0  0  0  0  0  0  0  0  0
  154.1205  131.0395  158.9221 O   0  0  0  0  0  0  0  0  0  0  0  0
  154.4400  133.5928  159.0725 N   0  5  0  0  0  0  0  0  0  0  0  0
  155.2909  134.7741  159.0664 C   0  0  0  0  0  0  0  0  0  0  0  0
  155.1666  135.5604  160.3996 C   0  0  0  0  0  0  0  0  0  0  0  0
  155.8596  136.9503  160.3581 C   0  0  0  0  0  0  0  0  0  0  0  0
  155.3275  137.7714  159.2473 N   0  0  0  0  0  0  0  0  0  0  0  0
  154.5881  138.9039  159.3499 C   0  0  0  0  0  0  0  0  0  0  0  0
  154.0048  139.4218  158.3966 O   0  0  0  0  0  0  0  0  0  0  0  0
  154.5333  139.4231  160.5856 N   0  0  0  0  0  0  0  0  0  0  0  0
  153.8144  140.6349  160.9586 C   0  0  0  0  0  0  0  0  0  0  0  0
  154.3328  141.8554  160.1790 C   0  0  0  0  0  0  0  0  0  0  0  0
  153.3416  143.0064  160.1319 C   0  0  0  0  0  0  0  0  0  0  0  0
  153.0949  143.6974  158.9257 C   0  0  0  0  0  0  0  0  0  0  0  0
  152.1544  144.7455  158.9334 C   0  0  0  0  0  0  0  0  0  0  0  0
  151.5013  145.0616  160.1402 C   0  0  0  0  0  0  0  0  0  0  0  0
  151.8176  144.3113  161.2903 C   0  0  0  0  0  0  0  0  0  0  0  0
  152.7163  143.3031  161.2931 N   0  0  0  0  0  0  0  0  0  0  0  0
  155.5883  137.1030  157.9589 C   0  0  0  0  0  0  0  0  0  0  0  0
  154.8855  135.7176  157.9036 C   0  0  0  0  0  0  0  0  0  0  0  0
  156.8805  131.0329  159.8408 H   0  0  0  0  0  0  0  0  0  0  0  0
  155.9009  132.0106  160.9590 H   0  0  0  0  0  0  0  0  0  0  0  0
  157.0723  132.8016  159.8769 H   0  0  0  0  0  0  0  0  0  0  0  0
  156.3401  134.5125  158.9234 H   0  0  0  0  0  0  0  0  0  0  0  0
  154.1128  135.7056  160.6432 H   0  0  0  0  0  0  0  0  0  0  0  0
  155.5889  134.9750  161.2164 H   0  0  0  0  0  0  0  0  0  0  0  0
  155.7575  137.4228  161.3347 H   0  0  0  0  0  0  0  0  0  0  0  0
  156.9373  136.8363  160.2225 H   0  0  0  0  0  0  0  0  0  0  0  0
  155.0338  138.9444  161.3203 H   0  0  0  0  0  0  0  0  0  0  0  0
  152.7533  140.4866  160.7537 H   0  0  0  0  0  0  0  0  0  0  0  0
  153.9112  140.8141  162.0305 H   0  0  0  0  0  0  0  0  0  0  0  0
  155.2649  142.2063  160.6235 H   0  0  0  0  0  0  0  0  0  0  0  0
  154.5795  141.5585  159.1587 H   0  0  0  0  0  0  0  0  0  0  0  0
  153.6084  143.4280  158.0142 H   0  0  0  0  0  0  0  0  0  0  0  0
  151.9373  145.2958  158.0297 H   0  0  0  0  0  0  0  0  0  0  0  0
  150.7746  145.8593  160.1838 H   0  0  0  0  0  0  0  0  0  0  0  0
  151.3354  144.5259  162.2324 H   0  0  0  0  0  0  0  0  0  0  0  0
  155.2543  137.7019  157.1108 H   0  0  0  0  0  0  0  0  0  0  0  0
  156.6668  136.9967  157.8245 H   0  0  0  0  0  0  0  0  0  0  0  0
  155.1024  135.2372  156.9489 H   0  0  0  0  0  0  0  0  0  0  0  0
  153.8063  135.8792  157.9227 H   0  0  0  0  0  0  0  0  0  0  0  0
  1  2  1  0  0  0  0
  1 23  1  0  0  0  0
  1 24  1  0  0  0  0
  1 25  1  0  0  0  0
  2  3  2  0  0  0  0
  2  4  2  0  0  0  0
  2  5  1  0  0  0  0
  5  6  1  0  0  0  0
  6 22  1  0  0  0  0
  6  7  1  0  0  0  0
  6 26  1  0  0  0  0
  7  8  1  0  0  0  0
  7 27  1  0  0  0  0
  7 28  1  0  0  0  0
  8  9  1  0  0  0  0
  8 29  1  0  0  0  0
  8 30  1  0  0  0  0
  9 10  1  0  0  0  0
  9 21  1  0  0  0  0
 10 11  2  0  0  0  0
 10 12  1  0  0  0  0
 12 13  1  0  0  0  0
 12 31  1  0  0  0  0
 13 14  1  0  0  0  0
 13 32  1  0  0  0  0
 13 33  1  0  0  0  0
 14 15  1  0  0  0  0
 14 34  1  0  0  0  0
 14 35  1  0  0  0  0
 15 20  1  0  0  0  0
 15 16  2  0  0  0  0
 16 17  1  0  0  0  0
 16 36  1  0  0  0  0
 17 18  2  0  0  0  0
 17 37  1  0  0  0  0
 18 19  1  0  0  0  0
 18 38  1  0  0  0  0
 19 20  2  0  0  0  0
 19 39  1  0  0  0  0
 21 22  1  0  0  0  0
 21 40  1  0  0  0  0
 21 41  1  0  0  0  0
 22 42  1  0  0  0  0
 22 43  1  0  0  0  0
M  CHG  1   5  -1
M  END
> <s_m_source_file>
AV-unprocessed.smi

> <i_m_source_file_index>
1629

> <i_lp_mmshare_version>
43012

> <i_f3d_flags>
0

> <s_epik_input>
W0NIM11TKD1PKSg9TylbTkhdW0NIXTFbQ0gyXVtDSDJdTihbQ0gyXVtDSDJdMSlDKD1PKVtOSF1bQ0gyXVtDSDJdYzJbY0hdW2NIXVtjSF1bY0hdbjI=

> <s_epik_cmdline>
J2VwaWtfcHl0aG9uJywgJy1waCcsICc3LjAnLCAnLXRuJywgJzgnLCAnLW1hJywgJzIwMCcsICctbWV0YWxfYmluZGluZycsICctaW1hZScsICc8aW5maWxlLm1hZT4nLCAnLW9tYWUnLCAnPG91dGZpbGUubWFlPic=

> <r_epik_Ionization_Penalty>
6.75298

> <r_epik_Ionization_Penalty_Charging>
6.70803

> <r_epik_Ionization_Penalty_Neutral>
0.0449518

> <r_epik_State_Penalty>
6.74601

> <r_epik_Charging_Adjusted_Penalty>
13.454

> <i_epik_Tot_Q>
-1

> <i_epik_Tot_abs_Q>
1

> <r_epik_Metal_State_Penalty>
2.70902

> <b_epik_Metal_Only>
1

> <s_lp_Force_Field>
OPLS_2005

> <r_lp_Energy>
26.8071

> <b_lp_Chiralities_Consistent>
1

> <s_lp_Variant>
AV-unprocessed.smi:1629-3

> <Gold.Version>
5.8.1

> <Gold.Id.Protein>
6NUR|6NUR_protein|mol2

> <Gold.PLP.Fitness>
43.2324

> <Gold.PLP.PLP>
-35.1095

> <Gold.PLP.part.hbond>
-2.0000

> <Gold.PLP.part.metal>
0.0000

> <Gold.PLP.part.buried>
-5.0236

> <Gold.PLP.part.nonpolar>
-28.1427

> <Gold.PLP.part.repulsive>
0.1095

> <Gold.PLP.ligand.clash>
0.0000

> <Gold.PLP.ligand.torsion>
0.9348

> <Gold.PLP.Chemscore.Hbond>
3.0000

> <Gold.PLP.Chemscore.CHOScore>
0.0000

> <Gold.PLP.Chemscore.Metal>
0.0000

> <Gold.Chemscore.Hbonds>
donor molecule, donor type, donor heavy atom, donor atom, acceptor molecule, acceptor atom, score
      P1  H  6896  6909       L1     5  1.98
      P1  H  7997  8009       L1    11  1.00

> <Gold.PLP.Chemscore.Internal.Correction>
0.9925

> <Gold.Rescore>
     Score         DG    S(hbond)    S(metal)    S(lipo)     H(rot)  DE(clash)    DE(int)     intcor
     18.45     -19.30       1.92        0.00     100.25       1.68       0.01       0.85       ----

> <Gold.Chemscore.Fitness>
18.4472

> <Gold.Chemscore.DG>
-19.3033

> <Gold.Chemscore.ZeroCoef>
-5.4800

> <Gold.Chemscore.Hbond>
1.9156

> <Gold.Chemscore.Metal>
0.0000

> <Gold.Chemscore.Lipo>
100.2518

> <Gold.Chemscore.Internal_Hbond>
0.0000

> <Gold.Chemscore.DEClash>
0.0052

> <Gold.Chemscore.DEInternal>
0.8509

> <Gold.Chemscore.Rot>
1.6813

> <Gold.Chemscore.Internal.Correction>
   9.000000E+99

> <Gold.Chemscore.Hbonds>
donor molecule, donor type, donor heavy atom, donor atom, acceptor molecule, acceptor atom, score
      P1  H  6896  6909       L1     5  0.88
      P1  H  7997  8009       L1    11  0.96

> <Gold.Chemscore.Hbond.Weighted>
-6.3981

> <Gold.Chemscore.Metal.Weighted>
-0.0000

> <Gold.Chemscore.Lipo.Weighted>
-11.7295

> <Gold.Chemscore.Internal_Hbond.Weighted>
0.0000

> <Gold.Chemscore.DEClash.Weighted>
0.0052

> <Gold.Chemscore.DEInternal.Weighted>
0.8509

> <Gold.Chemscore.Rot.Weighted>
4.3042

> <Gold.Chemscore.Internal.Correction.Weighted>
   9.000000E+99

> <Gold.Protein.RotatedTorsions>
[ 6907 6896 6895 6894 ] final -117.71 input  -60.11 | X-H torsion
[ 7974 7965 7964 7962 ] final -125.70 input  175.53 | X-H torsion
[ 8008 7997 7996 7995 ] final  156.71 input   59.86 | X-H torsion
[ 10167 10162 10161 10158 ] final  -55.67 input  -65.29 | X-H torsion
[ 10718 10713 10712 10709 ] final  -21.73 input   66.30 | X-H torsion
[ 10763 10752 10751 10750 ] final -147.76 input  -60.55 | X-H torsion
[ 11005 11000 10999 10996 ] final  -99.80 input  -57.11 | X-H torsion

> <Gold.Protein.ActiveResidues>
 VAL166  LYS551  ARG553  GLY616  TRP617  ASP618  TYR619  PRO620  LYS621  CYS622 
 ASP623  PHE694  ASN695  SER759  ASP760  ASP761  ALA762  ILE779  LEU786  VAL792 
 PHE793  MET794  SER795  GLU796  ALA797  LYS798  CYS799  TRP800  GLU811  SER814 

> <Gold.Protein.RotatedAtoms>
  150.8159  133.8338  159.3160 H   0  0  0  0  0  0  0  0  0  0  0  0  # atno 6907 bound_to 6896
  151.6110  135.1038  160.0090 H   0  0  0  0  0  0  0  0  0  0  0  0  # atno 6908 bound_to 6896
  152.4251  133.7140  159.6552 H   0  0  0  0  0  0  0  0  0  0  0  0  # atno 6909 bound_to 6896
  144.9949  140.7767  143.4531 H   0  0  0  0  0  0  0  0  0  0  0  0  # atno 7974 bound_to 7965
  156.2407  140.1905  156.6997 H   0  0  0  0  0  0  0  0  0  0  0  0  # atno 8008 bound_to 7997
  154.6191  140.0611  156.9619 H   0  0  0  0  0  0  0  0  0  0  0  0  # atno 8009 bound_to 7997
  155.1891  140.3283  155.4364 H   0  0  0  0  0  0  0  0  0  0  0  0  # atno 8010 bound_to 7997
  140.6361  143.2483  151.5114 H   0  0  0  0  0  0  0  0  0  0  0  0  # atno 10167 bound_to 10162
  156.5141  130.4617  149.6632 H   0  0  0  0  0  0  0  0  0  0  0  0  # atno 10718 bound_to 10713
  154.8269  135.3352  154.6868 H   0  0  0  0  0  0  0  0  0  0  0  0  # atno 10763 bound_to 10752
  153.7493  135.6940  153.4954 H   0  0  0  0  0  0  0  0  0  0  0  0  # atno 10764 bound_to 10752
  153.2188  135.4456  155.0415 H   0  0  0  0  0  0  0  0  0  0  0  0  # atno 10765 bound_to 10752
  141.1295  133.8350  157.1020 H   0  0  0  0  0  0  0  0  0  0  0  0  # atno 11005 bound_to 11000
  145.2234  139.2148  143.5081 LP  0  0  0  0  0  0  0  0  0  0  0  0  # atno 17320 bound_to 7965
  146.3439  140.2096  142.8590 LP  0  0  0  0  0  0  0  0  0  0  0  0  # atno 17321 bound_to 7965
  139.5572  144.2247  152.1631 LP  0  0  0  0  0  0  0  0  0  0  0  0  # atno 17342 bound_to 10162
  140.1504  144.5120  150.6691 LP  0  0  0  0  0  0  0  0  0  0  0  0  # atno 17343 bound_to 10162
  156.3212  130.7281  151.2193 LP  0  0  0  0  0  0  0  0  0  0  0  0  # atno 17370 bound_to 10713
  157.7446  131.0455  150.4847 LP  0  0  0  0  0  0  0  0  0  0  0  0  # atno 17371 bound_to 10713
  140.0328  134.9893  157.0813 LP  0  0  0  0  0  0  0  0  0  0  0  0  # atno 17394 bound_to 11000
  140.4258  134.1832  155.7166 LP  0  0  0  0  0  0  0  0  0  0  0  0  # atno 17395 bound_to 11000

$$$$
