AV-unprocessed.smi:946|AV-procd|sdf|4234|dock3
  -GOLD-   22720 2143D 1   1.00000     0.00000
 Structure written by MMmdl.
 42 43  0  0  0  0  0  0  0  0  1 V2000
  150.9709  138.9868  154.7047 C   0  0  0  0  0  0  0  0  0  0  0  0
  151.5472  138.1471  155.8546 C   0  0  2  0  0  0  0  0  0  0  0  0
  150.4571  137.4865  156.4912 O   0  0  0  0  0  0  0  0  0  0  0  0
  150.7392  136.9404  157.7746 C   0  0  0  0  0  0  0  0  0  0  0  0
  149.4656  136.2802  158.3179 C   0  0  2  0  0  0  0  0  0  0  0  0
  149.2816  136.5371  159.8267 C   0  0  0  0  0  0  0  0  0  0  0  0
  148.0520  135.7890  160.3551 C   0  0  0  0  0  0  0  0  0  0  0  0
  148.1462  134.3069  159.9774 C   0  0  0  0  0  0  0  0  0  0  0  0
  148.3969  134.1565  158.4688 C   0  0  0  0  0  0  0  0  0  0  0  0
  149.5705  134.8745  158.1010 O   0  0  0  0  0  0  0  0  0  0  0  0
  152.3049  139.0226  156.8660 C   0  0  0  0  0  0  0  0  0  0  0  0
  153.4954  138.8028  157.0918 O   0  0  0  0  0  0  0  0  0  0  0  0
  151.5888  140.0102  157.4357 N   0  0  0  0  0  0  0  0  0  0  0  0
  152.0135  140.9574  158.4043 C   0  0  0  0  0  0  0  0  0  0  0  0
  153.0170  140.5032  159.2882 C   0  0  0  0  0  0  0  0  0  0  0  0
  153.5061  141.3705  160.2831 C   0  0  0  0  0  0  0  0  0  0  0  0
  152.9815  142.6722  160.3686 C   0  0  0  0  0  0  0  0  0  0  0  0
  151.9824  143.0524  159.4474 C   0  0  0  0  0  0  0  0  0  0  0  0
  151.3643  144.4432  159.4677 C   0  0  0  0  0  0  0  0  0  0  0  0
  151.8931  145.2047  160.4266 F   0  0  0  0  0  0  0  0  0  0  0  0
  151.5676  145.0421  158.2940 F   0  0  0  0  0  0  0  0  0  0  0  0
  150.0516  144.3489  159.6805 F   0  0  0  0  0  0  0  0  0  0  0  0
  151.5152  142.2149  158.4941 N   0  0  0  0  0  0  0  0  0  0  0  0
  151.7543  139.5417  154.1871 H   0  0  0  0  0  0  0  0  0  0  0  0
  150.2312  139.7041  155.0624 H   0  0  0  0  0  0  0  0  0  0  0  0
  150.4798  138.3482  153.9702 H   0  0  0  0  0  0  0  0  0  0  0  0
  152.2235  137.4046  155.4260 H   0  0  0  0  0  0  0  0  0  0  0  0
  151.5492  136.2115  157.7164 H   0  0  0  0  0  0  0  0  0  0  0  0
  151.0572  137.7308  158.4552 H   0  0  0  0  0  0  0  0  0  0  0  0
  148.6036  136.6736  157.7760 H   0  0  0  0  0  0  0  0  0  0  0  0
  150.1694  136.2069  160.3678 H   0  0  0  0  0  0  0  0  0  0  0  0
  149.1773  137.6052  160.0197 H   0  0  0  0  0  0  0  0  0  0  0  0
  147.9703  135.9029  161.4365 H   0  0  0  0  0  0  0  0  0  0  0  0
  147.1480  136.2208  159.9242 H   0  0  0  0  0  0  0  0  0  0  0  0
  148.9611  133.8379  160.5301 H   0  0  0  0  0  0  0  0  0  0  0  0
  147.2325  133.7855  160.2632 H   0  0  0  0  0  0  0  0  0  0  0  0
  148.5327  133.1052  158.2146 H   0  0  0  0  0  0  0  0  0  0  0  0
  147.5424  134.5151  157.8931 H   0  0  0  0  0  0  0  0  0  0  0  0
  150.6279  140.0929  157.1378 H   0  0  0  0  0  0  0  0  0  0  0  0
  153.4103  139.5001  159.2093 H   0  0  0  0  0  0  0  0  0  0  0  0
  154.2721  141.0415  160.9696 H   0  0  0  0  0  0  0  0  0  0  0  0
  153.3421  143.3550  161.1238 H   0  0  0  0  0  0  0  0  0  0  0  0
  1  2  1  0  0  0  0
  1 24  1  0  0  0  0
  1 25  1  0  0  0  0
  1 26  1  0  0  0  0
  2  3  1  0  0  0  0
  2 11  1  0  0  0  0
  2 27  1  0  0  0  0
  3  4  1  0  0  0  0
  4  5  1  0  0  0  0
  4 28  1  0  0  0  0
  4 29  1  0  0  0  0
  5 10  1  0  0  0  0
  5  6  1  0  0  0  0
  5 30  1  0  0  0  0
  6  7  1  0  0  0  0
  6 31  1  0  0  0  0
  6 32  1  0  0  0  0
  7  8  1  0  0  0  0
  7 33  1  0  0  0  0
  7 34  1  0  0  0  0
  8  9  1  0  0  0  0
  8 35  1  0  0  0  0
  8 36  1  0  0  0  0
  9 10  1  0  0  0  0
  9 37  1  0  0  0  0
  9 38  1  0  0  0  0
 11 12  2  0  0  0  0
 11 13  1  0  0  0  0
 13 14  1  0  0  0  0
 13 39  1  0  0  0  0
 14 23  1  0  0  0  0
 14 15  2  0  0  0  0
 15 16  1  0  0  0  0
 15 40  1  0  0  0  0
 16 17  2  0  0  0  0
 16 41  1  0  0  0  0
 17 18  1  0  0  0  0
 17 42  1  0  0  0  0
 18 19  1  0  0  0  0
 18 23  2  0  0  0  0
 19 20  1  0  0  0  0
 19 21  1  0  0  0  0
 19 22  1  0  0  0  0
M  END
> <s_m_source_file>
AV-unprocessed.smi

> <i_m_source_file_index>
946

> <i_lp_mmshare_version>
43012

> <i_f3d_flags>
0

> <s_epik_input>
TzFbQ0gyXVtDSDJdW0NIMl1bQ0gyXVtDQEhdMVtDSDJdT1tDQEBIXShbQ0gzXSlDKD1PKVtOSF1jMltjSF1bY0hdW2NIXWMobjIpQyhGKShGKUY=

> <s_epik_cmdline>
J2VwaWtfcHl0aG9uJywgJy1waCcsICc3LjAnLCAnLXRuJywgJzgnLCAnLW1hJywgJzIwMCcsICctbWV0YWxfYmluZGluZycsICctaW1hZScsICc8aW5maWxlLm1hZT4nLCAnLW9tYWUnLCAnPG91dGZpbGUubWFlPic=

> <r_lp_tautomer_probability>
1

> <r_epik_Ionization_Penalty>
1.32683e-06

> <r_epik_Ionization_Penalty_Charging>
0

> <r_epik_Ionization_Penalty_Neutral>
1.32683e-06

> <r_epik_State_Penalty>
-0

> <r_epik_Charging_Adjusted_Penalty>
0

> <i_epik_Tot_Q>
0

> <i_epik_Tot_abs_Q>
0

> <r_epik_Metal_State_Penalty>
-0

> <b_epik_Metal_Only>
0

> <s_lp_Force_Field>
OPLS_2005

> <r_lp_Energy>
15.1486

> <b_lp_Chiralities_Consistent>
1

> <s_lp_Variant>
AV-unprocessed.smi:946-1

> <Gold.Version>
5.8.1

> <Gold.Id.Protein>
6NUR|6NUR_protein|mol2

> <Gold.PLP.Fitness>
49.2308

> <Gold.PLP.PLP>
-44.8561

> <Gold.PLP.part.hbond>
-2.0000

> <Gold.PLP.part.metal>
0.0000

> <Gold.PLP.part.buried>
-7.0938

> <Gold.PLP.part.nonpolar>
-36.0354

> <Gold.PLP.part.repulsive>
0.0842

> <Gold.PLP.ligand.clash>
0.0000

> <Gold.PLP.ligand.torsion>
0.8883

> <Gold.PLP.Chemscore.Hbond>
2.0000

> <Gold.PLP.Chemscore.CHOScore>
0.0000

> <Gold.PLP.Chemscore.Metal>
0.0000

> <Gold.Chemscore.Hbonds>
donor molecule, donor type, donor heavy atom, donor atom, acceptor molecule, acceptor atom, score
      P1  H  6896  6908       L1    10  0.85
      P1  H  7997  8009       L1    12  1.00

> <Gold.PLP.Chemscore.Internal.Correction>
0.1513

> <Gold.Rescore>
     Score         DG    S(hbond)    S(metal)    S(lipo)     H(rot)  DE(clash)    DE(int)     intcor
     14.64     -16.95       1.60        0.00      90.83       1.76       0.07       2.23       ----

> <Gold.Chemscore.Fitness>
14.6438

> <Gold.Chemscore.DG>
-16.9475

> <Gold.Chemscore.ZeroCoef>
-5.4800

> <Gold.Chemscore.Hbond>
1.5973

> <Gold.Chemscore.Metal>
0.0000

> <Gold.Chemscore.Lipo>
90.8301

> <Gold.Chemscore.Internal_Hbond>
0.0000

> <Gold.Chemscore.DEClash>
0.0692

> <Gold.Chemscore.DEInternal>
2.2345

> <Gold.Chemscore.Rot>
1.7557

> <Gold.Chemscore.Internal.Correction>
   9.000000E+99

> <Gold.Chemscore.Hbonds>
donor molecule, donor type, donor heavy atom, donor atom, acceptor molecule, acceptor atom, score
      P1  H  6896  6908       L1    10  0.09
      P1  H  7997  8009       L1    12  0.70

> <Gold.Chemscore.Hbond.Weighted>
-5.3350

> <Gold.Chemscore.Metal.Weighted>
-0.0000

> <Gold.Chemscore.Lipo.Weighted>
-10.6271

> <Gold.Chemscore.Internal_Hbond.Weighted>
0.0000

> <Gold.Chemscore.DEClash.Weighted>
0.0692

> <Gold.Chemscore.DEInternal.Weighted>
2.2345

> <Gold.Chemscore.Rot.Weighted>
4.4946

> <Gold.Chemscore.Internal.Correction.Weighted>
   9.000000E+99

> <Gold.Protein.RotatedTorsions>
[ 6907 6896 6895 6894 ] final  143.61 input  -60.11 | X-H torsion
[ 7974 7965 7964 7962 ] final  -85.60 input  175.53 | X-H torsion
[ 8008 7997 7996 7995 ] final -177.74 input   59.86 | X-H torsion
[ 10167 10162 10161 10158 ] final  -19.94 input  -65.29 | X-H torsion
[ 10718 10713 10712 10709 ] final   82.78 input   66.30 | X-H torsion
[ 10763 10752 10751 10750 ] final  115.10 input  -60.55 | X-H torsion
[ 11005 11000 10999 10996 ] final  -49.18 input  -57.11 | X-H torsion

> <Gold.Protein.ActiveResidues>
 VAL166  LYS551  ARG553  GLY616  TRP617  ASP618  TYR619  PRO620  LYS621  CYS622 
 ASP623  PHE694  ASN695  SER759  ASP760  ASP761  ALA762  ILE779  LEU786  VAL792 
 PHE793  MET794  SER795  GLU796  ALA797  LYS798  CYS799  TRP800  GLU811  SER814 

> <Gold.Protein.RotatedAtoms>
  152.2041  133.4862  159.5073 H   0  0  0  0  0  0  0  0  0  0  0  0  # atno 6907 bound_to 6896
  150.6976  134.1553  159.4164 H   0  0  0  0  0  0  0  0  0  0  0  0  # atno 6908 bound_to 6896
  151.9471  135.0186  160.0590 H   0  0  0  0  0  0  0  0  0  0  0  0  # atno 6909 bound_to 6896
  145.4911  140.9552  143.1811 H   0  0  0  0  0  0  0  0  0  0  0  0  # atno 7974 bound_to 7965
  156.0106  140.1240  157.0458 H   0  0  0  0  0  0  0  0  0  0  0  0  # atno 8008 bound_to 7997
  154.4274  140.1088  156.5893 H   0  0  0  0  0  0  0  0  0  0  0  0  # atno 8009 bound_to 7997
  155.6085  140.3471  155.4617 H   0  0  0  0  0  0  0  0  0  0  0  0  # atno 8010 bound_to 7997
  140.7272  143.4770  151.0169 H   0  0  0  0  0  0  0  0  0  0  0  0  # atno 10167 bound_to 10162
  157.6865  131.0062  150.2425 H   0  0  0  0  0  0  0  0  0  0  0  0  # atno 10718 bound_to 10713
  153.5172  135.3605  155.2614 H   0  0  0  0  0  0  0  0  0  0  0  0  # atno 10763 bound_to 10752
  154.8738  135.4037  154.3301 H   0  0  0  0  0  0  0  0  0  0  0  0  # atno 10764 bound_to 10752
  153.3965  135.7073  153.6524 H   0  0  0  0  0  0  0  0  0  0  0  0  # atno 10765 bound_to 10752
  141.0744  133.6670  156.3549 H   0  0  0  0  0  0  0  0  0  0  0  0  # atno 11005 bound_to 11000
  144.7833  139.6479  143.7145 LP  0  0  0  0  0  0  0  0  0  0  0  0  # atno 17320 bound_to 7965
  146.2283  139.5765  142.9572 LP  0  0  0  0  0  0  0  0  0  0  0  0  # atno 17321 bound_to 7965
  139.8466  143.7493  152.3179 LP  0  0  0  0  0  0  0  0  0  0  0  0  # atno 17342 bound_to 10162
  139.7661  144.7491  151.0293 LP  0  0  0  0  0  0  0  0  0  0  0  0  # atno 17343 bound_to 10162
  156.3037  130.3762  149.7726 LP  0  0  0  0  0  0  0  0  0  0  0  0  # atno 17370 bound_to 10713
  156.5348  130.8274  151.3249 LP  0  0  0  0  0  0  0  0  0  0  0  0  # atno 17371 bound_to 10713
  140.5604  134.5940  157.5432 LP  0  0  0  0  0  0  0  0  0  0  0  0  # atno 17394 bound_to 11000
  139.9557  134.7540  156.0348 LP  0  0  0  0  0  0  0  0  0  0  0  0  # atno 17395 bound_to 11000

$$$$
