AV-unprocessed.smi:1623|AV-procd|sdf|6502|dock2
  -GOLD-   22720 7163D 1   1.00000     0.00000
 Structure written by MMmdl.
 42 43  0  0  0  0  0  0  0  0  1 V2000
  147.6259  135.3279  163.6129 C   0  0  0  0  0  0  0  0  0  0  0  0
  147.8905  134.9450  162.1817 C   0  0  0  0  0  0  0  0  0  0  0  0
  148.5504  135.7953  161.4657 N   0  0  0  0  0  0  0  0  0  0  0  0
  148.8473  135.5419  160.1419 N   0  0  0  0  0  0  0  0  0  0  0  0
  149.5839  136.6235  159.4793 C   0  0  0  0  0  0  0  0  0  0  0  0
  148.7010  137.3808  158.4619 C   0  0  1  0  0  0  0  0  0  0  0  0
  147.6206  137.9760  159.1518 O   0  0  0  0  0  0  0  0  0  0  0  0
  149.4718  138.5067  157.7588 C   0  0  0  0  0  0  0  0  0  0  0  0
  149.7630  139.5145  158.7157 O   0  0  0  0  0  0  0  0  0  0  0  0
  151.0978  139.4878  159.1988 C   0  0  0  0  0  0  0  0  0  0  0  0
  151.6778  140.8767  159.4239 C   0  0  0  0  0  0  0  0  0  0  0  0
  150.9146  142.0104  159.0706 C   0  0  0  0  0  0  0  0  0  0  0  0
  151.4289  143.3057  159.2698 C   0  0  0  0  0  0  0  0  0  0  0  0
  152.7125  143.4757  159.8208 C   0  0  0  0  0  0  0  0  0  0  0  0
  153.4814  142.3496  160.1702 C   0  0  0  0  0  0  0  0  0  0  0  0
  152.9709  141.0506  159.9735 C   0  0  0  0  0  0  0  0  0  0  0  0
  153.9496  139.6949  160.4136 Cl  0  0  0  0  0  0  0  0  0  0  0  0
  148.4936  134.4104  159.4676 C   0  0  0  0  0  0  0  0  0  0  0  0
  148.7761  134.2291  158.2822 O   0  0  0  0  0  0  0  0  0  0  0  0
  147.7463  133.4514  160.2842 C   0  0  0  0  0  0  0  0  0  0  0  0
  147.3534  132.2528  159.6161 C   0  0  0  0  0  0  0  0  0  0  0  0
  147.0496  131.2700  159.0851 N   0  0  0  0  0  0  0  0  0  0  0  0
  147.4453  133.6892  161.5856 C   0  0  0  0  0  0  0  0  0  0  0  0
  146.6691  132.7281  162.4756 C   0  0  0  0  0  0  0  0  0  0  0  0
  146.5547  135.3715  163.8107 H   0  0  0  0  0  0  0  0  0  0  0  0
  148.0451  136.3055  163.8565 H   0  0  0  0  0  0  0  0  0  0  0  0
  148.0679  134.6017  164.2958 H   0  0  0  0  0  0  0  0  0  0  0  0
  150.0124  137.3136  160.2091 H   0  0  0  0  0  0  0  0  0  0  0  0
  150.4503  136.1922  158.9747 H   0  0  0  0  0  0  0  0  0  0  0  0
  148.2979  136.7056  157.7058 H   0  0  0  0  0  0  0  0  0  0  0  0
  147.6846  138.9139  159.0543 H   0  0  0  0  0  0  0  0  0  0  0  0
  150.4100  138.1297  157.3483 H   0  0  0  0  0  0  0  0  0  0  0  0
  148.8847  138.9001  156.9274 H   0  0  0  0  0  0  0  0  0  0  0  0
  151.1022  138.9597  160.1527 H   0  0  0  0  0  0  0  0  0  0  0  0
  151.7286  138.9054  158.5255 H   0  0  0  0  0  0  0  0  0  0  0  0
  149.9276  141.8907  158.6480 H   0  0  0  0  0  0  0  0  0  0  0  0
  150.8383  144.1686  158.9995 H   0  0  0  0  0  0  0  0  0  0  0  0
  153.1079  144.4689  159.9739 H   0  0  0  0  0  0  0  0  0  0  0  0
  154.4671  142.4839  160.5908 H   0  0  0  0  0  0  0  0  0  0  0  0
  146.3756  131.8217  161.9468 H   0  0  0  0  0  0  0  0  0  0  0  0
  145.7580  133.1996  162.8455 H   0  0  0  0  0  0  0  0  0  0  0  0
  147.2732  132.4263  163.3316 H   0  0  0  0  0  0  0  0  0  0  0  0
  1  2  1  0  0  0  0
  1 25  1  0  0  0  0
  1 26  1  0  0  0  0
  1 27  1  0  0  0  0
  2 23  1  0  0  0  0
  2  3  2  0  0  0  0
  3  4  1  0  0  0  0
  4  5  1  0  0  0  0
  4 18  1  0  0  0  0
  5  6  1  0  0  0  0
  5 28  1  0  0  0  0
  5 29  1  0  0  0  0
  6  7  1  0  0  0  0
  6  8  1  0  0  0  0
  6 30  1  0  0  0  0
  7 31  1  0  0  0  0
  8  9  1  0  0  0  0
  8 32  1  0  0  0  0
  8 33  1  0  0  0  0
  9 10  1  0  0  0  0
 10 11  1  0  0  0  0
 10 34  1  0  0  0  0
 10 35  1  0  0  0  0
 11 16  1  0  0  0  0
 11 12  2  0  0  0  0
 12 13  1  0  0  0  0
 12 36  1  0  0  0  0
 13 14  2  0  0  0  0
 13 37  1  0  0  0  0
 14 15  1  0  0  0  0
 14 38  1  0  0  0  0
 15 16  2  0  0  0  0
 15 39  1  0  0  0  0
 16 17  1  0  0  0  0
 18 19  2  0  0  0  0
 18 20  1  0  0  0  0
 20 21  1  0  0  0  0
 20 23  2  0  0  0  0
 21 22  3  0  0  0  0
 23 24  1  0  0  0  0
 24 40  1  0  0  0  0
 24 41  1  0  0  0  0
 24 42  1  0  0  0  0
M  END
> <s_m_source_file>
AV-unprocessed.smi

> <i_m_source_file_index>
1623

> <i_lp_mmshare_version>
43012

> <i_f3d_flags>
0

> <s_epik_input>
TiNDYyhjMVtDSDNdKWMoPU8pbihuYzFbQ0gzXSlbQ0gyXVtDQEhdKFtPSF0pW0NIMl1PW0NIMl1jMltjSF1bY0hdW2NIXVtjSF1jMkNs

> <s_epik_cmdline>
J2VwaWtfcHl0aG9uJywgJy1waCcsICc3LjAnLCAnLXRuJywgJzgnLCAnLW1hJywgJzIwMCcsICctbWV0YWxfYmluZGluZycsICctaW1hZScsICc8aW5maWxlLm1hZT4nLCAnLW9tYWUnLCAnPG91dGZpbGUubWFlPic=

> <r_lp_tautomer_probability>
1

> <r_epik_Ionization_Penalty>
6.50533e-08

> <r_epik_Ionization_Penalty_Charging>
2.19172e-10

> <r_epik_Ionization_Penalty_Neutral>
6.48342e-08

> <r_epik_State_Penalty>
-0

> <r_epik_Charging_Adjusted_Penalty>
2.19172e-10

> <i_epik_Tot_Q>
0

> <i_epik_Tot_abs_Q>
0

> <r_epik_Metal_State_Penalty>
-0

> <b_epik_Metal_Only>
0

> <s_lp_Force_Field>
OPLS_2005

> <r_lp_Energy>
29.8059

> <b_lp_Chiralities_Consistent>
1

> <s_lp_Variant>
AV-unprocessed.smi:1623-2

> <Gold.Version>
5.8.1

> <Gold.Id.Protein>
6NUR|6NUR_protein|mol2

> <Gold.PLP.Fitness>
52.7640

> <Gold.PLP.PLP>
-45.8795

> <Gold.PLP.part.hbond>
-3.6577

> <Gold.PLP.part.metal>
0.0000

> <Gold.PLP.part.buried>
-3.7251

> <Gold.PLP.part.nonpolar>
-40.2878

> <Gold.PLP.part.repulsive>
0.0000

> <Gold.PLP.ligand.clash>
0.0000

> <Gold.PLP.ligand.torsion>
0.7207

> <Gold.PLP.Chemscore.Hbond>
2.7040

> <Gold.PLP.Chemscore.CHOScore>
0.0000

> <Gold.PLP.Chemscore.Metal>
0.0000

> <Gold.PLP.Chemscore.Internal.Correction>
0.2139

> <Gold.Rescore>
     Score         DG    S(hbond)    S(metal)    S(lipo)     H(rot)  DE(clash)    DE(int)     intcor
     18.11     -18.90       1.68        0.00     120.92       2.48       0.24       0.54       ----

> <Gold.Chemscore.Fitness>
18.1119

> <Gold.Chemscore.DG>
-18.8965

> <Gold.Chemscore.ZeroCoef>
-5.4800

> <Gold.Chemscore.Hbond>
1.6802

> <Gold.Chemscore.Metal>
0.0000

> <Gold.Chemscore.Lipo>
120.9186

> <Gold.Chemscore.Internal_Hbond>
0.0000

> <Gold.Chemscore.DEClash>
0.2445

> <Gold.Chemscore.DEInternal>
0.5401

> <Gold.Chemscore.Rot>
2.4777

> <Gold.Chemscore.Internal.Correction>
   9.000000E+99

> <Gold.Chemscore.Hbond.Weighted>
-5.6118

> <Gold.Chemscore.Metal.Weighted>
-0.0000

> <Gold.Chemscore.Lipo.Weighted>
-14.1475

> <Gold.Chemscore.Internal_Hbond.Weighted>
0.0000

> <Gold.Chemscore.DEClash.Weighted>
0.2445

> <Gold.Chemscore.DEInternal.Weighted>
0.5401

> <Gold.Chemscore.Rot.Weighted>
6.3428

> <Gold.Chemscore.Internal.Correction.Weighted>
   9.000000E+99

> <Gold.Protein.RotatedTorsions>
[ 6907 6896 6895 6894 ] final   29.12 input  -60.11 | X-H torsion
[ 7974 7965 7964 7962 ] final  -46.30 input  175.53 | X-H torsion
[ 8008 7997 7996 7995 ] final   77.76 input   59.86 | X-H torsion
[ 10167 10162 10161 10158 ] final  150.41 input  -65.29 | X-H torsion
[ 10718 10713 10712 10709 ] final  -49.13 input   66.30 | X-H torsion
[ 10763 10752 10751 10750 ] final  -84.21 input  -60.55 | X-H torsion
[ 11005 11000 10999 10996 ] final   92.46 input  -57.11 | X-H torsion

> <Gold.Protein.ActiveResidues>
 VAL166  LYS551  ARG553  GLY616  TRP617  ASP618  TYR619  PRO620  LYS621  CYS622 
 ASP623  PHE694  ASN695  SER759  ASP760  ASP761  ALA762  ILE779  LEU786  VAL792 
 PHE793  MET794  SER795  GLU796  ALA797  LYS798  CYS799  TRP800  GLU811  SER814 

> <Gold.Protein.RotatedAtoms>
  152.0269  134.9790  160.0571 H   0  0  0  0  0  0  0  0  0  0  0  0  # atno 6907 bound_to 6896
  152.1282  133.4387  159.4716 H   0  0  0  0  0  0  0  0  0  0  0  0  # atno 6908 bound_to 6896
  150.6854  134.2371  159.4501 H   0  0  0  0  0  0  0  0  0  0  0  0  # atno 6909 bound_to 6896
  145.9733  140.7360  142.9400 H   0  0  0  0  0  0  0  0  0  0  0  0  # atno 7974 bound_to 7965
  155.8462  140.3460  155.5663 H   0  0  0  0  0  0  0  0  0  0  0  0  # atno 8008 bound_to 7997
  155.8087  140.0896  157.1936 H   0  0  0  0  0  0  0  0  0  0  0  0  # atno 8009 bound_to 7997
  154.4006  140.1452  156.3348 H   0  0  0  0  0  0  0  0  0  0  0  0  # atno 8010 bound_to 7997
  139.4850  144.5524  151.7377 H   0  0  0  0  0  0  0  0  0  0  0  0  # atno 10167 bound_to 10162
  156.1922  130.4153  149.9355 H   0  0  0  0  0  0  0  0  0  0  0  0  # atno 10718 bound_to 10713
  154.5969  135.5528  153.7334 H   0  0  0  0  0  0  0  0  0  0  0  0  # atno 10763 bound_to 10752
  153.0139  135.6357  154.1770 H   0  0  0  0  0  0  0  0  0  0  0  0  # atno 10764 bound_to 10752
  154.1711  135.2892  155.3061 H   0  0  0  0  0  0  0  0  0  0  0  0  # atno 10765 bound_to 10752
  139.8823  134.8734  156.3576 H   0  0  0  0  0  0  0  0  0  0  0  0  # atno 11005 bound_to 11000
  144.6842  140.2785  143.7295 LP  0  0  0  0  0  0  0  0  0  0  0  0  # atno 17320 bound_to 7965
  145.7875  139.1914  143.2122 LP  0  0  0  0  0  0  0  0  0  0  0  0  # atno 17321 bound_to 7965
  140.5080  144.1068  150.5987 LP  0  0  0  0  0  0  0  0  0  0  0  0  # atno 17342 bound_to 10162
  140.3984  143.2716  151.9977 LP  0  0  0  0  0  0  0  0  0  0  0  0  # atno 17343 bound_to 10162
  156.7092  130.8963  151.3607 LP  0  0  0  0  0  0  0  0  0  0  0  0  # atno 17370 bound_to 10713
  157.6936  130.9259  150.0582 LP  0  0  0  0  0  0  0  0  0  0  0  0  # atno 17371 bound_to 10713
  140.9551  133.7425  156.0325 LP  0  0  0  0  0  0  0  0  0  0  0  0  # atno 17394 bound_to 11000
  140.8058  134.3456  157.5426 LP  0  0  0  0  0  0  0  0  0  0  0  0  # atno 17395 bound_to 11000

$$$$
