AV-unprocessed.smi:1665|AV-procd|sdf|6670|dock6
  -GOLD-   22720 7383D 1   1.00000     0.00000
 Structure written by MMmdl.
 37 38  0  0  0  0  0  0  0  0  1 V2000
  149.5669  134.5104  156.3907 C   0  0  0  0  0  0  0  0  0  0  0  0
  150.3805  134.6221  155.0910 C   0  0  1  0  0  0  0  0  0  0  0  0
  150.0322  133.5316  154.0549 C   0  0  0  0  0  0  0  0  0  0  0  0
  150.6281  132.2446  154.3650 N   0  0  0  0  0  0  0  0  0  0  0  0
  150.4047  131.0267  153.7576 C   0  0  0  0  0  0  0  0  0  0  0  0
  151.1959  130.1082  154.3863 C   0  0  0  0  0  0  0  0  0  0  0  0
  151.8790  130.8706  155.3748 C   0  0  0  0  0  0  0  0  0  0  0  0
  151.5397  132.1494  155.3571 N   0  0  0  0  0  0  0  0  0  0  0  0
  150.1735  135.9463  154.5138 N   0  0  0  0  0  0  0  0  0  0  0  0
  150.2715  137.1075  155.1792 C   0  0  0  0  0  0  0  0  0  0  0  0
  150.6201  137.1922  156.3564 O   0  0  0  0  0  0  0  0  0  0  0  0
  149.8997  138.3707  154.4002 C   0  0  0  0  0  0  0  0  0  0  0  0
  151.0734  139.3629  154.2515 C   0  0  0  0  0  0  0  0  0  0  0  0
  151.0932  140.3754  155.3106 N   0  0  0  0  0  0  0  0  0  0  0  0
  150.0202  141.3571  155.3742 C   0  0  0  0  0  0  0  0  0  0  0  0
  150.0834  142.0190  156.7520 C   0  0  0  0  0  0  0  0  0  0  0  0
  151.7791  141.8657  157.3502 S   0  0  0  0  0  0  0  0  0  0  0  0
  152.1466  140.5339  156.2025 C   0  0  0  0  0  0  0  0  0  0  0  0
  153.1928  139.8903  156.2586 O   0  0  0  0  0  0  0  0  0  0  0  0
  149.7604  133.5680  156.9039 H   0  0  0  0  0  0  0  0  0  0  0  0
  148.4959  134.5706  156.1951 H   0  0  0  0  0  0  0  0  0  0  0  0
  149.8251  135.3134  157.0826 H   0  0  0  0  0  0  0  0  0  0  0  0
  151.4332  134.5213  155.3625 H   0  0  0  0  0  0  0  0  0  0  0  0
  148.9506  133.4029  153.9935 H   0  0  0  0  0  0  0  0  0  0  0  0
  150.3666  133.8300  153.0600 H   0  0  0  0  0  0  0  0  0  0  0  0
  149.7084  130.9161  152.9393 H   0  0  0  0  0  0  0  0  0  0  0  0
  151.2758  129.0528  154.1720 H   0  0  0  0  0  0  0  0  0  0  0  0
  152.6077  130.5360  156.0984 H   0  0  0  0  0  0  0  0  0  0  0  0
  149.8843  135.9791  153.5471 H   0  0  0  0  0  0  0  0  0  0  0  0
  149.5624  138.0635  153.4097 H   0  0  0  0  0  0  0  0  0  0  0  0
  149.0468  138.8635  154.8700 H   0  0  0  0  0  0  0  0  0  0  0  0
  152.0227  138.8248  154.2246 H   0  0  0  0  0  0  0  0  0  0  0  0
  150.9965  139.8675  153.2876 H   0  0  0  0  0  0  0  0  0  0  0  0
  150.1837  142.0974  154.5899 H   0  0  0  0  0  0  0  0  0  0  0  0
  149.0467  140.8974  155.1992 H   0  0  0  0  0  0  0  0  0  0  0  0
  149.7653  143.0615  156.7248 H   0  0  0  0  0  0  0  0  0  0  0  0
  149.4328  141.4896  157.4490 H   0  0  0  0  0  0  0  0  0  0  0  0
  1  2  1  0  0  0  0
  1 20  1  0  0  0  0
  1 21  1  0  0  0  0
  1 22  1  0  0  0  0
  2  3  1  0  0  0  0
  2  9  1  0  0  0  0
  2 23  1  0  0  0  0
  3  4  1  0  0  0  0
  3 24  1  0  0  0  0
  3 25  1  0  0  0  0
  4  8  1  0  0  0  0
  4  5  1  0  0  0  0
  5  6  2  0  0  0  0
  5 26  1  0  0  0  0
  6  7  1  0  0  0  0
  6 27  1  0  0  0  0
  7  8  2  0  0  0  0
  7 28  1  0  0  0  0
  9 10  1  0  0  0  0
  9 29  1  0  0  0  0
 10 11  2  0  0  0  0
 10 12  1  0  0  0  0
 12 13  1  0  0  0  0
 12 30  1  0  0  0  0
 12 31  1  0  0  0  0
 13 14  1  0  0  0  0
 13 32  1  0  0  0  0
 13 33  1  0  0  0  0
 14 18  1  0  0  0  0
 14 15  1  0  0  0  0
 15 16  1  0  0  0  0
 15 34  1  0  0  0  0
 15 35  1  0  0  0  0
 16 17  1  0  0  0  0
 16 36  1  0  0  0  0
 16 37  1  0  0  0  0
 17 18  1  0  0  0  0
 18 19  2  0  0  0  0
M  END
> <s_m_source_file>
AV-unprocessed.smi

> <i_m_source_file_index>
1665

> <i_lp_mmshare_version>
43012

> <i_f3d_flags>
0

> <s_epik_input>
bjFbY0hdW2NIXVtjSF1uMVtDSDJdW0NAQEhdKFtDSDNdKVtOSF1DKD1PKVtDSDJdW0NIMl1OMltDSDJdW0NIMl1TQzI9Tw==

> <s_epik_cmdline>
J2VwaWtfcHl0aG9uJywgJy1waCcsICc3LjAnLCAnLXRuJywgJzgnLCAnLW1hJywgJzIwMCcsICctbWV0YWxfYmluZGluZycsICctaW1hZScsICc8aW5maWxlLm1hZT4nLCAnLW9tYWUnLCAnPG91dGZpbGUubWFlPic=

> <r_lp_tautomer_probability>
1

> <r_epik_Ionization_Penalty>
0.000300775

> <r_epik_Ionization_Penalty_Charging>
0

> <r_epik_Ionization_Penalty_Neutral>
0.000300775

> <r_epik_State_Penalty>
-0

> <r_epik_Charging_Adjusted_Penalty>
0

> <i_epik_Tot_Q>
0

> <i_epik_Tot_abs_Q>
0

> <r_epik_Metal_State_Penalty>
-0

> <b_epik_Metal_Only>
0

> <s_lp_Force_Field>
OPLS_2005

> <r_lp_Energy>
3.63181

> <b_lp_Chiralities_Consistent>
1

> <s_lp_Variant>
AV-unprocessed.smi:1665-2

> <Gold.Version>
5.8.1

> <Gold.Id.Protein>
6NUR|6NUR_protein|mol2

> <Gold.PLP.Fitness>
41.2435

> <Gold.PLP.PLP>
-33.3080

> <Gold.PLP.part.hbond>
-2.0000

> <Gold.PLP.part.metal>
0.0000

> <Gold.PLP.part.buried>
-1.1168

> <Gold.PLP.part.nonpolar>
-27.6783

> <Gold.PLP.part.repulsive>
0.0494

> <Gold.PLP.ligand.clash>
0.0000

> <Gold.PLP.ligand.torsion>
0.5623

> <Gold.PLP.Chemscore.Hbond>
2.0000

> <Gold.PLP.Chemscore.CHOScore>
1.0000

> <Gold.PLP.Chemscore.Metal>
0.0000

> <Gold.Chemscore.Hbonds>
donor molecule, donor type, donor heavy atom, donor atom, acceptor molecule, acceptor atom, score
      L1  H     9    29       P1  7948  0.70
      P1  H  7997  8010       L1    19  0.11
      L1  C     5    26       P1 10747  0.26

> <Gold.PLP.Chemscore.Internal.Correction>
0.0601

> <Gold.Rescore>
     Score         DG    S(hbond)    S(metal)    S(lipo)     H(rot)  DE(clash)    DE(int)     intcor
     11.31     -13.40       1.92        0.00      61.21       2.20       0.14       1.95       ----

> <Gold.Chemscore.Fitness>
11.3089

> <Gold.Chemscore.DG>
-13.4016

> <Gold.Chemscore.ZeroCoef>
-5.4800

> <Gold.Chemscore.Hbond>
1.9159

> <Gold.Chemscore.Metal>
0.0000

> <Gold.Chemscore.Lipo>
61.2068

> <Gold.Chemscore.Internal_Hbond>
0.0000

> <Gold.Chemscore.DEClash>
0.1444

> <Gold.Chemscore.DEInternal>
1.9483

> <Gold.Chemscore.Rot>
2.2026

> <Gold.Chemscore.Internal.Correction>
   9.000000E+99

> <Gold.Chemscore.Hbonds>
donor molecule, donor type, donor heavy atom, donor atom, acceptor molecule, acceptor atom, score
      L1  H     9    29       P1  7948  0.07
      P1  H  7997  8010       L1    19  0.14

> <Gold.Chemscore.Hbond.Weighted>
-6.3991

> <Gold.Chemscore.Metal.Weighted>
-0.0000

> <Gold.Chemscore.Lipo.Weighted>
-7.1612

> <Gold.Chemscore.Internal_Hbond.Weighted>
0.0000

> <Gold.Chemscore.DEClash.Weighted>
0.1444

> <Gold.Chemscore.DEInternal.Weighted>
1.9483

> <Gold.Chemscore.Rot.Weighted>
5.6387

> <Gold.Chemscore.Internal.Correction.Weighted>
   9.000000E+99

> <Gold.Protein.RotatedTorsions>
[ 6907 6896 6895 6894 ] final  -28.11 input  -60.11 | X-H torsion
[ 7974 7965 7964 7962 ] final -167.06 input  175.53 | X-H torsion
[ 8008 7997 7996 7995 ] final   82.75 input   59.86 | X-H torsion
[ 10167 10162 10161 10158 ] final   34.65 input  -65.29 | X-H torsion
[ 10718 10713 10712 10709 ] final -159.23 input   66.30 | X-H torsion
[ 10763 10752 10751 10750 ] final   19.51 input  -60.55 | X-H torsion
[ 11005 11000 10999 10996 ] final  -25.85 input  -57.11 | X-H torsion

> <Gold.Protein.ActiveResidues>
 VAL166  LYS551  ARG553  GLY616  TRP617  ASP618  TYR619  PRO620  LYS621  CYS622 
 ASP623  PHE694  ASN695  SER759  ASP760  ASP761  ALA762  ILE779  LEU786  VAL792 
 PHE793  MET794  SER795  GLU796  ALA797  LYS798  CYS799  TRP800  GLU811  SER814 

> <Gold.Protein.RotatedAtoms>
  151.1376  135.0163  159.8610 H   0  0  0  0  0  0  0  0  0  0  0  0  # atno 6907 bound_to 6896
  152.5452  134.1537  159.8539 H   0  0  0  0  0  0  0  0  0  0  0  0  # atno 6908 bound_to 6896
  151.1610  133.4800  159.2627 H   0  0  0  0  0  0  0  0  0  0  0  0  # atno 6909 bound_to 6896
  144.7231  140.2575  143.6269 H   0  0  0  0  0  0  0  0  0  0  0  0  # atno 7974 bound_to 7965
  155.9147  140.3425  155.6126 H   0  0  0  0  0  0  0  0  0  0  0  0  # atno 8008 bound_to 7997
  155.7345  140.0799  157.2292 H   0  0  0  0  0  0  0  0  0  0  0  0  # atno 8009 bound_to 7997
  154.4061  140.1582  156.2533 H   0  0  0  0  0  0  0  0  0  0  0  0  # atno 8010 bound_to 7997
  140.4296  144.1344  150.6157 H   0  0  0  0  0  0  0  0  0  0  0  0  # atno 10167 bound_to 10162
  156.5652  130.8664  151.2821 H   0  0  0  0  0  0  0  0  0  0  0  0  # atno 10718 bound_to 10713
  153.1156  135.6707  153.9424 H   0  0  0  0  0  0  0  0  0  0  0  0  # atno 10763 bound_to 10752
  153.8954  135.3042  155.3449 H   0  0  0  0  0  0  0  0  0  0  0  0  # atno 10764 bound_to 10752
  154.7573  135.5005  153.9476 H   0  0  0  0  0  0  0  0  0  0  0  0  # atno 10765 bound_to 10752
  140.8976  133.7546  156.0501 H   0  0  0  0  0  0  0  0  0  0  0  0  # atno 11005 bound_to 11000
  145.8168  139.2026  143.1961 LP  0  0  0  0  0  0  0  0  0  0  0  0  # atno 17320 bound_to 7965
  146.0548  140.8032  142.9764 LP  0  0  0  0  0  0  0  0  0  0  0  0  # atno 17321 bound_to 7965
  140.4442  143.2513  151.9432 LP  0  0  0  0  0  0  0  0  0  0  0  0  # atno 17342 bound_to 10162
  139.4784  144.5625  151.8217 LP  0  0  0  0  0  0  0  0  0  0  0  0  # atno 17343 bound_to 10162
  157.7360  130.9771  150.2112 LP  0  0  0  0  0  0  0  0  0  0  0  0  # atno 17370 bound_to 10713
  156.2763  130.3728  149.7980 LP  0  0  0  0  0  0  0  0  0  0  0  0  # atno 17371 bound_to 10713
  140.8270  134.3222  157.5362 LP  0  0  0  0  0  0  0  0  0  0  0  0  # atno 17394 bound_to 11000
  139.8737  134.9342  156.3600 LP  0  0  0  0  0  0  0  0  0  0  0  0  # atno 17395 bound_to 11000

$$$$
