AV-unprocessed.smi:3116|AV-procd|sdf|11866|dock5
  -GOLD-   2272017243D 1   1.00000     0.00000
 Structure written by MMmdl.
 34 34  0  0  0  0  0  0  0  0  2 V2000
  147.8626  142.0078  156.9187 C   0  0  0  0  0  0  0  0  0  0  0  0
  148.4647  141.3972  155.6414 C   0  0  2  0  0  0  0  0  0  0  0  0
  149.8280  141.9234  155.3983 N   0  3  0  0  0  0  0  0  0  0  0  0
  150.9299  141.2305  156.1084 C   0  0  2  0  0  0  0  0  0  0  0  0
  150.8150  139.7234  155.8255 C   0  0  0  0  0  0  0  0  0  0  0  0
  150.8893  141.5582  157.6269 C   0  0  1  0  0  0  0  0  0  0  0  0
  151.1644  140.3335  158.5219 C   0  0  0  0  0  0  0  0  0  0  0  0
  151.8075  142.6394  157.9677 N   0  0  0  0  0  0  0  0  0  0  0  0
  151.9339  143.8731  157.3623 C   0  0  0  0  0  0  0  0  0  0  0  0
  152.9383  144.5416  158.0014 C   0  0  0  0  0  0  0  0  0  0  0  0
  153.3714  143.6269  159.0008 C   0  0  0  0  0  0  0  0  0  0  0  0
  152.6979  142.4883  158.9747 N   0  0  0  0  0  0  0  0  0  0  0  0
  147.5614  141.6791  154.4351 C   0  0  0  0  0  0  0  0  0  0  0  0
  147.4114  142.9559  154.0729 N   0  0  0  0  0  0  0  0  0  0  0  0
  147.0108  140.7603  153.8309 O   0  0  0  0  0  0  0  0  0  0  0  0
  146.8593  141.6235  157.1064 H   0  0  0  0  0  0  0  0  0  0  0  0
  147.7948  143.0944  156.8491 H   0  0  0  0  0  0  0  0  0  0  0  0
  148.4657  141.7708  157.7953 H   0  0  0  0  0  0  0  0  0  0  0  0
  148.5210  140.3148  155.7583 H   0  0  0  0  0  0  0  0  0  0  0  0
  150.0146  141.8557  154.4080 H   0  0  0  0  0  0  0  0  0  0  0  0
  151.8866  141.5629  155.7023 H   0  0  0  0  0  0  0  0  0  0  0  0
  151.6623  139.1696  156.2290 H   0  0  0  0  0  0  0  0  0  0  0  0
  150.7933  139.5288  154.7527 H   0  0  0  0  0  0  0  0  0  0  0  0
  149.9043  139.3057  156.2563 H   0  0  0  0  0  0  0  0  0  0  0  0
  149.8859  141.9130  157.8677 H   0  0  0  0  0  0  0  0  0  0  0  0
  150.3787  139.5838  158.4323 H   0  0  0  0  0  0  0  0  0  0  0  0
  151.2085  140.6206  159.5732 H   0  0  0  0  0  0  0  0  0  0  0  0
  152.1116  139.8558  158.2698 H   0  0  0  0  0  0  0  0  0  0  0  0
  151.3076  144.1704  156.5339 H   0  0  0  0  0  0  0  0  0  0  0  0
  153.3063  145.5346  157.7892 H   0  0  0  0  0  0  0  0  0  0  0  0
  154.1518  143.7541  159.7368 H   0  0  0  0  0  0  0  0  0  0  0  0
  146.8239  143.1967  153.2874 H   0  0  0  0  0  0  0  0  0  0  0  0
  147.8859  143.6816  154.5915 H   0  0  0  0  0  0  0  0  0  0  0  0
  149.8340  142.9012  155.6511 H   0  0  0  0  0  0  0  0  0  0  0  0
  1  2  1  0  0  0  0
  1 16  1  0  0  0  0
  1 17  1  0  0  0  0
  1 18  1  0  0  0  0
  2  3  1  0  0  0  0
  2 13  1  0  0  0  0
  2 19  1  0  0  0  0
  3  4  1  0  0  0  0
  3 20  1  0  0  0  0
  3 34  1  0  0  0  0
  4  5  1  0  0  0  0
  4  6  1  0  0  0  0
  4 21  1  0  0  0  0
  5 22  1  0  0  0  0
  5 23  1  0  0  0  0
  5 24  1  0  0  0  0
  6  7  1  0  0  0  0
  6  8  1  0  0  0  0
  6 25  1  0  0  0  0
  7 26  1  0  0  0  0
  7 27  1  0  0  0  0
  7 28  1  0  0  0  0
  8 12  1  0  0  0  0
  8  9  1  0  0  0  0
  9 10  2  0  0  0  0
  9 29  1  0  0  0  0
 10 11  1  0  0  0  0
 10 30  1  0  0  0  0
 11 12  2  0  0  0  0
 11 31  1  0  0  0  0
 13 14  1  0  0  0  0
 13 15  2  0  0  0  0
 14 32  1  0  0  0  0
 14 33  1  0  0  0  0
M  CHG  1   3   1
M  END
> <s_m_source_file>
AV-unprocessed.smi

> <i_m_source_file_index>
3116

> <i_lp_mmshare_version>
43012

> <i_f3d_flags>
0

> <s_epik_input>
W05IMl1DKD1PKVtDQEhdKFtDSDNdKVtOSF1bQ0BIXShbQ0gzXSlbQ0BIXShbQ0gzXSluMVtjSF1bY0hdW2NIXW4x

> <s_epik_cmdline>
J2VwaWtfcHl0aG9uJywgJy1waCcsICc3LjAnLCAnLXRuJywgJzgnLCAnLW1hJywgJzIwMCcsICctbWV0YWxfYmluZGluZycsICctaW1hZScsICc8aW5maWxlLm1hZT4nLCAnLW9tYWUnLCAnPG91dGZpbGUubWFlPic=

> <r_lp_tautomer_probability>
1

> <r_epik_Ionization_Penalty>
0.15658

> <r_epik_Ionization_Penalty_Charging>
0.156568

> <r_epik_Ionization_Penalty_Neutral>
1.19778e-05

> <r_epik_State_Penalty>
0.145866

> <r_epik_Charging_Adjusted_Penalty>
0.302434

> <i_epik_Tot_Q>
1

> <i_epik_Tot_abs_Q>
1

> <r_epik_Metal_State_Penalty>
0.146064

> <b_epik_Metal_Only>
0

> <s_lp_Force_Field>
OPLS_2005

> <r_lp_Energy>
9.52806

> <b_lp_Chiralities_Consistent>
1

> <s_lp_Variant>
AV-unprocessed.smi:3116-5

> <Gold.Version>
5.8.1

> <Gold.Id.Protein>
6NUR|6NUR_protein|mol2

> <Gold.PLP.Fitness>
43.1818

> <Gold.PLP.PLP>
-34.2100

> <Gold.PLP.part.hbond>
-2.0000

> <Gold.PLP.part.metal>
0.0000

> <Gold.PLP.part.buried>
-4.9776

> <Gold.PLP.part.nonpolar>
-27.6590

> <Gold.PLP.part.repulsive>
0.8612

> <Gold.PLP.ligand.clash>
0.0000

> <Gold.PLP.ligand.torsion>
1.5822

> <Gold.PLP.Chemscore.Hbond>
3.0000

> <Gold.PLP.Chemscore.CHOScore>
1.0000

> <Gold.PLP.Chemscore.Metal>
0.0000

> <Gold.Chemscore.Hbonds>
donor molecule, donor type, donor heavy atom, donor atom, acceptor molecule, acceptor atom, score
      L1  H     3    34       P1  8028  1.87
      L1  H    14    33       P1  8028  1.00
      L1  C     9    29       P1  8028  0.82

> <Gold.PLP.Chemscore.Internal.Correction>
0.1362

> <Gold.Rescore>
     Score         DG    S(hbond)    S(metal)    S(lipo)     H(rot)  DE(clash)    DE(int)     intcor
     11.80     -13.59       1.80        0.00      71.51       2.45       0.17       1.61       ----

> <Gold.Chemscore.Fitness>
11.8025

> <Gold.Chemscore.DG>
-13.5906

> <Gold.Chemscore.ZeroCoef>
-5.4800

> <Gold.Chemscore.Hbond>
1.7984

> <Gold.Chemscore.Metal>
0.0000

> <Gold.Chemscore.Lipo>
71.5134

> <Gold.Chemscore.Internal_Hbond>
0.0000

> <Gold.Chemscore.DEClash>
0.1740

> <Gold.Chemscore.DEInternal>
1.6141

> <Gold.Chemscore.Rot>
2.4465

> <Gold.Chemscore.Internal.Correction>
   9.000000E+99

> <Gold.Chemscore.Hbonds>
donor molecule, donor type, donor heavy atom, donor atom, acceptor molecule, acceptor atom, score
      L1  H     3    34       P1  8028  0.84
      L1  H    14    33       P1  8028  0.50

> <Gold.Chemscore.Hbond.Weighted>
-6.0066

> <Gold.Chemscore.Metal.Weighted>
-0.0000

> <Gold.Chemscore.Lipo.Weighted>
-8.3671

> <Gold.Chemscore.Internal_Hbond.Weighted>
0.0000

> <Gold.Chemscore.DEClash.Weighted>
0.1740

> <Gold.Chemscore.DEInternal.Weighted>
1.6141

> <Gold.Chemscore.Rot.Weighted>
6.2631

> <Gold.Chemscore.Internal.Correction.Weighted>
   9.000000E+99

> <Gold.Protein.RotatedTorsions>
[ 6907 6896 6895 6894 ] final  -18.48 input  -60.11 | X-H torsion
[ 7974 7965 7964 7962 ] final -163.10 input  175.53 | X-H torsion
[ 8008 7997 7996 7995 ] final  115.89 input   59.86 | X-H torsion
[ 10167 10162 10161 10158 ] final  138.70 input  -65.29 | X-H torsion
[ 10718 10713 10712 10709 ] final   21.51 input   66.30 | X-H torsion
[ 10763 10752 10751 10750 ] final -177.91 input  -60.55 | X-H torsion
[ 11005 11000 10999 10996 ] final -136.89 input  -57.11 | X-H torsion

> <Gold.Protein.ActiveResidues>
 VAL166  LYS551  ARG553  GLY616  TRP617  ASP618  TYR619  PRO620  LYS621  CYS622 
 ASP623  PHE694  ASN695  SER759  ASP760  ASP761  ALA762  ILE779  LEU786  VAL792 
 PHE793  MET794  SER795  GLU796  ALA797  LYS798  CYS799  TRP800  GLU811  SER814 

> <Gold.Protein.RotatedAtoms>
  151.2775  135.0703  159.9156 H   0  0  0  0  0  0  0  0  0  0  0  0  # atno 6907 bound_to 6896
  152.5340  134.0065  159.7929 H   0  0  0  0  0  0  0  0  0  0  0  0  # atno 6908 bound_to 6896
  151.0314  133.5737  159.2691 H   0  0  0  0  0  0  0  0  0  0  0  0  # atno 6909 bound_to 6896
  144.7336  140.3156  143.6180 H   0  0  0  0  0  0  0  0  0  0  0  0  # atno 7974 bound_to 7965
  156.2408  140.2929  156.0438 H   0  0  0  0  0  0  0  0  0  0  0  0  # atno 8008 bound_to 7997
  155.1957  140.0408  157.2926 H   0  0  0  0  0  0  0  0  0  0  0  0  # atno 8009 bound_to 7997
  154.6164  140.2465  155.7611 H   0  0  0  0  0  0  0  0  0  0  0  0  # atno 8010 bound_to 7997
  139.5102  144.6338  151.5750 H   0  0  0  0  0  0  0  0  0  0  0  0  # atno 10167 bound_to 10162
  157.1394  130.6626  149.5976 H   0  0  0  0  0  0  0  0  0  0  0  0  # atno 10718 bound_to 10713
  154.5542  135.2815  155.0980 H   0  0  0  0  0  0  0  0  0  0  0  0  # atno 10763 bound_to 10752
  154.2414  135.6356  153.5212 H   0  0  0  0  0  0  0  0  0  0  0  0  # atno 10764 bound_to 10752
  153.0011  135.5561  154.6117 H   0  0  0  0  0  0  0  0  0  0  0  0  # atno 10765 bound_to 10752
  140.8762  134.1989  157.4620 H   0  0  0  0  0  0  0  0  0  0  0  0  # atno 11005 bound_to 11000
  145.7621  139.1828  143.2261 LP  0  0  0  0  0  0  0  0  0  0  0  0  # atno 17320 bound_to 7965
  146.0978  140.7580  142.9564 LP  0  0  0  0  0  0  0  0  0  0  0  0  # atno 17321 bound_to 7965
  140.6079  143.9489  150.6432 LP  0  0  0  0  0  0  0  0  0  0  0  0  # atno 17342 bound_to 10162
  140.2723  143.3447  152.1227 LP  0  0  0  0  0  0  0  0  0  0  0  0  # atno 17343 bound_to 10162
  155.9791  130.4783  150.6698 LP  0  0  0  0  0  0  0  0  0  0  0  0  # atno 17370 bound_to 10713
  157.4321  131.0850  151.1028 LP  0  0  0  0  0  0  0  0  0  0  0  0  # atno 17371 bound_to 10713
  139.8716  134.9797  156.5046 LP  0  0  0  0  0  0  0  0  0  0  0  0  # atno 17394 bound_to 11000
  140.8515  133.8128  155.9173 LP  0  0  0  0  0  0  0  0  0  0  0  0  # atno 17395 bound_to 11000

$$$$
