AV-unprocessed.smi:2126|AV-procd|sdf|8678|dock2
  -GOLD-   2272011433D 1   1.00000     0.00000
 Structure written by MMmdl.
 41 43  0  0  0  0  0  0  0  0  2 V2000
  151.3105  142.2795  156.2440 C   0  0  0  0  0  0  0  0  0  0  0  0
  151.7059  141.0829  155.5897 O   0  0  0  0  0  0  0  0  0  0  0  0
  150.7194  140.2673  155.0786 C   0  0  0  0  0  0  0  0  0  0  0  0
  150.8287  138.8599  154.9631 C   0  0  0  0  0  0  0  0  0  0  0  0
  149.7664  138.1045  154.4304 C   0  0  0  0  0  0  0  0  0  0  0  0
  148.5783  138.7271  153.9997 C   0  0  0  0  0  0  0  0  0  0  0  0
  147.5908  137.9101  153.4924 O   0  0  0  0  0  0  0  0  0  0  0  0
  146.4320  138.5186  152.9372 C   0  0  0  0  0  0  0  0  0  0  0  0
  145.7896  137.5410  151.9427 C   0  0  1  0  0  0  0  0  0  0  0  0
  146.2482  137.8504  150.6412 O   0  0  0  0  0  0  0  0  0  0  0  0
  146.1171  136.0706  152.2713 C   0  0  0  0  0  0  0  0  0  0  0  0
  145.1451  135.1285  151.7029 N   0  0  0  0  0  0  0  0  0  0  0  0
  143.9589  135.3644  151.0796 C   0  0  0  0  0  0  0  0  0  0  0  0
  143.4300  134.1580  150.7332 N   0  3  0  0  0  0  0  0  0  0  0  0
  144.2905  133.1368  151.1424 C   0  0  0  0  0  0  0  0  0  0  0  0
  144.1902  131.7545  151.0183 C   0  0  0  0  0  0  0  0  0  0  0  0
  145.2512  130.9926  151.5508 C   0  0  0  0  0  0  0  0  0  0  0  0
  146.3560  131.6072  152.1760 C   0  0  0  0  0  0  0  0  0  0  0  0
  146.4481  133.0096  152.2950 C   0  0  0  0  0  0  0  0  0  0  0  0
  145.3948  133.7544  151.7666 C   0  0  0  0  0  0  0  0  0  0  0  0
  148.4698  140.1347  154.1132 C   0  0  0  0  0  0  0  0  0  0  0  0
  149.5311  140.8897  154.6484 C   0  0  0  0  0  0  0  0  0  0  0  0
  152.1973  142.8137  156.5846 H   0  0  0  0  0  0  0  0  0  0  0  0
  150.6951  142.0694  157.1198 H   0  0  0  0  0  0  0  0  0  0  0  0
  150.7663  142.9422  155.5700 H   0  0  0  0  0  0  0  0  0  0  0  0
  151.7174  138.3342  155.2773 H   0  0  0  0  0  0  0  0  0  0  0  0
  149.8663  137.0318  154.3510 H   0  0  0  0  0  0  0  0  0  0  0  0
  145.7239  138.7472  153.7359 H   0  0  0  0  0  0  0  0  0  0  0  0
  146.6890  139.4519  152.4330 H   0  0  0  0  0  0  0  0  0  0  0  0
  144.7094  137.6891  151.9513 H   0  0  0  0  0  0  0  0  0  0  0  0
  145.5231  138.1935  150.1411 H   0  0  0  0  0  0  0  0  0  0  0  0
  147.0994  135.8044  151.8785 H   0  0  0  0  0  0  0  0  0  0  0  0
  146.1609  135.9083  153.3491 H   0  0  0  0  0  0  0  0  0  0  0  0
  143.5168  136.3330  150.8958 H   0  0  0  0  0  0  0  0  0  0  0  0
  143.3452  131.2812  150.5401 H   0  0  0  0  0  0  0  0  0  0  0  0
  145.2168  129.9153  151.4784 H   0  0  0  0  0  0  0  0  0  0  0  0
  147.1495  130.9904  152.5726 H   0  0  0  0  0  0  0  0  0  0  0  0
  147.2975  133.4725  152.7758 H   0  0  0  0  0  0  0  0  0  0  0  0
  147.5815  140.6610  153.7992 H   0  0  0  0  0  0  0  0  0  0  0  0
  149.4311  141.9622  154.7298 H   0  0  0  0  0  0  0  0  0  0  0  0
  142.5462  134.0437  150.2538 H   0  0  0  0  0  0  0  0  0  0  0  0
  1  2  1  0  0  0  0
  1 23  1  0  0  0  0
  1 24  1  0  0  0  0
  1 25  1  0  0  0  0
  2  3  1  0  0  0  0
  3 22  1  0  0  0  0
  3  4  2  0  0  0  0
  4  5  1  0  0  0  0
  4 26  1  0  0  0  0
  5  6  2  0  0  0  0
  5 27  1  0  0  0  0
  6  7  1  0  0  0  0
  6 21  1  0  0  0  0
  7  8  1  0  0  0  0
  8  9  1  0  0  0  0
  8 28  1  0  0  0  0
  8 29  1  0  0  0  0
  9 10  1  0  0  0  0
  9 11  1  0  0  0  0
  9 30  1  0  0  0  0
 10 31  1  0  0  0  0
 11 12  1  0  0  0  0
 11 32  1  0  0  0  0
 11 33  1  0  0  0  0
 12 20  1  0  0  0  0
 12 13  1  0  0  0  0
 13 14  2  0  0  0  0
 13 34  1  0  0  0  0
 14 15  1  0  0  0  0
 14 41  1  0  0  0  0
 15 20  2  0  0  0  0
 15 16  1  0  0  0  0
 16 17  2  0  0  0  0
 16 35  1  0  0  0  0
 17 18  1  0  0  0  0
 17 36  1  0  0  0  0
 18 19  2  0  0  0  0
 18 37  1  0  0  0  0
 19 20  1  0  0  0  0
 19 38  1  0  0  0  0
 21 22  2  0  0  0  0
 21 39  1  0  0  0  0
 22 40  1  0  0  0  0
M  CHG  1  14   1
M  END
> <s_m_source_file>
AV-unprocessed.smi

> <i_m_source_file_index>
2126

> <i_lp_mmshare_version>
43012

> <i_f3d_flags>
0

> <s_epik_input>
W0NIM11PYzFbY0hdW2NIXWMoW2NIXVtjSF0xKU9bQ0gyXVtDQEhdKFtPSF0pW0NIMl1uKFtjSF1uMiljKGMyMylbY0hdW2NIXVtjSF1bY0hdMw==

> <s_epik_cmdline>
J2VwaWtfcHl0aG9uJywgJy1waCcsICc3LjAnLCAnLXRuJywgJzgnLCAnLW1hJywgJzIwMCcsICctbWV0YWxfYmluZGluZycsICctaW1hZScsICc8aW5maWxlLm1hZT4nLCAnLW9tYWUnLCAnPG91dGZpbGUubWFlPic=

> <r_lp_tautomer_probability>
1

> <r_epik_Ionization_Penalty>
1.37822

> <r_epik_Ionization_Penalty_Charging>
1.37822

> <r_epik_Ionization_Penalty_Neutral>
2.3993e-06

> <r_epik_State_Penalty>
1.45852

> <r_epik_Charging_Adjusted_Penalty>
2.83674

> <i_epik_Tot_Q>
1

> <i_epik_Tot_abs_Q>
1

> <r_epik_Metal_State_Penalty>
5.4985

> <b_epik_Metal_Only>
0

> <s_lp_Force_Field>
OPLS_2005

> <r_lp_Energy>
22.1455

> <b_lp_Chiralities_Consistent>
1

> <s_lp_Variant>
AV-unprocessed.smi:2126-4

> <Gold.Version>
5.8.1

> <Gold.Id.Protein>
6NUR|6NUR_protein|mol2

> <Gold.PLP.Fitness>
51.8877

> <Gold.PLP.PLP>
-39.5854

> <Gold.PLP.part.hbond>
-4.0666

> <Gold.PLP.part.metal>
0.0000

> <Gold.PLP.part.buried>
-0.8740

> <Gold.PLP.part.nonpolar>
-36.7988

> <Gold.PLP.part.repulsive>
2.6326

> <Gold.PLP.ligand.clash>
0.0000

> <Gold.PLP.ligand.torsion>
1.2838

> <Gold.PLP.Chemscore.Hbond>
3.9040

> <Gold.PLP.Chemscore.CHOScore>
1.0000

> <Gold.PLP.Chemscore.Metal>
0.0000

> <Gold.Chemscore.Hbonds>
donor molecule, donor type, donor heavy atom, donor atom, acceptor molecule, acceptor atom, score
      L1  H    10    31       P1 10171  1.00
      L1  H    14    41       P1 10186  2.00
      P1  H  7954  7966       L1    10  0.90
      L1  C    13    34       P1 10171  1.00

> <Gold.PLP.Chemscore.Internal.Correction>
0.1579

> <Gold.Rescore>
     Score         DG    S(hbond)    S(metal)    S(lipo)     H(rot)  DE(clash)    DE(int)     intcor
     16.04     -20.19       2.69        0.00     105.89       2.60       2.71       1.44       ----

> <Gold.Chemscore.Fitness>
16.0395

> <Gold.Chemscore.DG>
-20.1930

> <Gold.Chemscore.ZeroCoef>
-5.4800

> <Gold.Chemscore.Hbond>
2.6918

> <Gold.Chemscore.Metal>
0.0000

> <Gold.Chemscore.Lipo>
105.8933

> <Gold.Chemscore.Internal_Hbond>
0.0000

> <Gold.Chemscore.DEClash>
2.7119

> <Gold.Chemscore.DEInternal>
1.4416

> <Gold.Chemscore.Rot>
2.6043

> <Gold.Chemscore.Internal.Correction>
   9.000000E+99

> <Gold.Chemscore.Hbonds>
donor molecule, donor type, donor heavy atom, donor atom, acceptor molecule, acceptor atom, score
      L1  H    10    31       P1 10171  0.99
      L1  H    14    41       P1 10186  0.94
      P1  H  7954  7966       L1    10  0.82

> <Gold.Chemscore.Hbond.Weighted>
-8.9905

> <Gold.Chemscore.Metal.Weighted>
-0.0000

> <Gold.Chemscore.Lipo.Weighted>
-12.3895

> <Gold.Chemscore.Internal_Hbond.Weighted>
0.0000

> <Gold.Chemscore.DEClash.Weighted>
2.7119

> <Gold.Chemscore.DEInternal.Weighted>
1.4416

> <Gold.Chemscore.Rot.Weighted>
6.6670

> <Gold.Chemscore.Internal.Correction.Weighted>
   9.000000E+99

> <Gold.Protein.RotatedTorsions>
[ 6907 6896 6895 6894 ] final  141.10 input  -60.11 | X-H torsion
[ 7974 7965 7964 7962 ] final  -99.49 input  175.53 | X-H torsion
[ 8008 7997 7996 7995 ] final -132.75 input   59.86 | X-H torsion
[ 10167 10162 10161 10158 ] final  -90.48 input  -65.29 | X-H torsion
[ 10718 10713 10712 10709 ] final  -26.15 input   66.30 | X-H torsion
[ 10763 10752 10751 10750 ] final  102.96 input  -60.55 | X-H torsion
[ 11005 11000 10999 10996 ] final   72.13 input  -57.11 | X-H torsion

> <Gold.Protein.ActiveResidues>
 VAL166  LYS551  ARG553  GLY616  TRP617  ASP618  TYR619  PRO620  LYS621  CYS622 
 ASP623  PHE694  ASN695  SER759  ASP760  ASP761  ALA762  ILE779  LEU786  VAL792 
 PHE793  MET794  SER795  GLU796  ALA797  LYS798  CYS799  TRP800  GLU811  SER814 

> <Gold.Protein.RotatedAtoms>
  152.2350  133.5089  159.5237 H   0  0  0  0  0  0  0  0  0  0  0  0  # atno 6907 bound_to 6896
  150.7048  134.1165  159.4028 H   0  0  0  0  0  0  0  0  0  0  0  0  # atno 6908 bound_to 6896
  151.9087  135.0348  160.0563 H   0  0  0  0  0  0  0  0  0  0  0  0  # atno 6909 bound_to 6896
  145.3069  140.9391  143.2792 H   0  0  0  0  0  0  0  0  0  0  0  0  # atno 7974 bound_to 7965
  155.3342  140.0468  157.3043 H   0  0  0  0  0  0  0  0  0  0  0  0  # atno 8008 bound_to 7997
  154.5312  140.2257  155.8767 H   0  0  0  0  0  0  0  0  0  0  0  0  # atno 8009 bound_to 7997
  156.1790  140.3078  155.9119 H   0  0  0  0  0  0  0  0  0  0  0  0  # atno 8010 bound_to 7997
  140.3545  143.2874  151.9688 H   0  0  0  0  0  0  0  0  0  0  0  0  # atno 10167 bound_to 10162
  156.4550  130.4492  149.6965 H   0  0  0  0  0  0  0  0  0  0  0  0  # atno 10718 bound_to 10713
  153.3464  135.3993  155.1612 H   0  0  0  0  0  0  0  0  0  0  0  0  # atno 10763 bound_to 10752
  154.8654  135.3646  154.5278 H   0  0  0  0  0  0  0  0  0  0  0  0  # atno 10764 bound_to 10752
  153.5727  135.7078  153.5557 H   0  0  0  0  0  0  0  0  0  0  0  0  # atno 10765 bound_to 10752
  139.9507  134.7232  156.0870 H   0  0  0  0  0  0  0  0  0  0  0  0  # atno 11005 bound_to 11000
  144.9048  139.4603  143.6615 LP  0  0  0  0  0  0  0  0  0  0  0  0  # atno 17320 bound_to 7965
  146.3132  139.7822  142.9004 LP  0  0  0  0  0  0  0  0  0  0  0  0  # atno 17321 bound_to 7965
  139.4822  144.6047  151.7542 LP  0  0  0  0  0  0  0  0  0  0  0  0  # atno 17342 bound_to 10162
  140.5187  144.0912  150.6016 LP  0  0  0  0  0  0  0  0  0  0  0  0  # atno 17343 bound_to 10162
  156.3776  130.7562  151.2552 LP  0  0  0  0  0  0  0  0  0  0  0  0  # atno 17370 bound_to 10713
  157.7501  131.0305  150.4140 LP  0  0  0  0  0  0  0  0  0  0  0  0  # atno 17371 bound_to 10713
  141.1169  133.6625  156.3116 LP  0  0  0  0  0  0  0  0  0  0  0  0  # atno 17394 bound_to 11000
  140.5726  134.5825  157.5461 LP  0  0  0  0  0  0  0  0  0  0  0  0  # atno 17395 bound_to 11000

$$$$
