#       Name:                AV-unprocessed.smi:3253
#       Creating user name   scv26
#       Creation time:       Fri Mar 27 18:34:42 2020


#       File generated by GOLD software.
#

@<TRIPOS>MOLECULE
AV-unprocessed.smi:3253
    41    42     1
SMALL
NO_CHARGES


@<TRIPOS>ATOM
      1 ****        -2.2586   0.2405   2.0821 C.3            1 S1                 0.0000
      2 ****        -1.5802   0.1198   0.7077 C.3            1 S1                 0.0000
      3 ****        -2.1851  -0.9967  -0.1717 C.3            1 S1                 0.0000
      4 ****        -3.6074  -0.8237  -0.3986 N.pl3          1 S1                 0.0000
      5 ****        -4.6442  -1.5549   0.1663 C.2            1 S1                 0.0000
      6 ****        -5.8133  -1.0371  -0.3437 C.2            1 S1                 0.0000
      7 ****        -5.5212   0.0028  -1.2229 N.2            1 S1                 0.0000
      8 ****        -4.1962   0.0686  -1.2065 C.2            1 S1                 0.0000
      9 ****        -0.1505  -0.1071   0.8983 N.am           1 S1                 0.0000
     10 ****         0.8107   0.2107   0.0170 C.2            1 S1                 0.0000
     11 ****         0.5807   0.7350  -1.0733 O.2            1 S1                 0.0000
     12 ****         2.2544  -0.1145   0.4307 C.3            1 S1                 0.0000
     13 ****         2.9093  -1.1150  -0.5436 C.3            1 S1                 0.0000
     14 ****         3.9999  -0.3060  -1.2255 C.2            1 S1                 0.0000
     15 ****         4.6870  -0.7512  -2.1435 O.2            1 S1                 0.0000
     16 ****         4.0875   0.9182  -0.6986 N.am           1 S1                 0.0000
     17 ****         5.0197   1.9581  -1.1124 C.3            1 S1                 0.0000
     18 ****         3.1683   1.1307   0.4060 C.3            1 S1                 0.0000
     19 ****        -3.3124   0.5032   1.9871 H              1 S1                 0.0000
     20 ****        -1.7866   1.0169   2.6852 H              1 S1                 0.0000
     21 ****        -2.1977  -0.6960   2.6376 H              1 S1                 0.0000
     22 ****        -1.7119   1.0754   0.1962 H              1 S1                 0.0000
     23 ****        -1.6916  -1.0286  -1.1442 H              1 S1                 0.0000
     24 ****        -2.0249  -1.9716   0.2909 H              1 S1                 0.0000
     25 ****        -4.4700  -2.3582   0.8668 H              1 S1                 0.0000
     26 ****        -6.8337  -1.3316  -0.1482 H              1 S1                 0.0000
     27 ****        -3.6402   0.7847  -1.7936 H              1 S1                 0.0000
     28 ****         0.1294  -0.5361   1.7685 H              1 S1                 0.0000
     29 ****         2.2485  -0.5367   1.4373 H              1 S1                 0.0000
     30 ****         3.3591  -1.9505  -0.0063 H              1 S1                 0.0000
     31 ****         2.2192  -1.5237  -1.2837 H              1 S1                 0.0000
     32 ****         6.0485   1.6348  -0.9498 H              1 S1                 0.0000
     33 ****         4.8599   2.8770  -0.5476 H              1 S1                 0.0000
     34 ****         4.8937   2.1861  -2.1714 H              1 S1                 0.0000
     35 ****         2.6180   2.0637   0.2709 H              1 S1                 0.0000
     36 ****         3.7336   1.2144   1.3352 H              1 S1                 0.0000
     37 ****        -6.1606   0.5676  -1.7446 LP             1 S1                 0.0000
     38 ****        -0.3604   0.9444  -1.3387 LP             1 S1                 0.0000
     39 ****         1.3350   0.9513  -1.6931 LP             1 S1                 0.0000
     40 ****         4.5389  -1.6841  -2.4718 LP             1 S1                 0.0000
     41 ****         5.3936  -0.1803  -2.5614 LP             1 S1                 0.0000
@<TRIPOS>BOND
    1    1    2 1     
    2    1   19 1     
    3    1   20 1     
    4    1   21 1     
    5    2    3 1     
    6    2    9 1     
    7    2   22 1     
    8    3    4 1     
    9    3   23 1     
   10    3   24 1     
   11    4    8 1     
   12    4    5 1     
   13    5    6 2     
   14    5   25 1     
   15    6    7 1     
   16    6   26 1     
   17    7    8 2     
   18    8   27 1     
   19    9   10 am    
   20    9   28 1     
   21   10   11 2     
   22   10   12 1     
   23   12   18 1     
   24   12   13 1     
   25   12   29 1     
   26   13   14 1     
   27   13   30 1     
   28   13   31 1     
   29   14   15 2     
   30   14   16 am    
   31   16   17 1     
   32   16   18 1     
   33   17   32 1     
   34   17   33 1     
   35   17   34 1     
   36   18   35 1     
   37   18   36 1     
   38    7   37 1     
   39   11   38 1     
   40   11   39 1     
   41   15   40 1     
   42   15   41 1     
@<TRIPOS>SUBSTRUCTURE
      1 S1             1
@<TRIPOS>SET
LONE_PAIRS      STATIC     ATOMS    <user>   **** ""
5 37 38 39 40 41
DONOR_HYDROGENS      STATIC     ATOMS    <user>   **** ""
1 28
ATOM$BLUE        STATIC     ATOMS    COLORGROUP SYSTEM
5 37 38 39 40 41
ATOM$RED        STATIC     ATOMS    COLORGROUP SYSTEM
1 28
