AV-unprocessed.smi:110|AV-procd|sdf|1066|dock1
  -GOLD-   2262018143D 1   1.00000     0.00000
 Structure written by MMmdl.
 46 50  0  0  0  0  0  0  0  0  1 V2000
  144.5599  137.8652  153.6826 O   0  0  0  0  0  0  0  0  0  0  0  0
  145.5319  138.0278  154.6936 C   0  0  0  0  0  0  0  0  0  0  0  0
  146.9137  138.2750  154.0629 C   0  0  2  0  0  0  0  0  0  0  0  0
  147.9222  138.3583  155.0627 O   0  0  0  0  0  0  0  0  0  0  0  0
  149.0454  138.9817  154.5255 C   0  0  2  0  0  0  0  0  0  0  0  0
  149.6957  139.8005  155.5974 N   0  0  0  0  0  0  0  0  0  0  0  0
  149.1371  140.8318  156.3173 C   0  0  0  0  0  0  0  0  0  0  0  0
  149.9169  141.3747  157.2117 N   0  0  0  0  0  0  0  0  0  0  0  0
  151.1149  140.6797  157.0908 C   0  0  0  0  0  0  0  0  0  0  0  0
  152.3777  140.7419  157.7479 C   0  0  0  0  0  0  0  0  0  0  0  0
  152.6881  141.6063  158.7425 N   0  0  0  0  0  0  0  0  0  0  0  0
  153.4502  141.1177  159.9006 C   0  0  0  0  0  0  0  0  0  0  0  0
  153.2257  142.1088  161.0581 C   0  0  0  0  0  0  0  0  0  0  0  0
  152.4222  143.1674  160.3747 C   0  0  0  0  0  0  0  0  0  0  0  0
  151.9772  144.3841  160.9201 C   0  0  0  0  0  0  0  0  0  0  0  0
  151.2464  145.2584  160.0873 C   0  0  0  0  0  0  0  0  0  0  0  0
  150.9848  144.9111  158.7415 C   0  0  0  0  0  0  0  0  0  0  0  0
  151.4438  143.6835  158.2147 C   0  0  0  0  0  0  0  0  0  0  0  0
  152.1547  142.8053  159.0583 C   0  0  0  0  0  0  0  0  0  0  0  0
  153.3201  139.8342  157.3865 N   0  0  0  0  0  0  0  0  0  0  0  0
  153.0642  138.9498  156.4191 C   0  0  0  0  0  0  0  0  0  0  0  0
  151.9469  138.7928  155.7087 N   0  0  0  0  0  0  0  0  0  0  0  0
  150.9818  139.6802  156.0849 C   0  0  0  0  0  0  0  0  0  0  0  0
  148.5805  139.8206  153.3160 C   0  0  2  0  0  0  0  0  0  0  0  0
  148.9541  141.1895  153.3309 O   0  0  0  0  0  0  0  0  0  0  0  0
  147.0689  139.5984  153.2978 C   0  0  2  0  0  0  0  0  0  0  0  0
  146.3539  140.6443  153.9336 O   0  0  0  0  0  0  0  0  0  0  0  0
  147.1683  137.4589  153.3834 H   0  0  0  0  0  0  0  0  0  0  0  0
  149.7948  138.2361  154.2561 H   0  0  0  0  0  0  0  0  0  0  0  0
  149.0179  139.3611  152.4288 H   0  0  0  0  0  0  0  0  0  0  0  0
  146.6937  139.5158  152.2771 H   0  0  0  0  0  0  0  0  0  0  0  0
  144.4097  138.7038  153.2736 H   0  0  0  0  0  0  0  0  0  0  0  0
  145.2339  138.8864  155.2959 H   0  0  0  0  0  0  0  0  0  0  0  0
  145.5446  137.1568  155.3500 H   0  0  0  0  0  0  0  0  0  0  0  0
  148.1214  141.1658  156.1640 H   0  0  0  0  0  0  0  0  0  0  0  0
  153.1331  140.1120  160.1800 H   0  0  0  0  0  0  0  0  0  0  0  0
  154.5076  141.0730  159.6374 H   0  0  0  0  0  0  0  0  0  0  0  0
  152.6529  141.6638  161.8721 H   0  0  0  0  0  0  0  0  0  0  0  0
  154.1616  142.5094  161.4484 H   0  0  0  0  0  0  0  0  0  0  0  0
  152.1925  144.6449  161.9458 H   0  0  0  0  0  0  0  0  0  0  0  0
  150.8925  146.2012  160.4775 H   0  0  0  0  0  0  0  0  0  0  0  0
  150.4337  145.5915  158.1093 H   0  0  0  0  0  0  0  0  0  0  0  0
  151.2538  143.4319  157.1819 H   0  0  0  0  0  0  0  0  0  0  0  0
  153.8683  138.2695  156.1805 H   0  0  0  0  0  0  0  0  0  0  0  0
  148.8641  141.5154  154.2132 H   0  0  0  0  0  0  0  0  0  0  0  0
  145.4509  140.5969  153.6582 H   0  0  0  0  0  0  0  0  0  0  0  0
  1  2  1  0  0  0  0
  1 32  1  0  0  0  0
  2  3  1  0  0  0  0
  2 33  1  0  0  0  0
  2 34  1  0  0  0  0
  3 28  1  0  0  0  0
  3 26  1  0  0  0  0
  3  4  1  0  0  0  0
  4  5  1  0  0  0  0
  5 29  1  0  0  0  0
  5  6  1  0  0  0  0
  5 24  1  0  0  0  0
  6 23  1  0  0  0  0
  6  7  1  0  0  0  0
  7  8  2  0  0  0  0
  7 35  1  0  0  0  0
  8  9  1  0  0  0  0
  9 23  2  0  0  0  0
  9 10  1  0  0  0  0
 10 11  1  0  0  0  0
 10 20  2  0  0  0  0
 11 19  1  0  0  0  0
 11 12  1  0  0  0  0
 12 13  1  0  0  0  0
 12 36  1  0  0  0  0
 12 37  1  0  0  0  0
 13 14  1  0  0  0  0
 13 38  1  0  0  0  0
 13 39  1  0  0  0  0
 14 19  2  0  0  0  0
 14 15  1  0  0  0  0
 15 16  2  0  0  0  0
 15 40  1  0  0  0  0
 16 17  1  0  0  0  0
 16 41  1  0  0  0  0
 17 18  2  0  0  0  0
 17 42  1  0  0  0  0
 18 19  1  0  0  0  0
 18 43  1  0  0  0  0
 20 21  1  0  0  0  0
 21 22  2  0  0  0  0
 21 44  1  0  0  0  0
 22 23  1  0  0  0  0
 24 30  1  0  0  0  0
 24 25  1  0  0  0  0
 24 26  1  0  0  0  0
 25 45  1  0  0  0  0
 26 31  1  0  0  0  0
 26 27  1  0  0  0  0
 27 46  1  0  0  0  0
M  END
> <s_m_source_file>
AV-unprocessed.smi

> <i_m_source_file_index>
110

> <i_lp_mmshare_version>
43012

> <i_f3d_flags>
0

> <s_epik_input>
W09IXVtDSDJdW0NASF0xT1tDQEhdKFtDQEhdKFtPSF0pW0NAQEhdMVtPSF0pbihbY0hdbjIpYyhjMjMpbltjSF1uYzNOKFtDSDJdW0NIMl00KWMoYzQ1KVtjSF1bY0hdW2NIXVtjSF01

> <s_epik_cmdline>
J2VwaWtfcHl0aG9uJywgJy1waCcsICc3LjAnLCAnLXRuJywgJzgnLCAnLW1hJywgJzIwMCcsICctbWV0YWxfYmluZGluZycsICctaW1hZScsICc8aW5maWxlLm1hZT4nLCAnLW9tYWUnLCAnPG91dGZpbGUubWFlPic=

> <r_lp_tautomer_probability>
1

> <r_epik_Ionization_Penalty>
0.00068475

> <r_epik_Ionization_Penalty_Charging>
0

> <r_epik_Ionization_Penalty_Neutral>
0.00068475

> <r_epik_State_Penalty>
0.000417442

> <r_epik_Charging_Adjusted_Penalty>
0.000417442

> <i_epik_Tot_Q>
0

> <i_epik_Tot_abs_Q>
0

> <r_epik_Metal_State_Penalty>
-0

> <b_epik_Metal_Only>
0

> <s_epik_Chemistry_Notes>
This compound contains an acetal/aminal-like group ( X-CH(R)-Y where X, Y are N, S, or O) that may be acid/base labile, releasing an aldehyde.

> <s_lp_Force_Field>
OPLS_2005

> <r_lp_Energy>
68.0116

> <b_lp_Chiralities_Consistent>
1

> <s_lp_Variant>
AV-unprocessed.smi:110-4

> <Gold.Version>
5.8.1

> <Gold.Id.Protein>
6NUR|6NUR_protein|mol2

> <Gold.PLP.Fitness>
59.7248

> <Gold.PLP.PLP>
-49.4743

> <Gold.PLP.part.hbond>
-5.0383

> <Gold.PLP.part.metal>
0.0000

> <Gold.PLP.part.buried>
-1.3082

> <Gold.PLP.part.nonpolar>
-42.5613

> <Gold.PLP.part.repulsive>
0.1316

> <Gold.PLP.ligand.clash>
0.0000

> <Gold.PLP.ligand.torsion>
0.4453

> <Gold.PLP.Chemscore.Hbond>
3.6825

> <Gold.PLP.Chemscore.CHOScore>
0.0000

> <Gold.PLP.Chemscore.Metal>
0.0000

> <Gold.Chemscore.Hbonds>
donor molecule, donor type, donor heavy atom, donor atom, acceptor molecule, acceptor atom, score
      L1  H     1    32       P1 10175  0.93
      L1  H    27    46       P1 10175  0.76
      P1  H  7997  8008       L1    20  0.45
      P1  H  8011  8017       L1    25  1.00

> <Gold.PLP.Chemscore.Internal.Correction>
0.0935

> <Gold.Rescore>
     Score         DG    S(hbond)    S(metal)    S(lipo)     H(rot)  DE(clash)    DE(int)     intcor
     15.42     -19.87       2.99        0.00     111.68       3.38       1.58       2.87       ----

> <Gold.Chemscore.Fitness>
15.4201

> <Gold.Chemscore.DG>
-19.8709

> <Gold.Chemscore.ZeroCoef>
-5.4800

> <Gold.Chemscore.Hbond>
2.9899

> <Gold.Chemscore.Metal>
0.0000

> <Gold.Chemscore.Lipo>
111.6813

> <Gold.Chemscore.Internal_Hbond>
0.0000

> <Gold.Chemscore.DEClash>
1.5787

> <Gold.Chemscore.DEInternal>
2.8721

> <Gold.Chemscore.Rot>
3.3837

> <Gold.Chemscore.Internal.Correction>
   9.000000E+99

> <Gold.Chemscore.Hbonds>
donor molecule, donor type, donor heavy atom, donor atom, acceptor molecule, acceptor atom, score
      L1  H     1    32       P1 10175  0.89
      L1  H    27    46       P1 10175  0.72
      P1  H  7997  8008       L1    20  0.08
      P1  H  8011  8017       L1    25  0.72

> <Gold.Chemscore.Hbond.Weighted>
-9.9863

> <Gold.Chemscore.Metal.Weighted>
-0.0000

> <Gold.Chemscore.Lipo.Weighted>
-13.0667

> <Gold.Chemscore.Internal_Hbond.Weighted>
0.0000

> <Gold.Chemscore.DEClash.Weighted>
1.5787

> <Gold.Chemscore.DEInternal.Weighted>
2.8721

> <Gold.Chemscore.Rot.Weighted>
8.6622

> <Gold.Chemscore.Internal.Correction.Weighted>
   9.000000E+99

> <Gold.Protein.RotatedTorsions>
[ 6907 6896 6895 6894 ] final  162.42 input  -60.11 | X-H torsion
[ 7974 7965 7964 7962 ] final  101.84 input  175.53 | X-H torsion
[ 8008 7997 7996 7995 ] final  -91.83 input   59.86 | X-H torsion
[ 10167 10162 10161 10158 ] final  172.05 input  -65.29 | X-H torsion
[ 10718 10713 10712 10709 ] final   27.97 input   66.30 | X-H torsion
[ 10763 10752 10751 10750 ] final  -20.99 input  -60.55 | X-H torsion
[ 11005 11000 10999 10996 ] final   82.49 input  -57.11 | X-H torsion

> <Gold.Protein.ActiveResidues>
 VAL166  LYS551  ARG553  GLY616  TRP617  ASP618  TYR619  PRO620  LYS621  CYS622 
 ASP623  PHE694  ASN695  SER759  ASP760  ASP761  ALA762  ILE779  LEU786  VAL792 
 PHE793  MET794  SER795  GLU796  ALA797  LYS798  CYS799  TRP800  GLU811  SER814 

> <Gold.Protein.RotatedAtoms>
  151.9408  133.3637  159.3964 H   0  0  0  0  0  0  0  0  0  0  0  0  # atno 6907 bound_to 6896
  150.6999  134.4441  159.5315 H   0  0  0  0  0  0  0  0  0  0  0  0  # atno 6908 bound_to 6896
  152.2098  134.8512  160.0549 H   0  0  0  0  0  0  0  0  0  0  0  0  # atno 6909 bound_to 6896
  145.3671  139.2406  143.3475 H   0  0  0  0  0  0  0  0  0  0  0  0  # atno 7974 bound_to 7965
  154.7156  140.0515  157.0591 H   0  0  0  0  0  0  0  0  0  0  0  0  # atno 8008 bound_to 7997
  155.0496  140.3177  155.4677 H   0  0  0  0  0  0  0  0  0  0  0  0  # atno 8009 bound_to 7997
  156.2802  140.2118  156.5621 H   0  0  0  0  0  0  0  0  0  0  0  0  # atno 8010 bound_to 7997
  139.5065  144.3418  152.0011 H   0  0  0  0  0  0  0  0  0  0  0  0  # atno 10167 bound_to 10162
  157.2273  130.7007  149.6297 H   0  0  0  0  0  0  0  0  0  0  0  0  # atno 10718 bound_to 10713
  153.6291  135.6990  153.5282 H   0  0  0  0  0  0  0  0  0  0  0  0  # atno 10763 bound_to 10752
  153.2874  135.4167  155.1135 H   0  0  0  0  0  0  0  0  0  0  0  0  # atno 10764 bound_to 10752
  154.8526  135.3617  154.5833 H   0  0  0  0  0  0  0  0  0  0  0  0  # atno 10765 bound_to 10752
  139.9062  134.8075  156.2181 H   0  0  0  0  0  0  0  0  0  0  0  0  # atno 11005 bound_to 11000
  146.2902  140.4315  142.8742 LP  0  0  0  0  0  0  0  0  0  0  0  0  # atno 17320 bound_to 7965
  144.8604  140.7131  143.6111 LP  0  0  0  0  0  0  0  0  0  0  0  0  # atno 17321 bound_to 7965
  140.2856  144.3811  150.6105 LP  0  0  0  0  0  0  0  0  0  0  0  0  # atno 17342 bound_to 10162
  140.5986  143.2167  151.7117 LP  0  0  0  0  0  0  0  0  0  0  0  0  # atno 17343 bound_to 10162
  155.9678  130.4500  150.5681 LP  0  0  0  0  0  0  0  0  0  0  0  0  # atno 17370 bound_to 10713
  157.3515  131.0734  151.1710 LP  0  0  0  0  0  0  0  0  0  0  0  0  # atno 17371 bound_to 10713
  141.0423  133.6931  156.1620 LP  0  0  0  0  0  0  0  0  0  0  0  0  # atno 17394 bound_to 11000
  140.6937  134.4638  157.5588 LP  0  0  0  0  0  0  0  0  0  0  0  0  # atno 17395 bound_to 11000

$$$$
