AV-unprocessed.smi:72|AV-procd|sdf|734|dock6
  -GOLD-   2262017 63D 1   1.00000     0.00000
 Structure written by MMmdl.
 28 29  0  0  0  0  0  0  0  0  2 V2000
  151.1576  134.3283  156.5079 N   0  0  0  0  0  0  0  0  0  0  0  0
  151.0903  135.5388  156.1609 C   0  0  0  0  0  0  0  0  0  0  0  0
  149.8266  136.1001  155.7342 N   0  0  0  0  0  0  0  0  0  0  0  0
  149.8097  137.3464  155.3724 C   0  0  0  0  0  0  0  0  0  0  0  0
  151.0158  138.1630  155.3767 N   0  0  0  0  0  0  0  0  0  0  0  0
  150.9830  139.6196  154.9597 C   0  0  1  0  0  0  0  0  0  0  0  0
  149.7187  139.9301  154.4651 O   0  0  0  0  0  0  0  0  0  0  0  0
  149.4993  141.3190  154.6513 C   0  0  1  0  0  0  0  0  0  0  0  0
  147.9976  141.6317  154.5629 C   0  0  0  0  0  0  0  0  0  0  0  0
  147.8009  142.9486  154.0940 O   0  0  0  0  0  0  0  0  0  0  0  0
  150.0956  141.5693  156.0422 C   0  0  2  0  0  0  0  0  0  0  0  0
  150.5355  142.9091  156.1482 O   0  0  0  0  0  0  0  0  0  0  0  0
  151.2777  140.6036  156.1145 C   0  0  1  0  0  0  0  0  0  0  0  0
  151.3459  139.9996  157.3938 O   0  0  0  0  0  0  0  0  0  0  0  0
  152.2361  137.5952  155.8279 C   0  0  0  0  0  0  0  0  0  0  0  0
  153.2326  138.3173  155.8672 O   0  0  0  0  0  0  0  0  0  0  0  0
  152.2465  136.2870  156.2080 N   0  5  0  0  0  0  0  0  0  0  0  0
  151.6866  139.7205  154.1316 H   0  0  0  0  0  0  0  0  0  0  0  0
  150.0647  141.8716  153.8974 H   0  0  0  0  0  0  0  0  0  0  0  0
  149.3586  141.3449  156.8158 H   0  0  0  0  0  0  0  0  0  0  0  0
  152.2268  141.0957  155.8968 H   0  0  0  0  0  0  0  0  0  0  0  0
  150.2691  133.8534  156.4443 H   0  0  0  0  0  0  0  0  0  0  0  0
  148.9009  137.8572  155.0520 H   0  0  0  0  0  0  0  0  0  0  0  0
  147.4804  140.9166  153.9223 H   0  0  0  0  0  0  0  0  0  0  0  0
  147.5432  141.5679  155.5520 H   0  0  0  0  0  0  0  0  0  0  0  0
  148.0654  143.5515  154.7717 H   0  0  0  0  0  0  0  0  0  0  0  0
  149.8507  143.4748  155.8255 H   0  0  0  0  0  0  0  0  0  0  0  0
  151.6357  140.6507  158.0154 H   0  0  0  0  0  0  0  0  0  0  0  0
  1  2  2  0  0  0  0
  1 22  1  0  0  0  0
  2 17  1  0  0  0  0
  2  3  1  0  0  0  0
  3  4  2  0  0  0  0
  4  5  1  0  0  0  0
  4 23  1  0  0  0  0
  5  6  1  0  0  0  0
  5 15  1  0  0  0  0
  6 18  1  0  0  0  0
  6 13  1  0  0  0  0
  6  7  1  0  0  0  0
  7  8  1  0  0  0  0
  8 19  1  0  0  0  0
  8  9  1  0  0  0  0
  8 11  1  0  0  0  0
  9 10  1  0  0  0  0
  9 24  1  0  0  0  0
  9 25  1  0  0  0  0
 10 26  1  0  0  0  0
 11 20  1  0  0  0  0
 11 12  1  0  0  0  0
 11 13  1  0  0  0  0
 12 27  1  0  0  0  0
 13 21  1  0  0  0  0
 13 14  1  0  0  0  0
 14 28  1  0  0  0  0
 15 16  2  0  0  0  0
 15 17  1  0  0  0  0
M  CHG  1  17  -1
M  END
> <s_m_source_file>
AV-unprocessed.smi

> <i_m_source_file_index>
72

> <i_lp_mmshare_version>
43012

> <i_f3d_flags>
0

> <s_epik_input>
W05IMl1jMW5bY0hdbihjKD1PKW4xKVtDQEBIXTJPW0NASF0oW0NIMl1bT0hdKVtDQEBIXShbT0hdKVtDQEhdMltPSF0=

> <s_epik_cmdline>
J2VwaWtfcHl0aG9uJywgJy1waCcsICc3LjAnLCAnLXRuJywgJzgnLCAnLW1hJywgJzIwMCcsICctbWV0YWxfYmluZGluZycsICctaW1hZScsICc8aW5maWxlLm1hZT4nLCAnLW9tYWUnLCAnPG91dGZpbGUubWFlPic=

> <r_lp_tautomer_probability>
7.17554e-07

> <r_epik_Ionization_Penalty>
12.8705

> <r_epik_Ionization_Penalty_Charging>
5.64144

> <r_epik_Ionization_Penalty_Neutral>
7.22905

> <r_epik_State_Penalty>
3.30104

> <r_epik_Charging_Adjusted_Penalty>
8.94249

> <i_epik_Tot_Q>
-1

> <i_epik_Tot_abs_Q>
1

> <r_epik_Metal_State_Penalty>
0.529074

> <b_epik_Metal_Only>
1

> <s_epik_Chemistry_Notes>
This compound contains an acetal/aminal-like group ( X-CH(R)-Y where X, Y are N, S, or O) that may be acid/base labile, releasing an aldehyde.

> <s_lp_Force_Field>
OPLS_2005

> <r_lp_Energy>
37.9918

> <b_lp_Chiralities_Consistent>
1

> <s_lp_Variant>
AV-unprocessed.smi:72-72

> <Gold.Version>
5.8.1

> <Gold.Id.Protein>
6NUR|6NUR_protein|mol2

> <Gold.PLP.Fitness>
38.1915

> <Gold.PLP.PLP>
-24.9742

> <Gold.PLP.part.hbond>
-6.1760

> <Gold.PLP.part.metal>
0.0000

> <Gold.PLP.part.buried>
-1.0888

> <Gold.PLP.part.nonpolar>
-18.1914

> <Gold.PLP.part.repulsive>
0.2015

> <Gold.PLP.ligand.clash>
0.0000

> <Gold.PLP.ligand.torsion>
0.4658

> <Gold.PLP.Chemscore.Hbond>
4.6552

> <Gold.PLP.Chemscore.CHOScore>
0.0000

> <Gold.PLP.Chemscore.Metal>
0.0000

> <Gold.Chemscore.Hbonds>
donor molecule, donor type, donor heavy atom, donor atom, acceptor molecule, acceptor atom, score
      L1  H    10    26       P1  8028  1.00
      L1  H    12    27       P1  8028  1.00
      P1  H  7997  8010       L1    16  0.64
      P1  H 10752 10763       L1    17  2.00

> <Gold.PLP.Chemscore.Internal.Correction>
0.1833

> <Gold.Rescore>
     Score         DG    S(hbond)    S(metal)    S(lipo)     H(rot)  DE(clash)    DE(int)     intcor
      6.74      -7.65       2.76        0.00      28.09       4.04       0.14       0.78       ----

> <Gold.Chemscore.Fitness>
6.7357

> <Gold.Chemscore.DG>
-7.6499

> <Gold.Chemscore.ZeroCoef>
-5.4800

> <Gold.Chemscore.Hbond>
2.7625

> <Gold.Chemscore.Metal>
0.0000

> <Gold.Chemscore.Lipo>
28.0874

> <Gold.Chemscore.Internal_Hbond>
0.0000

> <Gold.Chemscore.DEClash>
0.1355

> <Gold.Chemscore.DEInternal>
0.7787

> <Gold.Chemscore.Rot>
4.0403

> <Gold.Chemscore.Internal.Correction>
   9.000000E+99

> <Gold.Chemscore.Hbonds>
donor molecule, donor type, donor heavy atom, donor atom, acceptor molecule, acceptor atom, score
      L1  H    10    26       P1  8028  0.78
      L1  H    12    27       P1  8028  0.97
      P1  H  7997  8010       L1    16  0.62
      P1  H 10752 10763       L1    17  0.15

> <Gold.Chemscore.Hbond.Weighted>
-9.2268

> <Gold.Chemscore.Metal.Weighted>
-0.0000

> <Gold.Chemscore.Lipo.Weighted>
-3.2862

> <Gold.Chemscore.Internal_Hbond.Weighted>
0.0000

> <Gold.Chemscore.DEClash.Weighted>
0.1355

> <Gold.Chemscore.DEInternal.Weighted>
0.7787

> <Gold.Chemscore.Rot.Weighted>
10.3431

> <Gold.Chemscore.Internal.Correction.Weighted>
   9.000000E+99

> <Gold.Protein.RotatedTorsions>
[ 6907 6896 6895 6894 ] final -101.26 input  -60.11 | X-H torsion
[ 7974 7965 7964 7962 ] final   16.50 input  175.53 | X-H torsion
[ 8008 7997 7996 7995 ] final   82.48 input   59.86 | X-H torsion
[ 10167 10162 10161 10158 ] final   10.97 input  -65.29 | X-H torsion
[ 10718 10713 10712 10709 ] final   95.76 input   66.30 | X-H torsion
[ 10763 10752 10751 10750 ] final   91.57 input  -60.55 | X-H torsion
[ 11005 11000 10999 10996 ] final  136.38 input  -57.11 | X-H torsion

> <Gold.Protein.ActiveResidues>
 VAL166  LYS551  ARG553  GLY616  TRP617  ASP618  TYR619  PRO620  LYS621  CYS622 
 ASP623  PHE694  ASN695  SER759  ASP760  ASP761  ALA762  ILE779  LEU786  VAL792 
 PHE793  MET794  SER795  GLU796  ALA797  LYS798  CYS799  TRP800  GLU811  SER814 

> <Gold.Protein.RotatedAtoms>
  150.7147  134.0761  159.3881 H   0  0  0  0  0  0  0  0  0  0  0  0  # atno 6907 bound_to 6896
  151.8745  135.0475  160.0492 H   0  0  0  0  0  0  0  0  0  0  0  0  # atno 6908 bound_to 6896
  152.2617  133.5268  159.5422 H   0  0  0  0  0  0  0  0  0  0  0  0  # atno 6909 bound_to 6896
  146.2247  139.8739  142.8582 H   0  0  0  0  0  0  0  0  0  0  0  0  # atno 7974 bound_to 7965
  155.9112  140.3427  155.6100 H   0  0  0  0  0  0  0  0  0  0  0  0  # atno 8008 bound_to 7997
  155.7385  140.0804  157.2275 H   0  0  0  0  0  0  0  0  0  0  0  0  # atno 8009 bound_to 7997
  154.4056  140.1575  156.2577 H   0  0  0  0  0  0  0  0  0  0  0  0  # atno 8010 bound_to 7997
  140.6161  143.8305  150.7120 H   0  0  0  0  0  0  0  0  0  0  0  0  # atno 10167 bound_to 10162
  157.6935  131.0556  150.4389 H   0  0  0  0  0  0  0  0  0  0  0  0  # atno 10718 bound_to 10713
  153.2097  135.4393  155.0365 H   0  0  0  0  0  0  0  0  0  0  0  0  # atno 10763 bound_to 10752
  154.8193  135.3330  154.7087 H   0  0  0  0  0  0  0  0  0  0  0  0  # atno 10764 bound_to 10752
  153.7526  135.6997  153.4998 H   0  0  0  0  0  0  0  0  0  0  0  0  # atno 10765 bound_to 10752
  140.0042  134.9466  157.0139 H   0  0  0  0  0  0  0  0  0  0  0  0  # atno 11005 bound_to 11000
  145.2580  141.0067  143.3842 LP  0  0  0  0  0  0  0  0  0  0  0  0  # atno 17320 bound_to 7965
  144.9321  139.4286  143.6490 LP  0  0  0  0  0  0  0  0  0  0  0  0  # atno 17321 bound_to 7965
  140.1884  143.4056  152.1881 LP  0  0  0  0  0  0  0  0  0  0  0  0  # atno 17342 bound_to 10162
  139.5400  144.7247  151.4766 LP  0  0  0  0  0  0  0  0  0  0  0  0  # atno 17343 bound_to 10162
  156.4749  130.4061  149.6496 LP  0  0  0  0  0  0  0  0  0  0  0  0  # atno 17370 bound_to 10713
  156.3563  130.7458  151.2424 LP  0  0  0  0  0  0  0  0  0  0  0  0  # atno 17371 bound_to 10713
  140.4671  134.1424  155.7198 LP  0  0  0  0  0  0  0  0  0  0  0  0  # atno 17394 bound_to 11000
  141.1665  133.8693  157.1700 LP  0  0  0  0  0  0  0  0  0  0  0  0  # atno 17395 bound_to 11000

$$$$
