AV-unprocessed.smi:1817|AV-procd|sdf|7375|dock7
  -GOLD-   22720 9 43D 1   1.00000     0.00000
 Structure written by MMmdl.
 42 43  0  0  0  0  0  0  0  0  3 V2000
  145.8303  143.6992  154.2154 C   0  0  0  0  0  0  0  0  0  0  0  0
  146.0061  142.4096  155.0302 C   0  0  0  0  0  0  0  0  0  0  0  0
  147.4105  142.1860  155.4543 N   0  3  0  0  0  0  0  0  0  0  0  0
  148.1656  141.3567  154.4821 C   0  0  0  0  0  0  0  0  0  0  0  0
  149.6248  141.1492  154.9481 C   0  0  0  0  0  0  0  0  0  0  0  0
  149.6988  140.5177  156.2744 N   0  0  0  0  0  0  0  0  0  0  0  0
  149.2267  139.1152  156.3122 C   0  0  1  0  0  0  0  0  0  0  0  0
  149.5552  138.4038  154.9785 C   0  0  0  0  0  0  0  0  0  0  0  0
  149.8285  138.3201  157.5036 C   0  0  0  0  0  0  0  0  0  0  0  0
  148.8730  138.1544  158.5949 N   0  0  0  0  0  0  0  0  0  0  0  0
  148.5560  136.9897  159.1799 C   0  0  0  0  0  0  0  0  0  0  0  0
  149.0726  135.9417  158.7833 O   0  0  0  0  0  0  0  0  0  0  0  0
  147.6662  137.1102  160.1903 N   0  5  0  0  0  0  0  0  0  0  0  0
  147.1610  136.0105  160.7731 C   0  0  0  0  0  0  0  0  0  0  0  0
  146.8841  134.8933  160.0819 N   0  0  0  0  0  0  0  0  0  0  0  0
  146.3742  133.8734  160.8737 N   0  0  0  0  0  0  0  0  0  0  0  0
  146.2866  134.2471  162.1499 C   0  0  0  0  0  0  0  0  0  0  0  0
  146.8180  135.8785  162.5000 S   0  0  0  0  0  0  0  0  0  0  0  0
  149.0222  141.4431  157.1938 C   0  0  0  0  0  0  0  0  0  0  0  0
  147.5358  141.6298  156.8252 C   0  0  0  0  0  0  0  0  0  0  0  0
  144.8099  143.7767  153.8394 H   0  0  0  0  0  0  0  0  0  0  0  0
  146.5006  143.7185  153.3557 H   0  0  0  0  0  0  0  0  0  0  0  0
  146.0199  144.5903  154.8132 H   0  0  0  0  0  0  0  0  0  0  0  0
  145.3488  142.4132  155.9011 H   0  0  0  0  0  0  0  0  0  0  0  0
  145.6885  141.5733  154.4060 H   0  0  0  0  0  0  0  0  0  0  0  0
  147.6588  140.4042  154.3238 H   0  0  0  0  0  0  0  0  0  0  0  0
  148.1721  141.8618  153.5157 H   0  0  0  0  0  0  0  0  0  0  0  0
  150.1845  140.5821  154.2068 H   0  0  0  0  0  0  0  0  0  0  0  0
  150.1263  142.1170  154.9958 H   0  0  0  0  0  0  0  0  0  0  0  0
  148.1449  139.1068  156.4319 H   0  0  0  0  0  0  0  0  0  0  0  0
  149.3017  137.3445  155.0134 H   0  0  0  0  0  0  0  0  0  0  0  0
  150.6169  138.4762  154.7410 H   0  0  0  0  0  0  0  0  0  0  0  0
  148.9911  138.8098  154.1402 H   0  0  0  0  0  0  0  0  0  0  0  0
  150.1535  137.3329  157.1740 H   0  0  0  0  0  0  0  0  0  0  0  0
  150.7026  138.8079  157.9324 H   0  0  0  0  0  0  0  0  0  0  0  0
  148.4276  138.9894  158.9463 H   0  0  0  0  0  0  0  0  0  0  0  0
  145.9087  133.5576  162.8900 H   0  0  0  0  0  0  0  0  0  0  0  0
  149.1311  141.1280  158.2294 H   0  0  0  0  0  0  0  0  0  0  0  0
  149.5263  142.4097  157.1496 H   0  0  0  0  0  0  0  0  0  0  0  0
  147.0866  142.3154  157.5426 H   0  0  0  0  0  0  0  0  0  0  0  0
  146.9859  140.6914  156.9081 H   0  0  0  0  0  0  0  0  0  0  0  0
  147.8628  143.0888  155.4637 H   0  0  0  0  0  0  0  0  0  0  0  0
  1  2  1  0  0  0  0
  1 21  1  0  0  0  0
  1 22  1  0  0  0  0
  1 23  1  0  0  0  0
  2  3  1  0  0  0  0
  2 24  1  0  0  0  0
  2 25  1  0  0  0  0
  3 20  1  0  0  0  0
  3  4  1  0  0  0  0
  3 42  1  0  0  0  0
  4  5  1  0  0  0  0
  4 26  1  0  0  0  0
  4 27  1  0  0  0  0
  5  6  1  0  0  0  0
  5 28  1  0  0  0  0
  5 29  1  0  0  0  0
  6  7  1  0  0  0  0
  6 19  1  0  0  0  0
  7  8  1  0  0  0  0
  7  9  1  0  0  0  0
  7 30  1  0  0  0  0
  8 31  1  0  0  0  0
  8 32  1  0  0  0  0
  8 33  1  0  0  0  0
  9 10  1  0  0  0  0
  9 34  1  0  0  0  0
  9 35  1  0  0  0  0
 10 11  1  0  0  0  0
 10 36  1  0  0  0  0
 11 12  2  0  0  0  0
 11 13  1  0  0  0  0
 13 14  1  0  0  0  0
 14 18  1  0  0  0  0
 14 15  2  0  0  0  0
 15 16  1  0  0  0  0
 16 17  2  0  0  0  0
 17 18  1  0  0  0  0
 17 37  1  0  0  0  0
 19 20  1  0  0  0  0
 19 38  1  0  0  0  0
 19 39  1  0  0  0  0
 20 40  1  0  0  0  0
 20 41  1  0  0  0  0
M  CHG  1   3   1
M  CHG  1  13  -1
M  END
> <s_m_source_file>
AV-unprocessed.smi

> <i_m_source_file_index>
1817

> <i_lp_mmshare_version>
43012

> <i_f3d_flags>
0

> <s_epik_input>
W0NIM11bQ0gyXU4xW0NIMl1bQ0gyXU4oW0NIMl1bQ0gyXTEpW0NASF0oW0NIM10pW0NIMl1bTkhdQyg9TylbTkhdYzJubltjSF1zMg==

> <s_epik_cmdline>
J2VwaWtfcHl0aG9uJywgJy1waCcsICc3LjAnLCAnLXRuJywgJzgnLCAnLW1hJywgJzIwMCcsICctbWV0YWxfYmluZGluZycsICctaW1hZScsICc8aW5maWxlLm1hZT4nLCAnLW9tYWUnLCAnPG91dGZpbGUubWFlPic=

> <r_lp_tautomer_probability>
1

> <r_epik_Ionization_Penalty>
3.58527

> <r_epik_Ionization_Penalty_Charging>
3.54445

> <r_epik_Ionization_Penalty_Neutral>
0.0408199

> <r_epik_State_Penalty>
3.6633

> <r_epik_Charging_Adjusted_Penalty>
7.20774

> <i_epik_Tot_Q>
0

> <i_epik_Tot_abs_Q>
2

> <r_epik_Metal_State_Penalty>
0.683711

> <b_epik_Metal_Only>
1

> <s_lp_Force_Field>
OPLS_2005

> <r_lp_Energy>
13.2913

> <b_lp_Chiralities_Consistent>
1

> <s_lp_Variant>
AV-unprocessed.smi:1817-8

> <Gold.Version>
5.8.1

> <Gold.Id.Protein>
6NUR|6NUR_protein|mol2

> <Gold.PLP.Fitness>
46.9935

> <Gold.PLP.PLP>
-33.6641

> <Gold.PLP.part.hbond>
-4.0000

> <Gold.PLP.part.metal>
0.0000

> <Gold.PLP.part.buried>
-4.9170

> <Gold.PLP.part.nonpolar>
-26.0089

> <Gold.PLP.part.repulsive>
0.3067

> <Gold.PLP.ligand.clash>
0.1294

> <Gold.PLP.ligand.torsion>
1.9155

> <Gold.PLP.Chemscore.Hbond>
5.7160

> <Gold.PLP.Chemscore.CHOScore>
0.0000

> <Gold.PLP.Chemscore.Metal>
0.0000

> <Gold.Chemscore.Hbonds>
donor molecule, donor type, donor heavy atom, donor atom, acceptor molecule, acceptor atom, score
      L1  H     3    42       P1  8028  2.00
      P1  H  6896  6909       L1    12  0.42
      P1  H  6934  6947       L1    13  1.51

> <Gold.PLP.Chemscore.Internal.Correction>
0.1419

> <Gold.Rescore>
     Score         DG    S(hbond)    S(metal)    S(lipo)     H(rot)  DE(clash)    DE(int)     intcor
     13.62     -16.79       2.85        0.00      56.51       1.88       0.03       3.14       ----

> <Gold.Chemscore.Fitness>
13.6229

> <Gold.Chemscore.DG>
-16.7917

> <Gold.Chemscore.ZeroCoef>
-5.4800

> <Gold.Chemscore.Hbond>
2.8501

> <Gold.Chemscore.Metal>
0.0000

> <Gold.Chemscore.Lipo>
56.5080

> <Gold.Chemscore.Internal_Hbond>
0.0000

> <Gold.Chemscore.DEClash>
0.0304

> <Gold.Chemscore.DEInternal>
3.1385

> <Gold.Chemscore.Rot>
1.8825

> <Gold.Chemscore.Internal.Correction>
   9.000000E+99

> <Gold.Chemscore.Hbonds>
donor molecule, donor type, donor heavy atom, donor atom, acceptor molecule, acceptor atom, score
      L1  H     3    42       P1  8028  0.65
      P1  H  6896  6909       L1    12  0.43
      P1  H  6934  6947       L1    13  0.69

> <Gold.Chemscore.Hbond.Weighted>
-9.5194

> <Gold.Chemscore.Metal.Weighted>
-0.0000

> <Gold.Chemscore.Lipo.Weighted>
-6.6114

> <Gold.Chemscore.Internal_Hbond.Weighted>
0.0000

> <Gold.Chemscore.DEClash.Weighted>
0.0304

> <Gold.Chemscore.DEInternal.Weighted>
3.1385

> <Gold.Chemscore.Rot.Weighted>
4.8191

> <Gold.Chemscore.Internal.Correction.Weighted>
   9.000000E+99

> <Gold.Protein.RotatedTorsions>
[ 6907 6896 6895 6894 ] final   43.49 input  -60.11 | X-H torsion
[ 7974 7965 7964 7962 ] final   54.85 input  175.53 | X-H torsion
[ 8008 7997 7996 7995 ] final -129.81 input   59.86 | X-H torsion
[ 10167 10162 10161 10158 ] final  171.36 input  -65.29 | X-H torsion
[ 10718 10713 10712 10709 ] final   66.29 input   66.30 | X-H torsion
[ 10763 10752 10751 10750 ] final  -49.11 input  -60.55 | X-H torsion
[ 11005 11000 10999 10996 ] final  -82.26 input  -57.11 | X-H torsion

> <Gold.Protein.ActiveResidues>
 VAL166  LYS551  ARG553  GLY616  TRP617  ASP618  TYR619  PRO620  LYS621  CYS622 
 ASP623  PHE694  ASN695  SER759  ASP760  ASP761  ALA762  ILE779  LEU786  VAL792 
 PHE793  MET794  SER795  GLU796  ALA797  LYS798  CYS799  TRP800  GLU811  SER814 

> <Gold.Protein.RotatedAtoms>
  152.2209  134.8414  160.0485 H   0  0  0  0  0  0  0  0  0  0  0  0  # atno 6907 bound_to 6896
  151.9197  133.3577  159.3901 H   0  0  0  0  0  0  0  0  0  0  0  0  # atno 6908 bound_to 6896
  150.7000  134.4572  159.5408 H   0  0  0  0  0  0  0  0  0  0  0  0  # atno 6909 bound_to 6896
  145.9565  139.4020  143.0274 H   0  0  0  0  0  0  0  0  0  0  0  0  # atno 7974 bound_to 7965
  155.2854  140.0446  157.3019 H   0  0  0  0  0  0  0  0  0  0  0  0  # atno 8008 bound_to 7997
  154.5572  140.2335  155.8359 H   0  0  0  0  0  0  0  0  0  0  0  0  # atno 8009 bound_to 7997
  156.2017  140.3024  155.9548 H   0  0  0  0  0  0  0  0  0  0  0  0  # atno 8010 bound_to 7997
  139.5044  144.3494  151.9938 H   0  0  0  0  0  0  0  0  0  0  0  0  # atno 10167 bound_to 10162
  157.6159  130.9259  150.0089 H   0  0  0  0  0  0  0  0  0  0  0  0  # atno 10718 bound_to 10713
  154.0888  135.6580  153.4849 H   0  0  0  0  0  0  0  0  0  0  0  0  # atno 10763 bound_to 10752
  153.0329  135.5197  154.7401 H   0  0  0  0  0  0  0  0  0  0  0  0  # atno 10764 bound_to 10752
  154.6519  135.3002  154.9945 H   0  0  0  0  0  0  0  0  0  0  0  0  # atno 10765 bound_to 10752
  141.1664  133.7236  156.8544 H   0  0  0  0  0  0  0  0  0  0  0  0  # atno 11005 bound_to 11000
  145.8099  140.9731  143.0954 LP  0  0  0  0  0  0  0  0  0  0  0  0  # atno 17320 bound_to 7965
  144.6806  139.9907  143.7484 LP  0  0  0  0  0  0  0  0  0  0  0  0  # atno 17321 bound_to 7965
  140.2931  144.3732  150.6082 LP  0  0  0  0  0  0  0  0  0  0  0  0  # atno 17342 bound_to 10162
  140.5931  143.2167  151.7215 LP  0  0  0  0  0  0  0  0  0  0  0  0  # atno 17343 bound_to 10162
  156.1281  130.3644  149.9775 LP  0  0  0  0  0  0  0  0  0  0  0  0  # atno 17370 bound_to 10713
  156.7842  130.9232  151.3646 LP  0  0  0  0  0  0  0  0  0  0  0  0  # atno 17371 bound_to 10713
  140.1892  134.8977  157.3041 LP  0  0  0  0  0  0  0  0  0  0  0  0  # atno 17394 bound_to 11000
  140.2308  134.3911  155.7522 LP  0  0  0  0  0  0  0  0  0  0  0  0  # atno 17395 bound_to 11000

$$$$
