AV-unprocessed.smi:855|AV-procd|sdf|3956|dock10
  -GOLD-   22720 1423D 1   1.00000     0.00000
 Structure written by MMmdl.
 36 37  0  0  0  0  0  0  0  0  2 V2000
  152.0620  140.4202  157.6804 C   0  0  0  0  0  0  0  0  0  0  0  0
  151.4341  139.7168  156.5262 C   0  0  0  0  0  0  0  0  0  0  0  0
  151.0097  138.4310  156.3399 C   0  0  0  0  0  0  0  0  0  0  0  0
  150.5122  138.4482  155.0098 C   0  0  0  0  0  0  0  0  0  0  0  0
  149.9650  137.2794  154.4215 N   0  0  0  0  0  0  0  0  0  0  0  0
  149.6921  136.1104  155.0260 C   0  0  0  0  0  0  0  0  0  0  0  0
  149.8753  135.8671  156.2192 O   0  0  0  0  0  0  0  0  0  0  0  0
  149.1883  135.2173  154.1617 N   0  0  0  0  0  0  0  0  0  0  0  0
  148.7773  133.8622  154.5101 C   0  0  0  0  0  0  0  0  0  0  0  0
  148.4132  133.0374  153.2612 C   0  0  0  0  0  0  0  0  0  0  0  0
  147.5862  133.8135  152.3086 N   0  3  0  0  0  0  0  0  0  0  0  0
  147.1170  133.0631  151.1182 C   0  0  0  0  0  0  0  0  0  0  0  0
  145.6523  133.4600  150.8881 C   0  0  0  0  0  0  0  0  0  0  0  0
  145.4473  134.6973  151.7561 C   0  0  0  0  0  0  0  0  0  0  0  0
  146.4060  134.4589  152.9178 C   0  0  0  0  0  0  0  0  0  0  0  0
  150.6249  139.6358  154.4350 N   0  0  0  0  0  0  0  0  0  0  0  0
  151.2174  140.4547  155.4035 O   0  0  0  0  0  0  0  0  0  0  0  0
  151.8361  139.9090  158.6164 H   0  0  0  0  0  0  0  0  0  0  0  0
  151.6952  141.4438  157.7589 H   0  0  0  0  0  0  0  0  0  0  0  0
  153.1454  140.4562  157.5669 H   0  0  0  0  0  0  0  0  0  0  0  0
  151.0490  137.6136  157.0446 H   0  0  0  0  0  0  0  0  0  0  0  0
  149.7625  137.3405  153.4347 H   0  0  0  0  0  0  0  0  0  0  0  0
  149.0683  135.4992  153.1995 H   0  0  0  0  0  0  0  0  0  0  0  0
  149.5695  133.3691  155.0763 H   0  0  0  0  0  0  0  0  0  0  0  0
  147.9205  133.9391  155.1794 H   0  0  0  0  0  0  0  0  0  0  0  0
  149.3129  132.6749  152.7616 H   0  0  0  0  0  0  0  0  0  0  0  0
  147.8465  132.1554  153.5637 H   0  0  0  0  0  0  0  0  0  0  0  0
  147.7377  133.3347  150.2640 H   0  0  0  0  0  0  0  0  0  0  0  0
  147.1980  131.9837  151.2558 H   0  0  0  0  0  0  0  0  0  0  0  0
  145.4257  133.6429  149.8372 H   0  0  0  0  0  0  0  0  0  0  0  0
  144.9973  132.6590  151.2338 H   0  0  0  0  0  0  0  0  0  0  0  0
  145.7444  135.5913  151.2059 H   0  0  0  0  0  0  0  0  0  0  0  0
  144.4129  134.8249  152.0771 H   0  0  0  0  0  0  0  0  0  0  0  0
  145.9459  133.7821  153.6401 H   0  0  0  0  0  0  0  0  0  0  0  0
  146.6733  135.3793  153.4381 H   0  0  0  0  0  0  0  0  0  0  0  0
  148.1611  134.5676  151.9603 H   0  0  0  0  0  0  0  0  0  0  0  0
  1  2  1  0  0  0  0
  1 18  1  0  0  0  0
  1 19  1  0  0  0  0
  1 20  1  0  0  0  0
  2 17  1  0  0  0  0
  2  3  2  0  0  0  0
  3  4  1  0  0  0  0
  3 21  1  0  0  0  0
  4  5  1  0  0  0  0
  4 16  2  0  0  0  0
  5  6  1  0  0  0  0
  5 22  1  0  0  0  0
  6  7  2  0  0  0  0
  6  8  1  0  0  0  0
  8  9  1  0  0  0  0
  8 23  1  0  0  0  0
  9 10  1  0  0  0  0
  9 24  1  0  0  0  0
  9 25  1  0  0  0  0
 10 11  1  0  0  0  0
 10 26  1  0  0  0  0
 10 27  1  0  0  0  0
 11 15  1  0  0  0  0
 11 12  1  0  0  0  0
 11 36  1  0  0  0  0
 12 13  1  0  0  0  0
 12 28  1  0  0  0  0
 12 29  1  0  0  0  0
 13 14  1  0  0  0  0
 13 30  1  0  0  0  0
 13 31  1  0  0  0  0
 14 15  1  0  0  0  0
 14 32  1  0  0  0  0
 14 33  1  0  0  0  0
 15 34  1  0  0  0  0
 15 35  1  0  0  0  0
 16 17  1  0  0  0  0
M  CHG  1  11   1
M  END
> <s_m_source_file>
AV-unprocessed.smi

> <i_m_source_file_index>
855

> <i_lp_mmshare_version>
43012

> <i_f3d_flags>
0

> <s_epik_input>
W0NIM11jMVtjSF1jKG5vMSlbTkhdQyg9TylbTkhdW0NIMl1bQ0gyXU4yW0NIMl1bQ0gyXVtDSDJdW0NIMl0y

> <s_epik_cmdline>
J2VwaWtfcHl0aG9uJywgJy1waCcsICc3LjAnLCAnLXRuJywgJzgnLCAnLW1hJywgJzIwMCcsICctbWV0YWxfYmluZGluZycsICctaW1hZScsICc8aW5maWxlLm1hZT4nLCAnLW9tYWUnLCAnPG91dGZpbGUubWFlPic=

> <r_epik_Ionization_Penalty>
0.00243703

> <r_epik_Ionization_Penalty_Charging>
0.00240122

> <r_epik_Ionization_Penalty_Neutral>
3.58091e-05

> <r_epik_State_Penalty>
0.00166069

> <r_epik_Charging_Adjusted_Penalty>
0.00406191

> <i_epik_Tot_Q>
1

> <i_epik_Tot_abs_Q>
1

> <r_epik_Metal_State_Penalty>
0.021664

> <b_epik_Metal_Only>
0

> <s_lp_Force_Field>
OPLS_2005

> <r_lp_Energy>
23.058

> <b_lp_Chiralities_Consistent>
1

> <s_lp_Variant>
AV-unprocessed.smi:855-1

> <Gold.Version>
5.8.1

> <Gold.Id.Protein>
6NUR|6NUR_protein|mol2

> <Gold.PLP.Fitness>
35.9785

> <Gold.PLP.PLP>
-24.7263

> <Gold.PLP.part.hbond>
-4.9623

> <Gold.PLP.part.metal>
0.0000

> <Gold.PLP.part.buried>
-3.0621

> <Gold.PLP.part.nonpolar>
-16.8422

> <Gold.PLP.part.repulsive>
0.2375

> <Gold.PLP.ligand.clash>
0.0000

> <Gold.PLP.ligand.torsion>
0.1291

> <Gold.PLP.Chemscore.Hbond>
3.8337

> <Gold.PLP.Chemscore.CHOScore>
0.0000

> <Gold.PLP.Chemscore.Metal>
0.0000

> <Gold.Chemscore.Hbonds>
donor molecule, donor type, donor heavy atom, donor atom, acceptor molecule, acceptor atom, score
      L1  H     5    22       P1  7948  0.80
      L1  H     8    23       P1  7948  0.91
      L1  H    11    36       P1  7948  1.40

> <Gold.PLP.Chemscore.Internal.Correction>
0.0094

> <Gold.Rescore>
     Score         DG    S(hbond)    S(metal)    S(lipo)     H(rot)  DE(clash)    DE(int)     intcor
     13.21     -14.69       2.46        0.00      43.44       1.60       0.01       1.48       ----

> <Gold.Chemscore.Fitness>
13.2056

> <Gold.Chemscore.DG>
-14.6892

> <Gold.Chemscore.ZeroCoef>
-5.4800

> <Gold.Chemscore.Hbond>
2.4632

> <Gold.Chemscore.Metal>
0.0000

> <Gold.Chemscore.Lipo>
43.4438

> <Gold.Chemscore.Internal_Hbond>
0.0000

> <Gold.Chemscore.DEClash>
0.0069

> <Gold.Chemscore.DEInternal>
1.4767

> <Gold.Chemscore.Rot>
1.6019

> <Gold.Chemscore.Internal.Correction>
   9.000000E+99

> <Gold.Chemscore.Hbonds>
donor molecule, donor type, donor heavy atom, donor atom, acceptor molecule, acceptor atom, score
      L1  H     5    22       P1  7948  0.49
      L1  H     8    23       P1  7948  0.44
      L1  H    11    36       P1  7948  0.07

> <Gold.Chemscore.Hbond.Weighted>
-8.2272

> <Gold.Chemscore.Metal.Weighted>
-0.0000

> <Gold.Chemscore.Lipo.Weighted>
-5.0829

> <Gold.Chemscore.Internal_Hbond.Weighted>
0.0000

> <Gold.Chemscore.DEClash.Weighted>
0.0069

> <Gold.Chemscore.DEInternal.Weighted>
1.4767

> <Gold.Chemscore.Rot.Weighted>
4.1009

> <Gold.Chemscore.Internal.Correction.Weighted>
   9.000000E+99

> <Gold.Protein.RotatedTorsions>
[ 6907 6896 6895 6894 ] final  -94.91 input  -60.11 | X-H torsion
[ 7974 7965 7964 7962 ] final   62.60 input  175.53 | X-H torsion
[ 8008 7997 7996 7995 ] final  -73.62 input   59.86 | X-H torsion
[ 10167 10162 10161 10158 ] final -165.84 input  -65.29 | X-H torsion
[ 10718 10713 10712 10709 ] final -154.46 input   66.30 | X-H torsion
[ 10763 10752 10751 10750 ] final   66.15 input  -60.55 | X-H torsion
[ 11005 11000 10999 10996 ] final   10.83 input  -57.11 | X-H torsion

> <Gold.Protein.ActiveResidues>
 VAL166  LYS551  ARG553  GLY616  TRP617  ASP618  TYR619  PRO620  LYS621  CYS622 
 ASP623  PHE694  ASN695  SER759  ASP760  ASP761  ALA762  ILE779  LEU786  VAL792 
 PHE793  MET794  SER795  GLU796  ALA797  LYS798  CYS799  TRP800  GLU811  SER814 

> <Gold.Protein.RotatedAtoms>
  150.6952  134.1739  159.4222 H   0  0  0  0  0  0  0  0  0  0  0  0  # atno 6907 bound_to 6896
  151.9716  135.0071  160.0562 H   0  0  0  0  0  0  0  0  0  0  0  0  # atno 6908 bound_to 6896
  152.1836  133.4689  159.5008 H   0  0  0  0  0  0  0  0  0  0  0  0  # atno 6909 bound_to 6896
  145.8715  139.3381  143.0760 H   0  0  0  0  0  0  0  0  0  0  0  0  # atno 7974 bound_to 7965
  154.5262  140.0776  156.8263 H   0  0  0  0  0  0  0  0  0  0  0  0  # atno 8008 bound_to 7997
  155.3470  140.3410  155.4221 H   0  0  0  0  0  0  0  0  0  0  0  0  # atno 8009 bound_to 7997
  156.1734  140.1627  156.8393 H   0  0  0  0  0  0  0  0  0  0  0  0  # atno 8010 bound_to 7997
  139.6155  144.0729  152.1883 H   0  0  0  0  0  0  0  0  0  0  0  0  # atno 10167 bound_to 10162
  156.4997  130.8385  151.2604 H   0  0  0  0  0  0  0  0  0  0  0  0  # atno 10718 bound_to 10713
  153.0127  135.5331  154.6779 H   0  0  0  0  0  0  0  0  0  0  0  0  # atno 10763 bound_to 10752
  154.5946  135.2862  155.0601 H   0  0  0  0  0  0  0  0  0  0  0  0  # atno 10764 bound_to 10752
  154.1681  135.6536  153.5055 H   0  0  0  0  0  0  0  0  0  0  0  0  # atno 10765 bound_to 10752
  140.5101  134.0661  155.7816 H   0  0  0  0  0  0  0  0  0  0  0  0  # atno 11005 bound_to 11000
  145.9132  140.9166  143.0443 LP  0  0  0  0  0  0  0  0  0  0  0  0  # atno 17320 bound_to 7965
  144.6726  140.1188  143.7451 LP  0  0  0  0  0  0  0  0  0  0  0  0  # atno 17321 bound_to 7965
  140.0358  144.6046  150.7451 LP  0  0  0  0  0  0  0  0  0  0  0  0  # atno 17342 bound_to 10162
  140.7348  143.2733  151.3820 LP  0  0  0  0  0  0  0  0  0  0  0  0  # atno 17343 bound_to 10162
  157.7464  130.9986  150.2858 LP  0  0  0  0  0  0  0  0  0  0  0  0  # atno 17370 bound_to 10713
  156.3345  130.3805  149.7462 LP  0  0  0  0  0  0  0  0  0  0  0  0  # atno 17371 bound_to 10713
  141.1390  133.9171  157.2369 LP  0  0  0  0  0  0  0  0  0  0  0  0  # atno 17394 bound_to 11000
  139.9664  135.0141  156.9397 LP  0  0  0  0  0  0  0  0  0  0  0  0  # atno 17395 bound_to 11000

$$$$
