#       Name:                AV-unprocessed.smi:682
#       Creating user name   scv26
#       Creation time:       Fri Mar 27 00:29:39 2020


#       File generated by GOLD software.
#

@<TRIPOS>MOLECULE
AV-unprocessed.smi:682
    46    47     1
SMALL
NO_CHARGES


@<TRIPOS>ATOM
      1 ****        -4.6744  -0.5566   2.0571 C.3            1 S1                 0.0000
      2 ****        -3.7535  -0.4204   0.9818 O.3            1 S1                 0.0000
      3 ****        -2.7023  -1.3917   0.8880 C.3            1 S1                 0.0000
      4 ****        -3.2829  -2.8093   0.8097 C.3            1 S1                 0.0000
      5 ****        -1.5992  -1.0831   1.9189 C.3            1 S1                 0.0000
      6 ****        -1.0393  -0.0824   0.9099 C.3            1 S1                 0.0000
      7 ****         0.4194  -0.0580   0.8878 N.am           1 S1                 0.0000
      8 ****         1.1479   0.7919   0.1517 C.2            1 S1                 0.0000
      9 ****         0.6562   1.6590  -0.5709 O.2            1 S1                 0.0000
     10 ****         2.4632   0.5655   0.3015 N.am           1 S1                 0.0000
     11 ****         3.5309   1.2522  -0.3302 C.2            1 S1                 0.0000
     12 ****         4.9061   0.9503  -0.1521 C.2            1 S1                 0.0000
     13 ****         5.6713   1.7581  -0.8709 N.2            1 S1                 0.0000
     14 ****         4.8064   2.5807  -1.5128 N.pl3          1 S1                 0.0000
     15 ****         5.3244   3.6010  -2.3988 C.3            1 S1                 0.0000
     16 ****         3.4899   2.3010  -1.2050 C.2            1 S1                 0.0000
     17 ****        -1.6959  -0.9247  -0.2144 C.3            1 S1                 0.0000
     18 ****        -0.8298  -2.0303  -0.8480 C.3            1 S1                 0.0000
     19 ****        -2.2823  -0.1329  -1.3885 C.3            1 S1                 0.0000
     20 ****        -5.3036   0.3323   2.1005 H              1 S1                 0.0000
     21 ****        -4.1771  -0.6565   3.0214 H              1 S1                 0.0000
     22 ****        -5.3352  -1.4113   1.9130 H              1 S1                 0.0000
     23 ****        -2.5073  -3.5563   0.6447 H              1 S1                 0.0000
     24 ****        -4.0010  -2.8984  -0.0056 H              1 S1                 0.0000
     25 ****        -3.7854  -3.0968   1.7329 H              1 S1                 0.0000
     26 ****        -1.9284  -0.6355   2.8561 H              1 S1                 0.0000
     27 ****        -0.9409  -1.9342   2.1024 H              1 S1                 0.0000
     28 ****        -1.4969   0.9031   1.0259 H              1 S1                 0.0000
     29 ****         0.9001  -0.7392   1.4568 H              1 S1                 0.0000
     30 ****         2.7288  -0.1830   0.9244 H              1 S1                 0.0000
     31 ****         5.3655   0.1881   0.4599 H              1 S1                 0.0000
     32 ****         4.5035   4.1753  -2.8291 H              1 S1                 0.0000
     33 ****         5.8915   3.1359  -3.2055 H              1 S1                 0.0000
     34 ****         5.9764   4.2764  -1.8440 H              1 S1                 0.0000
     35 ****         2.6694   2.8613  -1.6283 H              1 S1                 0.0000
     36 ****        -0.0385  -1.6145  -1.4727 H              1 S1                 0.0000
     37 ****        -1.4249  -2.6895  -1.4807 H              1 S1                 0.0000
     38 ****        -0.3463  -2.6564  -0.0980 H              1 S1                 0.0000
     39 ****        -1.5029   0.2140  -2.0676 H              1 S1                 0.0000
     40 ****        -2.8208   0.7542  -1.0547 H              1 S1                 0.0000
     41 ****        -2.9805  -0.7377  -1.9676 H              1 S1                 0.0000
     42 ****        -3.3246   0.4790   1.0659 LP             1 S1                 0.0000
     43 ****        -4.2773  -0.4617   0.1309 LP             1 S1                 0.0000
     44 ****        -0.3373   1.7561  -0.6302 LP             1 S1                 0.0000
     45 ****         1.2503   2.2661  -1.0985 LP             1 S1                 0.0000
     46 ****         6.6697   1.7604  -0.9275 LP             1 S1                 0.0000
@<TRIPOS>BOND
    1    1    2 1     
    2    1   20 1     
    3    1   21 1     
    4    1   22 1     
    5    2    3 1     
    6    3   17 1     
    7    3    4 1     
    8    3    5 1     
    9    4   23 1     
   10    4   24 1     
   11    4   25 1     
   12    5    6 1     
   13    5   26 1     
   14    5   27 1     
   15    6    7 1     
   16    6   17 1     
   17    6   28 1     
   18    7    8 am    
   19    7   29 1     
   20    8    9 2     
   21    8   10 am    
   22   10   11 1     
   23   10   30 1     
   24   11   16 2     
   25   11   12 1     
   26   12   13 2     
   27   12   31 1     
   28   13   14 1     
   29   14   15 1     
   30   14   16 1     
   31   15   32 1     
   32   15   33 1     
   33   15   34 1     
   34   16   35 1     
   35   17   18 1     
   36   17   19 1     
   37   18   36 1     
   38   18   37 1     
   39   18   38 1     
   40   19   39 1     
   41   19   40 1     
   42   19   41 1     
   43    2   42 1     
   44    2   43 1     
   45    9   44 1     
   46    9   45 1     
   47   13   46 1     
@<TRIPOS>SUBSTRUCTURE
      1 S1             1
@<TRIPOS>SET
LONE_PAIRS      STATIC     ATOMS    <user>   **** ""
5 42 43 44 45 46
DONOR_HYDROGENS      STATIC     ATOMS    <user>   **** ""
2 29 30
ATOM$BLUE        STATIC     ATOMS    COLORGROUP SYSTEM
5 42 43 44 45 46
ATOM$RED        STATIC     ATOMS    COLORGROUP SYSTEM
2 29 30
