#       Name:                AV-unprocessed.smi:2243
#       Creating user name   scv26
#       Creation time:       Fri Mar 27 12:27:18 2020


#       File generated by GOLD software.
#

@<TRIPOS>MOLECULE
AV-unprocessed.smi:2243
    41    42     1
SMALL
NO_CHARGES


@<TRIPOS>ATOM
      1 ****        -1.4207  -1.1748  -2.2302 C.3            1 S1                 0.0000
      2 ****        -1.0264  -0.4097  -0.9554 C.3            1 S1                 0.0000
      3 ****         0.4305  -0.2670  -0.9490 N.am           1 S1                 0.0000
      4 ****         1.1217   0.8839  -0.9372 C.2            1 S1                 0.0000
      5 ****         0.5559   1.9816  -0.9265 O.2            1 S1                 0.0000
      6 ****         2.4825   0.6137  -0.9337 N.2            1 S1                 0.0000
      7 ****         3.3337   1.5925  -0.9187 C.2            1 S1                 0.0000
      8 ****         4.7169   1.5093  -0.9108 N.pl3          1 S1                 0.0000
      9 ****         5.2199   2.7809  -0.8948 C.2            1 S1                 0.0000
     10 ****         4.1970   3.6306  -0.8934 C.2            1 S1                 0.0000
     11 ****         3.0266   2.9338  -0.9078 O.3            1 S1                 0.0000
     12 ****        -1.5103  -1.0982   0.3488 C.3            1 S1                 0.0000
     13 ****        -3.0453  -1.2329   0.4129 C.3            1 S1                 0.0000
     14 ****        -3.4958  -1.8539   1.7451 C.3            1 S1                 0.0000
     15 ****        -3.0195  -1.0720   2.8330 O.3            1 S1                 0.0000
     16 ****        -1.5994  -1.0228   2.8908 C.3            1 S1                 0.0000
     17 ****        -1.0422  -0.3591   1.6212 C.3            1 S1                 0.0000
     18 ****        -2.5005  -1.1930  -2.3740 H              1 S1                 0.0000
     19 ****        -1.0677  -2.2061  -2.2002 H              1 S1                 0.0000
     20 ****        -0.9927  -0.7036  -3.1158 H              1 S1                 0.0000
     21 ****        -1.4956   0.5740  -1.0101 H              1 S1                 0.0000
     22 ****         0.9631  -1.1249  -0.9573 H              1 S1                 0.0000
     23 ****         5.2941   0.6808  -0.9154 H              1 S1                 0.0000
     24 ****         6.2871   2.9461  -0.8858 H              1 S1                 0.0000
     25 ****         4.1381   4.7087  -0.8834 H              1 S1                 0.0000
     26 ****        -1.0863  -2.1034   0.3765 H              1 S1                 0.0000
     27 ****        -3.5081  -0.2520   0.2963 H              1 S1                 0.0000
     28 ****        -3.4147  -1.8522  -0.4038 H              1 S1                 0.0000
     29 ****        -4.5842  -1.8914   1.7905 H              1 S1                 0.0000
     30 ****        -3.1387  -2.8810   1.8364 H              1 S1                 0.0000
     31 ****        -1.3041  -0.4508   3.7704 H              1 S1                 0.0000
     32 ****        -1.1938  -2.0280   3.0150 H              1 S1                 0.0000
     33 ****         0.0461  -0.3415   1.6820 H              1 S1                 0.0000
     34 ****        -1.3679   0.6813   1.5846 H              1 S1                 0.0000
     35 ****        -0.4429   2.0293  -0.9265 LP             1 S1                 0.0000
     36 ****         1.0966   2.8228  -0.9179 LP             1 S1                 0.0000
     37 ****         2.8061  -0.3324  -0.9427 LP             1 S1                 0.0000
     38 ****         2.4905   3.1531  -0.0927 LP             1 S1                 0.0000
     39 ****         2.5012   3.1689  -1.7255 LP             1 S1                 0.0000
     40 ****        -3.3612  -1.4675   3.6855 LP             1 S1                 0.0000
     41 ****        -3.3685  -0.1400   2.7346 LP             1 S1                 0.0000
@<TRIPOS>BOND
    1    1    2 1     
    2    1   18 1     
    3    1   19 1     
    4    1   20 1     
    5    2    3 1     
    6    2   12 1     
    7    2   21 1     
    8    3   22 1     
    9    3    4 am    
   10    4    6 1     
   11    4    5 2     
   12    6    7 2     
   13    7   11 1     
   14    7    8 1     
   15    8   23 1     
   16    8    9 1     
   17    9   24 1     
   18    9   10 2     
   19   10   25 1     
   20   10   11 1     
   21   12   17 1     
   22   12   13 1     
   23   12   26 1     
   24   13   14 1     
   25   13   27 1     
   26   13   28 1     
   27   14   15 1     
   28   14   29 1     
   29   14   30 1     
   30   15   16 1     
   31   16   17 1     
   32   16   31 1     
   33   16   32 1     
   34   17   33 1     
   35   17   34 1     
   36    5   35 1     
   37    5   36 1     
   38    6   37 1     
   39   11   38 1     
   40   11   39 1     
   41   15   40 1     
   42   15   41 1     
@<TRIPOS>SUBSTRUCTURE
      1 S1             1
@<TRIPOS>SET
LONE_PAIRS      STATIC     ATOMS    <user>   **** ""
7 35 36 37 38 39 40 41
DONOR_HYDROGENS      STATIC     ATOMS    <user>   **** ""
2 22 23
ATOM$BLUE        STATIC     ATOMS    COLORGROUP SYSTEM
7 35 36 37 38 39 40 41
ATOM$RED        STATIC     ATOMS    COLORGROUP SYSTEM
2 22 23
