#       Name:                AV-unprocessed.smi:1695
#       Creating user name   scv26
#       Creation time:       Fri Mar 27 07:55:05 2020


#       File generated by GOLD software.
#

@<TRIPOS>MOLECULE
AV-unprocessed.smi:1695
    56    58     1
SMALL
NO_CHARGES


@<TRIPOS>ATOM
      1 ****        -3.9510   3.8536   1.9954 C.3            1 S1                 0.0000
      2 ****        -3.5061   2.7935   1.0033 C.ar           1 S1                 0.0000
      3 ****        -3.1185   3.1888  -0.2968 C.ar           1 S1                 0.0000
      4 ****        -2.6988   2.2347  -1.2490 C.ar           1 S1                 0.0000
      5 ****        -2.2777   2.3958  -2.5578 N.2            1 S1                 0.0000
      6 ****        -2.0212   1.1407  -2.9139 C.2            1 S1                 0.0000
      7 ****        -2.2204   0.1840  -1.9870 N.pl3          1 S1                 0.0000
      8 ****        -1.9965  -1.2412  -2.1447 C.3            1 S1                 0.0000
      9 ****        -0.5142  -1.6260  -1.9733 C.3            1 S1                 0.0000
     10 ****        -0.4035  -3.0194  -2.1814 O.3            1 S1                 0.0000
     11 ****         0.0558  -1.2852  -0.5784 C.3            1 S1                 0.0000
     12 ****         1.5120  -1.5594  -0.4765 N.4            1 S1                 1.0000
     13 ****         2.3507  -0.5028  -1.1021 C.3            1 S1                 0.0000
     14 ****         3.8416  -0.8919  -1.0883 C.3            1 S1                 0.0000
     15 ****         4.3678  -1.2430   0.3197 C.3            1 S1                 0.0000
     16 ****         4.6147   0.0021   1.1925 C.2            1 S1                 0.0000
     17 ****         5.8699   0.2236   1.5908 N.am           1 S1                 0.0000
     18 ****         3.6954   0.7549   1.5068 O.2            1 S1                 0.0000
     19 ****         3.4149  -2.2593   0.9844 C.3            1 S1                 0.0000
     20 ****         1.9337  -1.8389   0.9196 C.3            1 S1                 0.0000
     21 ****        -2.6775   0.8627  -0.8620 C.ar           1 S1                 0.0000
     22 ****        -3.0609   0.4567   0.4285 C.ar           1 S1                 0.0000
     23 ****        -3.4773   1.4233   1.3676 C.ar           1 S1                 0.0000
     24 ****        -3.8893   0.9757   2.7588 C.3            1 S1                 0.0000
     25 ****        -3.9030   4.8521   1.5599 H              1 S1                 0.0000
     26 ****        -3.3123   3.8434   2.8788 H              1 S1                 0.0000
     27 ****        -4.9797   3.6751   2.3092 H              1 S1                 0.0000
     28 ****        -3.1397   4.2325  -0.5744 H              1 S1                 0.0000
     29 ****        -1.6613   0.9025  -3.9042 H              1 S1                 0.0000
     30 ****        -2.6180  -1.7739  -1.4237 H              1 S1                 0.0000
     31 ****        -2.3505  -1.5322  -3.1350 H              1 S1                 0.0000
     32 ****         0.0605  -1.1260  -2.7525 H              1 S1                 0.0000
     33 ****        -0.9708  -3.4636  -1.5694 H              1 S1                 0.0000
     34 ****        -0.1158  -0.2388  -0.3242 H              1 S1                 0.0000
     35 ****        -0.4885  -1.8681   0.1663 H              1 S1                 0.0000
     36 ****         2.0447  -0.3420  -2.1350 H              1 S1                 0.0000
     37 ****         2.1924   0.4459  -0.5883 H              1 S1                 0.0000
     38 ****         3.9867  -1.7521  -1.7433 H              1 S1                 0.0000
     39 ****         4.4346  -0.0860  -1.5230 H              1 S1                 0.0000
     40 ****         5.3335  -1.7361   0.1935 H              1 S1                 0.0000
     41 ****         6.0863   1.0260   2.1644 H              1 S1                 0.0000
     42 ****         6.6024  -0.4151   1.3154 H              1 S1                 0.0000
     43 ****         3.5292  -3.2243   0.4887 H              1 S1                 0.0000
     44 ****         3.7037  -2.4248   2.0235 H              1 S1                 0.0000
     45 ****         1.7452  -0.9646   1.5431 H              1 S1                 0.0000
     46 ****         1.3242  -2.6458   1.3284 H              1 S1                 0.0000
     47 ****        -3.0345  -0.5894   0.6947 H              1 S1                 0.0000
     48 ****        -3.8136  -0.1066   2.8677 H              1 S1                 0.0000
     49 ****        -4.9219   1.2607   2.9618 H              1 S1                 0.0000
     50 ****        -3.2487   1.4334   3.5129 H              1 S1                 0.0000
     51 ****         1.6744  -2.4115  -0.9944 H              1 S1                 0.0000
     52 ****        -2.1896   3.2351  -3.0943 LP             1 S1                 0.0000
     53 ****         0.5425  -3.3076  -2.0333 LP             1 S1                 0.0000
     54 ****        -0.6773  -3.2426  -3.1170 LP             1 S1                 0.0000
     55 ****         2.7645   0.5646   1.1950 LP             1 S1                 0.0000
     56 ****         3.8783   1.5577   2.0743 LP             1 S1                 0.0000
@<TRIPOS>BOND
    1    1    2 1     
    2    1   25 1     
    3    1   26 1     
    4    1   27 1     
    5    2   23 ar    
    6    2    3 ar    
    7    3    4 ar    
    8    3   28 1     
    9    4   21 ar    
   10    4    5 1     
   11    5    6 2     
   12    6    7 1     
   13    6   29 1     
   14    7    8 1     
   15    7   21 1     
   16    8    9 1     
   17    8   30 1     
   18    8   31 1     
   19    9   10 1     
   20    9   11 1     
   21    9   32 1     
   22   10   33 1     
   23   11   12 1     
   24   11   34 1     
   25   11   35 1     
   26   12   20 1     
   27   12   13 1     
   28   12   51 1     
   29   13   14 1     
   30   13   36 1     
   31   13   37 1     
   32   14   15 1     
   33   14   38 1     
   34   14   39 1     
   35   15   16 1     
   36   15   19 1     
   37   15   40 1     
   38   16   17 am    
   39   16   18 2     
   40   17   41 1     
   41   17   42 1     
   42   19   20 1     
   43   19   43 1     
   44   19   44 1     
   45   20   45 1     
   46   20   46 1     
   47   21   22 ar    
   48   22   23 ar    
   49   22   47 1     
   50   23   24 1     
   51   24   48 1     
   52   24   49 1     
   53   24   50 1     
   54    5   52 1     
   55   10   53 1     
   56   10   54 1     
   57   18   55 1     
   58   18   56 1     
@<TRIPOS>SUBSTRUCTURE
      1 S1             1
@<TRIPOS>SET
LONE_PAIRS      STATIC     ATOMS    <user>   **** ""
5 52 53 54 55 56
DONOR_HYDROGENS      STATIC     ATOMS    <user>   **** ""
4 33 51 41 42
ATOM$BLUE        STATIC     ATOMS    COLORGROUP SYSTEM
5 52 53 54 55 56
ATOM$RED        STATIC     ATOMS    COLORGROUP SYSTEM
4 33 51 41 42
