AV-unprocessed.smi:3350|AV-procd|sdf|12941|dock1
  -GOLD-   2272019373D 1   1.00000     0.00000
 Structure written by MMmdl.
 41 42  0  0  0  0  0  0  0  0  1 V2000
  148.5828  131.7923  154.0105 C   0  0  0  0  0  0  0  0  0  0  0  0
  147.6589  132.8829  153.4516 C   0  0  2  0  0  0  0  0  0  0  0  0
  147.2636  132.5908  151.9882 C   0  0  0  0  0  0  0  0  0  0  0  0
  146.1500  133.4070  151.5346 N   0  0  0  0  0  0  0  0  0  0  0  0
  146.0602  134.7819  151.4817 C   0  0  0  0  0  0  0  0  0  0  0  0
  144.8336  135.0897  150.9667 C   0  0  0  0  0  0  0  0  0  0  0  0
  144.2351  133.8194  150.7381 C   0  0  0  0  0  0  0  0  0  0  0  0
  145.0240  132.8142  151.0805 N   0  0  0  0  0  0  0  0  0  0  0  0
  148.3287  134.1787  153.5572 N   0  0  0  0  0  0  0  0  0  0  0  0
  148.9162  134.6612  154.6619 C   0  0  0  0  0  0  0  0  0  0  0  0
  149.0348  134.0316  155.7134 O   0  0  0  0  0  0  0  0  0  0  0  0
  149.3263  135.9257  154.4919 N   0  0  0  0  0  0  0  0  0  0  0  0
  149.9168  136.7694  155.5280 C   0  0  1  0  0  0  0  0  0  0  0  0
  151.1731  136.0689  156.0680 C   0  0  0  0  0  0  0  0  0  0  0  0
  150.2290  138.1695  154.9551 C   0  0  2  0  0  0  0  0  0  0  0  0
  150.9381  139.1166  155.9274 C   0  0  0  0  0  0  0  0  0  0  0  0
  150.5009  140.5057  155.4828 C   0  0  0  0  0  0  0  0  0  0  0  0
  149.4001  140.2399  154.4559 C   0  0  0  0  0  0  0  0  0  0  0  0
  149.0369  138.8853  154.6671 O   0  0  0  0  0  0  0  0  0  0  0  0
  148.1021  130.8145  153.9710 H   0  0  0  0  0  0  0  0  0  0  0  0
  148.8395  131.9898  155.0518 H   0  0  0  0  0  0  0  0  0  0  0  0
  149.5123  131.7294  153.4433 H   0  0  0  0  0  0  0  0  0  0  0  0
  146.7540  132.8811  154.0617 H   0  0  0  0  0  0  0  0  0  0  0  0
  148.1158  132.7457  151.3238 H   0  0  0  0  0  0  0  0  0  0  0  0
  146.9735  131.5448  151.8814 H   0  0  0  0  0  0  0  0  0  0  0  0
  146.8712  135.4186  151.8029 H   0  0  0  0  0  0  0  0  0  0  0  0
  144.4267  136.0720  150.7790 H   0  0  0  0  0  0  0  0  0  0  0  0
  143.2581  133.5993  150.3337 H   0  0  0  0  0  0  0  0  0  0  0  0
  148.2846  134.7778  152.7461 H   0  0  0  0  0  0  0  0  0  0  0  0
  149.1761  136.3543  153.5905 H   0  0  0  0  0  0  0  0  0  0  0  0
  149.2129  136.8729  156.3560 H   0  0  0  0  0  0  0  0  0  0  0  0
  151.6206  136.6305  156.8882 H   0  0  0  0  0  0  0  0  0  0  0  0
  151.9298  135.9553  155.2909 H   0  0  0  0  0  0  0  0  0  0  0  0
  150.9346  135.0755  156.4485 H   0  0  0  0  0  0  0  0  0  0  0  0
  150.8120  138.0812  154.0359 H   0  0  0  0  0  0  0  0  0  0  0  0
  150.5961  138.9392  156.9480 H   0  0  0  0  0  0  0  0  0  0  0  0
  152.0212  138.9923  155.9113 H   0  0  0  0  0  0  0  0  0  0  0  0
  150.1194  141.0741  156.3316 H   0  0  0  0  0  0  0  0  0  0  0  0
  151.3207  141.0721  155.0401 H   0  0  0  0  0  0  0  0  0  0  0  0
  148.5438  140.9044  154.5719 H   0  0  0  0  0  0  0  0  0  0  0  0
  149.7850  140.3526  153.4414 H   0  0  0  0  0  0  0  0  0  0  0  0
  1  2  1  0  0  0  0
  1 20  1  0  0  0  0
  1 21  1  0  0  0  0
  1 22  1  0  0  0  0
  2  3  1  0  0  0  0
  2  9  1  0  0  0  0
  2 23  1  0  0  0  0
  3  4  1  0  0  0  0
  3 24  1  0  0  0  0
  3 25  1  0  0  0  0
  4  8  1  0  0  0  0
  4  5  1  0  0  0  0
  5  6  2  0  0  0  0
  5 26  1  0  0  0  0
  6  7  1  0  0  0  0
  6 27  1  0  0  0  0
  7  8  2  0  0  0  0
  7 28  1  0  0  0  0
  9 10  1  0  0  0  0
  9 29  1  0  0  0  0
 10 11  2  0  0  0  0
 10 12  1  0  0  0  0
 12 13  1  0  0  0  0
 12 30  1  0  0  0  0
 13 14  1  0  0  0  0
 13 15  1  0  0  0  0
 13 31  1  0  0  0  0
 14 32  1  0  0  0  0
 14 33  1  0  0  0  0
 14 34  1  0  0  0  0
 15 19  1  0  0  0  0
 15 16  1  0  0  0  0
 15 35  1  0  0  0  0
 16 17  1  0  0  0  0
 16 36  1  0  0  0  0
 16 37  1  0  0  0  0
 17 18  1  0  0  0  0
 17 38  1  0  0  0  0
 17 39  1  0  0  0  0
 18 19  1  0  0  0  0
 18 40  1  0  0  0  0
 18 41  1  0  0  0  0
M  END
> <s_m_source_file>
AV-unprocessed.smi

> <i_m_source_file_index>
3350

> <i_lp_mmshare_version>
43012

> <i_f3d_flags>
0

> <s_epik_input>
bjFbY0hdW2NIXVtjSF1uMVtDSDJdW0NAQEhdKFtDSDNdKVtOSF1DKD1PKVtOSF1bQ0BIXShbQ0gzXSlbQ0BASF0yW0NIMl1bQ0gyXVtDSDJdTzI=

> <s_epik_cmdline>
J2VwaWtfcHl0aG9uJywgJy1waCcsICc3LjAnLCAnLXRuJywgJzgnLCAnLW1hJywgJzIwMCcsICctbWV0YWxfYmluZGluZycsICctaW1hZScsICc8aW5maWxlLm1hZT4nLCAnLW9tYWUnLCAnPG91dGZpbGUubWFlPic=

> <r_lp_tautomer_probability>
1

> <r_epik_Ionization_Penalty>
6.42349e-05

> <r_epik_Ionization_Penalty_Charging>
0

> <r_epik_Ionization_Penalty_Neutral>
6.42349e-05

> <r_epik_State_Penalty>
-0

> <r_epik_Charging_Adjusted_Penalty>
0

> <i_epik_Tot_Q>
0

> <i_epik_Tot_abs_Q>
0

> <r_epik_Metal_State_Penalty>
-0

> <b_epik_Metal_Only>
0

> <s_lp_Force_Field>
OPLS_2005

> <r_lp_Energy>
14.9436

> <b_lp_Chiralities_Consistent>
1

> <s_lp_Variant>
AV-unprocessed.smi:3350-3

> <Gold.Version>
5.8.1

> <Gold.Id.Protein>
6NUR|6NUR_protein|mol2

> <Gold.PLP.Fitness>
40.5827

> <Gold.PLP.PLP>
-29.1027

> <Gold.PLP.part.hbond>
-2.0000

> <Gold.PLP.part.metal>
0.0000

> <Gold.PLP.part.buried>
-0.2258

> <Gold.PLP.part.nonpolar>
-26.5000

> <Gold.PLP.part.repulsive>
0.2988

> <Gold.PLP.ligand.clash>
0.0000

> <Gold.PLP.ligand.torsion>
0.2201

> <Gold.PLP.Chemscore.Hbond>
1.9440

> <Gold.PLP.Chemscore.CHOScore>
2.0000

> <Gold.PLP.Chemscore.Metal>
0.0000

> <Gold.Chemscore.Hbonds>
donor molecule, donor type, donor heavy atom, donor atom, acceptor molecule, acceptor atom, score
      L1  H     9    29       P1  7948  0.96
      L1  H    12    30       P1  7948  1.00
      L1  C     5    26       P1  7948  1.00
      L1  C     7    28       P1 10186  1.00

> <Gold.PLP.Chemscore.Internal.Correction>
0.0882

> <Gold.Rescore>
     Score         DG    S(hbond)    S(metal)    S(lipo)     H(rot)  DE(clash)    DE(int)     intcor
     12.34     -14.14       1.68        0.00      65.82       1.82       0.05       1.74       ----

> <Gold.Chemscore.Fitness>
12.3403

> <Gold.Chemscore.DG>
-14.1352

> <Gold.Chemscore.ZeroCoef>
-5.4800

> <Gold.Chemscore.Hbond>
1.6806

> <Gold.Chemscore.Metal>
0.0000

> <Gold.Chemscore.Lipo>
65.8158

> <Gold.Chemscore.Internal_Hbond>
0.0000

> <Gold.Chemscore.DEClash>
0.0504

> <Gold.Chemscore.DEInternal>
1.7445

> <Gold.Chemscore.Rot>
1.8197

> <Gold.Chemscore.Internal.Correction>
   9.000000E+99

> <Gold.Chemscore.Hbonds>
donor molecule, donor type, donor heavy atom, donor atom, acceptor molecule, acceptor atom, score
      L1  H     9    29       P1  7948  0.51
      L1  H    12    30       P1  7948  0.90

> <Gold.Chemscore.Hbond.Weighted>
-5.6131

> <Gold.Chemscore.Metal.Weighted>
-0.0000

> <Gold.Chemscore.Lipo.Weighted>
-7.7005

> <Gold.Chemscore.Internal_Hbond.Weighted>
0.0000

> <Gold.Chemscore.DEClash.Weighted>
0.0504

> <Gold.Chemscore.DEInternal.Weighted>
1.7445

> <Gold.Chemscore.Rot.Weighted>
4.6583

> <Gold.Chemscore.Internal.Correction.Weighted>
   9.000000E+99

> <Gold.Protein.RotatedTorsions>
[ 6907 6896 6895 6894 ] final    9.88 input  -60.11 | X-H torsion
[ 7974 7965 7964 7962 ] final   70.74 input  175.53 | X-H torsion
[ 8008 7997 7996 7995 ] final  104.53 input   59.86 | X-H torsion
[ 10167 10162 10161 10158 ] final  140.13 input  -65.29 | X-H torsion
[ 10718 10713 10712 10709 ] final -168.66 input   66.30 | X-H torsion
[ 10763 10752 10751 10750 ] final -176.51 input  -60.55 | X-H torsion
[ 11005 11000 10999 10996 ] final -170.94 input  -57.11 | X-H torsion

> <Gold.Protein.ActiveResidues>
 VAL166  LYS551  ARG553  GLY616  TRP617  ASP618  TYR619  PRO620  LYS621  CYS622 
 ASP623  PHE694  ASN695  SER759  ASP760  ASP761  ALA762  ILE779  LEU786  VAL792 
 PHE793  MET794  SER795  GLU796  ALA797  LYS798  CYS799  TRP800  GLU811  SER814 

> <Gold.Protein.RotatedAtoms>
  151.7293  135.0878  160.0297 H   0  0  0  0  0  0  0  0  0  0  0  0  # atno 6907 bound_to 6896
  152.3552  133.6223  159.5982 H   0  0  0  0  0  0  0  0  0  0  0  0  # atno 6908 bound_to 6896
  150.7566  133.9428  159.3503 H   0  0  0  0  0  0  0  0  0  0  0  0  # atno 6909 bound_to 6896
  145.7744  139.2858  143.1302 H   0  0  0  0  0  0  0  0  0  0  0  0  # atno 7974 bound_to 7965
  156.1580  140.3146  155.8759 H   0  0  0  0  0  0  0  0  0  0  0  0  # atno 8008 bound_to 7997
  155.3839  140.0489  157.3060 H   0  0  0  0  0  0  0  0  0  0  0  0  # atno 8009 bound_to 7997
  154.5120  140.2168  155.9150 H   0  0  0  0  0  0  0  0  0  0  0  0  # atno 8010 bound_to 7997
  139.5058  144.6253  151.5952 H   0  0  0  0  0  0  0  0  0  0  0  0  # atno 10167 bound_to 10162
  156.7002  130.9193  151.3079 H   0  0  0  0  0  0  0  0  0  0  0  0  # atno 10718 bound_to 10713
  154.5715  135.2828  155.0822 H   0  0  0  0  0  0  0  0  0  0  0  0  # atno 10763 bound_to 10752
  154.2193  135.6394  153.5143 H   0  0  0  0  0  0  0  0  0  0  0  0  # atno 10764 bound_to 10752
  153.0059  135.5510  154.6340 H   0  0  0  0  0  0  0  0  0  0  0  0  # atno 10765 bound_to 10752
  140.5139  134.5775  157.5027 H   0  0  0  0  0  0  0  0  0  0  0  0  # atno 11005 bound_to 11000
  146.0137  140.8412  142.9958 LP  0  0  0  0  0  0  0  0  0  0  0  0  # atno 17320 bound_to 7965
  144.6807  140.2527  143.7329 LP  0  0  0  0  0  0  0  0  0  0  0  0  # atno 17321 bound_to 7965
  140.5968  143.9682  150.6359 LP  0  0  0  0  0  0  0  0  0  0  0  0  # atno 17342 bound_to 10162
  140.2880  143.3343  152.1089 LP  0  0  0  0  0  0  0  0  0  0  0  0  # atno 17343 bound_to 10162
  157.6976  130.9298  150.0690 LP  0  0  0  0  0  0  0  0  0  0  0  0  # atno 17370 bound_to 10713
  156.1734  130.3647  149.9133 LP  0  0  0  0  0  0  0  0  0  0  0  0  # atno 17371 bound_to 10713
  139.9643  134.7399  156.0170 LP  0  0  0  0  0  0  0  0  0  0  0  0  # atno 17394 bound_to 11000
  141.1371  133.6573  156.3623 LP  0  0  0  0  0  0  0  0  0  0  0  0  # atno 17395 bound_to 11000

$$$$
