#       Name:                AV-unprocessed.smi:1329
#       Creating user name   scv26
#       Creation time:       Fri Mar 27 05:05:44 2020


#       File generated by GOLD software.
#

@<TRIPOS>MOLECULE
AV-unprocessed.smi:1329
    50    51     1
SMALL
NO_CHARGES


@<TRIPOS>ATOM
      1 ****        -1.3535   4.2652  -3.4176 C.3            1 S1                 0.0000
      2 ****        -1.2384   3.4080  -2.1859 C.2            1 S1                 0.0000
      3 ****        -0.7588   2.2188  -2.3490 N.2            1 S1                 0.0000
      4 ****        -0.6107   1.3518  -1.2852 N.am           1 S1                 0.0000
      5 ****        -0.0521   0.0461  -1.6543 C.3            1 S1                 0.0000
      6 ****         1.4606  -0.0411  -1.3526 C.3            1 S1                 0.0000
      7 ****         2.1747   0.4567  -2.4663 O.3            1 S1                 0.0000
      8 ****         1.9228  -1.4872  -1.1211 C.3            1 S1                 0.0000
      9 ****         1.3738  -1.9475   0.1025 O.3            1 S1                 0.0000
     10 ****         1.7416  -3.2816   0.4122 C.3            1 S1                 0.0000
     11 ****         1.1461  -3.7483   1.7280 C.ar           1 S1                 0.0000
     12 ****         0.9169  -2.8326   2.7780 C.ar           1 S1                 0.0000
     13 ****         0.3794  -3.2775   4.0015 C.ar           1 S1                 0.0000
     14 ****         0.0750  -4.6402   4.1844 C.ar           1 S1                 0.0000
     15 ****         0.3109  -5.5587   3.1433 C.ar           1 S1                 0.0000
     16 ****         0.8478  -5.1140   1.9191 C.ar           1 S1                 0.0000
     17 ****        -0.9315   1.6446   0.0079 C.2            1 S1                 0.0000
     18 ****        -0.7676   0.8437   0.9296 O.2            1 S1                 0.0000
     19 ****        -1.4776   2.9921   0.1852 C.2            1 S1                 0.0000
     20 ****        -1.8306   3.3397   1.5239 C.1            1 S1                 0.0000
     21 ****        -2.1216   3.6411   2.6030 N.1            1 S1                 0.0000
     22 ****        -1.6350   3.8511  -0.8530 C.2            1 S1                 0.0000
     23 ****        -2.1956   5.2607  -0.7213 C.3            1 S1                 0.0000
     24 ****        -0.8206   5.2073  -3.2870 H              1 S1                 0.0000
     25 ****        -2.3976   4.4937  -3.6322 H              1 S1                 0.0000
     26 ****        -0.9368   3.7721  -4.2972 H              1 S1                 0.0000
     27 ****        -0.5888  -0.7258  -1.0996 H              1 S1                 0.0000
     28 ****        -0.2492  -0.1850  -2.7033 H              1 S1                 0.0000
     29 ****         1.7248   0.5546  -0.4780 H              1 S1                 0.0000
     30 ****         1.9191   1.3555  -2.6073 H              1 S1                 0.0000
     31 ****         1.6120  -2.1280  -1.9483 H              1 S1                 0.0000
     32 ****         3.0120  -1.5285  -1.0630 H              1 S1                 0.0000
     33 ****         1.4102  -3.9459  -0.3876 H              1 S1                 0.0000
     34 ****         2.8274  -3.3638   0.4773 H              1 S1                 0.0000
     35 ****         1.1515  -1.7857   2.6512 H              1 S1                 0.0000
     36 ****         0.2025  -2.5730   4.8008 H              1 S1                 0.0000
     37 ****        -0.3363  -4.9810   5.1232 H              1 S1                 0.0000
     38 ****         0.0816  -6.6047   3.2841 H              1 S1                 0.0000
     39 ****         1.0290  -5.8254   1.1266 H              1 S1                 0.0000
     40 ****        -2.5507   5.4704   0.2872 H              1 S1                 0.0000
     41 ****        -3.0385   5.4058  -1.3978 H              1 S1                 0.0000
     42 ****        -1.4295   5.9984  -0.9625 H              1 S1                 0.0000
     43 ****        -0.4895   1.9207  -3.2647 LP             1 S1                 0.0000
     44 ****         1.9579  -0.0872  -3.2770 LP             1 S1                 0.0000
     45 ****         3.1572   0.4093  -2.2861 LP             1 S1                 0.0000
     46 ****         0.3769  -1.8984   0.0421 LP             1 S1                 0.0000
     47 ****         1.6930  -1.3507   0.8387 LP             1 S1                 0.0000
     48 ****        -0.3858  -0.0616   0.7434 LP             1 S1                 0.0000
     49 ****        -1.0163   1.0989   1.8640 LP             1 S1                 0.0000
     50 ****        -2.3730   3.9014   3.5352 LP             1 S1                 0.0000
@<TRIPOS>BOND
    1    1    2 1     
    2    1   24 1     
    3    1   25 1     
    4    1   26 1     
    5    2   22 1     
    6    2    3 2     
    7    3    4 1     
    8    4    5 1     
    9    4   17 am    
   10    5    6 1     
   11    5   27 1     
   12    5   28 1     
   13    6    7 1     
   14    6    8 1     
   15    6   29 1     
   16    7   30 1     
   17    8    9 1     
   18    8   31 1     
   19    8   32 1     
   20    9   10 1     
   21   10   11 1     
   22   10   33 1     
   23   10   34 1     
   24   11   16 ar    
   25   11   12 ar    
   26   12   13 ar    
   27   12   35 1     
   28   13   14 ar    
   29   13   36 1     
   30   14   15 ar    
   31   14   37 1     
   32   15   16 ar    
   33   15   38 1     
   34   16   39 1     
   35   17   18 2     
   36   17   19 1     
   37   19   20 1     
   38   19   22 2     
   39   20   21 3     
   40   22   23 1     
   41   23   40 1     
   42   23   41 1     
   43   23   42 1     
   44    3   43 1     
   45    7   44 1     
   46    7   45 1     
   47    9   46 1     
   48    9   47 1     
   49   18   48 1     
   50   18   49 1     
   51   21   50 1     
@<TRIPOS>SUBSTRUCTURE
      1 S1             1
@<TRIPOS>SET
LONE_PAIRS      STATIC     ATOMS    <user>   **** ""
8 43 44 45 46 47 48 49 50
DONOR_HYDROGENS      STATIC     ATOMS    <user>   **** ""
1 30
ATOM$BLUE        STATIC     ATOMS    COLORGROUP SYSTEM
8 43 44 45 46 47 48 49 50
ATOM$RED        STATIC     ATOMS    COLORGROUP SYSTEM
1 30
