AV-unprocessed.smi:102|AV-procd|sdf|972|dock1
  -GOLD-   2262017523D 1   1.00000     0.00000
 Structure written by MMmdl.
 43 44  0  0  0  0  0  0  0  0  2 V2000
  155.4609  136.3181  157.3918 C   0  0  0  0  0  0  0  0  0  0  0  0
  154.8540  137.2836  158.4008 C   0  0  0  0  0  0  0  0  0  0  0  0
  155.2909  138.4262  158.5390 O   0  0  0  0  0  0  0  0  0  0  0  0
  153.8283  136.7374  159.0791 O   0  0  0  0  0  0  0  0  0  0  0  0
  153.1741  137.4679  160.1081 C   0  0  0  0  0  0  0  0  0  0  0  0
  152.2529  138.5405  159.5087 C   0  0  1  0  0  0  0  0  0  0  0  0
  152.9596  139.3461  158.5762 O   0  0  0  0  0  0  0  0  0  0  0  0
  152.0390  139.9787  157.7482 C   0  0  2  0  0  0  0  0  0  0  0  0
  151.6597  141.3079  158.3868 N   0  0  0  0  0  0  0  0  0  0  0  0
  152.3240  141.8083  159.4984 C   0  0  0  0  0  0  0  0  0  0  0  0
  152.0283  143.0196  160.0113 C   0  0  0  0  0  0  0  0  0  0  0  0
  152.6941  143.4707  161.0882 F   0  0  0  0  0  0  0  0  0  0  0  0
  151.0003  143.8406  159.3784 C   0  0  0  0  0  0  0  0  0  0  0  0
  150.7128  144.9319  159.8678 O   0  0  0  0  0  0  0  0  0  0  0  0
  150.4043  143.3552  158.2522 N   0  5  0  0  0  0  0  0  0  0  0  0
  150.7131  142.1365  157.7195 C   0  0  0  0  0  0  0  0  0  0  0  0
  150.2056  141.7185  156.6788 O   0  0  0  0  0  0  0  0  0  0  0  0
  150.8560  139.0072  157.5823 C   0  0  1  0  0  0  0  0  0  0  0  0
  150.8936  138.3863  156.3036 O   0  0  0  0  0  0  0  0  0  0  0  0
  150.9355  139.1339  155.1872 C   0  0  0  0  0  0  0  0  0  0  0  0
  150.2679  138.4458  154.0042 C   0  0  0  0  0  0  0  0  0  0  0  0
  151.4442  140.2498  155.0790 O   0  0  0  0  0  0  0  0  0  0  0  0
  151.1115  137.9572  158.6659 C   0  0  2  0  0  0  0  0  0  0  0  0
  149.9520  137.7676  159.4664 O   0  0  0  0  0  0  0  0  0  0  0  0
  149.2891  136.5989  159.4317 C   0  0  0  0  0  0  0  0  0  0  0  0
  148.0361  136.6173  160.2971 C   0  0  0  0  0  0  0  0  0  0  0  0
  149.6103  135.6012  158.7859 O   0  0  0  0  0  0  0  0  0  0  0  0
  154.6980  135.9658  156.6976 H   0  0  0  0  0  0  0  0  0  0  0  0
  155.8890  135.4567  157.9045 H   0  0  0  0  0  0  0  0  0  0  0  0
  156.2500  136.8073  156.8203 H   0  0  0  0  0  0  0  0  0  0  0  0
  152.6307  136.8147  160.7925 H   0  0  0  0  0  0  0  0  0  0  0  0
  153.9515  137.9552  160.6968 H   0  0  0  0  0  0  0  0  0  0  0  0
  151.8504  139.1747  160.3000 H   0  0  0  0  0  0  0  0  0  0  0  0
  152.4865  140.2329  156.7864 H   0  0  0  0  0  0  0  0  0  0  0  0
  153.1120  141.2446  159.9719 H   0  0  0  0  0  0  0  0  0  0  0  0
  149.9024  139.5163  157.7181 H   0  0  0  0  0  0  0  0  0  0  0  0
  149.2461  138.1636  154.2581 H   0  0  0  0  0  0  0  0  0  0  0  0
  150.8192  137.5461  153.7302 H   0  0  0  0  0  0  0  0  0  0  0  0
  150.2384  139.1102  153.1404 H   0  0  0  0  0  0  0  0  0  0  0  0
  151.4413  137.0193  158.2150 H   0  0  0  0  0  0  0  0  0  0  0  0
  148.2679  136.9916  161.2942 H   0  0  0  0  0  0  0  0  0  0  0  0
  147.6211  135.6138  160.3924 H   0  0  0  0  0  0  0  0  0  0  0  0
  147.2803  137.2636  159.8507 H   0  0  0  0  0  0  0  0  0  0  0  0
  1  2  1  0  0  0  0
  1 28  1  0  0  0  0
  1 29  1  0  0  0  0
  1 30  1  0  0  0  0
  2  3  2  0  0  0  0
  2  4  1  0  0  0  0
  4  5  1  0  0  0  0
  5  6  1  0  0  0  0
  5 31  1  0  0  0  0
  5 32  1  0  0  0  0
  6 23  1  0  0  0  0
  6  7  1  0  0  0  0
  6 33  1  0  0  0  0
  7  8  1  0  0  0  0
  8  9  1  0  0  0  0
  8 18  1  0  0  0  0
  8 34  1  0  0  0  0
  9 16  1  0  0  0  0
  9 10  1  0  0  0  0
 10 11  2  0  0  0  0
 10 35  1  0  0  0  0
 11 12  1  0  0  0  0
 11 13  1  0  0  0  0
 13 14  2  0  0  0  0
 13 15  1  0  0  0  0
 15 16  1  0  0  0  0
 16 17  2  0  0  0  0
 18 19  1  0  0  0  0
 18 23  1  0  0  0  0
 18 36  1  0  0  0  0
 19 20  1  0  0  0  0
 20 21  1  0  0  0  0
 20 22  2  0  0  0  0
 21 37  1  0  0  0  0
 21 38  1  0  0  0  0
 21 39  1  0  0  0  0
 23 24  1  0  0  0  0
 23 40  1  0  0  0  0
 24 25  1  0  0  0  0
 25 26  1  0  0  0  0
 25 27  2  0  0  0  0
 26 41  1  0  0  0  0
 26 42  1  0  0  0  0
 26 43  1  0  0  0  0
M  CHG  1  15  -1
M  END
> <s_m_source_file>
AV-unprocessed.smi

> <i_m_source_file_index>
102

> <i_lp_mmshare_version>
43012

> <i_f3d_flags>
0

> <s_epik_input>
W0NIM11DKD1PKU9bQ0gyXVtDQEBIXTFPW0NASF0oW0NAQEhdKE9DKD1PKVtDSDNdKVtDQEhdMU9DKD1PKVtDSDNdKW4yW2NIXWMoRiljKD1PKVtuSF1jMj1P

> <s_epik_cmdline>
J2VwaWtfcHl0aG9uJywgJy1waCcsICc3LjAnLCAnLXRuJywgJzgnLCAnLW1hJywgJzIwMCcsICctbWV0YWxfYmluZGluZycsICctaW1hZScsICc8aW5maWxlLm1hZT4nLCAnLW9tYWUnLCAnPG91dGZpbGUubWFlPic=

> <r_epik_Ionization_Penalty>
1.40304

> <r_epik_Ionization_Penalty_Charging>
1.43915e-08

> <r_epik_Ionization_Penalty_Neutral>
1.40304

> <r_epik_State_Penalty>
1.48536

> <r_epik_Charging_Adjusted_Penalty>
1.48536

> <i_epik_Tot_Q>
-1

> <i_epik_Tot_abs_Q>
1

> <r_epik_Metal_State_Penalty>
0.00663881

> <b_epik_Metal_Only>
0

> <s_epik_Chemistry_Notes>
This compound has an ester and may undergo hydrolysis at high or low pH. This compound contains an acetal/aminal-like group ( X-CH(R)-Y where X, Y are N, S, or O) that may be acid/base labile, releasing an aldehyde.

> <s_lp_Force_Field>
OPLS_2005

> <r_lp_Energy>
19.0054

> <b_lp_Chiralities_Consistent>
1

> <s_lp_Variant>
AV-unprocessed.smi:102-28

> <Gold.Version>
5.8.1

> <Gold.Id.Protein>
6NUR|6NUR_protein|mol2

> <Gold.PLP.Fitness>
45.7518

> <Gold.PLP.PLP>
-39.2005

> <Gold.PLP.part.hbond>
-4.0746

> <Gold.PLP.part.metal>
0.0000

> <Gold.PLP.part.buried>
-8.1989

> <Gold.PLP.part.nonpolar>
-28.5486

> <Gold.PLP.part.repulsive>
0.4359

> <Gold.PLP.ligand.clash>
0.0685

> <Gold.PLP.ligand.torsion>
1.2742

> <Gold.PLP.Chemscore.Hbond>
2.9920

> <Gold.PLP.Chemscore.CHOScore>
0.0000

> <Gold.PLP.Chemscore.Metal>
0.0000

> <Gold.Chemscore.Hbonds>
donor molecule, donor type, donor heavy atom, donor atom, acceptor molecule, acceptor atom, score
      P1  H  6896  6908       L1    27  1.00
      P1  H  7989  7998       L1    22  1.00
      P1  H  7997  8010       L1     3  1.00

> <Gold.PLP.Chemscore.Internal.Correction>
0.1922

> <Gold.Rescore>
     Score         DG    S(hbond)    S(metal)    S(lipo)     H(rot)  DE(clash)    DE(int)     intcor
      0.79     -11.00       2.80        0.00      54.62       4.00       1.28       8.94       ----

> <Gold.Chemscore.Fitness>
0.7853

> <Gold.Chemscore.DG>
-10.9971

> <Gold.Chemscore.ZeroCoef>
-5.4800

> <Gold.Chemscore.Hbond>
2.8005

> <Gold.Chemscore.Metal>
0.0000

> <Gold.Chemscore.Lipo>
54.6225

> <Gold.Chemscore.Internal_Hbond>
0.0000

> <Gold.Chemscore.DEClash>
1.2757

> <Gold.Chemscore.DEInternal>
8.9360

> <Gold.Chemscore.Rot>
3.9951

> <Gold.Chemscore.Internal.Correction>
   9.000000E+99

> <Gold.Chemscore.Hbonds>
donor molecule, donor type, donor heavy atom, donor atom, acceptor molecule, acceptor atom, score
      P1  H  6896  6908       L1    27  0.95
      P1  H  7989  7998       L1    22  0.91
      P1  H  7997  8010       L1     3  0.95

> <Gold.Chemscore.Hbond.Weighted>
-9.3537

> <Gold.Chemscore.Metal.Weighted>
-0.0000

> <Gold.Chemscore.Lipo.Weighted>
-6.3908

> <Gold.Chemscore.Internal_Hbond.Weighted>
0.0000

> <Gold.Chemscore.DEClash.Weighted>
1.2757

> <Gold.Chemscore.DEInternal.Weighted>
8.9360

> <Gold.Chemscore.Rot.Weighted>
10.2274

> <Gold.Chemscore.Internal.Correction.Weighted>
   9.000000E+99

> <Gold.Protein.RotatedTorsions>
[ 6907 6896 6895 6894 ] final  160.83 input  -60.11 | X-H torsion
[ 7974 7965 7964 7962 ] final   56.99 input  175.53 | X-H torsion
[ 8008 7997 7996 7995 ] final  -19.17 input   59.86 | X-H torsion
[ 10167 10162 10161 10158 ] final   58.22 input  -65.29 | X-H torsion
[ 10718 10713 10712 10709 ] final   46.06 input   66.30 | X-H torsion
[ 10763 10752 10751 10750 ] final  -46.46 input  -60.55 | X-H torsion
[ 11005 11000 10999 10996 ] final  104.49 input  -57.11 | X-H torsion

> <Gold.Protein.ActiveResidues>
 VAL166  LYS551  ARG553  GLY616  TRP617  ASP618  TYR619  PRO620  LYS621  CYS622 
 ASP623  PHE694  ASN695  SER759  ASP760  ASP761  ALA762  ILE779  LEU786  VAL792 
 PHE793  MET794  SER795  GLU796  ALA797  LYS798  CYS799  TRP800  GLU811  SER814 

> <Gold.Protein.RotatedAtoms>
  151.9647  133.3706  159.4048 H   0  0  0  0  0  0  0  0  0  0  0  0  # atno 6907 bound_to 6896
  150.6958  134.4204  159.5211 H   0  0  0  0  0  0  0  0  0  0  0  0  # atno 6908 bound_to 6896
  152.1898  134.8682  160.0569 H   0  0  0  0  0  0  0  0  0  0  0  0  # atno 6909 bound_to 6896
  145.9339  139.3830  143.0404 H   0  0  0  0  0  0  0  0  0  0  0  0  # atno 7974 bound_to 7965
  154.4855  140.2096  155.9665 H   0  0  0  0  0  0  0  0  0  0  0  0  # atno 8008 bound_to 7997
  156.1229  140.3210  155.8204 H   0  0  0  0  0  0  0  0  0  0  0  0  # atno 8009 bound_to 7997
  155.4435  140.0512  157.2999 H   0  0  0  0  0  0  0  0  0  0  0  0  # atno 8010 bound_to 7997
  140.1895  144.4100  150.6577 H   0  0  0  0  0  0  0  0  0  0  0  0  # atno 10167 bound_to 10162
  157.4441  130.8099  149.7723 H   0  0  0  0  0  0  0  0  0  0  0  0  # atno 10718 bound_to 10713
  154.0454  135.6638  153.4794 H   0  0  0  0  0  0  0  0  0  0  0  0  # atno 10763 bound_to 10752
  153.0485  135.5099  154.7802 H   0  0  0  0  0  0  0  0  0  0  0  0  # atno 10764 bound_to 10752
  154.6791  135.3042  154.9603 H   0  0  0  0  0  0  0  0  0  0  0  0  # atno 10765 bound_to 10752
  139.8792  134.9302  156.5369 H   0  0  0  0  0  0  0  0  0  0  0  0  # atno 11005 bound_to 11000
  145.8390  140.9591  143.0809 LP  0  0  0  0  0  0  0  0  0  0  0  0  # atno 17320 bound_to 7965
  144.6769  140.0259  143.7483 LP  0  0  0  0  0  0  0  0  0  0  0  0  # atno 17321 bound_to 7965
  140.6465  143.2214  151.6174 LP  0  0  0  0  0  0  0  0  0  0  0  0  # atno 17342 bound_to 10162
  139.5262  144.3053  152.1039 LP  0  0  0  0  0  0  0  0  0  0  0  0  # atno 17343 bound_to 10162
  155.9960  130.3908  150.2795 LP  0  0  0  0  0  0  0  0  0  0  0  0  # atno 17370 bound_to 10713
  157.0962  131.0183  151.3103 LP  0  0  0  0  0  0  0  0  0  0  0  0  # atno 17371 bound_to 10713
  140.8339  133.8257  155.9010 LP  0  0  0  0  0  0  0  0  0  0  0  0  # atno 17394 bound_to 11000
  140.9302  134.2031  157.4869 LP  0  0  0  0  0  0  0  0  0  0  0  0  # atno 17395 bound_to 11000

$$$$
