AV-unprocessed.smi:304|AV-procd|sdf|2277|dock4
  -GOLD-   2262022173D 1   1.00000     0.00000
 Structure written by MMmdl.
 36 38  0  0  0  0  0  0  0  0  1 V2000
  149.9154  140.1143  153.7416 O   0  0  0  0  0  0  0  0  0  0  0  0
  149.1679  141.1035  154.4218 C   0  0  1  0  0  0  0  0  0  0  0  0
  147.7941  141.2241  153.7439 C   0  0  0  0  0  0  0  0  0  0  0  0
  147.0007  142.1493  154.4682 O   0  0  0  0  0  0  0  0  0  0  0  0
  146.0223  142.7829  153.6595 C   0  0  0  0  0  0  0  0  0  0  0  0
  145.1051  143.5444  154.5625 C   0  0  0  0  0  0  0  0  0  0  0  0
  145.0455  143.4684  155.9309 C   0  0  0  0  0  0  0  0  0  0  0  0
  144.0733  144.3409  156.5027 C   0  0  0  0  0  0  0  0  0  0  0  0
  143.4062  145.0807  155.5632 C   0  0  0  0  0  0  0  0  0  0  0  0
  143.9625  144.7197  153.9523 S   0  0  0  0  0  0  0  0  0  0  0  0
  149.0425  140.7070  155.9057 C   0  0  0  0  0  0  0  0  0  0  0  0
  150.3045  140.8034  156.6180 N   0  0  0  0  0  0  0  0  0  0  0  0
  151.4005  140.0444  156.4269 C   0  0  0  0  0  0  0  0  0  0  0  0
  152.4597  140.3001  157.1895 N   0  0  0  0  0  0  0  0  0  0  0  0
  151.9975  141.3477  157.9676 C   0  0  0  0  0  0  0  0  0  0  0  0
  152.6404  142.0848  158.9873 C   0  0  0  0  0  0  0  0  0  0  0  0
  151.9610  143.1257  159.6538 C   0  0  0  0  0  0  0  0  0  0  0  0
  152.5921  143.8223  160.6286 F   0  0  0  0  0  0  0  0  0  0  0  0
  150.6299  143.4441  159.3116 C   0  0  0  0  0  0  0  0  0  0  0  0
  149.9848  144.4442  159.9576 F   0  0  0  0  0  0  0  0  0  0  0  0
  149.9688  142.7236  158.2984 C   0  0  0  0  0  0  0  0  0  0  0  0
  150.6510  141.6869  157.6351 C   0  0  0  0  0  0  0  0  0  0  0  0
  149.9552  139.3437  154.2877 H   0  0  0  0  0  0  0  0  0  0  0  0
  149.6953  142.0559  154.3525 H   0  0  0  0  0  0  0  0  0  0  0  0
  147.8950  141.5170  152.6972 H   0  0  0  0  0  0  0  0  0  0  0  0
  147.2893  140.2568  153.7612 H   0  0  0  0  0  0  0  0  0  0  0  0
  146.4986  143.4578  152.9467 H   0  0  0  0  0  0  0  0  0  0  0  0
  145.4556  142.0420  153.0940 H   0  0  0  0  0  0  0  0  0  0  0  0
  145.6612  142.8203  156.5372 H   0  0  0  0  0  0  0  0  0  0  0  0
  143.9020  144.3961  157.5676 H   0  0  0  0  0  0  0  0  0  0  0  0
  142.6285  145.8140  155.7178 H   0  0  0  0  0  0  0  0  0  0  0  0
  148.3214  141.3536  156.4078 H   0  0  0  0  0  0  0  0  0  0  0  0
  148.6632  139.6886  155.9993 H   0  0  0  0  0  0  0  0  0  0  0  0
  151.4211  139.2590  155.6854 H   0  0  0  0  0  0  0  0  0  0  0  0
  153.6587  141.8491  159.2585 H   0  0  0  0  0  0  0  0  0  0  0  0
  148.9491  142.9634  158.0368 H   0  0  0  0  0  0  0  0  0  0  0  0
  1  2  1  0  0  0  0
  1 23  1  0  0  0  0
  2  3  1  0  0  0  0
  2 11  1  0  0  0  0
  2 24  1  0  0  0  0
  3  4  1  0  0  0  0
  3 25  1  0  0  0  0
  3 26  1  0  0  0  0
  4  5  1  0  0  0  0
  5  6  1  0  0  0  0
  5 27  1  0  0  0  0
  5 28  1  0  0  0  0
  6 10  1  0  0  0  0
  6  7  2  0  0  0  0
  7  8  1  0  0  0  0
  7 29  1  0  0  0  0
  8  9  2  0  0  0  0
  8 30  1  0  0  0  0
  9 10  1  0  0  0  0
  9 31  1  0  0  0  0
 11 12  1  0  0  0  0
 11 32  1  0  0  0  0
 11 33  1  0  0  0  0
 12 22  1  0  0  0  0
 12 13  1  0  0  0  0
 13 14  2  0  0  0  0
 13 34  1  0  0  0  0
 14 15  1  0  0  0  0
 15 22  2  0  0  0  0
 15 16  1  0  0  0  0
 16 17  2  0  0  0  0
 16 35  1  0  0  0  0
 17 18  1  0  0  0  0
 17 19  1  0  0  0  0
 19 20  1  0  0  0  0
 19 21  2  0  0  0  0
 21 22  1  0  0  0  0
 21 36  1  0  0  0  0
M  END
> <s_m_source_file>
AV-unprocessed.smi

> <i_m_source_file_index>
304

> <i_lp_mmshare_version>
43012

> <i_f3d_flags>
0

> <s_epik_input>
W2NIXTFjKEYpYyhGKVtjSF1jKGMxMiluKFtjSF1uMilbQ0gyXVtDQEhdKFtPSF0pW0NIMl1PW0NIMl1jM1tjSF1bY0hdW2NIXXMz

> <s_epik_cmdline>
J2VwaWtfcHl0aG9uJywgJy1waCcsICc3LjAnLCAnLXRuJywgJzgnLCAnLW1hJywgJzIwMCcsICctbWV0YWxfYmluZGluZycsICctaW1hZScsICc8aW5maWxlLm1hZT4nLCAnLW9tYWUnLCAnPG91dGZpbGUubWFlPic=

> <r_epik_Ionization_Penalty>
0.0152118

> <r_epik_Ionization_Penalty_Charging>
0

> <r_epik_Ionization_Penalty_Neutral>
0.0152118

> <r_epik_State_Penalty>
0.0119413

> <r_epik_Charging_Adjusted_Penalty>
0.0119413

> <i_epik_Tot_Q>
0

> <i_epik_Tot_abs_Q>
0

> <r_epik_Metal_State_Penalty>
1.20623e-05

> <b_epik_Metal_Only>
0

> <s_lp_Force_Field>
OPLS_2005

> <r_lp_Energy>
8.44111

> <b_lp_Chiralities_Consistent>
1

> <s_lp_Variant>
AV-unprocessed.smi:304-2

> <Gold.Version>
5.8.1

> <Gold.Id.Protein>
6NUR|6NUR_protein|mol2

> <Gold.PLP.Fitness>
50.6084

> <Gold.PLP.PLP>
-45.9349

> <Gold.PLP.part.hbond>
-3.0000

> <Gold.PLP.part.metal>
0.0000

> <Gold.PLP.part.buried>
-8.7876

> <Gold.PLP.part.nonpolar>
-33.5221

> <Gold.PLP.part.repulsive>
0.1600

> <Gold.PLP.ligand.clash>
0.0000

> <Gold.PLP.ligand.torsion>
0.4104

> <Gold.PLP.Chemscore.Hbond>
1.7680

> <Gold.PLP.Chemscore.CHOScore>
0.0000

> <Gold.PLP.Chemscore.Metal>
0.0000

> <Gold.Chemscore.Hbonds>
donor molecule, donor type, donor heavy atom, donor atom, acceptor molecule, acceptor atom, score
      P1  H  7989  7998       L1     1  0.74
      P1  H  7997  8010       L1    14  0.99

> <Gold.PLP.Chemscore.Internal.Correction>
0.1903

> <Gold.Rescore>
     Score         DG    S(hbond)    S(metal)    S(lipo)     H(rot)  DE(clash)    DE(int)     intcor
     13.49     -13.94       1.08        0.00      99.23       2.64       0.12       0.33       ----

> <Gold.Chemscore.Fitness>
13.4876

> <Gold.Chemscore.DG>
-13.9398

> <Gold.Chemscore.ZeroCoef>
-5.4800

> <Gold.Chemscore.Hbond>
1.0805

> <Gold.Chemscore.Metal>
0.0000

> <Gold.Chemscore.Lipo>
99.2319

> <Gold.Chemscore.Internal_Hbond>
0.0000

> <Gold.Chemscore.DEClash>
0.1221

> <Gold.Chemscore.DEInternal>
0.3301

> <Gold.Chemscore.Rot>
2.6403

> <Gold.Chemscore.Internal.Correction>
   9.000000E+99

> <Gold.Chemscore.Hbonds>
donor molecule, donor type, donor heavy atom, donor atom, acceptor molecule, acceptor atom, score
      P1  H  7989  7998       L1     1  0.30
      P1  H  7997  8010       L1    14  0.90

> <Gold.Chemscore.Hbond.Weighted>
-3.6089

> <Gold.Chemscore.Metal.Weighted>
-0.0000

> <Gold.Chemscore.Lipo.Weighted>
-11.6101

> <Gold.Chemscore.Internal_Hbond.Weighted>
0.0000

> <Gold.Chemscore.DEClash.Weighted>
0.1221

> <Gold.Chemscore.DEInternal.Weighted>
0.3301

> <Gold.Chemscore.Rot.Weighted>
6.7592

> <Gold.Chemscore.Internal.Correction.Weighted>
   9.000000E+99

> <Gold.Protein.RotatedTorsions>
[ 6907 6896 6895 6894 ] final    4.05 input  -60.11 | X-H torsion
[ 7974 7965 7964 7962 ] final    0.65 input  175.53 | X-H torsion
[ 8008 7997 7996 7995 ] final   61.26 input   59.86 | X-H torsion
[ 10167 10162 10161 10158 ] final  175.89 input  -65.29 | X-H torsion
[ 10718 10713 10712 10709 ] final -178.64 input   66.30 | X-H torsion
[ 10763 10752 10751 10750 ] final -108.62 input  -60.55 | X-H torsion
[ 11005 11000 10999 10996 ] final  -25.72 input  -57.11 | X-H torsion

> <Gold.Protein.ActiveResidues>
 VAL166  LYS551  ARG553  GLY616  TRP617  ASP618  TYR619  PRO620  LYS621  CYS622 
 ASP623  PHE694  ASN695  SER759  ASP760  ASP761  ALA762  ILE779  LEU786  VAL792 
 PHE793  MET794  SER795  GLU796  ALA797  LYS798  CYS799  TRP800  GLU811  SER814 

> <Gold.Protein.RotatedAtoms>
  151.6350  135.1019  160.0129 H   0  0  0  0  0  0  0  0  0  0  0  0  # atno 6907 bound_to 6896
  152.4085  133.6923  159.6386 H   0  0  0  0  0  0  0  0  0  0  0  0  # atno 6908 bound_to 6896
  150.7978  133.8582  159.3265 H   0  0  0  0  0  0  0  0  0  0  0  0  # atno 6909 bound_to 6896
  146.2436  140.1105  142.8344 H   0  0  0  0  0  0  0  0  0  0  0  0  # atno 7974 bound_to 7965
  155.5955  140.3493  155.4579 H   0  0  0  0  0  0  0  0  0  0  0  0  # atno 8008 bound_to 7997
  156.0268  140.1266  157.0324 H   0  0  0  0  0  0  0  0  0  0  0  0  # atno 8009 bound_to 7997
  154.4336  140.1051  156.6028 H   0  0  0  0  0  0  0  0  0  0  0  0  # atno 8010 bound_to 7997
  139.5194  144.2979  152.0405 H   0  0  0  0  0  0  0  0  0  0  0  0  # atno 10167 bound_to 10162
  156.8473  130.9707  151.3095 H   0  0  0  0  0  0  0  0  0  0  0  0  # atno 10718 bound_to 10713
  154.8146  135.4631  154.0608 H   0  0  0  0  0  0  0  0  0  0  0  0  # atno 10763 bound_to 10752
  153.2012  135.6869  153.8236 H   0  0  0  0  0  0  0  0  0  0  0  0  # atno 10764 bound_to 10752
  153.7720  135.3269  155.3330 H   0  0  0  0  0  0  0  0  0  0  0  0  # atno 10765 bound_to 10752
  140.8964  133.7553  156.0487 H   0  0  0  0  0  0  0  0  0  0  0  0  # atno 11005 bound_to 11000
  145.0491  140.9004  143.5006 LP  0  0  0  0  0  0  0  0  0  0  0  0  # atno 17320 bound_to 7965
  145.1200  139.2700  143.5593 LP  0  0  0  0  0  0  0  0  0  0  0  0  # atno 17321 bound_to 7965
  140.2427  144.4252  150.6253 LP  0  0  0  0  0  0  0  0  0  0  0  0  # atno 17342 bound_to 10162
  140.6279  143.2183  151.6557 LP  0  0  0  0  0  0  0  0  0  0  0  0  # atno 17343 bound_to 10162
  157.6323  130.8739  149.9296 LP  0  0  0  0  0  0  0  0  0  0  0  0  # atno 17370 bound_to 10713
  156.0847  130.3669  150.0510 LP  0  0  0  0  0  0  0  0  0  0  0  0  # atno 17371 bound_to 10713
  140.8284  134.3207  157.5357 LP  0  0  0  0  0  0  0  0  0  0  0  0  # atno 17394 bound_to 11000
  139.8736  134.9349  156.3620 LP  0  0  0  0  0  0  0  0  0  0  0  0  # atno 17395 bound_to 11000

$$$$
