#       Name:                AV-unprocessed.smi:1841
#       Creating user name   scv26
#       Creation time:       Fri Mar 27 09:19:47 2020


#       File generated by GOLD software.
#

@<TRIPOS>MOLECULE
AV-unprocessed.smi:1841
    49    50     1
SMALL
NO_CHARGES


@<TRIPOS>ATOM
      1 ****        -3.7969   7.1313   1.2890 C.3            1 S1                 0.0000
      2 ****        -3.4928   5.7500   1.2063 O.3            1 S1                 0.0000
      3 ****        -3.7571   5.2112  -0.0784 C.3            1 S1                 0.0000
      4 ****        -3.3924   3.7238  -0.0838 C.3            1 S1                 0.0000
      5 ****        -1.9734   3.6007  -0.0855 O.3            1 S1                 0.0000
      6 ****        -1.4208   2.3367  -0.0704 C.ar           1 S1                 0.0000
      7 ****        -0.0179   2.2158  -0.0370 C.ar           1 S1                 0.0000
      8 ****         0.5566   0.9304  -0.0159 C.ar           1 S1                 0.0000
      9 ****        -0.2949  -0.2013  -0.0335 C.ar           1 S1                 0.0000
     10 ****         0.1416  -1.5556  -0.0053 N.am           1 S1                 0.0000
     11 ****         1.3888  -2.0606  -0.0509 C.2            1 S1                 0.0000
     12 ****         2.4169  -1.3923  -0.1536 O.2            1 S1                 0.0000
     13 ****         1.4880  -3.5932   0.0232 C.3            1 S1                 0.0000
     14 ****         2.2448  -4.0478   1.2881 C.3            1 S1                 0.0000
     15 ****         3.5283  -4.6583   0.7508 C.2            1 S1                 0.0000
     16 ****         4.4365  -5.0536   1.4802 O.2            1 S1                 0.0000
     17 ****         3.5203  -4.6899  -0.5844 N.am           1 S1                 0.0000
     18 ****         4.5932  -5.1951  -1.4298 C.3            1 S1                 0.0000
     19 ****         2.2820  -4.1926  -1.1590 C.3            1 S1                 0.0000
     20 ****        -1.6861   0.0303  -0.0670 C.ar           1 S1                 0.0000
     21 ****        -2.2431   1.2593  -0.0859 N.ar           1 S1                 0.0000
     22 ****        -3.5725   7.4966   2.2911 H              1 S1                 0.0000
     23 ****        -4.8539   7.3147   1.0924 H              1 S1                 0.0000
     24 ****        -3.2030   7.7092   0.5798 H              1 S1                 0.0000
     25 ****        -4.8184   5.3266  -0.3040 H              1 S1                 0.0000
     26 ****        -3.1977   5.7435  -0.8494 H              1 S1                 0.0000
     27 ****        -3.8342   3.2246   0.7804 H              1 S1                 0.0000
     28 ****        -3.7977   3.2591  -0.9841 H              1 S1                 0.0000
     29 ****         0.6085   3.0957  -0.0228 H              1 S1                 0.0000
     30 ****         1.6310   0.8526   0.0195 H              1 S1                 0.0000
     31 ****        -0.5998  -2.2388   0.0525 H              1 S1                 0.0000
     32 ****         0.4814  -4.0154   0.0301 H              1 S1                 0.0000
     33 ****         2.4707  -3.2352   1.9807 H              1 S1                 0.0000
     34 ****         1.6820  -4.8067   1.8323 H              1 S1                 0.0000
     35 ****         4.8305  -6.2281  -1.1730 H              1 S1                 0.0000
     36 ****         5.4939  -4.5934  -1.3032 H              1 S1                 0.0000
     37 ****         4.3110  -5.1649  -2.4824 H              1 S1                 0.0000
     38 ****         1.7363  -5.0219  -1.6110 H              1 S1                 0.0000
     39 ****         2.4900  -3.4677  -1.9482 H              1 S1                 0.0000
     40 ****        -2.3790  -0.7985  -0.0781 H              1 S1                 0.0000
     41 ****        -4.0456   5.2591   1.8797 LP             1 S1                 0.0000
     42 ****        -2.5231   5.6222   1.4142 LP             1 S1                 0.0000
     43 ****        -1.6348   4.0802   0.7241 LP             1 S1                 0.0000
     44 ****        -1.6386   4.0591  -0.9088 LP             1 S1                 0.0000
     45 ****         2.3617  -0.3955  -0.2101 LP             1 S1                 0.0000
     46 ****         3.3076  -1.8461  -0.1806 LP             1 S1                 0.0000
     47 ****         4.3480  -4.9799   2.4736 LP             1 S1                 0.0000
     48 ****         5.2633  -5.4487   1.0798 LP             1 S1                 0.0000
     49 ****        -3.2364   1.3722  -0.1107 LP             1 S1                 0.0000
@<TRIPOS>BOND
    1    1    2 1     
    2    1   22 1     
    3    1   23 1     
    4    1   24 1     
    5    2    3 1     
    6    3    4 1     
    7    3   25 1     
    8    3   26 1     
    9    4    5 1     
   10    4   27 1     
   11    4   28 1     
   12    5    6 1     
   13    6   21 ar    
   14    6    7 ar    
   15    7    8 ar    
   16    7   29 1     
   17    8    9 ar    
   18    8   30 1     
   19    9   10 1     
   20    9   20 ar    
   21   10   11 am    
   22   10   31 1     
   23   11   12 2     
   24   11   13 1     
   25   13   19 1     
   26   13   14 1     
   27   13   32 1     
   28   14   15 1     
   29   14   33 1     
   30   14   34 1     
   31   15   16 2     
   32   15   17 am    
   33   17   18 1     
   34   17   19 1     
   35   18   35 1     
   36   18   36 1     
   37   18   37 1     
   38   19   38 1     
   39   19   39 1     
   40   20   21 ar    
   41   20   40 1     
   42    2   41 1     
   43    2   42 1     
   44    5   43 1     
   45    5   44 1     
   46   12   45 1     
   47   12   46 1     
   48   16   47 1     
   49   16   48 1     
   50   21   49 1     
@<TRIPOS>SUBSTRUCTURE
      1 S1             1
@<TRIPOS>SET
LONE_PAIRS      STATIC     ATOMS    <user>   **** ""
9 41 42 43 44 45 46 47 48 49
DONOR_HYDROGENS      STATIC     ATOMS    <user>   **** ""
1 31
ATOM$BLUE        STATIC     ATOMS    COLORGROUP SYSTEM
9 41 42 43 44 45 46 47 48 49
ATOM$RED        STATIC     ATOMS    COLORGROUP SYSTEM
1 31
