#       Name:                AV-unprocessed.smi:2775
#       Creating user name   scv26
#       Creation time:       Fri Mar 27 15:13:42 2020


#       File generated by GOLD software.
#

@<TRIPOS>MOLECULE
AV-unprocessed.smi:2775
    47    50     1
SMALL
NO_CHARGES


@<TRIPOS>ATOM
      1 ****        -5.4714   1.8021   0.2020 C.3            1 S1                 0.0000
      2 ****        -4.6796   0.7120  -0.4958 C.ar           1 S1                 0.0000
      3 ****        -5.4131  -0.2474  -1.1005 N.ar           1 S1                 0.0000
      4 ****        -4.7580  -1.2426  -1.7318 C.ar           1 S1                 0.0000
      5 ****        -3.3542  -1.3304  -1.7943 C.ar           1 S1                 0.0000
      6 ****        -2.5809  -0.3230  -1.1675 C.ar           1 S1                 0.0000
      7 ****        -1.1577  -0.2997  -1.1490 N.am           1 S1                 0.0000
      8 ****        -0.2630  -1.0968  -1.7644 C.2            1 S1                 0.0000
      9 ****        -0.5392  -1.9979  -2.5524 O.2            1 S1                 0.0000
     10 ****         1.0143  -0.8105  -1.4584 N.am           1 S1                 0.0000
     11 ****         2.2183  -1.4796  -1.9510 C.3            1 S1                 0.0000
     12 ****         3.4987  -0.8637  -1.3835 C.3            1 S1                 0.0000
     13 ****         4.5253  -1.3221  -0.4123 C.3            1 S1                 0.0000
     14 ****         5.7778  -0.8685  -1.2050 C.3            1 S1                 0.0000
     15 ****         5.2961  -0.4763  -2.5134 O.3            1 S1                 0.0000
     16 ****         4.1328  -1.2577  -2.7082 C.3            1 S1                 0.0000
     17 ****         2.7606  -0.9124  -3.3051 C.3            1 S1                 0.0000
     18 ****         2.4523   0.4948  -3.8500 C.3            1 S1                 0.0000
     19 ****         2.5925  -0.0853  -5.2614 C.3            1 S1                 0.0000
     20 ****         2.3396  -1.4755  -4.6681 C.3            1 S1                 0.0000
     21 ****        -3.2650   0.7196  -0.4981 C.ar           1 S1                 0.0000
     22 ****        -2.3884   1.9812   0.3040 Cl             1 S1                 0.0000
     23 ****        -5.2402   2.7751  -0.2324 H              1 S1                 0.0000
     24 ****        -5.2248   1.8299   1.2637 H              1 S1                 0.0000
     25 ****        -6.5461   1.6392   0.1100 H              1 S1                 0.0000
     26 ****        -5.3726  -1.9967  -2.2005 H              1 S1                 0.0000
     27 ****        -2.9143  -2.1667  -2.3128 H              1 S1                 0.0000
     28 ****        -0.7587   0.4257  -0.5709 H              1 S1                 0.0000
     29 ****         1.1670  -0.0316  -0.8341 H              1 S1                 0.0000
     30 ****         2.2011  -2.5714  -1.8911 H              1 S1                 0.0000
     31 ****         3.3741   0.2221  -1.2952 H              1 S1                 0.0000
     32 ****         4.4410  -0.8312   0.5575 H              1 S1                 0.0000
     33 ****         4.4999  -2.4035  -0.2710 H              1 S1                 0.0000
     34 ****         6.2777  -0.0236  -0.7306 H              1 S1                 0.0000
     35 ****         6.4975  -1.6832  -1.2930 H              1 S1                 0.0000
     36 ****         4.3686  -2.3243  -2.7864 H              1 S1                 0.0000
     37 ****         1.4361   0.8293  -3.6383 H              1 S1                 0.0000
     38 ****         3.1891   1.2586  -3.5999 H              1 S1                 0.0000
     39 ****         1.8361   0.2522  -5.9705 H              1 S1                 0.0000
     40 ****         3.6015   0.0241  -5.6623 H              1 S1                 0.0000
     41 ****         2.9856  -2.2622  -5.0587 H              1 S1                 0.0000
     42 ****         1.2882  -1.7600  -4.7105 H              1 S1                 0.0000
     43 ****        -6.4125  -0.2205  -1.0807 LP             1 S1                 0.0000
     44 ****        -1.4941  -2.1865  -2.7816 LP             1 S1                 0.0000
     45 ****         0.1910  -2.5429  -2.9647 LP             1 S1                 0.0000
     46 ****         5.9787  -0.6763  -3.2164 LP             1 S1                 0.0000
     47 ****         5.0748   0.4987  -2.5316 LP             1 S1                 0.0000
@<TRIPOS>BOND
    1    1    2 1     
    2    1   23 1     
    3    1   24 1     
    4    1   25 1     
    5    2   21 ar    
    6    2    3 ar    
    7    3    4 ar    
    8    4    5 ar    
    9    4   26 1     
   10    5    6 ar    
   11    5   27 1     
   12    6    7 1     
   13    6   21 ar    
   14    7    8 am    
   15    7   28 1     
   16    8    9 2     
   17    8   10 am    
   18   10   11 1     
   19   10   29 1     
   20   11   17 1     
   21   11   12 1     
   22   11   30 1     
   23   12   16 1     
   24   12   13 1     
   25   12   31 1     
   26   13   14 1     
   27   13   32 1     
   28   13   33 1     
   29   14   15 1     
   30   14   34 1     
   31   14   35 1     
   32   15   16 1     
   33   16   17 1     
   34   16   36 1     
   35   17   20 1     
   36   17   18 1     
   37   18   19 1     
   38   18   37 1     
   39   18   38 1     
   40   19   20 1     
   41   19   39 1     
   42   19   40 1     
   43   20   41 1     
   44   20   42 1     
   45   21   22 1     
   46    3   43 1     
   47    9   44 1     
   48    9   45 1     
   49   15   46 1     
   50   15   47 1     
@<TRIPOS>SUBSTRUCTURE
      1 S1             1
@<TRIPOS>SET
LONE_PAIRS      STATIC     ATOMS    <user>   **** ""
5 43 44 45 46 47
DONOR_HYDROGENS      STATIC     ATOMS    <user>   **** ""
2 28 29
ATOM$BLUE        STATIC     ATOMS    COLORGROUP SYSTEM
5 43 44 45 46 47
ATOM$RED        STATIC     ATOMS    COLORGROUP SYSTEM
2 28 29
