AV-unprocessed.smi:54|AV-procd|sdf|532|dock9
  -GOLD-   2262016413D 1   1.00000     0.00000
 Structure written by MMmdl.
 44 46  0  0  0  0  0  0  0  0  1 V2000
  152.2672  143.7883  161.2889 C   0  0  0  0  0  0  0  0  0  0  0  0
  153.0493  143.2211  160.0936 C   0  0  0  0  0  0  0  0  0  0  0  0
  152.5846  143.8548  158.7720 C   0  0  0  0  0  0  0  0  0  0  0  0
  152.9180  141.6948  160.0379 C   0  0  0  0  0  0  0  0  0  0  0  0
  153.5690  140.9561  160.7777 O   0  0  0  0  0  0  0  0  0  0  0  0
  151.9805  141.1862  159.0523 N   0  0  0  0  0  0  0  0  0  0  0  0
  151.6668  139.8926  158.8087 C   0  0  0  0  0  0  0  0  0  0  0  0
  150.6936  139.5251  157.9874 N   0  0  0  0  0  0  0  0  0  0  0  0
  150.5358  138.1730  157.8617 C   0  0  0  0  0  0  0  0  0  0  0  0
  151.2785  137.1961  158.4908 C   0  0  0  0  0  0  0  0  0  0  0  0
  150.8256  135.9355  158.1185 N   0  0  0  0  0  0  0  0  0  0  0  0
  149.8457  136.1823  157.2943 C   0  0  0  0  0  0  0  0  0  0  0  0
  149.5990  137.5200  157.0894 N   0  0  0  0  0  0  0  0  0  0  0  0
  148.5671  138.1747  156.2218 C   0  0  1  0  0  0  0  0  0  0  0  0
  148.5930  139.5429  156.5020 O   0  0  0  0  0  0  0  0  0  0  0  0
  148.9009  140.3012  155.3324 C   0  0  1  0  0  0  0  0  0  0  0  0
  149.7030  141.5654  155.6886 C   0  0  0  0  0  0  0  0  0  0  0  0
  149.0522  142.2772  156.7190 O   0  0  0  0  0  0  0  0  0  0  0  0
  149.6037  139.3118  154.3915 C   0  0  1  0  0  0  0  0  0  0  0  0
  150.9981  139.2499  154.6439 O   0  0  0  0  0  0  0  0  0  0  0  0
  148.8881  138.0104  154.7247 C   0  0  1  0  0  0  0  0  0  0  0  0
  149.6362  136.8571  154.3794 O   0  0  0  0  0  0  0  0  0  0  0  0
  152.3398  137.5773  159.3771 C   0  0  0  0  0  0  0  0  0  0  0  0
  153.0984  136.8502  160.0145 O   0  0  0  0  0  0  0  0  0  0  0  0
  152.4686  138.9687  159.4792 N   0  0  0  0  0  0  0  0  0  0  0  0
  147.6215  137.7223  156.5226 H   0  0  0  0  0  0  0  0  0  0  0  0
  147.9549  140.5814  154.8651 H   0  0  0  0  0  0  0  0  0  0  0  0
  149.4655  139.5884  153.3457 H   0  0  0  0  0  0  0  0  0  0  0  0
  147.9369  137.9844  154.1913 H   0  0  0  0  0  0  0  0  0  0  0  0
  152.5958  143.3399  162.2273 H   0  0  0  0  0  0  0  0  0  0  0  0
  151.1960  143.6068  161.1900 H   0  0  0  0  0  0  0  0  0  0  0  0
  152.4128  144.8656  161.3733 H   0  0  0  0  0  0  0  0  0  0  0  0
  154.1033  143.4669  160.2314 H   0  0  0  0  0  0  0  0  0  0  0  0
  153.1268  143.4414  157.9205 H   0  0  0  0  0  0  0  0  0  0  0  0
  152.7547  144.9317  158.7756 H   0  0  0  0  0  0  0  0  0  0  0  0
  151.5202  143.6901  158.6004 H   0  0  0  0  0  0  0  0  0  0  0  0
  151.5317  141.8789  158.4715 H   0  0  0  0  0  0  0  0  0  0  0  0
  149.2800  135.3952  156.8182 H   0  0  0  0  0  0  0  0  0  0  0  0
  150.7230  141.3196  155.9849 H   0  0  0  0  0  0  0  0  0  0  0  0
  149.7643  142.2280  154.8246 H   0  0  0  0  0  0  0  0  0  0  0  0
  148.7634  143.1082  156.3737 H   0  0  0  0  0  0  0  0  0  0  0  0
  151.1531  138.5824  155.2949 H   0  0  0  0  0  0  0  0  0  0  0  0
  149.6830  136.8075  153.4365 H   0  0  0  0  0  0  0  0  0  0  0  0
  153.1978  139.3102  160.0877 H   0  0  0  0  0  0  0  0  0  0  0  0
  1  2  1  0  0  0  0
  1 30  1  0  0  0  0
  1 31  1  0  0  0  0
  1 32  1  0  0  0  0
  2  3  1  0  0  0  0
  2  4  1  0  0  0  0
  2 33  1  0  0  0  0
  3 34  1  0  0  0  0
  3 35  1  0  0  0  0
  3 36  1  0  0  0  0
  4  5  2  0  0  0  0
  4  6  1  0  0  0  0
  6 37  1  0  0  0  0
  6  7  1  0  0  0  0
  7 25  1  0  0  0  0
  7  8  2  0  0  0  0
  8  9  1  0  0  0  0
  9 13  1  0  0  0  0
  9 10  2  0  0  0  0
 10 11  1  0  0  0  0
 10 23  1  0  0  0  0
 11 12  2  0  0  0  0
 12 13  1  0  0  0  0
 12 38  1  0  0  0  0
 13 14  1  0  0  0  0
 14 26  1  0  0  0  0
 14 21  1  0  0  0  0
 14 15  1  0  0  0  0
 15 16  1  0  0  0  0
 16 27  1  0  0  0  0
 16 17  1  0  0  0  0
 16 19  1  0  0  0  0
 17 18  1  0  0  0  0
 17 39  1  0  0  0  0
 17 40  1  0  0  0  0
 18 41  1  0  0  0  0
 19 28  1  0  0  0  0
 19 20  1  0  0  0  0
 19 21  1  0  0  0  0
 20 42  1  0  0  0  0
 21 29  1  0  0  0  0
 21 22  1  0  0  0  0
 22 43  1  0  0  0  0
 23 24  2  0  0  0  0
 23 25  1  0  0  0  0
 25 44  1  0  0  0  0
M  END
> <s_m_source_file>
AV-unprocessed.smi

> <i_m_source_file_index>
54

> <i_lp_mmshare_version>
43012

> <i_f3d_flags>
0

> <s_epik_input>
W0NIM11bQ0hdKFtDSDNdKUMoPU8pW05IXWMobjEpW25IXWMoPU8pYyhjMTIpbltjSF1uMltDQEBIXTNPW0NASF0oW0NIMl1bT0hdKVtDQEBIXShbT0hdKVtDQEhdM1tPSF0=

> <s_epik_cmdline>
J2VwaWtfcHl0aG9uJywgJy1waCcsICc3LjAnLCAnLXRuJywgJzgnLCAnLW1hJywgJzIwMCcsICctbWV0YWxfYmluZGluZycsICctaW1hZScsICc8aW5maWxlLm1hZT4nLCAnLW9tYWUnLCAnPG91dGZpbGUubWFlPic=

> <r_lp_tautomer_probability>
0.85571

> <r_epik_Ionization_Penalty>
0.0316551

> <r_epik_Ionization_Penalty_Charging>
0.0316043

> <r_epik_Ionization_Penalty_Neutral>
5.07097e-05

> <r_epik_State_Penalty>
3.15494e-07

> <r_epik_Charging_Adjusted_Penalty>
0.0316047

> <i_epik_Tot_Q>
0

> <i_epik_Tot_abs_Q>
0

> <r_epik_Metal_State_Penalty>
0.421206

> <b_epik_Metal_Only>
0

> <s_epik_Chemistry_Notes>
This compound contains an acetal/aminal-like group ( X-CH(R)-Y where X, Y are N, S, or O) that may be acid/base labile, releasing an aldehyde.

> <s_lp_Force_Field>
OPLS_2005

> <r_lp_Energy>
45.6479

> <b_lp_Chiralities_Consistent>
1

> <s_lp_Variant>
AV-unprocessed.smi:54-4

> <Gold.Version>
5.8.1

> <Gold.Id.Protein>
6NUR|6NUR_protein|mol2

> <Gold.PLP.Fitness>
46.7052

> <Gold.PLP.PLP>
-35.2637

> <Gold.PLP.part.hbond>
-4.8304

> <Gold.PLP.part.metal>
0.0000

> <Gold.PLP.part.buried>
-6.5575

> <Gold.PLP.part.nonpolar>
-26.4785

> <Gold.PLP.part.repulsive>
0.2345

> <Gold.PLP.ligand.clash>
0.0216

> <Gold.PLP.ligand.torsion>
0.8037

> <Gold.PLP.Chemscore.Hbond>
4.2085

> <Gold.PLP.Chemscore.CHOScore>
0.0000

> <Gold.PLP.Chemscore.Metal>
0.0000

> <Gold.Chemscore.Hbonds>
donor molecule, donor type, donor heavy atom, donor atom, acceptor molecule, acceptor atom, score
      L1  H    18    41       P1  8028  1.00
      L1  H    22    43       P1  7948  1.00
      P1  H  6896  6907       L1    24  0.83
      P1  H  6896  6909       L1    11  0.34
      P1  H  7989  7998       L1    20  0.88

> <Gold.PLP.Chemscore.Internal.Correction>
0.4449

> <Gold.Rescore>
     Score         DG    S(hbond)    S(metal)    S(lipo)     H(rot)  DE(clash)    DE(int)     intcor
     11.86     -15.25       3.79        0.00      63.75       4.05       0.01       3.37       ----

> <Gold.Chemscore.Fitness>
11.8607

> <Gold.Chemscore.DG>
-15.2454

> <Gold.Chemscore.ZeroCoef>
-5.4800

> <Gold.Chemscore.Hbond>
3.7943

> <Gold.Chemscore.Metal>
0.0000

> <Gold.Chemscore.Lipo>
63.7479

> <Gold.Chemscore.Internal_Hbond>
0.0000

> <Gold.Chemscore.DEClash>
0.0098

> <Gold.Chemscore.DEInternal>
3.3750

> <Gold.Chemscore.Rot>
4.0493

> <Gold.Chemscore.Internal.Correction>
   9.000000E+99

> <Gold.Chemscore.Hbonds>
donor molecule, donor type, donor heavy atom, donor atom, acceptor molecule, acceptor atom, score
      L1  H    18    41       P1  8028  0.96
      L1  H    22    43       P1  7948  0.52
      P1  H  6896  6907       L1    24  0.44
      P1  H  6896  6909       L1    11  0.31
      P1  H  7989  7998       L1    20  0.22

> <Gold.Chemscore.Hbond.Weighted>
-12.6731

> <Gold.Chemscore.Metal.Weighted>
-0.0000

> <Gold.Chemscore.Lipo.Weighted>
-7.4585

> <Gold.Chemscore.Internal_Hbond.Weighted>
0.0000

> <Gold.Chemscore.DEClash.Weighted>
0.0098

> <Gold.Chemscore.DEInternal.Weighted>
3.3750

> <Gold.Chemscore.Rot.Weighted>
10.3662

> <Gold.Chemscore.Internal.Correction.Weighted>
   9.000000E+99

> <Gold.Protein.RotatedTorsions>
[ 6907 6896 6895 6894 ] final   38.30 input  -60.11 | X-H torsion
[ 7974 7965 7964 7962 ] final   -0.99 input  175.53 | X-H torsion
[ 8008 7997 7996 7995 ] final   19.33 input   59.86 | X-H torsion
[ 10167 10162 10161 10158 ] final -136.78 input  -65.29 | X-H torsion
[ 10718 10713 10712 10709 ] final   90.23 input   66.30 | X-H torsion
[ 10763 10752 10751 10750 ] final -113.67 input  -60.55 | X-H torsion
[ 11005 11000 10999 10996 ] final   -0.93 input  -57.11 | X-H torsion

> <Gold.Protein.ActiveResidues>
 VAL166  LYS551  ARG553  GLY616  TRP617  ASP618  TYR619  PRO620  LYS621  CYS622 
 ASP623  PHE694  ASN695  SER759  ASP760  ASP761  ALA762  ILE779  LEU786  VAL792 
 PHE793  MET794  SER795  GLU796  ALA797  LYS798  CYS799  TRP800  GLU811  SER814 

> <Gold.Protein.RotatedAtoms>
  152.1546  134.8961  160.0545 H   0  0  0  0  0  0  0  0  0  0  0  0  # atno 6907 bound_to 6896
  151.9980  133.3810  159.4178 H   0  0  0  0  0  0  0  0  0  0  0  0  # atno 6908 bound_to 6896
  150.6880  134.3787  159.5068 H   0  0  0  0  0  0  0  0  0  0  0  0  # atno 6909 bound_to 6896
  146.2422  140.1353  142.8337 H   0  0  0  0  0  0  0  0  0  0  0  0  # atno 7974 bound_to 7965
  154.9191  140.3025  155.5225 H   0  0  0  0  0  0  0  0  0  0  0  0  # atno 8008 bound_to 7997
  156.3011  140.2375  156.4175 H   0  0  0  0  0  0  0  0  0  0  0  0  # atno 8009 bound_to 7997
  154.8348  140.0416  157.1490 H   0  0  0  0  0  0  0  0  0  0  0  0  # atno 8010 bound_to 7997
  139.8643  143.7037  152.2647 H   0  0  0  0  0  0  0  0  0  0  0  0  # atno 10167 bound_to 10162
  157.6958  131.0363  150.3546 H   0  0  0  0  0  0  0  0  0  0  0  0  # atno 10718 bound_to 10713
  154.8407  135.4445  154.1386 H   0  0  0  0  0  0  0  0  0  0  0  0  # atno 10763 bound_to 10752
  153.2577  135.6933  153.7617 H   0  0  0  0  0  0  0  0  0  0  0  0  # atno 10764 bound_to 10752
  153.6905  135.3388  155.3176 H   0  0  0  0  0  0  0  0  0  0  0  0  # atno 10765 bound_to 10752
  140.6417  133.9484  155.8330 H   0  0  0  0  0  0  0  0  0  0  0  0  # atno 11005 bound_to 11000
  145.0292  140.8857  143.5120 LP  0  0  0  0  0  0  0  0  0  0  0  0  # atno 17320 bound_to 7965
  145.1414  139.2570  143.5488 LP  0  0  0  0  0  0  0  0  0  0  0  0  # atno 17321 bound_to 7965
  139.7344  144.7575  151.0751 LP  0  0  0  0  0  0  0  0  0  0  0  0  # atno 17342 bound_to 10162
  140.7770  143.5049  150.9725 LP  0  0  0  0  0  0  0  0  0  0  0  0  # atno 17343 bound_to 10162
  156.3990  130.3912  149.6974 LP  0  0  0  0  0  0  0  0  0  0  0  0  # atno 17370 bound_to 10713
  156.4298  130.7809  151.2829 LP  0  0  0  0  0  0  0  0  0  0  0  0  # atno 17371 bound_to 10713
  141.0602  134.0357  157.3669 LP  0  0  0  0  0  0  0  0  0  0  0  0  # atno 17394 bound_to 11000
  139.9078  135.0183  156.7561 LP  0  0  0  0  0  0  0  0  0  0  0  0  # atno 17395 bound_to 11000

$$$$
