AV-unprocessed.smi:1695|AV-procd|sdf|6796|dock6
  -GOLD-   22720 7563D 1   1.00000     0.00000
 Structure written by MMmdl.
 52 54  0  0  0  0  0  0  0  0  3 V2000
  152.5535  143.2214  161.6201 C   0  0  0  0  0  0  0  0  0  0  0  0
  152.2278  142.4872  160.3302 C   0  0  0  0  0  0  0  0  0  0  0  0
  151.2073  143.0024  159.5001 C   0  0  0  0  0  0  0  0  0  0  0  0
  150.9323  142.3087  158.3276 C   0  0  0  0  0  0  0  0  0  0  0  0
  150.0060  142.5604  157.3138 N   0  3  0  0  0  0  0  0  0  0  0  0
  150.1089  141.5990  156.3555 C   0  0  0  0  0  0  0  0  0  0  0  0
  151.0789  140.7277  156.7478 N   0  0  0  0  0  0  0  0  0  0  0  0
  151.5930  139.5235  156.0744 C   0  0  0  0  0  0  0  0  0  0  0  0
  150.5364  138.7496  155.2531 C   0  0  1  0  0  0  0  0  0  0  0  0
  150.1243  139.5427  154.1571 O   0  0  0  0  0  0  0  0  0  0  0  0
  151.0492  137.3934  154.7191 C   0  0  0  0  0  0  0  0  0  0  0  0
  149.9623  136.3958  154.5420 N   0  3  1  0  0  0  0  0  0  0  0  0
  150.4590  134.9978  154.6220 C   0  0  0  0  0  0  0  0  0  0  0  0
  149.3441  133.9923  154.2877 C   0  0  0  0  0  0  0  0  0  0  0  0
  148.1259  134.1812  155.2118 C   0  0  2  0  0  0  0  0  0  0  0  0
  146.9901  133.2207  154.8345 C   0  0  0  0  0  0  0  0  0  0  0  0
  147.2691  131.9148  154.8358 N   0  0  0  0  0  0  0  0  0  0  0  0
  145.8752  133.6512  154.5454 O   0  0  0  0  0  0  0  0  0  0  0  0
  147.6586  135.6470  155.1338 C   0  0  0  0  0  0  0  0  0  0  0  0
  148.8095  136.6136  155.4561 C   0  0  0  0  0  0  0  0  0  0  0  0
  151.6295  141.1385  157.9687 C   0  0  0  0  0  0  0  0  0  0  0  0
  152.6405  140.6197  158.7749 C   0  0  0  0  0  0  0  0  0  0  0  0
  152.9358  141.3110  159.9716 C   0  0  0  0  0  0  0  0  0  0  0  0
  154.0330  140.7672  160.8708 C   0  0  0  0  0  0  0  0  0  0  0  0
  151.9391  144.1146  161.7373 H   0  0  0  0  0  0  0  0  0  0  0  0
  153.5983  143.5330  161.6305 H   0  0  0  0  0  0  0  0  0  0  0  0
  152.3741  142.5784  162.4820 H   0  0  0  0  0  0  0  0  0  0  0  0
  150.6659  143.8988  159.7655 H   0  0  0  0  0  0  0  0  0  0  0  0
  149.5251  141.5394  155.4482 H   0  0  0  0  0  0  0  0  0  0  0  0
  152.3958  139.8514  155.4128 H   0  0  0  0  0  0  0  0  0  0  0  0
  152.0650  138.8768  156.8151 H   0  0  0  0  0  0  0  0  0  0  0  0
  149.6695  138.6036  155.8962 H   0  0  0  0  0  0  0  0  0  0  0  0
  149.8190  138.9766  153.4646 H   0  0  0  0  0  0  0  0  0  0  0  0
  151.5519  137.5616  153.7653 H   0  0  0  0  0  0  0  0  0  0  0  0
  151.8047  136.9801  155.3892 H   0  0  0  0  0  0  0  0  0  0  0  0
  151.2833  134.8579  153.9214 H   0  0  0  0  0  0  0  0  0  0  0  0
  150.8549  134.8063  155.6206 H   0  0  0  0  0  0  0  0  0  0  0  0
  149.0514  134.1166  153.2436 H   0  0  0  0  0  0  0  0  0  0  0  0
  149.7302  132.9761  154.3797 H   0  0  0  0  0  0  0  0  0  0  0  0
  148.4347  133.9706  156.2374 H   0  0  0  0  0  0  0  0  0  0  0  0
  146.5561  131.2421  154.5937 H   0  0  0  0  0  0  0  0  0  0  0  0
  148.1985  131.6030  155.0794 H   0  0  0  0  0  0  0  0  0  0  0  0
  147.2705  135.8704  154.1383 H   0  0  0  0  0  0  0  0  0  0  0  0
  146.8357  135.8152  155.8301 H   0  0  0  0  0  0  0  0  0  0  0  0
  149.1323  136.4781  156.4897 H   0  0  0  0  0  0  0  0  0  0  0  0
  148.4433  137.6363  155.3742 H   0  0  0  0  0  0  0  0  0  0  0  0
  153.1790  139.7236  158.5047 H   0  0  0  0  0  0  0  0  0  0  0  0
  154.4606  139.8482  160.4686 H   0  0  0  0  0  0  0  0  0  0  0  0
  153.6411  140.5448  161.8636 H   0  0  0  0  0  0  0  0  0  0  0  0
  154.8398  141.4936  160.9713 H   0  0  0  0  0  0  0  0  0  0  0  0
  149.6187  136.5133  153.5995 H   0  0  0  0  0  0  0  0  0  0  0  0
  149.3565  143.3356  157.2732 H   0  0  0  0  0  0  0  0  0  0  0  0
  1  2  1  0  0  0  0
  1 25  1  0  0  0  0
  1 26  1  0  0  0  0
  1 27  1  0  0  0  0
  2 23  1  0  0  0  0
  2  3  2  0  0  0  0
  3  4  1  0  0  0  0
  3 28  1  0  0  0  0
  4 21  2  0  0  0  0
  4  5  1  0  0  0  0
  5  6  2  0  0  0  0
  5 52  1  0  0  0  0
  6  7  1  0  0  0  0
  6 29  1  0  0  0  0
  7  8  1  0  0  0  0
  7 21  1  0  0  0  0
  8  9  1  0  0  0  0
  8 30  1  0  0  0  0
  8 31  1  0  0  0  0
  9 10  1  0  0  0  0
  9 11  1  0  0  0  0
  9 32  1  0  0  0  0
 10 33  1  0  0  0  0
 11 12  1  0  0  0  0
 11 34  1  0  0  0  0
 11 35  1  0  0  0  0
 12 20  1  0  0  0  0
 12 13  1  0  0  0  0
 12 51  1  0  0  0  0
 13 14  1  0  0  0  0
 13 36  1  0  0  0  0
 13 37  1  0  0  0  0
 14 15  1  0  0  0  0
 14 38  1  0  0  0  0
 14 39  1  0  0  0  0
 15 16  1  0  0  0  0
 15 19  1  0  0  0  0
 15 40  1  0  0  0  0
 16 17  1  0  0  0  0
 16 18  2  0  0  0  0
 17 41  1  0  0  0  0
 17 42  1  0  0  0  0
 19 20  1  0  0  0  0
 19 43  1  0  0  0  0
 19 44  1  0  0  0  0
 20 45  1  0  0  0  0
 20 46  1  0  0  0  0
 21 22  1  0  0  0  0
 22 23  2  0  0  0  0
 22 47  1  0  0  0  0
 23 24  1  0  0  0  0
 24 48  1  0  0  0  0
 24 49  1  0  0  0  0
 24 50  1  0  0  0  0
M  CHG  1   5   1
M  CHG  1  12   1
M  END
> <s_m_source_file>
AV-unprocessed.smi

> <i_m_source_file_index>
1695

> <i_lp_mmshare_version>
43012

> <i_f3d_flags>
0

> <s_epik_input>
W0NIM11jKFtjSF0xKWMoW0NIM10pW2NIXWMoYzEyKW4oW2NIXW4yKVtDSDJdW0NASF0oW09IXSlbQ0gyXU4zW0NIMl1bQ0gyXVtDSF0oQyg9TylbTkgyXSlbQ0gyXVtDSDJdMw==

> <s_epik_cmdline>
J2VwaWtfcHl0aG9uJywgJy1waCcsICc3LjAnLCAnLXRuJywgJzgnLCAnLW1hJywgJzIwMCcsICctbWV0YWxfYmluZGluZycsICctaW1hZScsICc8aW5maWxlLm1hZT4nLCAnLW9tYWUnLCAnPG91dGZpbGUubWFlPic=

> <r_epik_Ionization_Penalty>
1.20173

> <r_epik_Ionization_Penalty_Charging>
1.20172

> <r_epik_Ionization_Penalty_Neutral>
1.7852e-06

> <r_epik_State_Penalty>
1.28089

> <r_epik_Charging_Adjusted_Penalty>
2.48261

> <i_epik_Tot_Q>
2

> <i_epik_Tot_abs_Q>
2

> <r_epik_Metal_State_Penalty>
1.35652

> <b_epik_Metal_Only>
0

> <s_lp_Force_Field>
OPLS_2005

> <r_lp_Energy>
30.0744

> <b_lp_Chiralities_Consistent>
1

> <s_lp_Variant>
AV-unprocessed.smi:1695-8

> <Gold.Version>
5.8.1

> <Gold.Id.Protein>
6NUR|6NUR_protein|mol2

> <Gold.PLP.Fitness>
58.7939

> <Gold.PLP.PLP>
-45.6744

> <Gold.PLP.part.hbond>
-4.1840

> <Gold.PLP.part.metal>
0.0000

> <Gold.PLP.part.buried>
-4.5356

> <Gold.PLP.part.nonpolar>
-36.4642

> <Gold.PLP.part.repulsive>
0.1627

> <Gold.PLP.ligand.clash>
0.0000

> <Gold.PLP.ligand.torsion>
1.0833

> <Gold.PLP.Chemscore.Hbond>
5.0790

> <Gold.PLP.Chemscore.CHOScore>
0.0000

> <Gold.PLP.Chemscore.Metal>
0.0000

> <Gold.Chemscore.Hbonds>
donor molecule, donor type, donor heavy atom, donor atom, acceptor molecule, acceptor atom, score
      L1  H     5    52       P1  8028  0.85
      L1  H    12    51       P1  7948  2.00
      P1  H  7989  7998       L1    10  0.81

> <Gold.PLP.Chemscore.Internal.Correction>
0.0490

> <Gold.Rescore>
     Score         DG    S(hbond)    S(metal)    S(lipo)     H(rot)  DE(clash)    DE(int)     intcor
     21.18     -22.81       3.86        0.00     101.58       2.91       0.54       1.09       ----

> <Gold.Chemscore.Fitness>
21.1765

> <Gold.Chemscore.DG>
-22.8078

> <Gold.Chemscore.ZeroCoef>
-5.4800

> <Gold.Chemscore.Hbond>
3.8620

> <Gold.Chemscore.Metal>
0.0000

> <Gold.Chemscore.Lipo>
101.5838

> <Gold.Chemscore.Internal_Hbond>
0.0000

> <Gold.Chemscore.DEClash>
0.5424

> <Gold.Chemscore.DEInternal>
1.0888

> <Gold.Chemscore.Rot>
2.9127

> <Gold.Chemscore.Internal.Correction>
   9.000000E+99

> <Gold.Chemscore.Hbonds>
donor molecule, donor type, donor heavy atom, donor atom, acceptor molecule, acceptor atom, score
      L1  H     5    52       P1  8028  0.35
      L1  H    12    51       P1  7948  0.60
      P1  H  7989  7998       L1    10  0.53

> <Gold.Chemscore.Hbond.Weighted>
-12.8990

> <Gold.Chemscore.Metal.Weighted>
-0.0000

> <Gold.Chemscore.Lipo.Weighted>
-11.8853

> <Gold.Chemscore.Internal_Hbond.Weighted>
0.0000

> <Gold.Chemscore.DEClash.Weighted>
0.5424

> <Gold.Chemscore.DEInternal.Weighted>
1.0888

> <Gold.Chemscore.Rot.Weighted>
7.4565

> <Gold.Chemscore.Internal.Correction.Weighted>
   9.000000E+99

> <Gold.Protein.RotatedTorsions>
[ 6907 6896 6895 6894 ] final -130.96 input  -60.11 | X-H torsion
[ 7974 7965 7964 7962 ] final  -57.29 input  175.53 | X-H torsion
[ 8008 7997 7996 7995 ] final  -88.30 input   59.86 | X-H torsion
[ 10167 10162 10161 10158 ] final  138.40 input  -65.29 | X-H torsion
[ 10718 10713 10712 10709 ] final  -94.78 input   66.30 | X-H torsion
[ 10763 10752 10751 10750 ] final   86.45 input  -60.55 | X-H torsion
[ 11005 11000 10999 10996 ] final  -61.89 input  -57.11 | X-H torsion

> <Gold.Protein.ActiveResidues>
 VAL166  LYS551  ARG553  GLY616  TRP617  ASP618  TYR619  PRO620  LYS621  CYS622 
 ASP623  PHE694  ASN695  SER759  ASP760  ASP761  ALA762  ILE779  LEU786  VAL792 
 PHE793  MET794  SER795  GLU796  ALA797  LYS798  CYS799  TRP800  GLU811  SER814 

> <Gold.Protein.RotatedAtoms>
  150.9456  133.6607  159.2781 H   0  0  0  0  0  0  0  0  0  0  0  0  # atno 6907 bound_to 6896
  151.3980  135.0965  159.9557 H   0  0  0  0  0  0  0  0  0  0  0  0  # atno 6908 bound_to 6896
  152.5088  133.8956  159.7470 H   0  0  0  0  0  0  0  0  0  0  0  0  # atno 6909 bound_to 6896
  145.8527  140.8341  142.9977 H   0  0  0  0  0  0  0  0  0  0  0  0  # atno 7974 bound_to 7965
  154.6732  140.0555  157.0188 H   0  0  0  0  0  0  0  0  0  0  0  0  # atno 8008 bound_to 7997
  155.1058  140.3233  155.4516 H   0  0  0  0  0  0  0  0  0  0  0  0  # atno 8009 bound_to 7997
  156.2665  140.2023  156.6184 H   0  0  0  0  0  0  0  0  0  0  0  0  # atno 8010 bound_to 7997
  139.5112  144.6355  151.5707 H   0  0  0  0  0  0  0  0  0  0  0  0  # atno 10167 bound_to 10162
  156.0032  130.5081  150.5977 H   0  0  0  0  0  0  0  0  0  0  0  0  # atno 10718 bound_to 10713
  153.1572  135.4580  154.9721 H   0  0  0  0  0  0  0  0  0  0  0  0  # atno 10763 bound_to 10752
  154.7870  135.3207  154.7866 H   0  0  0  0  0  0  0  0  0  0  0  0  # atno 10764 bound_to 10752
  153.8361  135.6934  153.4863 H   0  0  0  0  0  0  0  0  0  0  0  0  # atno 10765 bound_to 10752
  141.1340  133.6634  156.5444 H   0  0  0  0  0  0  0  0  0  0  0  0  # atno 11005 bound_to 11000
  144.6728  140.0978  143.7462 LP  0  0  0  0  0  0  0  0  0  0  0  0  # atno 17320 bound_to 7965
  145.9338  139.2624  143.1309 LP  0  0  0  0  0  0  0  0  0  0  0  0  # atno 17321 bound_to 7965
  140.6103  143.9449  150.6448 LP  0  0  0  0  0  0  0  0  0  0  0  0  # atno 17342 bound_to 10162
  140.2689  143.3470  152.1256 LP  0  0  0  0  0  0  0  0  0  0  0  0  # atno 17343 bound_to 10162
  157.3831  131.0784  151.1459 LP  0  0  0  0  0  0  0  0  0  0  0  0  # atno 17370 bound_to 10713
  157.2175  130.6466  149.5798 LP  0  0  0  0  0  0  0  0  0  0  0  0  # atno 17371 bound_to 10713
  140.4114  134.7269  157.4838 LP  0  0  0  0  0  0  0  0  0  0  0  0  # atno 17394 bound_to 11000
  140.0425  134.6247  155.8963 LP  0  0  0  0  0  0  0  0  0  0  0  0  # atno 17395 bound_to 11000

$$$$
