AV-unprocessed.smi:3202|AV-procd|sdf|12247|dock10
  -GOLD-   2272018 83D 1   1.00000     0.00000
 Structure written by MMmdl.
 43 44  0  0  0  0  0  0  0  0  2 V2000
  146.8459  139.4672  153.0781 C   0  0  0  0  0  0  0  0  0  0  0  0
  147.7710  140.3788  153.8293 C   0  0  0  0  0  0  0  0  0  0  0  0
  149.0369  140.0684  154.4072 C   0  0  0  0  0  0  0  0  0  0  0  0
  149.4502  141.2444  154.9674 C   0  0  0  0  0  0  0  0  0  0  0  0
  150.6884  141.5894  155.7303 C   0  0  0  0  0  0  0  0  0  0  0  0
  150.4844  141.6744  157.2557 C   0  0  2  0  0  0  0  0  0  0  0  0
  149.0061  141.8124  157.6534 C   0  0  0  0  0  0  0  0  0  0  0  0
  151.2489  142.8188  157.8007 N   0  3  0  0  0  0  0  0  0  0  0  0
  151.3167  142.8965  159.2783 C   0  0  1  0  0  0  0  0  0  0  0  0
  152.5908  142.2747  159.8671 C   0  0  0  0  0  0  0  0  0  0  0  0
  152.8071  142.9842  161.2104 C   0  0  0  0  0  0  0  0  0  0  0  0
  151.7839  144.1290  161.2647 C   0  0  0  0  0  0  0  0  0  0  0  0
  151.2897  144.3408  159.8221 C   0  0  0  0  0  0  0  0  0  0  0  0
  152.2569  145.2848  159.0703 C   0  0  0  0  0  0  0  0  0  0  0  0
  149.8692  144.9353  159.7995 C   0  0  0  0  0  0  0  0  0  0  0  0
  148.4573  142.1622  154.7085 N   0  0  0  0  0  0  0  0  0  0  0  0
  147.4264  141.6439  154.0166 N   0  0  0  0  0  0  0  0  0  0  0  0
  148.4674  143.1313  154.9941 H   0  0  0  0  0  0  0  0  0  0  0  0
  147.3192  138.5065  152.8742 H   0  0  0  0  0  0  0  0  0  0  0  0
  146.5544  139.9020  152.1217 H   0  0  0  0  0  0  0  0  0  0  0  0
  145.9371  139.2749  153.6489 H   0  0  0  0  0  0  0  0  0  0  0  0
  149.5601  139.1236  154.4097 H   0  0  0  0  0  0  0  0  0  0  0  0
  151.0881  142.5355  155.3623 H   0  0  0  0  0  0  0  0  0  0  0  0
  151.4507  140.8416  155.5088 H   0  0  0  0  0  0  0  0  0  0  0  0
  150.8562  140.7491  157.6986 H   0  0  0  0  0  0  0  0  0  0  0  0
  148.4233  140.9477  157.3354 H   0  0  0  0  0  0  0  0  0  0  0  0
  148.5550  142.7001  157.2087 H   0  0  0  0  0  0  0  0  0  0  0  0
  148.8987  141.8914  158.7357 H   0  0  0  0  0  0  0  0  0  0  0  0
  152.1898  142.7880  157.4350 H   0  0  0  0  0  0  0  0  0  0  0  0
  150.4562  142.3624  159.6869 H   0  0  0  0  0  0  0  0  0  0  0  0
  152.5022  141.1942  159.9850 H   0  0  0  0  0  0  0  0  0  0  0  0
  153.4458  142.4619  159.2161 H   0  0  0  0  0  0  0  0  0  0  0  0
  152.6699  142.3021  162.0502 H   0  0  0  0  0  0  0  0  0  0  0  0
  153.8244  143.3727  161.2692 H   0  0  0  0  0  0  0  0  0  0  0  0
  150.9523  143.8196  161.8999 H   0  0  0  0  0  0  0  0  0  0  0  0
  152.1987  145.0346  161.7091 H   0  0  0  0  0  0  0  0  0  0  0  0
  152.2930  146.2657  159.5455 H   0  0  0  0  0  0  0  0  0  0  0  0
  151.9449  145.4425  158.0376 H   0  0  0  0  0  0  0  0  0  0  0  0
  153.2764  144.8993  159.0512 H   0  0  0  0  0  0  0  0  0  0  0  0
  149.8478  145.9213  160.2651 H   0  0  0  0  0  0  0  0  0  0  0  0
  149.1596  144.3048  160.3362 H   0  0  0  0  0  0  0  0  0  0  0  0
  149.5031  145.0454  158.7781 H   0  0  0  0  0  0  0  0  0  0  0  0
  150.8087  143.6658  157.4704 H   0  0  0  0  0  0  0  0  0  0  0  0
  1 19  1  0  0  0  0
  1 20  1  0  0  0  0
  1 21  1  0  0  0  0
  1  2  1  0  0  0  0
  2 17  2  0  0  0  0
  2  3  1  0  0  0  0
  3  4  2  0  0  0  0
  3 22  1  0  0  0  0
  4 16  1  0  0  0  0
  4  5  1  0  0  0  0
  5  6  1  0  0  0  0
  5 23  1  0  0  0  0
  5 24  1  0  0  0  0
  6  7  1  0  0  0  0
  6  8  1  0  0  0  0
  6 25  1  0  0  0  0
  7 26  1  0  0  0  0
  7 27  1  0  0  0  0
  7 28  1  0  0  0  0
  8  9  1  0  0  0  0
  8 29  1  0  0  0  0
  8 43  1  0  0  0  0
  9 13  1  0  0  0  0
  9 10  1  0  0  0  0
  9 30  1  0  0  0  0
 10 11  1  0  0  0  0
 10 31  1  0  0  0  0
 10 32  1  0  0  0  0
 11 12  1  0  0  0  0
 11 33  1  0  0  0  0
 11 34  1  0  0  0  0
 12 13  1  0  0  0  0
 12 35  1  0  0  0  0
 12 36  1  0  0  0  0
 13 14  1  0  0  0  0
 13 15  1  0  0  0  0
 14 37  1  0  0  0  0
 14 38  1  0  0  0  0
 14 39  1  0  0  0  0
 15 40  1  0  0  0  0
 15 41  1  0  0  0  0
 15 42  1  0  0  0  0
 16 17  1  0  0  0  0
 16 18  1  0  0  0  0
M  CHG  1   8   1
M  END
> <s_m_source_file>
AV-unprocessed.smi

> <i_m_source_file_index>
3202

> <i_lp_mmshare_version>
43012

> <i_f3d_flags>
0

> <s_epik_input>
W0NIM11jMVtjSF1jKG5bbkhdMSlbQ0gyXVtDQEhdKFtDSDNdKVtOSF1bQ0BASF0oQzIoW0NIM10pW0NIM10pW0NIMl1bQ0gyXVtDSDJdMg==

> <s_epik_cmdline>
J2VwaWtfcHl0aG9uJywgJy1waCcsICc3LjAnLCAnLXRuJywgJzgnLCAnLW1hJywgJzIwMCcsICctbWV0YWxfYmluZGluZycsICctaW1hZScsICc8aW5maWxlLm1hZT4nLCAnLW9tYWUnLCAnPG91dGZpbGUubWFlPic=

> <r_lp_tautomer_probability>
0.5

> <r_epik_Ionization_Penalty>
0.000449684

> <r_epik_Ionization_Penalty_Charging>
0.000404963

> <r_epik_Ionization_Penalty_Neutral>
4.47208e-05

> <r_epik_State_Penalty>
0.41068

> <r_epik_Charging_Adjusted_Penalty>
0.411085

> <i_epik_Tot_Q>
1

> <i_epik_Tot_abs_Q>
1

> <r_epik_Metal_State_Penalty>
0.410687

> <b_epik_Metal_Only>
0

> <s_lp_Force_Field>
OPLS_2005

> <r_lp_Energy>
32.0397

> <b_lp_Chiralities_Consistent>
1

> <s_lp_Variant>
AV-unprocessed.smi:3202-7

> <Gold.Version>
5.8.1

> <Gold.Id.Protein>
6NUR|6NUR_protein|mol2

> <Gold.PLP.Fitness>
40.8108

> <Gold.PLP.PLP>
-40.4697

> <Gold.PLP.part.hbond>
-1.0000

> <Gold.PLP.part.metal>
0.0000

> <Gold.PLP.part.buried>
-6.2804

> <Gold.PLP.part.nonpolar>
-34.0869

> <Gold.PLP.part.repulsive>
0.3856

> <Gold.PLP.ligand.clash>
0.0000

> <Gold.PLP.ligand.torsion>
1.3389

> <Gold.PLP.Chemscore.Hbond>
1.0000

> <Gold.PLP.Chemscore.CHOScore>
0.0000

> <Gold.PLP.Chemscore.Metal>
0.0000

> <Gold.Chemscore.Hbonds>
donor molecule, donor type, donor heavy atom, donor atom, acceptor molecule, acceptor atom, score
      L1  H    16    18       P1  8028  1.00

> <Gold.PLP.Chemscore.Internal.Correction>
0.0190

> <Gold.Rescore>
     Score         DG    S(hbond)    S(metal)    S(lipo)     H(rot)  DE(clash)    DE(int)     intcor
     17.87     -19.22       1.00        0.00     120.86       1.46       0.03       1.32       ----

> <Gold.Chemscore.Fitness>
17.8732

> <Gold.Chemscore.DG>
-19.2199

> <Gold.Chemscore.ZeroCoef>
-5.4800

> <Gold.Chemscore.Hbond>
0.9986

> <Gold.Chemscore.Metal>
0.0000

> <Gold.Chemscore.Lipo>
120.8632

> <Gold.Chemscore.Internal_Hbond>
0.0000

> <Gold.Chemscore.DEClash>
0.0304

> <Gold.Chemscore.DEInternal>
1.3163

> <Gold.Chemscore.Rot>
1.4596

> <Gold.Chemscore.Internal.Correction>
   9.000000E+99

> <Gold.Chemscore.Hbonds>
donor molecule, donor type, donor heavy atom, donor atom, acceptor molecule, acceptor atom, score
      L1  H    16    18       P1  8028  1.00

> <Gold.Chemscore.Hbond.Weighted>
-3.3354

> <Gold.Chemscore.Metal.Weighted>
-0.0000

> <Gold.Chemscore.Lipo.Weighted>
-14.1410

> <Gold.Chemscore.Internal_Hbond.Weighted>
0.0000

> <Gold.Chemscore.DEClash.Weighted>
0.0304

> <Gold.Chemscore.DEInternal.Weighted>
1.3163

> <Gold.Chemscore.Rot.Weighted>
3.7365

> <Gold.Chemscore.Internal.Correction.Weighted>
   9.000000E+99

> <Gold.Protein.RotatedTorsions>
[ 6907 6896 6895 6894 ] final   85.64 input  -60.11 | X-H torsion
[ 7974 7965 7964 7962 ] final -103.07 input  175.53 | X-H torsion
[ 8008 7997 7996 7995 ] final  -87.42 input   59.86 | X-H torsion
[ 10167 10162 10161 10158 ] final  117.72 input  -65.29 | X-H torsion
[ 10718 10713 10712 10709 ] final -164.87 input   66.30 | X-H torsion
[ 10763 10752 10751 10750 ] final  -56.48 input  -60.55 | X-H torsion
[ 11005 11000 10999 10996 ] final  -19.16 input  -57.11 | X-H torsion

> <Gold.Protein.ActiveResidues>
 VAL166  LYS551  ARG553  GLY616  TRP617  ASP618  TYR619  PRO620  LYS621  CYS622 
 ASP623  PHE694  ASN695  SER759  ASP760  ASP761  ALA762  ILE779  LEU786  VAL792 
 PHE793  MET794  SER795  GLU796  ALA797  LYS798  CYS799  TRP800  GLU811  SER814 

> <Gold.Protein.RotatedAtoms>
  152.5379  134.2555  159.8914 H   0  0  0  0  0  0  0  0  0  0  0  0  # atno 6907 bound_to 6896
  151.2517  133.4340  159.2619 H   0  0  0  0  0  0  0  0  0  0  0  0  # atno 6908 bound_to 6896
  151.0533  134.9702  159.8279 H   0  0  0  0  0  0  0  0  0  0  0  0  # atno 6909 bound_to 6896
  145.2607  140.9268  143.3042 H   0  0  0  0  0  0  0  0  0  0  0  0  # atno 7974 bound_to 7965
  154.6631  140.0566  157.0084 H   0  0  0  0  0  0  0  0  0  0  0  0  # atno 8008 bound_to 7997
  155.1199  140.3246  155.4481 H   0  0  0  0  0  0  0  0  0  0  0  0  # atno 8009 bound_to 7997
  156.2626  140.1999  156.6322 H   0  0  0  0  0  0  0  0  0  0  0  0  # atno 8010 bound_to 7997
  139.6160  144.7092  151.2739 H   0  0  0  0  0  0  0  0  0  0  0  0  # atno 10167 bound_to 10162
  156.6452  130.8985  151.3003 H   0  0  0  0  0  0  0  0  0  0  0  0  # atno 10718 bound_to 10713
  154.2073  135.6400  153.5105 H   0  0  0  0  0  0  0  0  0  0  0  0  # atno 10763 bound_to 10752
  152.9998  135.5465  154.6252 H   0  0  0  0  0  0  0  0  0  0  0  0  # atno 10764 bound_to 10752
  154.5680  135.2914  155.0828 H   0  0  0  0  0  0  0  0  0  0  0  0  # atno 10765 bound_to 10752
  140.8339  133.7976  155.9788 H   0  0  0  0  0  0  0  0  0  0  0  0  # atno 11005 bound_to 11000
  144.9421  139.4177  143.6444 LP  0  0  0  0  0  0  0  0  0  0  0  0  # atno 17320 bound_to 7965
  146.3276  139.8386  142.8894 LP  0  0  0  0  0  0  0  0  0  0  0  0  # atno 17321 bound_to 7965
  140.7351  143.6747  150.8051 LP  0  0  0  0  0  0  0  0  0  0  0  0  # atno 17342 bound_to 10162
  140.0350  143.5404  152.2743 LP  0  0  0  0  0  0  0  0  0  0  0  0  # atno 17343 bound_to 10162
  157.7158  130.9496  150.1251 LP  0  0  0  0  0  0  0  0  0  0  0  0  # atno 17370 bound_to 10713
  156.2127  130.3668  149.8650 LP  0  0  0  0  0  0  0  0  0  0  0  0  # atno 17371 bound_to 10713
  140.8968  134.2427  157.5064 LP  0  0  0  0  0  0  0  0  0  0  0  0  # atno 17394 bound_to 11000
  139.8704  134.9688  156.4643 LP  0  0  0  0  0  0  0  0  0  0  0  0  # atno 17395 bound_to 11000

$$$$
