AV-unprocessed.smi:158|AV-procd|sdf|1330|dock9
  -GOLD-   2262019 23D 1   1.00000     0.00000
 Structure written by MMmdl.
 31 33  0  0  0  0  0  0  0  0  1 V2000
  152.4930  140.2970  158.8407 N   0  0  0  0  0  0  0  0  0  0  0  0
  152.0651  140.1249  157.5824 C   0  0  0  0  0  0  0  0  0  0  0  0
  152.8414  139.4198  156.7270 N   0  0  0  0  0  0  0  0  0  0  0  0
  152.4486  139.2227  155.4622 C   0  0  0  0  0  0  0  0  0  0  0  0
  153.5158  138.3095  154.4621 Cl  0  0  0  0  0  0  0  0  0  0  0  0
  151.3217  139.6554  154.8858 N   0  0  0  0  0  0  0  0  0  0  0  0
  150.5394  140.3698  155.7455 C   0  0  0  0  0  0  0  0  0  0  0  0
  150.8372  140.6450  157.1059 C   0  0  0  0  0  0  0  0  0  0  0  0
  149.8106  141.3868  157.6734 N   0  0  0  0  0  0  0  0  0  0  0  0
  148.9545  141.5354  156.6978 C   0  0  0  0  0  0  0  0  0  0  0  0
  149.3245  140.9700  155.4942 N   0  0  0  0  0  0  0  0  0  0  0  0
  148.5931  140.9434  154.1864 C   0  0  1  0  0  0  0  0  0  0  0  0
  148.3162  139.6070  153.8709 O   0  0  0  0  0  0  0  0  0  0  0  0
  146.9225  139.3160  154.0298 C   0  0  1  0  0  0  0  0  0  0  0  0
  146.7241  137.9538  154.7136 C   0  0  0  0  0  0  0  0  0  0  0  0
  146.8844  136.9136  153.7739 O   0  0  0  0  0  0  0  0  0  0  0  0
  146.3849  140.4944  154.8464 C   0  0  2  0  0  0  0  0  0  0  0  0
  145.0059  140.7406  154.6545 O   0  0  0  0  0  0  0  0  0  0  0  0
  147.2381  141.6379  154.3327 C   0  0  2  0  0  0  0  0  0  0  0  0
  146.8504  142.0366  153.1188 F   0  0  0  0  0  0  0  0  0  0  0  0
  149.2767  141.4134  153.4781 H   0  0  0  0  0  0  0  0  0  0  0  0
  146.4582  139.3241  153.0416 H   0  0  0  0  0  0  0  0  0  0  0  0
  146.5778  140.3401  155.9093 H   0  0  0  0  0  0  0  0  0  0  0  0
  147.2719  142.5090  154.9874 H   0  0  0  0  0  0  0  0  0  0  0  0
  151.9287  140.8189  159.4960 H   0  0  0  0  0  0  0  0  0  0  0  0
  153.3771  139.9050  159.1317 H   0  0  0  0  0  0  0  0  0  0  0  0
  148.0245  142.0638  156.8406 H   0  0  0  0  0  0  0  0  0  0  0  0
  147.4062  137.8173  155.5515 H   0  0  0  0  0  0  0  0  0  0  0  0
  145.7110  137.8799  155.1100 H   0  0  0  0  0  0  0  0  0  0  0  0
  147.6981  137.0472  153.3120 H   0  0  0  0  0  0  0  0  0  0  0  0
  144.7811  140.5196  153.7637 H   0  0  0  0  0  0  0  0  0  0  0  0
  1  2  1  0  0  0  0
  1 25  1  0  0  0  0
  1 26  1  0  0  0  0
  2  8  1  0  0  0  0
  2  3  2  0  0  0  0
  3  4  1  0  0  0  0
  4  5  1  0  0  0  0
  4  6  2  0  0  0  0
  6  7  1  0  0  0  0
  7 11  1  0  0  0  0
  7  8  2  0  0  0  0
  8  9  1  0  0  0  0
  9 10  2  0  0  0  0
 10 11  1  0  0  0  0
 10 27  1  0  0  0  0
 11 12  1  0  0  0  0
 12 21  1  0  0  0  0
 12 19  1  0  0  0  0
 12 13  1  0  0  0  0
 13 14  1  0  0  0  0
 14 22  1  0  0  0  0
 14 15  1  0  0  0  0
 14 17  1  0  0  0  0
 15 16  1  0  0  0  0
 15 28  1  0  0  0  0
 15 29  1  0  0  0  0
 16 30  1  0  0  0  0
 17 23  1  0  0  0  0
 17 18  1  0  0  0  0
 17 19  1  0  0  0  0
 18 31  1  0  0  0  0
 19 24  1  0  0  0  0
 19 20  1  0  0  0  0
M  END
> <s_m_source_file>
AV-unprocessed.smi

> <i_m_source_file_index>
158

> <i_lp_mmshare_version>
43012

> <i_f3d_flags>
0

> <s_epik_input>
Q2xjKG4xKW5jKFtOSDJdKWMoYzEyKW5bY0hdbjJbQ0BASF0zT1tDQEhdKFtDSDJdW09IXSlbQ0BASF0oW09IXSlbQ0BASF0zRg==

> <s_epik_cmdline>
J2VwaWtfcHl0aG9uJywgJy1waCcsICc3LjAnLCAnLXRuJywgJzgnLCAnLW1hJywgJzIwMCcsICctbWV0YWxfYmluZGluZycsICctaW1hZScsICc8aW5maWxlLm1hZT4nLCAnLW9tYWUnLCAnPG91dGZpbGUubWFlPic=

> <r_lp_tautomer_probability>
1

> <r_epik_Ionization_Penalty>
6.51543e-05

> <r_epik_Ionization_Penalty_Charging>
0

> <r_epik_Ionization_Penalty_Neutral>
6.51543e-05

> <r_epik_State_Penalty>
-0

> <r_epik_Charging_Adjusted_Penalty>
0

> <i_epik_Tot_Q>
0

> <i_epik_Tot_abs_Q>
0

> <r_epik_Metal_State_Penalty>
-0

> <b_epik_Metal_Only>
0

> <s_epik_Chemistry_Notes>
This compound contains an acetal/aminal-like group ( X-CH(R)-Y where X, Y are N, S, or O) that may be acid/base labile, releasing an aldehyde.

> <s_lp_Force_Field>
OPLS_2005

> <r_lp_Energy>
30.2805

> <b_lp_Chiralities_Consistent>
1

> <s_lp_Variant>
AV-unprocessed.smi:158-8

> <Gold.Version>
5.8.1

> <Gold.Id.Protein>
6NUR|6NUR_protein|mol2

> <Gold.PLP.Fitness>
38.7409

> <Gold.PLP.PLP>
-27.5349

> <Gold.PLP.part.hbond>
-4.0000

> <Gold.PLP.part.metal>
0.0000

> <Gold.PLP.part.buried>
-5.3851

> <Gold.PLP.part.nonpolar>
-19.7863

> <Gold.PLP.part.repulsive>
1.1103

> <Gold.PLP.ligand.clash>
0.0000

> <Gold.PLP.ligand.torsion>
0.1717

> <Gold.PLP.Chemscore.Hbond>
3.8406

> <Gold.PLP.Chemscore.CHOScore>
0.0000

> <Gold.PLP.Chemscore.Metal>
0.0000

> <Gold.Chemscore.Hbonds>
donor molecule, donor type, donor heavy atom, donor atom, acceptor molecule, acceptor atom, score
      L1  H    16    30       P1  7948  0.76
      L1  H    18    31       P1 10175  1.00
      P1  H  7989  7998       L1     6  1.00
      P1  H  7997  8010       L1     3  1.00

> <Gold.PLP.Chemscore.Internal.Correction>
0.0276

> <Gold.Rescore>
     Score         DG    S(hbond)    S(metal)    S(lipo)     H(rot)  DE(clash)    DE(int)     intcor
      9.21     -10.03       2.73        0.00      29.37       3.12       0.63       0.19       ----

> <Gold.Chemscore.Fitness>
9.2125

> <Gold.Chemscore.DG>
-10.0334

> <Gold.Chemscore.ZeroCoef>
-5.4800

> <Gold.Chemscore.Hbond>
2.7282

> <Gold.Chemscore.Metal>
0.0000

> <Gold.Chemscore.Lipo>
29.3688

> <Gold.Chemscore.Internal_Hbond>
0.0000

> <Gold.Chemscore.DEClash>
0.6303

> <Gold.Chemscore.DEInternal>
0.1906

> <Gold.Chemscore.Rot>
3.1230

> <Gold.Chemscore.Internal.Correction>
   9.000000E+99

> <Gold.Chemscore.Hbonds>
donor molecule, donor type, donor heavy atom, donor atom, acceptor molecule, acceptor atom, score
      L1  H    16    30       P1  7948  0.73
      L1  H    18    31       P1 10175  0.94
      P1  H  7989  7998       L1     6  0.33
      P1  H  7997  8010       L1     3  0.37

> <Gold.Chemscore.Hbond.Weighted>
-9.1122

> <Gold.Chemscore.Metal.Weighted>
-0.0000

> <Gold.Chemscore.Lipo.Weighted>
-3.4362

> <Gold.Chemscore.Internal_Hbond.Weighted>
0.0000

> <Gold.Chemscore.DEClash.Weighted>
0.6303

> <Gold.Chemscore.DEInternal.Weighted>
0.1906

> <Gold.Chemscore.Rot.Weighted>
7.9950

> <Gold.Chemscore.Internal.Correction.Weighted>
   9.000000E+99

> <Gold.Protein.RotatedTorsions>
[ 6907 6896 6895 6894 ] final  115.23 input  -60.11 | X-H torsion
[ 7974 7965 7964 7962 ] final -101.71 input  175.53 | X-H torsion
[ 8008 7997 7996 7995 ] final   63.16 input   59.86 | X-H torsion
[ 10167 10162 10161 10158 ] final  -88.48 input  -65.29 | X-H torsion
[ 10718 10713 10712 10709 ] final -169.67 input   66.30 | X-H torsion
[ 10763 10752 10751 10750 ] final -169.06 input  -60.55 | X-H torsion
[ 11005 11000 10999 10996 ] final  125.14 input  -57.11 | X-H torsion

> <Gold.Protein.ActiveResidues>
 VAL166  LYS551  ARG553  GLY616  TRP617  ASP618  TYR619  PRO620  LYS621  CYS622 
 ASP623  PHE694  ASN695  SER759  ASP760  ASP761  ALA762  ILE779  LEU786  VAL792 
 PHE793  MET794  SER795  GLU796  ALA797  LYS798  CYS799  TRP800  GLU811  SER814 

> <Gold.Protein.RotatedAtoms>
  152.4754  133.8127  159.7011 H   0  0  0  0  0  0  0  0  0  0  0  0  # atno 6907 bound_to 6896
  150.8769  133.7417  159.2950 H   0  0  0  0  0  0  0  0  0  0  0  0  # atno 6908 bound_to 6896
  151.4934  135.1062  159.9862 H   0  0  0  0  0  0  0  0  0  0  0  0  # atno 6909 bound_to 6896
  145.2781  140.9318  143.2948 H   0  0  0  0  0  0  0  0  0  0  0  0  # atno 7974 bound_to 7965
  155.6258  140.3496  155.4667 H   0  0  0  0  0  0  0  0  0  0  0  0  # atno 8008 bound_to 7997
  156.0042  140.1219  157.0541 H   0  0  0  0  0  0  0  0  0  0  0  0  # atno 8009 bound_to 7997
  154.4259  140.1094  156.5726 H   0  0  0  0  0  0  0  0  0  0  0  0  # atno 8010 bound_to 7997
  140.3743  143.2779  151.9462 H   0  0  0  0  0  0  0  0  0  0  0  0  # atno 10167 bound_to 10162
  156.7149  130.9248  151.3092 H   0  0  0  0  0  0  0  0  0  0  0  0  # atno 10718 bound_to 10713
  154.6563  135.2918  154.9924 H   0  0  0  0  0  0  0  0  0  0  0  0  # atno 10763 bound_to 10752
  154.0999  135.6578  153.4870 H   0  0  0  0  0  0  0  0  0  0  0  0  # atno 10764 bound_to 10752
  153.0404  135.5240  154.7493 H   0  0  0  0  0  0  0  0  0  0  0  0  # atno 10765 bound_to 10752
  139.9392  134.9637  156.8515 H   0  0  0  0  0  0  0  0  0  0  0  0  # atno 11005 bound_to 11000
  144.9277  139.4336  143.6510 LP  0  0  0  0  0  0  0  0  0  0  0  0  # atno 17320 bound_to 7965
  146.3225  139.8171  142.8934 LP  0  0  0  0  0  0  0  0  0  0  0  0  # atno 17321 bound_to 7965
  139.4801  144.5878  151.7824 LP  0  0  0  0  0  0  0  0  0  0  0  0  # atno 17342 bound_to 10162
  140.5002  144.1180  150.5969 LP  0  0  0  0  0  0  0  0  0  0  0  0  # atno 17343 bound_to 10162
  157.6921  130.9244  150.0543 LP  0  0  0  0  0  0  0  0  0  0  0  0  # atno 17370 bound_to 10713
  156.1635  130.3644  149.9265 LP  0  0  0  0  0  0  0  0  0  0  0  0  # atno 17371 bound_to 10713
  140.5995  134.0185  155.7531 LP  0  0  0  0  0  0  0  0  0  0  0  0  # atno 17394 bound_to 11000
  141.1020  133.9754  157.3063 LP  0  0  0  0  0  0  0  0  0  0  0  0  # atno 17395 bound_to 11000

$$$$
