AV-unprocessed.smi:145|AV-procd|sdf|1198|dock10
  -GOLD-   2262018353D 1   1.00000     0.00000
 Structure written by MMmdl.
 40 42  0  0  0  0  0  0  0  0  1 V2000
  151.9926  135.9974  156.0134 O   0  0  0  0  0  0  0  0  0  0  0  0
  151.5623  137.1237  156.2662 C   0  0  0  0  0  0  0  0  0  0  0  0
  152.2209  138.3681  155.6490 C   0  0  0  0  0  0  0  0  0  0  0  0
  151.4939  139.6252  155.9321 N   0  0  0  0  0  0  0  0  0  0  0  0
  150.4395  140.0134  155.0688 C   0  0  0  0  0  0  0  0  0  0  0  0
  150.1186  139.3216  154.1016 O   0  0  0  0  0  0  0  0  0  0  0  0
  149.7818  141.2714  155.4041 C   0  0  0  0  0  0  0  0  0  0  0  0
  148.7608  141.7102  154.6485 F   0  0  0  0  0  0  0  0  0  0  0  0
  150.1808  142.0040  156.4642 C   0  0  0  0  0  0  0  0  0  0  0  0
  151.2246  141.6217  157.2883 N   0  0  0  0  0  0  0  0  0  0  0  0
  151.6655  142.4581  158.4713 C   0  0  1  0  0  0  0  0  0  0  0  0
  152.1736  143.8353  158.0030 C   0  0  0  0  0  0  0  0  0  0  0  0
  151.3860  144.7963  158.8710 C   0  0  0  0  0  0  0  0  0  0  0  0
  150.1044  144.0161  159.1213 C   0  0  0  0  0  0  0  0  0  0  0  0
  150.5786  142.6910  159.3217 O   0  0  0  0  0  0  0  0  0  0  0  0
  151.9028  140.4093  157.0370 C   0  0  0  0  0  0  0  0  0  0  0  0
  152.8338  140.0494  157.7611 O   0  0  0  0  0  0  0  0  0  0  0  0
  150.5267  137.3753  157.0872 N   0  0  0  0  0  0  0  0  0  0  0  0
  149.7181  136.4490  157.7995 C   0  0  0  0  0  0  0  0  0  0  0  0
  149.3533  135.1794  157.2890 C   0  0  0  0  0  0  0  0  0  0  0  0
  148.5304  134.3212  158.0446 C   0  0  0  0  0  0  0  0  0  0  0  0
  148.0585  134.7254  159.3076 C   0  0  0  0  0  0  0  0  0  0  0  0
  148.4037  135.9930  159.8129 C   0  0  0  0  0  0  0  0  0  0  0  0
  147.6946  136.6023  161.6833 I   0  0  0  0  0  0  0  0  0  0  0  0
  149.2253  136.8526  159.0581 C   0  0  0  0  0  0  0  0  0  0  0  0
  153.2517  138.4204  156.0026 H   0  0  0  0  0  0  0  0  0  0  0  0
  152.3203  138.2152  154.5729 H   0  0  0  0  0  0  0  0  0  0  0  0
  149.6495  142.9228  156.6590 H   0  0  0  0  0  0  0  0  0  0  0  0
  152.4130  141.8589  158.9941 H   0  0  0  0  0  0  0  0  0  0  0  0
  153.2525  143.9204  158.1358 H   0  0  0  0  0  0  0  0  0  0  0  0
  151.9326  143.9899  156.9499 H   0  0  0  0  0  0  0  0  0  0  0  0
  151.9093  144.9673  159.8126 H   0  0  0  0  0  0  0  0  0  0  0  0
  151.2132  145.7609  158.3935 H   0  0  0  0  0  0  0  0  0  0  0  0
  149.5502  144.3795  159.9868 H   0  0  0  0  0  0  0  0  0  0  0  0
  149.4492  144.0548  158.2499 H   0  0  0  0  0  0  0  0  0  0  0  0
  150.3431  138.3493  157.2802 H   0  0  0  0  0  0  0  0  0  0  0  0
  149.6810  134.8496  156.3150 H   0  0  0  0  0  0  0  0  0  0  0  0
  148.2567  133.3534  157.6513 H   0  0  0  0  0  0  0  0  0  0  0  0
  147.4273  134.0655  159.8845 H   0  0  0  0  0  0  0  0  0  0  0  0
  149.4826  137.8243  159.4542 H   0  0  0  0  0  0  0  0  0  0  0  0
  1  2  2  0  0  0  0
  2  3  1  0  0  0  0
  2 18  1  0  0  0  0
  3  4  1  0  0  0  0
  3 26  1  0  0  0  0
  3 27  1  0  0  0  0
  4 16  1  0  0  0  0
  4  5  1  0  0  0  0
  5  6  2  0  0  0  0
  5  7  1  0  0  0  0
  7  8  1  0  0  0  0
  7  9  2  0  0  0  0
  9 10  1  0  0  0  0
  9 28  1  0  0  0  0
 10 11  1  0  0  0  0
 10 16  1  0  0  0  0
 11 15  1  0  0  0  0
 11 12  1  0  0  0  0
 11 29  1  0  0  0  0
 12 13  1  0  0  0  0
 12 30  1  0  0  0  0
 12 31  1  0  0  0  0
 13 14  1  0  0  0  0
 13 32  1  0  0  0  0
 13 33  1  0  0  0  0
 14 15  1  0  0  0  0
 14 34  1  0  0  0  0
 14 35  1  0  0  0  0
 16 17  2  0  0  0  0
 18 19  1  0  0  0  0
 18 36  1  0  0  0  0
 19 25  1  0  0  0  0
 19 20  2  0  0  0  0
 20 21  1  0  0  0  0
 20 37  1  0  0  0  0
 21 22  2  0  0  0  0
 21 38  1  0  0  0  0
 22 23  1  0  0  0  0
 22 39  1  0  0  0  0
 23 24  1  0  0  0  0
 23 25  2  0  0  0  0
 25 40  1  0  0  0  0
M  END
> <s_m_source_file>
AV-unprocessed.smi

> <i_m_source_file_index>
145

> <i_lp_mmshare_version>
43012

> <i_f3d_flags>
0

> <s_epik_input>
SWMoW2NIXTEpW2NIXVtjSF1bY0hdYzFbTkhdQyg9TylbQ0gyXW4yYyg9TyljKEYpW2NIXW4oYzI9TylbQ0BASF0zW0NIMl1bQ0gyXVtDSDJdTzM=

> <s_epik_cmdline>
J2VwaWtfcHl0aG9uJywgJy1waCcsICc3LjAnLCAnLXRuJywgJzgnLCAnLW1hJywgJzIwMCcsICctbWV0YWxfYmluZGluZycsICctaW1hZScsICc8aW5maWxlLm1hZT4nLCAnLW9tYWUnLCAnPG91dGZpbGUubWFlPic=

> <r_lp_tautomer_probability>
1

> <r_epik_Ionization_Penalty>
9.72367e-07

> <r_epik_Ionization_Penalty_Charging>
3.88729e-08

> <r_epik_Ionization_Penalty_Neutral>
9.33494e-07

> <r_epik_State_Penalty>
-0

> <r_epik_Charging_Adjusted_Penalty>
3.88729e-08

> <i_epik_Tot_Q>
0

> <i_epik_Tot_abs_Q>
0

> <r_epik_Metal_State_Penalty>
-0

> <b_epik_Metal_Only>
0

> <s_epik_Chemistry_Notes>
This compound contains an acetal/aminal-like group ( X-CH(R)-Y where X, Y are N, S, or O) that may be acid/base labile, releasing an aldehyde.

> <s_lp_Force_Field>
OPLS_2005

> <r_lp_Energy>
33.5039

> <b_lp_Chiralities_Consistent>
1

> <s_lp_Variant>
AV-unprocessed.smi:145-2

> <Gold.Version>
5.8.1

> <Gold.Id.Protein>
6NUR|6NUR_protein|mol2

> <Gold.PLP.Fitness>
50.8974

> <Gold.PLP.PLP>
-43.2216

> <Gold.PLP.part.hbond>
-3.5036

> <Gold.PLP.part.metal>
0.0000

> <Gold.PLP.part.buried>
-1.6108

> <Gold.PLP.part.nonpolar>
-37.7556

> <Gold.PLP.part.repulsive>
0.6912

> <Gold.PLP.ligand.clash>
0.0000

> <Gold.PLP.ligand.torsion>
0.6678

> <Gold.PLP.Chemscore.Hbond>
2.0000

> <Gold.PLP.Chemscore.CHOScore>
1.0000

> <Gold.PLP.Chemscore.Metal>
0.0000

> <Gold.Chemscore.Hbonds>
donor molecule, donor type, donor heavy atom, donor atom, acceptor molecule, acceptor atom, score
      P1  H  7997  8010       L1    17  1.00
      P1  H 10752 10764       L1     1  1.00
      L1  C     9    28       P1  8028  1.00

> <Gold.PLP.Chemscore.Internal.Correction>
0.0114

> <Gold.Rescore>
     Score         DG    S(hbond)    S(metal)    S(lipo)     H(rot)  DE(clash)    DE(int)     intcor
     15.58     -17.19       1.97        0.00      80.29       1.66       0.09       1.52       ----

> <Gold.Chemscore.Fitness>
15.5831

> <Gold.Chemscore.DG>
-17.1925

> <Gold.Chemscore.ZeroCoef>
-5.4800

> <Gold.Chemscore.Hbond>
1.9680

> <Gold.Chemscore.Metal>
0.0000

> <Gold.Chemscore.Lipo>
80.2923

> <Gold.Chemscore.Internal_Hbond>
0.0000

> <Gold.Chemscore.DEClash>
0.0855

> <Gold.Chemscore.DEInternal>
1.5239

> <Gold.Chemscore.Rot>
1.6621

> <Gold.Chemscore.Internal.Correction>
   9.000000E+99

> <Gold.Chemscore.Hbonds>
donor molecule, donor type, donor heavy atom, donor atom, acceptor molecule, acceptor atom, score
      P1  H  7997  8010       L1    17  0.73
      P1  H 10752 10764       L1     1  0.95

> <Gold.Chemscore.Hbond.Weighted>
-6.5732

> <Gold.Chemscore.Metal.Weighted>
-0.0000

> <Gold.Chemscore.Lipo.Weighted>
-9.3942

> <Gold.Chemscore.Internal_Hbond.Weighted>
0.0000

> <Gold.Chemscore.DEClash.Weighted>
0.0855

> <Gold.Chemscore.DEInternal.Weighted>
1.5239

> <Gold.Chemscore.Rot.Weighted>
4.2550

> <Gold.Chemscore.Internal.Correction.Weighted>
   9.000000E+99

> <Gold.Protein.RotatedTorsions>
[ 6907 6896 6895 6894 ] final -104.12 input  -60.11 | X-H torsion
[ 7974 7965 7964 7962 ] final -113.20 input  175.53 | X-H torsion
[ 8008 7997 7996 7995 ] final   50.50 input   59.86 | X-H torsion
[ 10167 10162 10161 10158 ] final -136.69 input  -65.29 | X-H torsion
[ 10718 10713 10712 10709 ] final -167.17 input   66.30 | X-H torsion
[ 10763 10752 10751 10750 ] final  -52.17 input  -60.55 | X-H torsion
[ 11005 11000 10999 10996 ] final  -67.00 input  -57.11 | X-H torsion

> <Gold.Protein.ActiveResidues>
 VAL166  LYS551  ARG553  GLY616  TRP617  ASP618  TYR619  PRO620  LYS621  CYS622 
 ASP623  PHE694  ASN695  SER759  ASP760  ASP761  ALA762  ILE779  LEU786  VAL792 
 PHE793  MET794  SER795  GLU796  ALA797  LYS798  CYS799  TRP800  GLU811  SER814 

> <Gold.Protein.RotatedAtoms>
  150.7272  134.0326  159.3738 H   0  0  0  0  0  0  0  0  0  0  0  0  # atno 6907 bound_to 6896
  151.8296  135.0623  160.0444 H   0  0  0  0  0  0  0  0  0  0  0  0  # atno 6908 bound_to 6896
  152.2943  133.5556  159.5614 H   0  0  0  0  0  0  0  0  0  0  0  0  # atno 6909 bound_to 6896
  145.1349  140.8745  143.3736 H   0  0  0  0  0  0  0  0  0  0  0  0  # atno 7974 bound_to 7965
  155.4198  140.3446  155.4270 H   0  0  0  0  0  0  0  0  0  0  0  0  # atno 8008 bound_to 7997
  156.1400  140.1539  156.8967 H   0  0  0  0  0  0  0  0  0  0  0  0  # atno 8009 bound_to 7997
  154.4963  140.0827  156.7684 H   0  0  0  0  0  0  0  0  0  0  0  0  # atno 8010 bound_to 7997
  139.8652  143.7026  152.2646 H   0  0  0  0  0  0  0  0  0  0  0  0  # atno 10167 bound_to 10162
  156.6785  130.9112  151.3053 H   0  0  0  0  0  0  0  0  0  0  0  0  # atno 10718 bound_to 10713
  154.1385  135.6509  153.4937 H   0  0  0  0  0  0  0  0  0  0  0  0  # atno 10763 bound_to 10752
  153.0173  135.5310  154.6929 H   0  0  0  0  0  0  0  0  0  0  0  0  # atno 10764 bound_to 10752
  154.6184  135.2962  155.0325 H   0  0  0  0  0  0  0  0  0  0  0  0  # atno 10765 bound_to 10752
  141.1497  133.6710  156.6225 H   0  0  0  0  0  0  0  0  0  0  0  0  # atno 11005 bound_to 11000
  145.0595  139.3117  143.5888 LP  0  0  0  0  0  0  0  0  0  0  0  0  # atno 17320 bound_to 7965
  146.3510  140.0032  142.8674 LP  0  0  0  0  0  0  0  0  0  0  0  0  # atno 17321 bound_to 7965
  139.7335  144.7577  151.0764 LP  0  0  0  0  0  0  0  0  0  0  0  0  # atno 17342 bound_to 10162
  140.7769  143.5059  150.9713 LP  0  0  0  0  0  0  0  0  0  0  0  0  # atno 17343 bound_to 10162
  157.7052  130.9377  150.0909 LP  0  0  0  0  0  0  0  0  0  0  0  0  # atno 17370 bound_to 10713
  156.1885  130.3653  149.8940 LP  0  0  0  0  0  0  0  0  0  0  0  0  # atno 17371 bound_to 10713
  140.3529  134.7753  157.4480 LP  0  0  0  0  0  0  0  0  0  0  0  0  # atno 17394 bound_to 11000
  140.0846  134.5684  155.8505 LP  0  0  0  0  0  0  0  0  0  0  0  0  # atno 17395 bound_to 11000

$$$$
