AV-unprocessed.smi:1238|AV-procd|sdf|5184|dock1
  -GOLD-   22720 4263D 1   1.00000     0.00000
 Structure written by MMmdl.
 42 43  0  0  0  0  0  0  0  0  2 V2000
  149.1240  140.2912  153.7270 C   0  0  0  0  0  0  0  0  0  0  0  0
  150.3931  139.7768  154.0901 O   0  0  0  0  0  0  0  0  0  0  0  0
  150.2988  138.5487  154.7917 C   0  0  0  0  0  0  0  0  0  0  0  0
  149.7942  138.8255  156.2181 C   0  0  0  0  0  0  0  0  0  0  0  0
  150.7099  138.2677  157.2407 N   0  0  0  0  0  0  0  0  0  0  0  0
  150.2442  137.2883  158.1706 C   0  0  0  0  0  0  0  0  0  0  0  0
  148.4602  136.8792  158.0553 S   0  0  0  0  0  0  0  0  0  0  0  0
  148.2729  135.6737  159.3999 C   0  0  0  0  0  0  0  0  0  0  0  0
  147.5011  136.2443  160.5856 C   0  0  0  0  0  0  0  0  0  0  0  0
  147.6367  137.4266  160.9001 O   0  0  0  0  0  0  0  0  0  0  0  0
  146.6928  135.3939  161.2369 N   0  0  0  0  0  0  0  0  0  0  0  0
  145.8803  135.7358  162.4008 C   0  0  0  0  0  0  0  0  0  0  0  0
  144.9708  134.5644  162.8265 C   0  0  0  0  0  0  0  0  0  0  0  0
  143.5704  135.1552  162.9971 C   0  0  0  0  0  0  0  0  0  0  0  0
  143.5314  136.3197  162.0130 C   0  0  0  0  0  0  0  0  0  0  0  0
  144.9397  136.9117  162.0792 C   0  0  0  0  0  0  0  0  0  0  0  0
  151.0528  136.7590  159.0357 N   0  0  0  0  0  0  0  0  0  0  0  0
  152.3971  137.1187  159.1207 C   0  0  0  0  0  0  0  0  0  0  0  0
  153.0148  136.4850  160.0039 O   0  5  0  0  0  0  0  0  0  0  0  0
  152.8611  138.0990  158.2593 C   0  0  0  0  0  0  0  0  0  0  0  0
  151.9953  138.7357  157.2748 C   0  0  0  0  0  0  0  0  0  0  0  0
  152.4062  139.6267  156.5293 O   0  0  0  0  0  0  0  0  0  0  0  0
  149.2491  141.2321  153.1917 H   0  0  0  0  0  0  0  0  0  0  0  0
  148.5105  140.4846  154.6080 H   0  0  0  0  0  0  0  0  0  0  0  0
  148.5901  139.6001  153.0737 H   0  0  0  0  0  0  0  0  0  0  0  0
  149.6112  137.8781  154.2740 H   0  0  0  0  0  0  0  0  0  0  0  0
  151.2741  138.0607  154.8165 H   0  0  0  0  0  0  0  0  0  0  0  0
  149.5971  139.8868  156.3620 H   0  0  0  0  0  0  0  0  0  0  0  0
  148.7970  138.3939  156.3209 H   0  0  0  0  0  0  0  0  0  0  0  0
  149.2587  135.3493  159.7354 H   0  0  0  0  0  0  0  0  0  0  0  0
  147.7560  134.7915  159.0202 H   0  0  0  0  0  0  0  0  0  0  0  0
  146.6458  134.4398  160.9092 H   0  0  0  0  0  0  0  0  0  0  0  0
  146.5342  136.0242  163.2258 H   0  0  0  0  0  0  0  0  0  0  0  0
  144.9394  133.7993  162.0487 H   0  0  0  0  0  0  0  0  0  0  0  0
  145.3236  134.0811  163.7380 H   0  0  0  0  0  0  0  0  0  0  0  0
  142.7819  134.4240  162.8166 H   0  0  0  0  0  0  0  0  0  0  0  0
  143.4505  135.5307  164.0142 H   0  0  0  0  0  0  0  0  0  0  0  0
  143.3364  135.9444  161.0075 H   0  0  0  0  0  0  0  0  0  0  0  0
  142.7574  137.0488  162.2539 H   0  0  0  0  0  0  0  0  0  0  0  0
  144.9842  137.6382  162.8918 H   0  0  0  0  0  0  0  0  0  0  0  0
  145.2039  137.4415  161.1629 H   0  0  0  0  0  0  0  0  0  0  0  0
  153.8969  138.4018  158.3071 H   0  0  0  0  0  0  0  0  0  0  0  0
  1  2  1  0  0  0  0
  1 23  1  0  0  0  0
  1 24  1  0  0  0  0
  1 25  1  0  0  0  0
  2  3  1  0  0  0  0
  3  4  1  0  0  0  0
  3 26  1  0  0  0  0
  3 27  1  0  0  0  0
  4 28  1  0  0  0  0
  4 29  1  0  0  0  0
  4  5  1  0  0  0  0
  5  6  1  0  0  0  0
  5 21  1  0  0  0  0
  6 17  2  0  0  0  0
  6  7  1  0  0  0  0
  7  8  1  0  0  0  0
  8  9  1  0  0  0  0
  8 30  1  0  0  0  0
  8 31  1  0  0  0  0
  9 10  2  0  0  0  0
  9 11  1  0  0  0  0
 11 12  1  0  0  0  0
 11 32  1  0  0  0  0
 12 16  1  0  0  0  0
 12 13  1  0  0  0  0
 12 33  1  0  0  0  0
 13 14  1  0  0  0  0
 13 34  1  0  0  0  0
 13 35  1  0  0  0  0
 14 15  1  0  0  0  0
 14 36  1  0  0  0  0
 14 37  1  0  0  0  0
 15 16  1  0  0  0  0
 15 38  1  0  0  0  0
 15 39  1  0  0  0  0
 16 40  1  0  0  0  0
 16 41  1  0  0  0  0
 17 18  1  0  0  0  0
 18 20  2  0  0  0  0
 18 19  1  0  0  0  0
 20 21  1  0  0  0  0
 20 42  1  0  0  0  0
 21 22  2  0  0  0  0
M  CHG  1  19  -1
M  END
> <s_m_source_file>
AV-unprocessed.smi

> <i_m_source_file_index>
1238

> <i_lp_mmshare_version>
43012

> <i_f3d_flags>
0

> <s_epik_input>
W0NIM11PW0NIMl1bQ0gyXW4xYyhuYyhbT0hdKVtjSF1jMT1PKVNbQ0gyXUMoPU8pW05IXVtDSF0yW0NIMl1bQ0gyXVtDSDJdW0NIMl0y

> <s_epik_cmdline>
J2VwaWtfcHl0aG9uJywgJy1waCcsICc3LjAnLCAnLXRuJywgJzgnLCAnLW1hJywgJzIwMCcsICctbWV0YWxfYmluZGluZycsICctaW1hZScsICc8aW5maWxlLm1hZT4nLCAnLW9tYWUnLCAnPG91dGZpbGUubWFlPic=

> <r_lp_tautomer_probability>
1

> <r_epik_Ionization_Penalty>
0.0116372

> <r_epik_Ionization_Penalty_Charging>
3.186e-07

> <r_epik_Ionization_Penalty_Neutral>
0.0116369

> <r_epik_State_Penalty>
0.000414464

> <r_epik_Charging_Adjusted_Penalty>
0.000414782

> <i_epik_Tot_Q>
-1

> <i_epik_Tot_abs_Q>
1

> <r_epik_Metal_State_Penalty>
-0

> <b_epik_Metal_Only>
0

> <s_lp_Force_Field>
OPLS_2005

> <r_lp_Energy>
27.578

> <b_lp_Chiralities_Consistent>
1

> <s_lp_Variant>
AV-unprocessed.smi:1238-1

> <Gold.Version>
5.8.1

> <Gold.Id.Protein>
6NUR|6NUR_protein|mol2

> <Gold.PLP.Fitness>
50.5779

> <Gold.PLP.PLP>
-34.9171

> <Gold.PLP.part.hbond>
-6.0000

> <Gold.PLP.part.metal>
0.0000

> <Gold.PLP.part.buried>
-5.2266

> <Gold.PLP.part.nonpolar>
-24.1800

> <Gold.PLP.part.repulsive>
0.1092

> <Gold.PLP.ligand.clash>
0.0000

> <Gold.PLP.ligand.torsion>
1.1185

> <Gold.PLP.Chemscore.Hbond>
5.9090

> <Gold.PLP.Chemscore.CHOScore>
0.0000

> <Gold.PLP.Chemscore.Metal>
0.0000

> <Gold.Chemscore.Hbonds>
donor molecule, donor type, donor heavy atom, donor atom, acceptor molecule, acceptor atom, score
      P1  H  6896  6908       L1    17  0.30
      P1  H  6896  6909       L1    19  1.79
      P1  H  6931  6943       L1    10  0.74
      P1  H  6934  6947       L1    10  0.90
      P1  H  7989  7998       L1     2  1.00
      P1  H  7997  8010       L1    22  0.89

> <Gold.PLP.Chemscore.Internal.Correction>
0.1708

> <Gold.Rescore>
     Score         DG    S(hbond)    S(metal)    S(lipo)     H(rot)  DE(clash)    DE(int)     intcor
     19.07     -20.68       4.58        0.00      54.19       2.51       0.15       1.47       ----

> <Gold.Chemscore.Fitness>
19.0679

> <Gold.Chemscore.DG>
-20.6827

> <Gold.Chemscore.ZeroCoef>
-5.4800

> <Gold.Chemscore.Hbond>
4.5790

> <Gold.Chemscore.Metal>
0.0000

> <Gold.Chemscore.Lipo>
54.1928

> <Gold.Chemscore.Internal_Hbond>
0.0000

> <Gold.Chemscore.DEClash>
0.1486

> <Gold.Chemscore.DEInternal>
1.4662

> <Gold.Chemscore.Rot>
2.5124

> <Gold.Chemscore.Internal.Correction>
   9.000000E+99

> <Gold.Chemscore.Hbonds>
donor molecule, donor type, donor heavy atom, donor atom, acceptor molecule, acceptor atom, score
      P1  H  6896  6908       L1    17  0.23
      P1  H  6896  6909       L1    19  0.62
      P1  H  6931  6943       L1    10  0.74
      P1  H  6934  6947       L1    10  0.88
      P1  H  7989  7998       L1     2  0.65
      P1  H  7997  8010       L1    22  0.75

> <Gold.Chemscore.Hbond.Weighted>
-15.2940

> <Gold.Chemscore.Metal.Weighted>
-0.0000

> <Gold.Chemscore.Lipo.Weighted>
-6.3406

> <Gold.Chemscore.Internal_Hbond.Weighted>
0.0000

> <Gold.Chemscore.DEClash.Weighted>
0.1486

> <Gold.Chemscore.DEInternal.Weighted>
1.4662

> <Gold.Chemscore.Rot.Weighted>
6.4318

> <Gold.Chemscore.Internal.Correction.Weighted>
   9.000000E+99

> <Gold.Protein.RotatedTorsions>
[ 6907 6896 6895 6894 ] final  176.59 input  -60.11 | X-H torsion
[ 7974 7965 7964 7962 ] final  -56.56 input  175.53 | X-H torsion
[ 8008 7997 7996 7995 ] final   51.98 input   59.86 | X-H torsion
[ 10167 10162 10161 10158 ] final  107.44 input  -65.29 | X-H torsion
[ 10718 10713 10712 10709 ] final -144.44 input   66.30 | X-H torsion
[ 10763 10752 10751 10750 ] final   22.32 input  -60.55 | X-H torsion
[ 11005 11000 10999 10996 ] final  -18.62 input  -57.11 | X-H torsion

> <Gold.Protein.ActiveResidues>
 VAL166  LYS551  ARG553  GLY616  TRP617  ASP618  TYR619  PRO620  LYS621  CYS622 
 ASP623  PHE694  ASN695  SER759  ASP760  ASP761  ALA762  ILE779  LEU786  VAL792 
 PHE793  MET794  SER795  GLU796  ALA797  LYS798  CYS799  TRP800  GLU811  SER814 

> <Gold.Protein.RotatedAtoms>
  151.7177  133.3313  159.3306 H   0  0  0  0  0  0  0  0  0  0  0  0  # atno 6907 bound_to 6896
  150.7666  134.6476  159.6280 H   0  0  0  0  0  0  0  0  0  0  0  0  # atno 6908 bound_to 6896
  152.3671  134.6790  160.0240 H   0  0  0  0  0  0  0  0  0  0  0  0  # atno 6909 bound_to 6896
  145.8613  140.8283  142.9935 H   0  0  0  0  0  0  0  0  0  0  0  0  # atno 7974 bound_to 7965
  155.4443  140.3455  155.4293 H   0  0  0  0  0  0  0  0  0  0  0  0  # atno 8008 bound_to 7997
  156.1260  140.1500  156.9166 H   0  0  0  0  0  0  0  0  0  0  0  0  # atno 8009 bound_to 7997
  154.4858  140.0856  156.7463 H   0  0  0  0  0  0  0  0  0  0  0  0  # atno 8010 bound_to 7997
  139.6926  144.7106  151.1321 H   0  0  0  0  0  0  0  0  0  0  0  0  # atno 10167 bound_to 10162
  156.3701  130.7783  151.1963 H   0  0  0  0  0  0  0  0  0  0  0  0  # atno 10718 bound_to 10713
  153.0924  135.6650  153.9827 H   0  0  0  0  0  0  0  0  0  0  0  0  # atno 10763 bound_to 10752
  153.9420  135.2993  155.3443 H   0  0  0  0  0  0  0  0  0  0  0  0  # atno 10764 bound_to 10752
  154.7340  135.5110  153.9084 H   0  0  0  0  0  0  0  0  0  0  0  0  # atno 10765 bound_to 10752
  140.8286  133.8014  155.9735 H   0  0  0  0  0  0  0  0  0  0  0  0  # atno 11005 bound_to 11000
  144.6726  140.1099  143.7456 LP  0  0  0  0  0  0  0  0  0  0  0  0  # atno 17320 bound_to 7965
  145.9245  139.2566  143.1362 LP  0  0  0  0  0  0  0  0  0  0  0  0  # atno 17321 bound_to 7965
  140.7687  143.5537  150.9176 LP  0  0  0  0  0  0  0  0  0  0  0  0  # atno 17342 bound_to 10162
  139.9215  143.6600  152.3096 LP  0  0  0  0  0  0  0  0  0  0  0  0  # atno 17343 bound_to 10162
  157.7483  131.0374  150.4457 LP  0  0  0  0  0  0  0  0  0  0  0  0  # atno 17370 bound_to 10713
  156.4682  130.4047  149.6534 LP  0  0  0  0  0  0  0  0  0  0  0  0  # atno 17371 bound_to 10713
  140.9022  134.2364  157.5035 LP  0  0  0  0  0  0  0  0  0  0  0  0  # atno 17394 bound_to 11000
  139.8705  134.9712  156.4727 LP  0  0  0  0  0  0  0  0  0  0  0  0  # atno 17395 bound_to 11000

$$$$
