AV-unprocessed.smi:1046|AV-procd|sdf|4548|dock6
  -GOLD-   22720 2573D 1   1.00000     0.00000
 Structure written by MMmdl.
 53 55  0  0  0  0  0  0  0  0  2 V2000
  153.0736  143.0989  160.7674 C   0  0  0  0  0  0  0  0  0  0  0  0
  152.4438  142.2480  159.6787 C   0  0  0  0  0  0  0  0  0  0  0  0
  153.1026  142.1271  158.4345 C   0  0  0  0  0  0  0  0  0  0  0  0
  152.5498  141.3473  157.3954 C   0  0  0  0  0  0  0  0  0  0  0  0
  153.0146  141.0956  156.1160 N   0  0  0  0  0  0  0  0  0  0  0  0
  152.0604  140.3049  155.6348 C   0  0  0  0  0  0  0  0  0  0  0  0
  151.0296  140.0144  156.4516 N   0  0  0  0  0  0  0  0  0  0  0  0
  149.8811  139.1815  156.1428 C   0  0  0  0  0  0  0  0  0  0  0  0
  150.0012  138.5032  154.7648 C   0  0  2  0  0  0  0  0  0  0  0  0
  148.7325  138.0188  154.3660 O   0  0  0  0  0  0  0  0  0  0  0  0
  150.9980  137.3278  154.7901 C   0  0  0  0  0  0  0  0  0  0  0  0
  151.2997  136.8013  153.4343 N   0  3  0  0  0  0  0  0  0  0  0  0
  152.2706  135.6771  153.4664 C   0  0  0  0  0  0  0  0  0  0  0  0
  152.4922  135.1160  152.0466 C   0  0  0  0  0  0  0  0  0  0  0  0
  152.9464  136.1254  151.0904 N   0  0  0  0  0  0  0  0  0  0  0  0
  154.3344  136.5398  151.3188 C   0  0  0  0  0  0  0  0  0  0  0  0
  154.8679  137.5889  150.3302 C   0  0  0  0  0  0  0  0  0  0  0  0
  155.7996  138.4196  150.9871 O   0  0  0  0  0  0  0  0  0  0  0  0
  151.9772  137.2239  151.0789 C   0  0  0  0  0  0  0  0  0  0  0  0
  151.7401  137.8455  152.4704 C   0  0  0  0  0  0  0  0  0  0  0  0
  151.3107  140.6848  157.6374 C   0  0  0  0  0  0  0  0  0  0  0  0
  150.6464  140.7964  158.8715 C   0  0  0  0  0  0  0  0  0  0  0  0
  151.2123  141.5804  159.8987 C   0  0  0  0  0  0  0  0  0  0  0  0
  150.4871  141.6963  161.2275 C   0  0  0  0  0  0  0  0  0  0  0  0
  153.9965  143.5667  160.4233 H   0  0  0  0  0  0  0  0  0  0  0  0
  153.3121  142.4887  161.6385 H   0  0  0  0  0  0  0  0  0  0  0  0
  152.3924  143.8921  161.0758 H   0  0  0  0  0  0  0  0  0  0  0  0
  154.0410  142.6349  158.2665 H   0  0  0  0  0  0  0  0  0  0  0  0
  152.1113  139.9160  154.6283 H   0  0  0  0  0  0  0  0  0  0  0  0
  149.7906  138.4275  156.9258 H   0  0  0  0  0  0  0  0  0  0  0  0
  148.9791  139.7928  156.1955 H   0  0  0  0  0  0  0  0  0  0  0  0
  150.3188  139.2535  154.0416 H   0  0  0  0  0  0  0  0  0  0  0  0
  148.8093  137.6365  153.5049 H   0  0  0  0  0  0  0  0  0  0  0  0
  151.9304  137.6262  155.2722 H   0  0  0  0  0  0  0  0  0  0  0  0
  150.5790  136.5321  155.4086 H   0  0  0  0  0  0  0  0  0  0  0  0
  153.2115  136.0099  153.9064 H   0  0  0  0  0  0  0  0  0  0  0  0
  151.8875  134.8831  154.1085 H   0  0  0  0  0  0  0  0  0  0  0  0
  153.2044  134.2909  152.0815 H   0  0  0  0  0  0  0  0  0  0  0  0
  151.5568  134.6836  151.6888 H   0  0  0  0  0  0  0  0  0  0  0  0
  154.4632  136.9066  152.3368 H   0  0  0  0  0  0  0  0  0  0  0  0
  154.9742  135.6599  151.2395 H   0  0  0  0  0  0  0  0  0  0  0  0
  155.3562  137.1073  149.4825 H   0  0  0  0  0  0  0  0  0  0  0  0
  154.0675  138.2161  149.9389 H   0  0  0  0  0  0  0  0  0  0  0  0
  155.8792  139.2262  150.5007 H   0  0  0  0  0  0  0  0  0  0  0  0
  152.2815  137.9954  150.3729 H   0  0  0  0  0  0  0  0  0  0  0  0
  151.0259  136.8481  150.6997 H   0  0  0  0  0  0  0  0  0  0  0  0
  150.9806  138.6207  152.3804 H   0  0  0  0  0  0  0  0  0  0  0  0
  152.6431  138.3363  152.8356 H   0  0  0  0  0  0  0  0  0  0  0  0
  149.7089  140.2840  159.0267 H   0  0  0  0  0  0  0  0  0  0  0  0
  149.5688  141.1084  161.2325 H   0  0  0  0  0  0  0  0  0  0  0  0
  150.2211  142.7345  161.4271 H   0  0  0  0  0  0  0  0  0  0  0  0
  151.1182  141.3368  162.0407 H   0  0  0  0  0  0  0  0  0  0  0  0
  150.4363  136.4162  153.0777 H   0  0  0  0  0  0  0  0  0  0  0  0
  1  2  1  0  0  0  0
  1 25  1  0  0  0  0
  1 26  1  0  0  0  0
  1 27  1  0  0  0  0
  2 23  1  0  0  0  0
  2  3  2  0  0  0  0
  3  4  1  0  0  0  0
  3 28  1  0  0  0  0
  4 21  2  0  0  0  0
  4  5  1  0  0  0  0
  5  6  2  0  0  0  0
  6  7  1  0  0  0  0
  6 29  1  0  0  0  0
  7  8  1  0  0  0  0
  7 21  1  0  0  0  0
  8  9  1  0  0  0  0
  8 30  1  0  0  0  0
  8 31  1  0  0  0  0
  9 10  1  0  0  0  0
  9 11  1  0  0  0  0
  9 32  1  0  0  0  0
 10 33  1  0  0  0  0
 11 12  1  0  0  0  0
 11 34  1  0  0  0  0
 11 35  1  0  0  0  0
 12 20  1  0  0  0  0
 12 13  1  0  0  0  0
 12 53  1  0  0  0  0
 13 14  1  0  0  0  0
 13 36  1  0  0  0  0
 13 37  1  0  0  0  0
 14 15  1  0  0  0  0
 14 38  1  0  0  0  0
 14 39  1  0  0  0  0
 15 16  1  0  0  0  0
 15 19  1  0  0  0  0
 16 17  1  0  0  0  0
 16 40  1  0  0  0  0
 16 41  1  0  0  0  0
 17 18  1  0  0  0  0
 17 42  1  0  0  0  0
 17 43  1  0  0  0  0
 18 44  1  0  0  0  0
 19 20  1  0  0  0  0
 19 45  1  0  0  0  0
 19 46  1  0  0  0  0
 20 47  1  0  0  0  0
 20 48  1  0  0  0  0
 21 22  1  0  0  0  0
 22 23  2  0  0  0  0
 22 49  1  0  0  0  0
 23 24  1  0  0  0  0
 24 50  1  0  0  0  0
 24 51  1  0  0  0  0
 24 52  1  0  0  0  0
M  CHG  1  12   1
M  END
> <s_m_source_file>
AV-unprocessed.smi

> <i_m_source_file_index>
1046

> <i_lp_mmshare_version>
43012

> <i_f3d_flags>
0

> <s_epik_input>
W0NIM11jKFtjSF0xKWMoW0NIM10pW2NIXWMoYzEyKW4oW2NIXW4yKVtDSDJdW0NASF0oW09IXSlbQ0gyXU4zW0NIMl1bQ0gyXU4oW0NIMl1bQ0gyXTMpW0NIMl1bQ0gyXVtPSF0=

> <s_epik_cmdline>
J2VwaWtfcHl0aG9uJywgJy1waCcsICc3LjAnLCAnLXRuJywgJzgnLCAnLW1hJywgJzIwMCcsICctbWV0YWxfYmluZGluZycsICctaW1hZScsICc8aW5maWxlLm1hZT4nLCAnLW9tYWUnLCAnPG91dGZpbGUubWFlPic=

> <r_epik_Ionization_Penalty>
0.131947

> <r_epik_Ionization_Penalty_Charging>
0.00213896

> <r_epik_Ionization_Penalty_Neutral>
0.129808

> <r_epik_State_Penalty>
0.319681

> <r_epik_Charging_Adjusted_Penalty>
0.32182

> <i_epik_Tot_Q>
1

> <i_epik_Tot_abs_Q>
1

> <r_epik_Metal_State_Penalty>
0.225417

> <b_epik_Metal_Only>
0

> <s_lp_Force_Field>
OPLS_2005

> <r_lp_Energy>
31.2013

> <b_lp_Chiralities_Consistent>
1

> <s_lp_Variant>
AV-unprocessed.smi:1046-1

> <Gold.Version>
5.8.1

> <Gold.Id.Protein>
6NUR|6NUR_protein|mol2

> <Gold.PLP.Fitness>
51.5119

> <Gold.PLP.PLP>
-40.1179

> <Gold.PLP.part.hbond>
-3.6749

> <Gold.PLP.part.metal>
0.0000

> <Gold.PLP.part.buried>
-4.0067

> <Gold.PLP.part.nonpolar>
-31.2884

> <Gold.PLP.part.repulsive>
0.0440

> <Gold.PLP.ligand.clash>
0.0000

> <Gold.PLP.ligand.torsion>
0.4172

> <Gold.PLP.Chemscore.Hbond>
4.0000

> <Gold.PLP.Chemscore.CHOScore>
0.0000

> <Gold.PLP.Chemscore.Metal>
0.0000

> <Gold.Chemscore.Hbonds>
donor molecule, donor type, donor heavy atom, donor atom, acceptor molecule, acceptor atom, score
      L1  H    10    33       P1  7948  0.70
      P1  H  7997  8009       L1     5  0.50

> <Gold.PLP.Chemscore.Internal.Correction>
0.2283

> <Gold.Rescore>
     Score         DG    S(hbond)    S(metal)    S(lipo)     H(rot)  DE(clash)    DE(int)     intcor
     18.98     -19.60       2.63        0.00     115.84       3.21       0.07       0.54       ----

> <Gold.Chemscore.Fitness>
18.9795

> <Gold.Chemscore.DG>
-19.5970

> <Gold.Chemscore.ZeroCoef>
-5.4800

> <Gold.Chemscore.Hbond>
2.6258

> <Gold.Chemscore.Metal>
0.0000

> <Gold.Chemscore.Lipo>
115.8409

> <Gold.Chemscore.Internal_Hbond>
0.0000

> <Gold.Chemscore.DEClash>
0.0736

> <Gold.Chemscore.DEInternal>
0.5438

> <Gold.Chemscore.Rot>
3.2058

> <Gold.Chemscore.Internal.Correction>
   9.000000E+99

> <Gold.Chemscore.Hbonds>
donor molecule, donor type, donor heavy atom, donor atom, acceptor molecule, acceptor atom, score
      L1  H    10    33       P1  7948  0.69
      P1  H  7997  8009       L1     5  0.19

> <Gold.Chemscore.Hbond.Weighted>
-8.7703

> <Gold.Chemscore.Metal.Weighted>
-0.0000

> <Gold.Chemscore.Lipo.Weighted>
-13.5534

> <Gold.Chemscore.Internal_Hbond.Weighted>
0.0000

> <Gold.Chemscore.DEClash.Weighted>
0.0736

> <Gold.Chemscore.DEInternal.Weighted>
0.5438

> <Gold.Chemscore.Rot.Weighted>
8.2067

> <Gold.Chemscore.Internal.Correction.Weighted>
   9.000000E+99

> <Gold.Protein.RotatedTorsions>
[ 6907 6896 6895 6894 ] final   77.82 input  -60.11 | X-H torsion
[ 7974 7965 7964 7962 ] final   62.41 input  175.53 | X-H torsion
[ 8008 7997 7996 7995 ] final -155.82 input   59.86 | X-H torsion
[ 10167 10162 10161 10158 ] final  109.06 input  -65.29 | X-H torsion
[ 10718 10713 10712 10709 ] final  -63.11 input   66.30 | X-H torsion
[ 10763 10752 10751 10750 ] final  -53.86 input  -60.55 | X-H torsion
[ 11005 11000 10999 10996 ] final  -49.82 input  -57.11 | X-H torsion

> <Gold.Protein.ActiveResidues>
 VAL166  LYS551  ARG553  GLY616  TRP617  ASP618  TYR619  PRO620  LYS621  CYS622 
 ASP623  PHE694  ASN695  SER759  ASP760  ASP761  ALA762  ILE779  LEU786  VAL792 
 PHE793  MET794  SER795  GLU796  ALA797  LYS798  CYS799  TRP800  GLU811  SER814 

> <Gold.Protein.RotatedAtoms>
  152.5133  134.3759  159.9334 H   0  0  0  0  0  0  0  0  0  0  0  0  # atno 6907 bound_to 6896
  151.3715  133.3847  159.2708 H   0  0  0  0  0  0  0  0  0  0  0  0  # atno 6908 bound_to 6896
  150.9574  134.8986  159.7768 H   0  0  0  0  0  0  0  0  0  0  0  0  # atno 6909 bound_to 6896
  145.8736  139.3395  143.0748 H   0  0  0  0  0  0  0  0  0  0  0  0  # atno 7974 bound_to 7965
  155.7078  140.0774  157.2384 H   0  0  0  0  0  0  0  0  0  0  0  0  # atno 8008 bound_to 7997
  154.4063  140.1635  156.2315 H   0  0  0  0  0  0  0  0  0  0  0  0  # atno 8009 bound_to 7997
  155.9310  140.3391  155.6252 H   0  0  0  0  0  0  0  0  0  0  0  0  # atno 8010 bound_to 7997
  139.6796  144.7119  151.1539 H   0  0  0  0  0  0  0  0  0  0  0  0  # atno 10167 bound_to 10162
  156.0812  130.4217  150.1230 H   0  0  0  0  0  0  0  0  0  0  0  0  # atno 10718 bound_to 10713
  154.1656  135.6467  153.4996 H   0  0  0  0  0  0  0  0  0  0  0  0  # atno 10763 bound_to 10752
  153.0098  135.5371  154.6665 H   0  0  0  0  0  0  0  0  0  0  0  0  # atno 10764 bound_to 10752
  154.5991  135.2942  155.0526 H   0  0  0  0  0  0  0  0  0  0  0  0  # atno 10765 bound_to 10752
  141.0781  133.6660  156.3641 H   0  0  0  0  0  0  0  0  0  0  0  0  # atno 11005 bound_to 11000
  145.9107  140.9182  143.0455 LP  0  0  0  0  0  0  0  0  0  0  0  0  # atno 17320 bound_to 7965
  144.6726  140.1157  143.7453 LP  0  0  0  0  0  0  0  0  0  0  0  0  # atno 17321 bound_to 7965
  140.7648  143.5719  150.8987 LP  0  0  0  0  0  0  0  0  0  0  0  0  # atno 17342 bound_to 10162
  139.9390  143.6404  152.3058 LP  0  0  0  0  0  0  0  0  0  0  0  0  # atno 17343 bound_to 10162
  156.9261  130.9698  151.3541 LP  0  0  0  0  0  0  0  0  0  0  0  0  # atno 17370 bound_to 10713
  157.5929  130.8457  149.8686 LP  0  0  0  0  0  0  0  0  0  0  0  0  # atno 17371 bound_to 10713
  140.5529  134.6010  157.5412 LP  0  0  0  0  0  0  0  0  0  0  0  0  # atno 17394 bound_to 11000
  139.9594  134.7479  156.0271 LP  0  0  0  0  0  0  0  0  0  0  0  0  # atno 17395 bound_to 11000

$$$$
