AV-unprocessed.smi:2438|AV-procd|sdf|9599|dock4
  -GOLD-   2272013233D 1   1.00000     0.00000
 Structure written by MMmdl.
 44 45  0  0  0  0  0  0  0  0  2 V2000
  144.3843  141.2018  160.1885 C   0  0  0  0  0  0  0  0  0  0  0  0
  144.7712  142.1352  159.1377 N   0  0  0  0  0  0  0  0  0  0  0  0
  144.5004  143.5429  159.3976 C   0  0  0  0  0  0  0  0  0  0  0  0
  144.5109  141.7383  157.8104 C   0  0  0  0  0  0  0  0  0  0  0  0
  143.2217  141.5633  157.4392 N   0  0  0  0  0  0  0  0  0  0  0  0
  142.9339  141.2059  156.1833 C   0  0  0  0  0  0  0  0  0  0  0  0
  143.8739  140.9999  155.2517 N   0  3  0  0  0  0  0  0  0  0  0  0
  145.1799  141.1575  155.5724 C   0  0  0  0  0  0  0  0  0  0  0  0
  145.5594  141.5468  156.8786 C   0  0  0  0  0  0  0  0  0  0  0  0
  146.9153  141.6899  157.2871 N   0  0  0  0  0  0  0  0  0  0  0  0
  148.0129  141.7177  156.5142 C   0  0  0  0  0  0  0  0  0  0  0  0
  148.0248  141.5561  155.2941 O   0  0  0  0  0  0  0  0  0  0  0  0
  149.1098  141.9714  157.2410 N   0  0  0  0  0  0  0  0  0  0  0  0
  150.4624  142.1310  156.7087 C   0  0  2  0  0  0  0  0  0  0  0  0
  151.0265  140.7661  156.2701 C   0  0  0  0  0  0  0  0  0  0  0  0
  151.3413  139.8561  157.4699 C   0  0  0  0  0  0  0  0  0  0  0  0
  152.2761  140.5513  158.4727 C   0  0  0  0  0  0  0  0  0  0  0  0
  151.6980  141.8998  158.9511 C   0  0  1  0  0  0  0  0  0  0  0  0
  152.6160  142.5954  159.9764 C   0  0  0  0  0  0  0  0  0  0  0  0
  151.9701  143.5800  160.6017 F   0  0  0  0  0  0  0  0  0  0  0  0
  153.0387  141.7129  160.8817 F   0  0  0  0  0  0  0  0  0  0  0  0
  153.6843  143.1024  159.3610 F   0  0  0  0  0  0  0  0  0  0  0  0
  151.3985  142.8060  157.7357 C   0  0  0  0  0  0  0  0  0  0  0  0
  144.7010  140.1871  159.9446 H   0  0  0  0  0  0  0  0  0  0  0  0
  143.3035  141.2040  160.3345 H   0  0  0  0  0  0  0  0  0  0  0  0
  144.8544  141.4810  161.1318 H   0  0  0  0  0  0  0  0  0  0  0  0
  144.8044  144.1825  158.5689 H   0  0  0  0  0  0  0  0  0  0  0  0
  145.0389  143.8707  160.2873 H   0  0  0  0  0  0  0  0  0  0  0  0
  143.4346  143.6979  159.5692 H   0  0  0  0  0  0  0  0  0  0  0  0
  141.9074  141.0638  155.8789 H   0  0  0  0  0  0  0  0  0  0  0  0
  145.8673  140.9462  154.7674 H   0  0  0  0  0  0  0  0  0  0  0  0
  147.0524  141.9073  158.2639 H   0  0  0  0  0  0  0  0  0  0  0  0
  149.0021  142.0868  158.2382 H   0  0  0  0  0  0  0  0  0  0  0  0
  150.4006  142.7664  155.8233 H   0  0  0  0  0  0  0  0  0  0  0  0
  150.3307  140.2678  155.5940 H   0  0  0  0  0  0  0  0  0  0  0  0
  151.9413  140.9260  155.6977 H   0  0  0  0  0  0  0  0  0  0  0  0
  150.4155  139.5705  157.9707 H   0  0  0  0  0  0  0  0  0  0  0  0
  151.7978  138.9296  157.1204 H   0  0  0  0  0  0  0  0  0  0  0  0
  152.4451  139.8918  159.3243 H   0  0  0  0  0  0  0  0  0  0  0  0
  153.2505  140.7107  158.0093 H   0  0  0  0  0  0  0  0  0  0  0  0
  150.7537  141.6940  159.4576 H   0  0  0  0  0  0  0  0  0  0  0  0
  152.3357  143.0635  157.2408 H   0  0  0  0  0  0  0  0  0  0  0  0
  150.9700  143.7521  158.0676 H   0  0  0  0  0  0  0  0  0  0  0  0
  143.6178  140.7190  154.3048 H   0  0  0  0  0  0  0  0  0  0  0  0
  1  2  1  0  0  0  0
  1 24  1  0  0  0  0
  1 25  1  0  0  0  0
  1 26  1  0  0  0  0
  2  3  1  0  0  0  0
  2  4  1  0  0  0  0
  3 27  1  0  0  0  0
  3 28  1  0  0  0  0
  3 29  1  0  0  0  0
  4  9  1  0  0  0  0
  4  5  2  0  0  0  0
  5  6  1  0  0  0  0
  6  7  2  0  0  0  0
  6 30  1  0  0  0  0
  7  8  1  0  0  0  0
  7 44  1  0  0  0  0
  8  9  2  0  0  0  0
  8 31  1  0  0  0  0
  9 10  1  0  0  0  0
 10 11  1  0  0  0  0
 10 32  1  0  0  0  0
 11 12  2  0  0  0  0
 11 13  1  0  0  0  0
 13 14  1  0  0  0  0
 13 33  1  0  0  0  0
 14 23  1  0  0  0  0
 14 15  1  0  0  0  0
 14 34  1  0  0  0  0
 15 16  1  0  0  0  0
 15 35  1  0  0  0  0
 15 36  1  0  0  0  0
 16 17  1  0  0  0  0
 16 37  1  0  0  0  0
 16 38  1  0  0  0  0
 17 18  1  0  0  0  0
 17 39  1  0  0  0  0
 17 40  1  0  0  0  0
 18 19  1  0  0  0  0
 18 23  1  0  0  0  0
 18 41  1  0  0  0  0
 19 20  1  0  0  0  0
 19 21  1  0  0  0  0
 19 22  1  0  0  0  0
 23 42  1  0  0  0  0
 23 43  1  0  0  0  0
M  CHG  1   7   1
M  END
> <s_m_source_file>
AV-unprocessed.smi

> <i_m_source_file_index>
2438

> <i_lp_mmshare_version>
43012

> <i_f3d_flags>
0

> <s_epik_input>
W0NIM11OKFtDSDNdKWMxbltjSF1uW2NIXWMxW05IXUMoPU8pW05IXVtDQEBIXTJbQ0gyXVtDSDJdW0NIMl1bQ0BASF0oQyhGKShGKUYpW0NIMl0y

> <s_epik_cmdline>
J2VwaWtfcHl0aG9uJywgJy1waCcsICc3LjAnLCAnLXRuJywgJzgnLCAnLW1hJywgJzIwMCcsICctbWV0YWxfYmluZGluZycsICctaW1hZScsICc8aW5maWxlLm1hZT4nLCAnLW9tYWUnLCAnPG91dGZpbGUubWFlPic=

> <r_lp_tautomer_probability>
0.999336

> <r_epik_Ionization_Penalty>
2.11643

> <r_epik_Ionization_Penalty_Charging>
2.11639

> <r_epik_Ionization_Penalty_Neutral>
4.47523e-05

> <r_epik_State_Penalty>
2.25369

> <r_epik_Charging_Adjusted_Penalty>
4.37008

> <i_epik_Tot_Q>
1

> <i_epik_Tot_abs_Q>
1

> <r_epik_Metal_State_Penalty>
2.27019

> <b_epik_Metal_Only>
0

> <s_lp_Force_Field>
OPLS_2005

> <r_lp_Energy>
15.0376

> <b_lp_Chiralities_Consistent>
1

> <s_lp_Variant>
AV-unprocessed.smi:2438-5

> <Gold.Version>
5.8.1

> <Gold.Id.Protein>
6NUR|6NUR_protein|mol2

> <Gold.PLP.Fitness>
36.6739

> <Gold.PLP.PLP>
-31.6236

> <Gold.PLP.part.hbond>
-1.5738

> <Gold.PLP.part.metal>
0.0000

> <Gold.PLP.part.buried>
-4.5402

> <Gold.PLP.part.nonpolar>
-24.8867

> <Gold.PLP.part.repulsive>
0.1969

> <Gold.PLP.ligand.clash>
0.0000

> <Gold.PLP.ligand.torsion>
0.6731

> <Gold.PLP.Chemscore.Hbond>
2.0000

> <Gold.PLP.Chemscore.CHOScore>
0.0000

> <Gold.PLP.Chemscore.Metal>
0.0000

> <Gold.Chemscore.Hbonds>
donor molecule, donor type, donor heavy atom, donor atom, acceptor molecule, acceptor atom, score
      L1  H     7    44       P1 10175  2.00

> <Gold.PLP.Chemscore.Internal.Correction>
0.3965

> <Gold.Rescore>
     Score         DG    S(hbond)    S(metal)    S(lipo)     H(rot)  DE(clash)    DE(int)     intcor
     11.00     -12.80       0.99        0.00      62.88       1.31       0.00       1.81       ----

> <Gold.Chemscore.Fitness>
10.9957

> <Gold.Chemscore.DG>
-12.8050

> <Gold.Chemscore.ZeroCoef>
-5.4800

> <Gold.Chemscore.Hbond>
0.9930

> <Gold.Chemscore.Metal>
0.0000

> <Gold.Chemscore.Lipo>
62.8766

> <Gold.Chemscore.Internal_Hbond>
0.0000

> <Gold.Chemscore.DEClash>
0.0029

> <Gold.Chemscore.DEInternal>
1.8064

> <Gold.Chemscore.Rot>
1.3078

> <Gold.Chemscore.Internal.Correction>
   9.000000E+99

> <Gold.Chemscore.Hbonds>
donor molecule, donor type, donor heavy atom, donor atom, acceptor molecule, acceptor atom, score
      L1  H     7    44       P1 10175  0.97

> <Gold.Chemscore.Hbond.Weighted>
-3.3165

> <Gold.Chemscore.Metal.Weighted>
-0.0000

> <Gold.Chemscore.Lipo.Weighted>
-7.3566

> <Gold.Chemscore.Internal_Hbond.Weighted>
0.0000

> <Gold.Chemscore.DEClash.Weighted>
0.0029

> <Gold.Chemscore.DEInternal.Weighted>
1.8064

> <Gold.Chemscore.Rot.Weighted>
3.3481

> <Gold.Chemscore.Internal.Correction.Weighted>
   9.000000E+99

> <Gold.Protein.RotatedTorsions>
[ 6907 6896 6895 6894 ] final  125.49 input  -60.11 | X-H torsion
[ 7974 7965 7964 7962 ] final  169.68 input  175.53 | X-H torsion
[ 8008 7997 7996 7995 ] final  137.45 input   59.86 | X-H torsion
[ 10167 10162 10161 10158 ] final   74.19 input  -65.29 | X-H torsion
[ 10718 10713 10712 10709 ] final  136.18 input   66.30 | X-H torsion
[ 10763 10752 10751 10750 ] final  160.79 input  -60.55 | X-H torsion
[ 11005 11000 10999 10996 ] final -145.27 input  -57.11 | X-H torsion

> <Gold.Protein.ActiveResidues>
 VAL166  LYS551  ARG553  GLY616  TRP617  ASP618  TYR619  PRO620  LYS621  CYS622 
 ASP623  PHE694  ASN695  SER759  ASP760  ASP761  ALA762  ILE779  LEU786  VAL792 
 PHE793  MET794  SER795  GLU796  ALA797  LYS798  CYS799  TRP800  GLU811  SER814 

> <Gold.Protein.RotatedAtoms>
  152.3987  133.6786  159.6297 H   0  0  0  0  0  0  0  0  0  0  0  0  # atno 6907 bound_to 6896
  150.7882  133.8828  159.3299 H   0  0  0  0  0  0  0  0  0  0  0  0  # atno 6908 bound_to 6896
  151.6599  135.0992  160.0229 H   0  0  0  0  0  0  0  0  0  0  0  0  # atno 6909 bound_to 6896
  144.7347  139.9091  143.6414 H   0  0  0  0  0  0  0  0  0  0  0  0  # atno 7974 bound_to 7965
  156.3002  140.2419  156.3911 H   0  0  0  0  0  0  0  0  0  0  0  0  # atno 8008 bound_to 7997
  154.8613  140.0420  157.1686 H   0  0  0  0  0  0  0  0  0  0  0  0  # atno 8009 bound_to 7997
  154.8894  140.2961  155.5383 H   0  0  0  0  0  0  0  0  0  0  0  0  # atno 8010 bound_to 7997
  140.0164  144.5574  150.7617 H   0  0  0  0  0  0  0  0  0  0  0  0  # atno 10167 bound_to 10162
  157.4493  131.1064  151.0052 H   0  0  0  0  0  0  0  0  0  0  0  0  # atno 10718 bound_to 10713
  154.2529  135.2771  155.2809 H   0  0  0  0  0  0  0  0  0  0  0  0  # atno 10763 bound_to 10752
  154.5450  135.5692  153.6875 H   0  0  0  0  0  0  0  0  0  0  0  0  # atno 10764 bound_to 10752
  152.9977  135.6260  154.2676 H   0  0  0  0  0  0  0  0  0  0  0  0  # atno 10765 bound_to 10752
  140.7940  134.2935  157.5003 H   0  0  0  0  0  0  0  0  0  0  0  0  # atno 11005 bound_to 11000
  146.1015  139.4010  143.0344 LP  0  0  0  0  0  0  0  0  0  0  0  0  # atno 17320 bound_to 7965
  145.7572  140.9949  143.1219 LP  0  0  0  0  0  0  0  0  0  0  0  0  # atno 17321 bound_to 7965
  140.7360  143.2748  151.3775 LP  0  0  0  0  0  0  0  0  0  0  0  0  # atno 17342 bound_to 10162
  139.6170  144.0984  152.2355 LP  0  0  0  0  0  0  0  0  0  0  0  0  # atno 17343 bound_to 10162
  157.0887  130.5933  149.5435 LP  0  0  0  0  0  0  0  0  0  0  0  0  # atno 17370 bound_to 10713
  155.9980  130.5053  150.7556 LP  0  0  0  0  0  0  0  0  0  0  0  0  # atno 17371 bound_to 10713
  139.8728  134.9391  156.3732 LP  0  0  0  0  0  0  0  0  0  0  0  0  # atno 17394 bound_to 11000
  140.9361  133.7546  156.0087 LP  0  0  0  0  0  0  0  0  0  0  0  0  # atno 17395 bound_to 11000

$$$$
