AV-unprocessed.smi:1237|AV-procd|sdf|5183|dock3
  -GOLD-   22720 4263D 1   1.00000     0.00000
 Structure written by MMmdl.
 44 45  0  0  0  0  0  0  0  0  1 V2000
  149.2564  140.3332  154.6234 C   0  0  0  0  0  0  0  0  0  0  0  0
  148.4985  141.2940  153.9103 O   0  0  0  0  0  0  0  0  0  0  0  0
  147.1322  140.9306  153.7930 C   0  0  0  0  0  0  0  0  0  0  0  0
  146.2590  142.1946  153.8581 C   0  0  0  0  0  0  0  0  0  0  0  0
  145.8764  142.5222  155.2360 N   0  0  0  0  0  0  0  0  0  0  0  0
  146.9304  142.4971  156.1342 N   0  0  0  0  0  0  0  0  0  0  0  0
  146.7234  142.7434  157.3873 C   0  0  0  0  0  0  0  0  0  0  0  0
  147.8276  142.7162  158.3861 C   0  0  0  0  0  0  0  0  0  0  0  0
  147.6155  142.5252  159.5849 O   0  0  0  0  0  0  0  0  0  0  0  0
  149.0614  142.9091  157.8842 N   0  0  0  0  0  0  0  0  0  0  0  0
  150.3039  142.9275  158.6538 C   0  0  0  0  0  0  0  0  0  0  0  0
  151.0058  144.2778  158.3941 C   0  0  0  0  0  0  0  0  0  0  0  0
  152.4847  144.3932  158.8069 C   0  0  0  0  0  0  0  0  0  0  0  0
  152.8919  143.6243  160.0737 C   0  0  0  0  0  0  0  0  0  0  0  0
  153.2554  142.1583  159.7841 C   0  0  0  0  0  0  0  0  0  0  0  0
  152.0570  141.2436  159.4926 C   0  0  0  0  0  0  0  0  0  0  0  0
  151.1599  141.6854  158.3221 C   0  0  0  0  0  0  0  0  0  0  0  0
  145.3902  143.0578  157.8733 C   0  0  0  0  0  0  0  0  0  0  0  0
  144.3725  143.0811  156.9848 C   0  0  0  0  0  0  0  0  0  0  0  0
  144.5782  142.7992  155.5633 C   0  0  0  0  0  0  0  0  0  0  0  0
  143.6659  142.8053  154.7371 O   0  0  0  0  0  0  0  0  0  0  0  0
  150.2938  140.6608  154.6898 H   0  0  0  0  0  0  0  0  0  0  0  0
  149.2395  139.3654  154.1206 H   0  0  0  0  0  0  0  0  0  0  0  0
  148.8782  140.2074  155.6387 H   0  0  0  0  0  0  0  0  0  0  0  0
  146.9711  140.4261  152.8394 H   0  0  0  0  0  0  0  0  0  0  0  0
  146.8542  140.2286  154.5808 H   0  0  0  0  0  0  0  0  0  0  0  0
  146.7927  143.0309  153.4028 H   0  0  0  0  0  0  0  0  0  0  0  0
  145.3656  142.0564  153.2467 H   0  0  0  0  0  0  0  0  0  0  0  0
  149.1437  143.0551  156.8882 H   0  0  0  0  0  0  0  0  0  0  0  0
  150.0410  142.8919  159.7128 H   0  0  0  0  0  0  0  0  0  0  0  0
  150.9396  144.5307  157.3348 H   0  0  0  0  0  0  0  0  0  0  0  0
  150.4387  145.0532  158.9111 H   0  0  0  0  0  0  0  0  0  0  0  0
  153.1169  144.0768  157.9764 H   0  0  0  0  0  0  0  0  0  0  0  0
  152.7100  145.4508  158.9477 H   0  0  0  0  0  0  0  0  0  0  0  0
  153.7777  144.1067  160.4884 H   0  0  0  0  0  0  0  0  0  0  0  0
  152.1245  143.6989  160.8451 H   0  0  0  0  0  0  0  0  0  0  0  0
  153.9652  142.1091  158.9574 H   0  0  0  0  0  0  0  0  0  0  0  0
  153.7851  141.7554  160.6481 H   0  0  0  0  0  0  0  0  0  0  0  0
  152.4393  140.2453  159.2773 H   0  0  0  0  0  0  0  0  0  0  0  0
  151.4526  141.1363  160.3940 H   0  0  0  0  0  0  0  0  0  0  0  0
  150.5009  140.8455  158.0970 H   0  0  0  0  0  0  0  0  0  0  0  0
  151.7483  141.8481  157.4181 H   0  0  0  0  0  0  0  0  0  0  0  0
  145.2093  143.2697  158.9171 H   0  0  0  0  0  0  0  0  0  0  0  0
  143.3765  143.3134  157.3322 H   0  0  0  0  0  0  0  0  0  0  0  0
  1  2  1  0  0  0  0
  1 22  1  0  0  0  0
  1 23  1  0  0  0  0
  1 24  1  0  0  0  0
  2  3  1  0  0  0  0
  3  4  1  0  0  0  0
  3 25  1  0  0  0  0
  3 26  1  0  0  0  0
  4  5  1  0  0  0  0
  4 27  1  0  0  0  0
  4 28  1  0  0  0  0
  5 20  1  0  0  0  0
  5  6  1  0  0  0  0
  6  7  2  0  0  0  0
  7  8  1  0  0  0  0
  7 18  1  0  0  0  0
  8  9  2  0  0  0  0
  8 10  1  0  0  0  0
 10 11  1  0  0  0  0
 10 29  1  0  0  0  0
 11 17  1  0  0  0  0
 11 12  1  0  0  0  0
 11 30  1  0  0  0  0
 12 13  1  0  0  0  0
 12 31  1  0  0  0  0
 12 32  1  0  0  0  0
 13 14  1  0  0  0  0
 13 33  1  0  0  0  0
 13 34  1  0  0  0  0
 14 15  1  0  0  0  0
 14 35  1  0  0  0  0
 14 36  1  0  0  0  0
 15 16  1  0  0  0  0
 15 37  1  0  0  0  0
 15 38  1  0  0  0  0
 16 17  1  0  0  0  0
 16 39  1  0  0  0  0
 16 40  1  0  0  0  0
 17 41  1  0  0  0  0
 17 42  1  0  0  0  0
 18 19  2  0  0  0  0
 18 43  1  0  0  0  0
 19 20  1  0  0  0  0
 19 44  1  0  0  0  0
 20 21  2  0  0  0  0
M  END
> <s_m_source_file>
AV-unprocessed.smi

> <i_m_source_file_index>
1237

> <i_lp_mmshare_version>
43012

> <i_f3d_flags>
0

> <s_epik_input>
W0NIM11PW0NIMl1bQ0gyXW4xbmMoW2NIXVtjSF1jMT1PKUMoPU8pW05IXVtDSF0yW0NIMl1bQ0gyXVtDSDJdW0NIMl1bQ0gyXVtDSDJdMg==

> <s_epik_cmdline>
J2VwaWtfcHl0aG9uJywgJy1waCcsICc3LjAnLCAnLXRuJywgJzgnLCAnLW1hJywgJzIwMCcsICctbWV0YWxfYmluZGluZycsICctaW1hZScsICc8aW5maWxlLm1hZT4nLCAnLW9tYWUnLCAnPG91dGZpbGUubWFlPic=

> <r_lp_tautomer_probability>
1

> <r_epik_Ionization_Penalty>
5.81787e-07

> <r_epik_Ionization_Penalty_Charging>
6.75108e-09

> <r_epik_Ionization_Penalty_Neutral>
5.75036e-07

> <r_epik_State_Penalty>
-0

> <r_epik_Charging_Adjusted_Penalty>
6.75108e-09

> <i_epik_Tot_Q>
0

> <i_epik_Tot_abs_Q>
0

> <r_epik_Metal_State_Penalty>
-0

> <b_epik_Metal_Only>
0

> <s_lp_Force_Field>
OPLS_2005

> <r_lp_Energy>
36.1796

> <b_lp_Chiralities_Consistent>
1

> <s_lp_Variant>
AV-unprocessed.smi:1237-1

> <Gold.Version>
5.8.1

> <Gold.Id.Protein>
6NUR|6NUR_protein|mol2

> <Gold.PLP.Fitness>
42.9758

> <Gold.PLP.PLP>
-37.7366

> <Gold.PLP.part.hbond>
-4.4882

> <Gold.PLP.part.metal>
0.0000

> <Gold.PLP.part.buried>
-2.9461

> <Gold.PLP.part.nonpolar>
-32.9982

> <Gold.PLP.part.repulsive>
3.9944

> <Gold.PLP.ligand.clash>
0.0000

> <Gold.PLP.ligand.torsion>
0.8254

> <Gold.PLP.Chemscore.Hbond>
2.2772

> <Gold.PLP.Chemscore.CHOScore>
0.0000

> <Gold.PLP.Chemscore.Metal>
0.0000

> <Gold.Chemscore.Hbonds>
donor molecule, donor type, donor heavy atom, donor atom, acceptor molecule, acceptor atom, score
      L1  H    10    29       P1  8028  0.58
      P1  H  6933  6944       L1     9  0.52
      P1  H  6934  6946       L1     9  0.42
      P1  H  8011  8017       L1     2  0.20

> <Gold.PLP.Chemscore.Internal.Correction>
0.0584

> <Gold.Rescore>
     Score         DG    S(hbond)    S(metal)    S(lipo)     H(rot)  DE(clash)    DE(int)     intcor
     17.36     -19.66       2.00        0.00      98.04       1.55       1.34       0.96       ----

> <Gold.Chemscore.Fitness>
17.3583

> <Gold.Chemscore.DG>
-19.6605

> <Gold.Chemscore.ZeroCoef>
-5.4800

> <Gold.Chemscore.Hbond>
1.9976

> <Gold.Chemscore.Metal>
0.0000

> <Gold.Chemscore.Lipo>
98.0405

> <Gold.Chemscore.Internal_Hbond>
0.0000

> <Gold.Chemscore.DEClash>
1.3381

> <Gold.Chemscore.DEInternal>
0.9642

> <Gold.Chemscore.Rot>
1.5478

> <Gold.Chemscore.Internal.Correction>
   9.000000E+99

> <Gold.Chemscore.Hbonds>
donor molecule, donor type, donor heavy atom, donor atom, acceptor molecule, acceptor atom, score
      L1  H    10    29       P1  8028  0.54
      P1  H  6933  6944       L1     9  0.49
      P1  H  6934  6946       L1     9  0.42
      P1  H  8011  8017       L1     2  0.17

> <Gold.Chemscore.Hbond.Weighted>
-6.6721

> <Gold.Chemscore.Metal.Weighted>
-0.0000

> <Gold.Chemscore.Lipo.Weighted>
-11.4707

> <Gold.Chemscore.Internal_Hbond.Weighted>
0.0000

> <Gold.Chemscore.DEClash.Weighted>
1.3381

> <Gold.Chemscore.DEInternal.Weighted>
0.9642

> <Gold.Chemscore.Rot.Weighted>
3.9623

> <Gold.Chemscore.Internal.Correction.Weighted>
   9.000000E+99

> <Gold.Protein.RotatedTorsions>
[ 6907 6896 6895 6894 ] final   85.18 input  -60.11 | X-H torsion
[ 7974 7965 7964 7962 ] final   -8.81 input  175.53 | X-H torsion
[ 8008 7997 7996 7995 ] final  102.14 input   59.86 | X-H torsion
[ 10167 10162 10161 10158 ] final  -19.72 input  -65.29 | X-H torsion
[ 10718 10713 10712 10709 ] final   83.99 input   66.30 | X-H torsion
[ 10763 10752 10751 10750 ] final  -40.77 input  -60.55 | X-H torsion
[ 11005 11000 10999 10996 ] final -130.88 input  -57.11 | X-H torsion

> <Gold.Protein.ActiveResidues>
 VAL166  LYS551  ARG553  GLY616  TRP617  ASP618  TYR619  PRO620  LYS621  CYS622 
 ASP623  PHE694  ASN695  SER759  ASP760  ASP761  ALA762  ILE779  LEU786  VAL792 
 PHE793  MET794  SER795  GLU796  ALA797  LYS798  CYS799  TRP800  GLU811  SER814 

> <Gold.Protein.RotatedAtoms>
  152.5369  134.2626  159.8940 H   0  0  0  0  0  0  0  0  0  0  0  0  # atno 6907 bound_to 6896
  151.2585  133.4307  159.2622 H   0  0  0  0  0  0  0  0  0  0  0  0  # atno 6908 bound_to 6896
  151.0474  134.9664  159.8250 H   0  0  0  0  0  0  0  0  0  0  0  0  # atno 6909 bound_to 6896
  146.2270  140.2523  142.8348 H   0  0  0  0  0  0  0  0  0  0  0  0  # atno 7974 bound_to 7965
  156.1365  140.3186  155.8428 H   0  0  0  0  0  0  0  0  0  0  0  0  # atno 8008 bound_to 7997
  155.4235  140.0514  157.3041 H   0  0  0  0  0  0  0  0  0  0  0  0  # atno 8009 bound_to 7997
  154.4941  140.2104  155.9498 H   0  0  0  0  0  0  0  0  0  0  0  0  # atno 8010 bound_to 7997
  140.7270  143.4791  151.0142 H   0  0  0  0  0  0  0  0  0  0  0  0  # atno 10167 bound_to 10162
  157.6890  131.0114  150.2606 H   0  0  0  0  0  0  0  0  0  0  0  0  # atno 10718 bound_to 10713
  153.9514  135.6750  153.4744 H   0  0  0  0  0  0  0  0  0  0  0  0  # atno 10763 bound_to 10752
  153.0882  135.4888  154.8636 H   0  0  0  0  0  0  0  0  0  0  0  0  # atno 10764 bound_to 10752
  154.7323  135.3141  154.8829 H   0  0  0  0  0  0  0  0  0  0  0  0  # atno 10765 bound_to 10752
  140.9307  134.1323  157.4237 H   0  0  0  0  0  0  0  0  0  0  0  0  # atno 11005 bound_to 11000
  144.9402  140.8070  143.5635 LP  0  0  0  0  0  0  0  0  0  0  0  0  # atno 17320 bound_to 7965
  145.2474  139.2046  143.4960 LP  0  0  0  0  0  0  0  0  0  0  0  0  # atno 17321 bound_to 7965
  139.8489  143.7465  152.3178 LP  0  0  0  0  0  0  0  0  0  0  0  0  # atno 17342 bound_to 10162
  139.7640  144.7498  151.0322 LP  0  0  0  0  0  0  0  0  0  0  0  0  # atno 17343 bound_to 10162
  156.3186  130.3782  149.7596 LP  0  0  0  0  0  0  0  0  0  0  0  0  # atno 17370 bound_to 10713
  156.5173  130.8199  151.3191 LP  0  0  0  0  0  0  0  0  0  0  0  0  # atno 17371 bound_to 10713
  139.8796  135.0004  156.6008 LP  0  0  0  0  0  0  0  0  0  0  0  0  # atno 17394 bound_to 11000
  140.7866  133.8617  155.8611 LP  0  0  0  0  0  0  0  0  0  0  0  0  # atno 17395 bound_to 11000

$$$$
