AV-unprocessed.smi:1047|AV-procd|sdf|4595|dock2
  -GOLD-   22720 3 83D 1   1.00000     0.00000
 Structure written by MMmdl.
 55 57  0  0  0  0  0  0  0  0  1 V2000
  145.7260  133.1671  162.1257 C   0  0  0  0  0  0  0  0  0  0  0  0
  147.2513  133.1364  162.3003 C   0  0  0  0  0  0  0  0  0  0  0  0
  147.9040  134.4436  162.2506 N   0  0  0  0  0  0  0  0  0  0  0  0
  147.1870  135.4170  163.0667 C   0  0  0  0  0  0  0  0  0  0  0  0
  147.8509  136.8032  163.0245 C   0  0  0  0  0  0  0  0  0  0  0  0
  147.9501  137.2392  161.6730 O   0  0  0  0  0  0  0  0  0  0  0  0
  148.7024  136.3459  160.8551 C   0  0  2  0  0  0  0  0  0  0  0  0
  148.7550  136.9233  159.4337 C   0  0  0  0  0  0  0  0  0  0  0  0
  149.8810  136.3705  158.6886 N   0  0  0  0  0  0  0  0  0  0  0  0
  150.6794  137.3782  157.9979 C   0  0  0  0  0  0  0  0  0  0  0  0
  151.9711  136.7690  157.4266 C   0  0  1  0  0  0  0  0  0  0  0  0
  151.6249  135.8531  156.4052 O   0  0  0  0  0  0  0  0  0  0  0  0
  152.9004  137.8465  156.8356 C   0  0  0  0  0  0  0  0  0  0  0  0
  152.1686  139.0086  156.3639 N   0  0  0  0  0  0  0  0  0  0  0  0
  151.4606  139.1194  155.2233 C   0  0  0  0  0  0  0  0  0  0  0  0
  150.8700  140.2868  154.9841 N   0  0  0  0  0  0  0  0  0  0  0  0
  151.2381  141.0192  156.1000 C   0  0  0  0  0  0  0  0  0  0  0  0
  150.9388  142.3506  156.4630 C   0  0  0  0  0  0  0  0  0  0  0  0
  151.4279  142.9005  157.6695 C   0  0  0  0  0  0  0  0  0  0  0  0
  151.0817  144.3368  158.0205 C   0  0  0  0  0  0  0  0  0  0  0  0
  152.2299  142.1139  158.5352 C   0  0  0  0  0  0  0  0  0  0  0  0
  152.7629  142.6815  159.8388 C   0  0  0  0  0  0  0  0  0  0  0  0
  152.5403  140.7827  158.1866 C   0  0  0  0  0  0  0  0  0  0  0  0
  152.0481  140.2474  156.9834 C   0  0  0  0  0  0  0  0  0  0  0  0
  148.0231  134.9621  160.8893 C   0  0  0  0  0  0  0  0  0  0  0  0
  145.3284  132.1542  162.0595 H   0  0  0  0  0  0  0  0  0  0  0  0
  145.4454  133.6928  161.2124 H   0  0  0  0  0  0  0  0  0  0  0  0
  145.2290  133.6546  162.9641 H   0  0  0  0  0  0  0  0  0  0  0  0
  147.5011  132.6311  163.2345 H   0  0  0  0  0  0  0  0  0  0  0  0
  147.6572  132.5114  161.5037 H   0  0  0  0  0  0  0  0  0  0  0  0
  146.1558  135.5020  162.7198 H   0  0  0  0  0  0  0  0  0  0  0  0
  147.1409  135.0719  164.1003 H   0  0  0  0  0  0  0  0  0  0  0  0
  147.2601  137.5241  163.5898 H   0  0  0  0  0  0  0  0  0  0  0  0
  148.8423  136.7733  163.4793 H   0  0  0  0  0  0  0  0  0  0  0  0
  149.7169  136.2545  161.2490 H   0  0  0  0  0  0  0  0  0  0  0  0
  147.8277  136.6850  158.9111 H   0  0  0  0  0  0  0  0  0  0  0  0
  148.8189  138.0113  159.4776 H   0  0  0  0  0  0  0  0  0  0  0  0
  150.4720  135.8313  159.3137 H   0  0  0  0  0  0  0  0  0  0  0  0
  150.1000  137.8620  157.2103 H   0  0  0  0  0  0  0  0  0  0  0  0
  150.9446  138.1611  158.7098 H   0  0  0  0  0  0  0  0  0  0  0  0
  152.5078  136.2334  158.2113 H   0  0  0  0  0  0  0  0  0  0  0  0
  150.7347  136.0229  156.1380 H   0  0  0  0  0  0  0  0  0  0  0  0
  153.6345  138.1696  157.5754 H   0  0  0  0  0  0  0  0  0  0  0  0
  153.4637  137.4387  155.9953 H   0  0  0  0  0  0  0  0  0  0  0  0
  151.3776  138.2975  154.5271 H   0  0  0  0  0  0  0  0  0  0  0  0
  150.3278  142.9488  155.8030 H   0  0  0  0  0  0  0  0  0  0  0  0
  150.5113  144.3757  158.9489 H   0  0  0  0  0  0  0  0  0  0  0  0
  150.4824  144.8048  157.2388 H   0  0  0  0  0  0  0  0  0  0  0  0
  151.9882  144.9293  158.1456 H   0  0  0  0  0  0  0  0  0  0  0  0
  153.3617  141.9464  160.3771 H   0  0  0  0  0  0  0  0  0  0  0  0
  151.9406  142.9835  160.4881 H   0  0  0  0  0  0  0  0  0  0  0  0
  153.3926  143.5509  159.6491 H   0  0  0  0  0  0  0  0  0  0  0  0
  153.1518  140.1725  158.8348 H   0  0  0  0  0  0  0  0  0  0  0  0
  148.6046  134.2745  160.2760 H   0  0  0  0  0  0  0  0  0  0  0  0
  147.0346  135.0302  160.4319 H   0  0  0  0  0  0  0  0  0  0  0  0
  1  2  1  0  0  0  0
  1 26  1  0  0  0  0
  1 27  1  0  0  0  0
  1 28  1  0  0  0  0
  2  3  1  0  0  0  0
  2 29  1  0  0  0  0
  2 30  1  0  0  0  0
  3 25  1  0  0  0  0
  3  4  1  0  0  0  0
  4  5  1  0  0  0  0
  4 31  1  0  0  0  0
  4 32  1  0  0  0  0
  5  6  1  0  0  0  0
  5 33  1  0  0  0  0
  5 34  1  0  0  0  0
  6  7  1  0  0  0  0
  7  8  1  0  0  0  0
  7 25  1  0  0  0  0
  7 35  1  0  0  0  0
  8  9  1  0  0  0  0
  8 36  1  0  0  0  0
  8 37  1  0  0  0  0
  9 10  1  0  0  0  0
  9 38  1  0  0  0  0
 10 11  1  0  0  0  0
 10 39  1  0  0  0  0
 10 40  1  0  0  0  0
 11 12  1  0  0  0  0
 11 13  1  0  0  0  0
 11 41  1  0  0  0  0
 12 42  1  0  0  0  0
 13 14  1  0  0  0  0
 13 43  1  0  0  0  0
 13 44  1  0  0  0  0
 14 24  1  0  0  0  0
 14 15  1  0  0  0  0
 15 16  2  0  0  0  0
 15 45  1  0  0  0  0
 16 17  1  0  0  0  0
 17 24  2  0  0  0  0
 17 18  1  0  0  0  0
 18 19  2  0  0  0  0
 18 46  1  0  0  0  0
 19 20  1  0  0  0  0
 19 21  1  0  0  0  0
 20 47  1  0  0  0  0
 20 48  1  0  0  0  0
 20 49  1  0  0  0  0
 21 22  1  0  0  0  0
 21 23  2  0  0  0  0
 22 50  1  0  0  0  0
 22 51  1  0  0  0  0
 22 52  1  0  0  0  0
 23 24  1  0  0  0  0
 23 53  1  0  0  0  0
 25 54  1  0  0  0  0
 25 55  1  0  0  0  0
M  END
> <s_m_source_file>
AV-unprocessed.smi

> <i_m_source_file_index>
1047

> <i_lp_mmshare_version>
43012

> <i_f3d_flags>
0

> <s_epik_input>
W0NIM11bQ0gyXU4xW0NIMl1bQ0gyXU9bQ0BIXShbQ0gyXTEpW0NIMl1bTkhdW0NIMl1bQ0BIXShbT0hdKVtDSDJdbihbY0hdbjIpYyhjMjMpW2NIXWMoW0NIM10pYyhbY0hdMylbQ0gzXQ==

> <s_epik_cmdline>
J2VwaWtfcHl0aG9uJywgJy1waCcsICc3LjAnLCAnLXRuJywgJzgnLCAnLW1hJywgJzIwMCcsICctbWV0YWxfYmluZGluZycsICctaW1hZScsICc8aW5maWxlLm1hZT4nLCAnLW9tYWUnLCAnPG91dGZpbGUubWFlPic=

> <r_epik_Ionization_Penalty>
2.74124

> <r_epik_Ionization_Penalty_Charging>
0

> <r_epik_Ionization_Penalty_Neutral>
2.74124

> <r_epik_State_Penalty>
2.37482

> <r_epik_Charging_Adjusted_Penalty>
2.37482

> <i_epik_Tot_Q>
0

> <i_epik_Tot_abs_Q>
0

> <r_epik_Metal_State_Penalty>
2.25944

> <b_epik_Metal_Only>
0

> <s_lp_Force_Field>
OPLS_2005

> <r_lp_Energy>
34.1371

> <b_lp_Chiralities_Consistent>
1

> <s_lp_Variant>
AV-unprocessed.smi:1047-36

> <Gold.Version>
5.8.1

> <Gold.Id.Protein>
6NUR|6NUR_protein|mol2

> <Gold.PLP.Fitness>
59.7292

> <Gold.PLP.PLP>
-52.0079

> <Gold.PLP.part.hbond>
-4.5479

> <Gold.PLP.part.metal>
0.0000

> <Gold.PLP.part.buried>
-5.7527

> <Gold.PLP.part.nonpolar>
-40.5064

> <Gold.PLP.part.repulsive>
0.0560

> <Gold.PLP.ligand.clash>
0.0000

> <Gold.PLP.ligand.torsion>
1.3588

> <Gold.PLP.Chemscore.Hbond>
3.4277

> <Gold.PLP.Chemscore.CHOScore>
0.0000

> <Gold.PLP.Chemscore.Metal>
0.0000

> <Gold.Chemscore.Hbonds>
donor molecule, donor type, donor heavy atom, donor atom, acceptor molecule, acceptor atom, score
      P1  H  6931  6943       L1     6  0.66
      P1  H  6934  6947       L1     6  0.55
      P1  H  7989  7998       L1    16  1.00
      P1  H 10752 10764       L1    12  0.88

> <Gold.PLP.Chemscore.Internal.Correction>
0.1560

> <Gold.Rescore>
     Score         DG    S(hbond)    S(metal)    S(lipo)     H(rot)  DE(clash)    DE(int)     intcor
     21.22     -22.47       2.29        0.00     134.97       2.52       0.12       1.13       ----

> <Gold.Chemscore.Fitness>
21.2218

> <Gold.Chemscore.DG>
-22.4662

> <Gold.Chemscore.ZeroCoef>
-5.4800

> <Gold.Chemscore.Hbond>
2.2920

> <Gold.Chemscore.Metal>
0.0000

> <Gold.Chemscore.Lipo>
134.9708

> <Gold.Chemscore.Internal_Hbond>
0.0000

> <Gold.Chemscore.DEClash>
0.1153

> <Gold.Chemscore.DEInternal>
1.1291

> <Gold.Chemscore.Rot>
2.5237

> <Gold.Chemscore.Internal.Correction>
   9.000000E+99

> <Gold.Chemscore.Hbonds>
donor molecule, donor type, donor heavy atom, donor atom, acceptor molecule, acceptor atom, score
      P1  H  6931  6943       L1     6  0.02
      P1  H  6934  6947       L1     6  0.52
      P1  H  7989  7998       L1    16  0.41
      P1  H 10752 10764       L1    12  0.78

> <Gold.Chemscore.Hbond.Weighted>
-7.6552

> <Gold.Chemscore.Metal.Weighted>
-0.0000

> <Gold.Chemscore.Lipo.Weighted>
-15.7916

> <Gold.Chemscore.Internal_Hbond.Weighted>
0.0000

> <Gold.Chemscore.DEClash.Weighted>
0.1153

> <Gold.Chemscore.DEInternal.Weighted>
1.1291

> <Gold.Chemscore.Rot.Weighted>
6.4607

> <Gold.Chemscore.Internal.Correction.Weighted>
   9.000000E+99

> <Gold.Protein.RotatedTorsions>
[ 6907 6896 6895 6894 ] final -125.66 input  -60.11 | X-H torsion
[ 7974 7965 7964 7962 ] final -138.71 input  175.53 | X-H torsion
[ 8008 7997 7996 7995 ] final   48.47 input   59.86 | X-H torsion
[ 10167 10162 10161 10158 ] final -148.37 input  -65.29 | X-H torsion
[ 10718 10713 10712 10709 ] final   35.59 input   66.30 | X-H torsion
[ 10763 10752 10751 10750 ] final  -39.06 input  -60.55 | X-H torsion
[ 11005 11000 10999 10996 ] final   32.69 input  -57.11 | X-H torsion

> <Gold.Protein.ActiveResidues>
 VAL166  LYS551  ARG553  GLY616  TRP617  ASP618  TYR619  PRO620  LYS621  CYS622 
 ASP623  PHE694  ASN695  SER759  ASP760  ASP761  ALA762  ILE779  LEU786  VAL792 
 PHE793  MET794  SER795  GLU796  ALA797  LYS798  CYS799  TRP800  GLU811  SER814 

> <Gold.Protein.RotatedAtoms>
  150.8890  133.7268  159.2909 H   0  0  0  0  0  0  0  0  0  0  0  0  # atno 6907 bound_to 6896
  151.4824  135.1051  159.9791 H   0  0  0  0  0  0  0  0  0  0  0  0  # atno 6908 bound_to 6896
  152.4808  133.8204  159.7106 H   0  0  0  0  0  0  0  0  0  0  0  0  # atno 6909 bound_to 6896
  144.8736  140.6404  143.5251 H   0  0  0  0  0  0  0  0  0  0  0  0  # atno 7974 bound_to 7965
  155.3862  140.3431  155.4249 H   0  0  0  0  0  0  0  0  0  0  0  0  # atno 8008 bound_to 7997
  156.1583  140.1592  156.8689 H   0  0  0  0  0  0  0  0  0  0  0  0  # atno 8009 bound_to 7997
  154.5115  140.0789  156.7981 H   0  0  0  0  0  0  0  0  0  0  0  0  # atno 8010 bound_to 7997
  139.7538  143.8479  152.2592 H   0  0  0  0  0  0  0  0  0  0  0  0  # atno 10167 bound_to 10162
  157.3246  130.7466  149.6807 H   0  0  0  0  0  0  0  0  0  0  0  0  # atno 10718 bound_to 10713
  153.9231  135.6780  153.4747 H   0  0  0  0  0  0  0  0  0  0  0  0  # atno 10763 bound_to 10752
  153.1018  135.4824  154.8878 H   0  0  0  0  0  0  0  0  0  0  0  0  # atno 10764 bound_to 10752
  154.7468  135.3174  154.8587 H   0  0  0  0  0  0  0  0  0  0  0  0  # atno 10765 bound_to 10752
  140.2709  134.3083  155.7828 H   0  0  0  0  0  0  0  0  0  0  0  0  # atno 11005 bound_to 11000
  145.4084  139.1584  143.4139 LP  0  0  0  0  0  0  0  0  0  0  0  0  # atno 17320 bound_to 7965
  146.2947  140.4186  142.8726 LP  0  0  0  0  0  0  0  0  0  0  0  0  # atno 17321 bound_to 7965
  139.8465  144.7185  150.9267 LP  0  0  0  0  0  0  0  0  0  0  0  0  # atno 17342 bound_to 10162
  140.7800  143.3937  151.1266 LP  0  0  0  0  0  0  0  0  0  0  0  0  # atno 17343 bound_to 10162
  155.9689  130.4213  150.4463 LP  0  0  0  0  0  0  0  0  0  0  0  0  # atno 17370 bound_to 10713
  157.2484  131.0541  151.2394 LP  0  0  0  0  0  0  0  0  0  0  0  0  # atno 17371 bound_to 10713
  141.2177  133.7466  156.9333 LP  0  0  0  0  0  0  0  0  0  0  0  0  # atno 17394 bound_to 11000
  140.1374  134.9316  157.2421 LP  0  0  0  0  0  0  0  0  0  0  0  0  # atno 17395 bound_to 11000

$$$$
