AV-unprocessed.smi:3112|AV-procd|sdf|11837|dock3
  -GOLD-   2272017213D 1   1.00000     0.00000
 Structure written by MMmdl.
 37 37  0  0  0  0  0  0  0  0  2 V2000
  146.4740  142.1870  154.8851 C   0  0  0  0  0  0  0  0  0  0  0  0
  147.7794  142.1065  154.0816 C   0  0  0  0  0  0  0  0  0  0  0  0
  148.6335  140.8715  154.4217 C   0  0  1  0  0  0  0  0  0  0  0  0
  149.7900  140.8766  153.6079 O   0  0  0  0  0  0  0  0  0  0  0  0
  149.0759  140.8659  155.8945 C   0  0  0  0  0  0  0  0  0  0  0  0
  149.8188  142.0996  156.2296 N   0  3  0  0  0  0  0  0  0  0  0  0
  149.9932  142.3783  157.6745 C   0  0  2  0  0  0  0  0  0  0  0  0
  148.6008  142.4676  158.3257 C   0  0  0  0  0  0  0  0  0  0  0  0
  150.8949  143.6237  157.9169 C   0  0  2  0  0  0  0  0  0  0  0  0
  151.9165  143.8537  156.7858 C   0  0  0  0  0  0  0  0  0  0  0  0
  151.5316  143.6155  159.2316 N   0  0  0  0  0  0  0  0  0  0  0  0
  151.3559  144.5197  160.2599 C   0  0  0  0  0  0  0  0  0  0  0  0
  152.1221  144.1036  161.3103 C   0  0  0  0  0  0  0  0  0  0  0  0
  152.7365  142.9147  160.8292 C   0  0  0  0  0  0  0  0  0  0  0  0
  152.3773  142.6226  159.5900 N   0  0  0  0  0  0  0  0  0  0  0  0
  145.9230  143.0941  154.6362 H   0  0  0  0  0  0  0  0  0  0  0  0
  146.6709  142.2026  155.9574 H   0  0  0  0  0  0  0  0  0  0  0  0
  145.8221  141.3387  154.6753 H   0  0  0  0  0  0  0  0  0  0  0  0
  147.5541  142.1232  153.0142 H   0  0  0  0  0  0  0  0  0  0  0  0
  148.3585  143.0087  154.2828 H   0  0  0  0  0  0  0  0  0  0  0  0
  148.0595  139.9680  154.2110 H   0  0  0  0  0  0  0  0  0  0  0  0
  149.5216  140.8162  152.7030 H   0  0  0  0  0  0  0  0  0  0  0  0
  148.2102  140.7620  156.5506 H   0  0  0  0  0  0  0  0  0  0  0  0
  149.7170  140.0032  156.0726 H   0  0  0  0  0  0  0  0  0  0  0  0
  150.7271  142.0747  155.7886 H   0  0  0  0  0  0  0  0  0  0  0  0
  150.4896  141.5114  158.1134 H   0  0  0  0  0  0  0  0  0  0  0  0
  148.6647  142.6499  159.3980 H   0  0  0  0  0  0  0  0  0  0  0  0
  148.0537  141.5334  158.1942 H   0  0  0  0  0  0  0  0  0  0  0  0
  147.9943  143.2592  157.8856 H   0  0  0  0  0  0  0  0  0  0  0  0
  150.2565  144.5067  157.8967 H   0  0  0  0  0  0  0  0  0  0  0  0
  151.4171  143.9373  155.8203 H   0  0  0  0  0  0  0  0  0  0  0  0
  152.6445  143.0460  156.7111 H   0  0  0  0  0  0  0  0  0  0  0  0
  152.4711  144.7789  156.9462 H   0  0  0  0  0  0  0  0  0  0  0  0
  150.7063  145.3771  160.1604 H   0  0  0  0  0  0  0  0  0  0  0  0
  152.2272  144.5761  162.2758 H   0  0  0  0  0  0  0  0  0  0  0  0
  153.4251  142.2581  161.3402 H   0  0  0  0  0  0  0  0  0  0  0  0
  149.2964  142.8685  155.8337 H   0  0  0  0  0  0  0  0  0  0  0  0
  1  2  1  0  0  0  0
  1 16  1  0  0  0  0
  1 17  1  0  0  0  0
  1 18  1  0  0  0  0
  2  3  1  0  0  0  0
  2 19  1  0  0  0  0
  2 20  1  0  0  0  0
  3  4  1  0  0  0  0
  3  5  1  0  0  0  0
  3 21  1  0  0  0  0
  4 22  1  0  0  0  0
  5  6  1  0  0  0  0
  5 23  1  0  0  0  0
  5 24  1  0  0  0  0
  6  7  1  0  0  0  0
  6 25  1  0  0  0  0
  6 37  1  0  0  0  0
  7  8  1  0  0  0  0
  7  9  1  0  0  0  0
  7 26  1  0  0  0  0
  8 27  1  0  0  0  0
  8 28  1  0  0  0  0
  8 29  1  0  0  0  0
  9 10  1  0  0  0  0
  9 11  1  0  0  0  0
  9 30  1  0  0  0  0
 10 31  1  0  0  0  0
 10 32  1  0  0  0  0
 10 33  1  0  0  0  0
 11 15  1  0  0  0  0
 11 12  1  0  0  0  0
 12 13  2  0  0  0  0
 12 34  1  0  0  0  0
 13 14  1  0  0  0  0
 13 35  1  0  0  0  0
 14 15  2  0  0  0  0
 14 36  1  0  0  0  0
M  CHG  1   6   1
M  END
> <s_m_source_file>
AV-unprocessed.smi

> <i_m_source_file_index>
3112

> <i_lp_mmshare_version>
43012

> <i_f3d_flags>
0

> <s_epik_input>
W0NIM11bQ0gyXVtDQEhdKFtPSF0pW0NIMl1bTkhdW0NASF0oW0NIM10pW0NASF0oW0NIM10pbjFbY0hdW2NIXVtjSF1uMQ==

> <s_epik_cmdline>
J2VwaWtfcHl0aG9uJywgJy1waCcsICc3LjAnLCAnLXRuJywgJzgnLCAnLW1hJywgJzIwMCcsICctbWV0YWxfYmluZGluZycsICctaW1hZScsICc8aW5maWxlLm1hZT4nLCAnLW9tYWUnLCAnPG91dGZpbGUubWFlPic=

> <r_lp_tautomer_probability>
1

> <r_epik_Ionization_Penalty>
0.0154842

> <r_epik_Ionization_Penalty_Charging>
0.0154724

> <r_epik_Ionization_Penalty_Neutral>
1.17979e-05

> <r_epik_State_Penalty>
0.0121607

> <r_epik_Charging_Adjusted_Penalty>
0.0276331

> <i_epik_Tot_Q>
1

> <i_epik_Tot_abs_Q>
1

> <r_epik_Metal_State_Penalty>
0.0121863

> <b_epik_Metal_Only>
0

> <s_lp_Force_Field>
OPLS_2005

> <r_lp_Energy>
12.6471

> <b_lp_Chiralities_Consistent>
1

> <s_lp_Variant>
AV-unprocessed.smi:3112-2

> <Gold.Version>
5.8.1

> <Gold.Id.Protein>
6NUR|6NUR_protein|mol2

> <Gold.PLP.Fitness>
43.1014

> <Gold.PLP.PLP>
-34.0990

> <Gold.PLP.part.hbond>
-3.8065

> <Gold.PLP.part.metal>
0.0000

> <Gold.PLP.part.buried>
-4.8949

> <Gold.PLP.part.nonpolar>
-25.6690

> <Gold.PLP.part.repulsive>
0.0822

> <Gold.PLP.ligand.clash>
0.0000

> <Gold.PLP.ligand.torsion>
0.7114

> <Gold.PLP.Chemscore.Hbond>
3.4160

> <Gold.PLP.Chemscore.CHOScore>
0.0000

> <Gold.PLP.Chemscore.Metal>
0.0000

> <Gold.Chemscore.Hbonds>
donor molecule, donor type, donor heavy atom, donor atom, acceptor molecule, acceptor atom, score
      L1  H     4    22       P1  7957  1.00
      L1  H     6    37       P1  8028  2.00
      P1  H  7989  7998       L1     4  0.37

> <Gold.PLP.Chemscore.Internal.Correction>
0.1772

> <Gold.Rescore>
     Score         DG    S(hbond)    S(metal)    S(lipo)     H(rot)  DE(clash)    DE(int)     intcor
     14.81     -16.91       2.06        0.00      91.45       2.41       1.54       0.57       ----

> <Gold.Chemscore.Fitness>
14.8064

> <Gold.Chemscore.DG>
-16.9085

> <Gold.Chemscore.ZeroCoef>
-5.4800

> <Gold.Chemscore.Hbond>
2.0647

> <Gold.Chemscore.Metal>
0.0000

> <Gold.Chemscore.Lipo>
91.4465

> <Gold.Chemscore.Internal_Hbond>
0.0000

> <Gold.Chemscore.DEClash>
1.5368

> <Gold.Chemscore.DEInternal>
0.5653

> <Gold.Chemscore.Rot>
2.4089

> <Gold.Chemscore.Internal.Correction>
   9.000000E+99

> <Gold.Chemscore.Hbonds>
donor molecule, donor type, donor heavy atom, donor atom, acceptor molecule, acceptor atom, score
      L1  H     4    22       P1  7957  0.95
      L1  H     6    37       P1  8028  0.97
      P1  H  7989  7998       L1     4  0.12

> <Gold.Chemscore.Hbond.Weighted>
-6.8959

> <Gold.Chemscore.Metal.Weighted>
-0.0000

> <Gold.Chemscore.Lipo.Weighted>
-10.6992

> <Gold.Chemscore.Internal_Hbond.Weighted>
0.0000

> <Gold.Chemscore.DEClash.Weighted>
1.5368

> <Gold.Chemscore.DEInternal.Weighted>
0.5653

> <Gold.Chemscore.Rot.Weighted>
6.1667

> <Gold.Chemscore.Internal.Correction.Weighted>
   9.000000E+99

> <Gold.Protein.RotatedTorsions>
[ 6907 6896 6895 6894 ] final   87.70 input  -60.11 | X-H torsion
[ 7974 7965 7964 7962 ] final -159.80 input  175.53 | X-H torsion
[ 8008 7997 7996 7995 ] final   24.47 input   59.86 | X-H torsion
[ 10167 10162 10161 10158 ] final  176.22 input  -65.29 | X-H torsion
[ 10718 10713 10712 10709 ] final -142.23 input   66.30 | X-H torsion
[ 10763 10752 10751 10750 ] final  -23.25 input  -60.55 | X-H torsion
[ 11005 11000 10999 10996 ] final  -28.45 input  -57.11 | X-H torsion

> <Gold.Protein.ActiveResidues>
 VAL166  LYS551  ARG553  GLY616  TRP617  ASP618  TYR619  PRO620  LYS621  CYS622 
 ASP623  PHE694  ASN695  SER759  ASP760  ASP761  ALA762  ILE779  LEU786  VAL792 
 PHE793  MET794  SER795  GLU796  ALA797  LYS798  CYS799  TRP800  GLU811  SER814 

> <Gold.Protein.RotatedAtoms>
  152.5415  134.2235  159.8796 H   0  0  0  0  0  0  0  0  0  0  0  0  # atno 6907 bound_to 6896
  151.2211  133.4495  159.2608 H   0  0  0  0  0  0  0  0  0  0  0  0  # atno 6908 bound_to 6896
  151.0805  134.9868  159.8409 H   0  0  0  0  0  0  0  0  0  0  0  0  # atno 6909 bound_to 6896
  144.7451  140.3633  143.6091 H   0  0  0  0  0  0  0  0  0  0  0  0  # atno 7974 bound_to 7965
  154.9967  140.3120  155.4884 H   0  0  0  0  0  0  0  0  0  0  0  0  # atno 8008 bound_to 7997
  156.2931  140.2239  156.5016 H   0  0  0  0  0  0  0  0  0  0  0  0  # atno 8009 bound_to 7997
  154.7654  140.0456  157.0996 H   0  0  0  0  0  0  0  0  0  0  0  0  # atno 8010 bound_to 7997
  139.5206  144.2940  152.0438 H   0  0  0  0  0  0  0  0  0  0  0  0  # atno 10167 bound_to 10162
  156.3434  130.7649  151.1790 H   0  0  0  0  0  0  0  0  0  0  0  0  # atno 10718 bound_to 10713
  153.6648  135.6974  153.5166 H   0  0  0  0  0  0  0  0  0  0  0  0  # atno 10763 bound_to 10752
  153.2603  135.4247  155.0887 H   0  0  0  0  0  0  0  0  0  0  0  0  # atno 10764 bound_to 10752
  154.8442  135.3553  154.6193 H   0  0  0  0  0  0  0  0  0  0  0  0  # atno 10765 bound_to 10752
  140.9209  133.7399  156.0800 H   0  0  0  0  0  0  0  0  0  0  0  0  # atno 11005 bound_to 11000
  145.7155  139.1696  143.2514 LP  0  0  0  0  0  0  0  0  0  0  0  0  # atno 17320 bound_to 7965
  146.1316  140.7178  142.9409 LP  0  0  0  0  0  0  0  0  0  0  0  0  # atno 17321 bound_to 7965
  140.2390  144.4289  150.6268 LP  0  0  0  0  0  0  0  0  0  0  0  0  # atno 17342 bound_to 10162
  140.6303  143.2186  151.6509 LP  0  0  0  0  0  0  0  0  0  0  0  0  # atno 17343 bound_to 10162
  157.7450  131.0448  150.4811 LP  0  0  0  0  0  0  0  0  0  0  0  0  # atno 17370 bound_to 10713
  156.4995  130.4114  149.6361 LP  0  0  0  0  0  0  0  0  0  0  0  0  # atno 17371 bound_to 10713
  140.7989  134.3532  157.5445 LP  0  0  0  0  0  0  0  0  0  0  0  0  # atno 17394 bound_to 11000
  139.8775  134.9185  156.3205 LP  0  0  0  0  0  0  0  0  0  0  0  0  # atno 17395 bound_to 11000

$$$$
