AV-unprocessed.smi:730|AV-procd|sdf|3525|dock6
  -GOLD-   22720 0523D 1   1.00000     0.00000
 Structure written by MMmdl.
 40 41  0  0  0  0  0  0  0  0  1 V2000
  145.9207  131.8632  149.0971 C   0  0  0  0  0  0  0  0  0  0  0  0
  144.7065  132.3750  149.8975 C   0  0  0  0  0  0  0  0  0  0  0  0
  143.5028  132.4767  148.9420 C   0  0  0  0  0  0  0  0  0  0  0  0
  144.3896  131.3525  151.0048 C   0  0  0  0  0  0  0  0  0  0  0  0
  144.9944  133.7197  150.5054 C   0  0  0  0  0  0  0  0  0  0  0  0
  146.0791  134.2495  151.1507 C   0  0  0  0  0  0  0  0  0  0  0  0
  145.6637  135.5728  151.4546 C   0  0  0  0  0  0  0  0  0  0  0  0
  146.5252  136.4668  152.1401 N   0  0  0  0  0  0  0  0  0  0  0  0
  146.1785  137.4437  152.9954 C   0  0  0  0  0  0  0  0  0  0  0  0
  145.0243  137.7346  153.3105 O   0  0  0  0  0  0  0  0  0  0  0  0
  147.2586  138.0759  153.4766 N   0  0  0  0  0  0  0  0  0  0  0  0
  147.2289  139.1840  154.4291 C   0  0  1  0  0  0  0  0  0  0  0  0
  148.6453  139.4800  154.9584 C   0  0  0  0  0  0  0  0  0  0  0  0
  149.1397  140.6803  154.1533 C   0  0  0  0  0  0  0  0  0  0  0  0
  147.8804  141.5132  153.9393 C   0  0  0  0  0  0  0  0  0  0  0  0
  146.7625  140.4822  153.7309 C   0  0  2  0  0  0  0  0  0  0  0  0
  145.5519  140.9619  154.2786 O   0  0  0  0  0  0  0  0  0  0  0  0
  144.4357  135.8334  151.0362 N   0  0  0  0  0  0  0  0  0  0  0  0
  144.0017  134.6505  150.4279 O   0  0  0  0  0  0  0  0  0  0  0  0
  145.7212  130.8887  148.6500 H   0  0  0  0  0  0  0  0  0  0  0  0
  146.8007  131.7560  149.7326 H   0  0  0  0  0  0  0  0  0  0  0  0
  146.1804  132.5459  148.2868 H   0  0  0  0  0  0  0  0  0  0  0  0
  143.6944  133.1894  148.1388 H   0  0  0  0  0  0  0  0  0  0  0  0
  142.6041  132.8064  149.4647 H   0  0  0  0  0  0  0  0  0  0  0  0
  143.2764  131.5145  148.4813 H   0  0  0  0  0  0  0  0  0  0  0  0
  144.1893  130.3642  150.5892 H   0  0  0  0  0  0  0  0  0  0  0  0
  143.5123  131.6468  151.5822 H   0  0  0  0  0  0  0  0  0  0  0  0
  145.2226  131.2532  151.7018 H   0  0  0  0  0  0  0  0  0  0  0  0
  147.0197  133.7664  151.3694 H   0  0  0  0  0  0  0  0  0  0  0  0
  147.5115  136.3439  151.9665 H   0  0  0  0  0  0  0  0  0  0  0  0
  148.1687  137.7703  153.1648 H   0  0  0  0  0  0  0  0  0  0  0  0
  146.5701  138.9292  155.2624 H   0  0  0  0  0  0  0  0  0  0  0  0
  148.5820  139.7591  156.0110 H   0  0  0  0  0  0  0  0  0  0  0  0
  149.3249  138.6291  154.8949 H   0  0  0  0  0  0  0  0  0  0  0  0
  149.9286  141.2333  154.6636 H   0  0  0  0  0  0  0  0  0  0  0  0
  149.5309  140.3460  153.1916 H   0  0  0  0  0  0  0  0  0  0  0  0
  147.6926  142.1028  154.8383 H   0  0  0  0  0  0  0  0  0  0  0  0
  147.9716  142.2079  153.1038 H   0  0  0  0  0  0  0  0  0  0  0  0
  146.6182  140.3183  152.6616 H   0  0  0  0  0  0  0  0  0  0  0  0
  144.8622  140.8237  153.6475 H   0  0  0  0  0  0  0  0  0  0  0  0
  1  2  1  0  0  0  0
  1 20  1  0  0  0  0
  1 21  1  0  0  0  0
  1 22  1  0  0  0  0
  2  3  1  0  0  0  0
  2  4  1  0  0  0  0
  2  5  1  0  0  0  0
  3 23  1  0  0  0  0
  3 24  1  0  0  0  0
  3 25  1  0  0  0  0
  4 26  1  0  0  0  0
  4 27  1  0  0  0  0
  4 28  1  0  0  0  0
  5 19  1  0  0  0  0
  5  6  2  0  0  0  0
  6  7  1  0  0  0  0
  6 29  1  0  0  0  0
  7  8  1  0  0  0  0
  7 18  2  0  0  0  0
  8  9  1  0  0  0  0
  8 30  1  0  0  0  0
  9 10  2  0  0  0  0
  9 11  1  0  0  0  0
 11 12  1  0  0  0  0
 11 31  1  0  0  0  0
 12 16  1  0  0  0  0
 12 13  1  0  0  0  0
 12 32  1  0  0  0  0
 13 14  1  0  0  0  0
 13 33  1  0  0  0  0
 13 34  1  0  0  0  0
 14 15  1  0  0  0  0
 14 35  1  0  0  0  0
 14 36  1  0  0  0  0
 15 16  1  0  0  0  0
 15 37  1  0  0  0  0
 15 38  1  0  0  0  0
 16 17  1  0  0  0  0
 16 39  1  0  0  0  0
 17 40  1  0  0  0  0
 18 19  1  0  0  0  0
M  END
> <s_m_source_file>
AV-unprocessed.smi

> <i_m_source_file_index>
730

> <i_lp_mmshare_version>
43012

> <i_f3d_flags>
0

> <s_epik_input>
W0NIM11DKFtDSDNdKShbQ0gzXSljMVtjSF1jKG5vMSlbTkhdQyg9TylbTkhdW0NAQEhdMltDSDJdW0NIMl1bQ0gyXVtDQEhdMltPSF0=

> <s_epik_cmdline>
J2VwaWtfcHl0aG9uJywgJy1waCcsICc3LjAnLCAnLXRuJywgJzgnLCAnLW1hJywgJzIwMCcsICctbWV0YWxfYmluZGluZycsICctaW1hZScsICc8aW5maWxlLm1hZT4nLCAnLW9tYWUnLCAnPG91dGZpbGUubWFlPic=

> <r_lp_tautomer_probability>
1

> <r_epik_Ionization_Penalty>
2.23071e-05

> <r_epik_Ionization_Penalty_Charging>
0

> <r_epik_Ionization_Penalty_Neutral>
2.23071e-05

> <r_epik_State_Penalty>
-0

> <r_epik_Charging_Adjusted_Penalty>
0

> <i_epik_Tot_Q>
0

> <i_epik_Tot_abs_Q>
0

> <r_epik_Metal_State_Penalty>
-0

> <b_epik_Metal_Only>
0

> <s_lp_Force_Field>
OPLS_2005

> <r_lp_Energy>
16.5613

> <b_lp_Chiralities_Consistent>
1

> <s_lp_Variant>
AV-unprocessed.smi:730-4

> <Gold.Version>
5.8.1

> <Gold.Id.Protein>
6NUR|6NUR_protein|mol2

> <Gold.PLP.Fitness>
36.6946

> <Gold.PLP.PLP>
-32.0124

> <Gold.PLP.part.hbond>
-2.6112

> <Gold.PLP.part.metal>
0.0000

> <Gold.PLP.part.buried>
-3.5157

> <Gold.PLP.part.nonpolar>
-28.5428

> <Gold.PLP.part.repulsive>
1.1400

> <Gold.PLP.ligand.clash>
0.0000

> <Gold.PLP.ligand.torsion>
1.0357

> <Gold.PLP.Chemscore.Hbond>
2.2489

> <Gold.PLP.Chemscore.CHOScore>
0.0000

> <Gold.PLP.Chemscore.Metal>
0.0000

> <Gold.Chemscore.Hbonds>
donor molecule, donor type, donor heavy atom, donor atom, acceptor molecule, acceptor atom, score
      L1  H     8    30       P1  7948  0.75
      L1  H    11    31       P1  7948  0.53
      L1  H    17    40       P1 10175  1.00

> <Gold.PLP.Chemscore.Internal.Correction>
0.0068

> <Gold.Rescore>
     Score         DG    S(hbond)    S(metal)    S(lipo)     H(rot)  DE(clash)    DE(int)     intcor
     17.35     -18.73       2.27        0.00      85.99       1.71       0.34       1.04       ----

> <Gold.Chemscore.Fitness>
17.3487

> <Gold.Chemscore.DG>
-18.7289

> <Gold.Chemscore.ZeroCoef>
-5.4800

> <Gold.Chemscore.Hbond>
2.2672

> <Gold.Chemscore.Metal>
0.0000

> <Gold.Chemscore.Lipo>
85.9865

> <Gold.Chemscore.Internal_Hbond>
0.0000

> <Gold.Chemscore.DEClash>
0.3354

> <Gold.Chemscore.DEInternal>
1.0449

> <Gold.Chemscore.Rot>
1.7125

> <Gold.Chemscore.Internal.Correction>
   9.000000E+99

> <Gold.Chemscore.Hbonds>
donor molecule, donor type, donor heavy atom, donor atom, acceptor molecule, acceptor atom, score
      L1  H     8    30       P1  7948  0.75
      L1  H    11    31       P1  7948  0.51
      L1  H    17    40       P1 10175  0.91

> <Gold.Chemscore.Hbond.Weighted>
-7.5726

> <Gold.Chemscore.Metal.Weighted>
-0.0000

> <Gold.Chemscore.Lipo.Weighted>
-10.0604

> <Gold.Chemscore.Internal_Hbond.Weighted>
0.0000

> <Gold.Chemscore.DEClash.Weighted>
0.3354

> <Gold.Chemscore.DEInternal.Weighted>
1.0449

> <Gold.Chemscore.Rot.Weighted>
4.3841

> <Gold.Chemscore.Internal.Correction.Weighted>
   9.000000E+99

> <Gold.Protein.RotatedTorsions>
[ 6907 6896 6895 6894 ] final   34.39 input  -60.11 | X-H torsion
[ 7974 7965 7964 7962 ] final   46.90 input  175.53 | X-H torsion
[ 8008 7997 7996 7995 ] final   64.40 input   59.86 | X-H torsion
[ 10167 10162 10161 10158 ] final    2.88 input  -65.29 | X-H torsion
[ 10718 10713 10712 10709 ] final -127.51 input   66.30 | X-H torsion
[ 10763 10752 10751 10750 ] final  120.35 input  -60.55 | X-H torsion
[ 11005 11000 10999 10996 ] final   14.87 input  -57.11 | X-H torsion

> <Gold.Protein.ActiveResidues>
 VAL166  LYS551  ARG553  GLY616  TRP617  ASP618  TYR619  PRO620  LYS621  CYS622 
 ASP623  PHE694  ASN695  SER759  ASP760  ASP761  ALA762  ILE779  LEU786  VAL792 
 PHE793  MET794  SER795  GLU796  ALA797  LYS798  CYS799  TRP800  GLU811  SER814 

> <Gold.Protein.RotatedAtoms>
  152.1018  134.9336  160.0569 H   0  0  0  0  0  0  0  0  0  0  0  0  # atno 6907 bound_to 6896
  152.0548  133.4030  159.4401 H   0  0  0  0  0  0  0  0  0  0  0  0  # atno 6908 bound_to 6896
  150.6840  134.3187  159.4821 H   0  0  0  0  0  0  0  0  0  0  0  0  # atno 6909 bound_to 6896
  146.0347  139.4806  142.9815 H   0  0  0  0  0  0  0  0  0  0  0  0  # atno 7974 bound_to 7965
  155.6454  140.3497  155.4729 H   0  0  0  0  0  0  0  0  0  0  0  0  # atno 8008 bound_to 7997
  155.9892  140.1190  157.0678 H   0  0  0  0  0  0  0  0  0  0  0  0  # atno 8009 bound_to 7997
  154.4214  140.1123  156.5527 H   0  0  0  0  0  0  0  0  0  0  0  0  # atno 8010 bound_to 7997
  140.6613  143.7296  150.7744 H   0  0  0  0  0  0  0  0  0  0  0  0  # atno 10167 bound_to 10162
  156.1864  130.6766  151.0370 H   0  0  0  0  0  0  0  0  0  0  0  0  # atno 10718 bound_to 10713
  153.5971  135.3455  155.2932 H   0  0  0  0  0  0  0  0  0  0  0  0  # atno 10763 bound_to 10752
  154.8642  135.4218  154.2453 H   0  0  0  0  0  0  0  0  0  0  0  0  # atno 10764 bound_to 10752
  153.3273  135.7042  153.7049 H   0  0  0  0  0  0  0  0  0  0  0  0  # atno 10765 bound_to 10752
  140.4646  134.1092  155.7722 H   0  0  0  0  0  0  0  0  0  0  0  0  # atno 11005 bound_to 11000
  145.6983  141.0144  143.1518 LP  0  0  0  0  0  0  0  0  0  0  0  0  # atno 17320 bound_to 7965
  144.7046  139.8614  143.7434 LP  0  0  0  0  0  0  0  0  0  0  0  0  # atno 17321 bound_to 7965
  140.0965  143.4828  152.2449 LP  0  0  0  0  0  0  0  0  0  0  0  0  # atno 17342 bound_to 10162
  139.5848  144.7526  151.3547 LP  0  0  0  0  0  0  0  0  0  0  0  0  # atno 17343 bound_to 10162
  157.6901  131.0812  150.7131 LP  0  0  0  0  0  0  0  0  0  0  0  0  # atno 17370 bound_to 10713
  156.7187  130.4674  149.5528 LP  0  0  0  0  0  0  0  0  0  0  0  0  # atno 17371 bound_to 10713
  141.1605  133.8801  157.1860 LP  0  0  0  0  0  0  0  0  0  0  0  0  # atno 17394 bound_to 11000
  139.9923  135.0060  157.0004 LP  0  0  0  0  0  0  0  0  0  0  0  0  # atno 17395 bound_to 11000

$$$$
