AV-unprocessed.smi:413|AV-procd|sdf|2513|dock9
  -GOLD-   2262022463D 1   1.00000     0.00000
 Structure written by MMmdl.
 40 42  0  0  0  0  0  0  0  0  1 V2000
  154.0788  140.1001  160.5647 C   0  0  0  0  0  0  0  0  0  0  0  0
  153.1443  140.9232  159.8069 N   0  0  0  0  0  0  0  0  0  0  0  0
  152.6314  140.6578  158.5824 C   0  0  0  0  0  0  0  0  0  0  0  0
  152.8734  139.6658  157.8950 O   0  0  0  0  0  0  0  0  0  0  0  0
  151.8089  141.6783  158.2431 N   0  0  0  0  0  0  0  0  0  0  0  0
  151.0624  141.8149  156.9945 C   0  0  0  0  0  0  0  0  0  0  0  0
  149.5415  141.7076  157.2254 C   0  0  1  0  0  0  0  0  0  0  0  0
  148.9870  142.9827  157.4774 O   0  0  0  0  0  0  0  0  0  0  0  0
  148.7924  141.0958  156.0301 C   0  0  0  0  0  0  0  0  0  0  0  0
  147.3993  141.0365  156.3125 O   0  0  0  0  0  0  0  0  0  0  0  0
  146.5726  141.9736  155.7318 C   0  0  0  0  0  0  0  0  0  0  0  0
  146.9698  142.4872  154.4799 C   0  0  0  0  0  0  0  0  0  0  0  0
  146.1850  143.4468  153.8122 C   0  0  0  0  0  0  0  0  0  0  0  0
  144.9887  143.9048  154.3940 C   0  0  0  0  0  0  0  0  0  0  0  0
  144.2322  144.8271  153.7536 F   0  0  0  0  0  0  0  0  0  0  0  0
  144.5803  143.4017  155.6431 C   0  0  0  0  0  0  0  0  0  0  0  0
  145.3657  142.4419  156.3111 C   0  0  0  0  0  0  0  0  0  0  0  0
  151.8074  142.6296  159.2733 C   0  0  0  0  0  0  0  0  0  0  0  0
  151.1368  143.8588  159.3985 C   0  0  0  0  0  0  0  0  0  0  0  0
  151.3568  144.5970  160.5851 C   0  0  0  0  0  0  0  0  0  0  0  0
  152.2221  144.1056  161.5974 C   0  0  0  0  0  0  0  0  0  0  0  0
  152.8859  142.8656  161.4447 C   0  0  0  0  0  0  0  0  0  0  0  0
  152.6481  142.1532  160.2567 C   0  0  0  0  0  0  0  0  0  0  0  0
  154.2343  139.1251  160.1009 H   0  0  0  0  0  0  0  0  0  0  0  0
  153.7032  139.9333  161.5746 H   0  0  0  0  0  0  0  0  0  0  0  0
  155.0454  140.5989  160.6374 H   0  0  0  0  0  0  0  0  0  0  0  0
  151.3167  142.7470  156.4867 H   0  0  0  0  0  0  0  0  0  0  0  0
  151.3895  141.0172  156.3266 H   0  0  0  0  0  0  0  0  0  0  0  0
  149.3403  141.0862  158.0991 H   0  0  0  0  0  0  0  0  0  0  0  0
  149.1153  143.5213  156.7112 H   0  0  0  0  0  0  0  0  0  0  0  0
  148.9514  141.7319  155.1578 H   0  0  0  0  0  0  0  0  0  0  0  0
  149.1898  140.1066  155.7956 H   0  0  0  0  0  0  0  0  0  0  0  0
  147.8868  142.1405  154.0261 H   0  0  0  0  0  0  0  0  0  0  0  0
  146.5012  143.8304  152.8534 H   0  0  0  0  0  0  0  0  0  0  0  0
  143.6621  143.7523  156.0908 H   0  0  0  0  0  0  0  0  0  0  0  0
  145.0195  142.0808  157.2674 H   0  0  0  0  0  0  0  0  0  0  0  0
  150.4818  144.2282  158.6233 H   0  0  0  0  0  0  0  0  0  0  0  0
  150.8610  145.5466  160.7218 H   0  0  0  0  0  0  0  0  0  0  0  0
  152.3770  144.6859  162.4953 H   0  0  0  0  0  0  0  0  0  0  0  0
  153.5474  142.4856  162.2092 H   0  0  0  0  0  0  0  0  0  0  0  0
  1  2  1  0  0  0  0
  1 24  1  0  0  0  0
  1 25  1  0  0  0  0
  1 26  1  0  0  0  0
  2 23  1  0  0  0  0
  2  3  1  0  0  0  0
  3  4  2  0  0  0  0
  3  5  1  0  0  0  0
  5  6  1  0  0  0  0
  5 18  1  0  0  0  0
  6  7  1  0  0  0  0
  6 27  1  0  0  0  0
  6 28  1  0  0  0  0
  7  8  1  0  0  0  0
  7  9  1  0  0  0  0
  7 29  1  0  0  0  0
  8 30  1  0  0  0  0
  9 10  1  0  0  0  0
  9 31  1  0  0  0  0
  9 32  1  0  0  0  0
 10 11  1  0  0  0  0
 11 17  1  0  0  0  0
 11 12  2  0  0  0  0
 12 13  1  0  0  0  0
 12 33  1  0  0  0  0
 13 14  2  0  0  0  0
 13 34  1  0  0  0  0
 14 15  1  0  0  0  0
 14 16  1  0  0  0  0
 16 17  2  0  0  0  0
 16 35  1  0  0  0  0
 17 36  1  0  0  0  0
 18 23  2  0  0  0  0
 18 19  1  0  0  0  0
 19 20  2  0  0  0  0
 19 37  1  0  0  0  0
 20 21  1  0  0  0  0
 20 38  1  0  0  0  0
 21 22  2  0  0  0  0
 21 39  1  0  0  0  0
 22 23  1  0  0  0  0
 22 40  1  0  0  0  0
M  END
> <s_m_source_file>
AV-unprocessed.smi

> <i_m_source_file_index>
413

> <i_lp_mmshare_version>
43012

> <i_f3d_flags>
0

> <s_epik_input>
W2NIXTFbY0hdW2NIXVtjSF1jKGMxMiluKFtDSDNdKWMoPU8pbjJbQ0gyXVtDQEhdKFtPSF0pW0NIMl1PYzNbY0hdW2NIXWMoRilbY0hdW2NIXTM=

> <s_epik_cmdline>
J2VwaWtfcHl0aG9uJywgJy1waCcsICc3LjAnLCAnLXRuJywgJzgnLCAnLW1hJywgJzIwMCcsICctbWV0YWxfYmluZGluZycsICctaW1hZScsICc8aW5maWxlLm1hZT4nLCAnLW9tYWUnLCAnPG91dGZpbGUubWFlPic=

> <r_lp_tautomer_probability>
1

> <r_epik_Ionization_Penalty>
2.40172e-06

> <r_epik_Ionization_Penalty_Charging>
2.42369e-09

> <r_epik_Ionization_Penalty_Neutral>
2.3993e-06

> <r_epik_State_Penalty>
-0

> <r_epik_Charging_Adjusted_Penalty>
2.42369e-09

> <i_epik_Tot_Q>
0

> <i_epik_Tot_abs_Q>
0

> <r_epik_Metal_State_Penalty>
-0

> <b_epik_Metal_Only>
0

> <s_lp_Force_Field>
OPLS_2005

> <r_lp_Energy>
47.225

> <b_lp_Chiralities_Consistent>
1

> <s_lp_Variant>
AV-unprocessed.smi:413-2

> <Gold.Version>
5.8.1

> <Gold.Id.Protein>
6NUR|6NUR_protein|mol2

> <Gold.PLP.Fitness>
54.2074

> <Gold.PLP.PLP>
-50.5574

> <Gold.PLP.part.hbond>
-2.5053

> <Gold.PLP.part.metal>
0.0000

> <Gold.PLP.part.buried>
-4.4862

> <Gold.PLP.part.nonpolar>
-43.9003

> <Gold.PLP.part.repulsive>
0.0506

> <Gold.PLP.ligand.clash>
0.0000

> <Gold.PLP.ligand.torsion>
1.1371

> <Gold.PLP.Chemscore.Hbond>
1.9600

> <Gold.PLP.Chemscore.CHOScore>
0.0000

> <Gold.PLP.Chemscore.Metal>
0.0000

> <Gold.Chemscore.Hbonds>
donor molecule, donor type, donor heavy atom, donor atom, acceptor molecule, acceptor atom, score
      L1  H     8    30       P1  8028  1.00
      P1  H  7997  8008       L1     4  0.94

> <Gold.PLP.Chemscore.Internal.Correction>
0.0442

> <Gold.Rescore>
     Score         DG    S(hbond)    S(metal)    S(lipo)     H(rot)  DE(clash)    DE(int)     intcor
     16.92     -19.34       1.76        0.00     117.94       2.27       0.20       2.22       ----

> <Gold.Chemscore.Fitness>
16.9181

> <Gold.Chemscore.DG>
-19.3435

> <Gold.Chemscore.ZeroCoef>
-5.4800

> <Gold.Chemscore.Hbond>
1.7597

> <Gold.Chemscore.Metal>
0.0000

> <Gold.Chemscore.Lipo>
117.9403

> <Gold.Chemscore.Internal_Hbond>
0.0000

> <Gold.Chemscore.DEClash>
0.2017

> <Gold.Chemscore.DEInternal>
2.2238

> <Gold.Chemscore.Rot>
2.2706

> <Gold.Chemscore.Internal.Correction>
   9.000000E+99

> <Gold.Chemscore.Hbonds>
donor molecule, donor type, donor heavy atom, donor atom, acceptor molecule, acceptor atom, score
      L1  H     8    30       P1  8028  0.89
      P1  H  7997  8008       L1     4  0.38

> <Gold.Chemscore.Hbond.Weighted>
-5.8773

> <Gold.Chemscore.Metal.Weighted>
-0.0000

> <Gold.Chemscore.Lipo.Weighted>
-13.7990

> <Gold.Chemscore.Internal_Hbond.Weighted>
0.0000

> <Gold.Chemscore.DEClash.Weighted>
0.2017

> <Gold.Chemscore.DEInternal.Weighted>
2.2238

> <Gold.Chemscore.Rot.Weighted>
5.8128

> <Gold.Chemscore.Internal.Correction.Weighted>
   9.000000E+99

> <Gold.Protein.RotatedTorsions>
[ 6907 6896 6895 6894 ] final   -8.21 input  -60.11 | X-H torsion
[ 7974 7965 7964 7962 ] final -103.60 input  175.53 | X-H torsion
[ 8008 7997 7996 7995 ] final  -96.86 input   59.86 | X-H torsion
[ 10167 10162 10161 10158 ] final   42.17 input  -65.29 | X-H torsion
[ 10718 10713 10712 10709 ] final -164.32 input   66.30 | X-H torsion
[ 10763 10752 10751 10750 ] final -160.99 input  -60.55 | X-H torsion
[ 11005 11000 10999 10996 ] final  -41.18 input  -57.11 | X-H torsion

> <Gold.Protein.ActiveResidues>
 VAL166  LYS551  ARG553  GLY616  TRP617  ASP618  TYR619  PRO620  LYS621  CYS622 
 ASP623  PHE694  ASN695  SER759  ASP760  ASP761  ALA762  ILE779  LEU786  VAL792 
 PHE793  MET794  SER795  GLU796  ALA797  LYS798  CYS799  TRP800  GLU811  SER814 

> <Gold.Protein.RotatedAtoms>
  151.4372  135.1016  159.9659 H   0  0  0  0  0  0  0  0  0  0  0  0  # atno 6907 bound_to 6896
  152.4935  133.8562  159.7237 H   0  0  0  0  0  0  0  0  0  0  0  0  # atno 6908 bound_to 6896
  150.9113  133.6935  159.2881 H   0  0  0  0  0  0  0  0  0  0  0  0  # atno 6909 bound_to 6896
  145.2538  140.9247  143.3080 H   0  0  0  0  0  0  0  0  0  0  0  0  # atno 7974 bound_to 7965
  154.7801  140.0468  157.1120 H   0  0  0  0  0  0  0  0  0  0  0  0  # atno 8008 bound_to 7997
  154.9715  140.3090  155.4966 H   0  0  0  0  0  0  0  0  0  0  0  0  # atno 8009 bound_to 7997
  156.2935  140.2252  156.4808 H   0  0  0  0  0  0  0  0  0  0  0  0  # atno 8010 bound_to 7997
  140.3570  144.2277  150.6141 H   0  0  0  0  0  0  0  0  0  0  0  0  # atno 10167 bound_to 10162
  156.6373  130.8954  151.2989 H   0  0  0  0  0  0  0  0  0  0  0  0  # atno 10718 bound_to 10713
  154.7342  135.3053  154.8839 H   0  0  0  0  0  0  0  0  0  0  0  0  # atno 10763 bound_to 10752
  153.9673  135.6746  153.4750 H   0  0  0  0  0  0  0  0  0  0  0  0  # atno 10764 bound_to 10752
  153.0947  135.4941  154.8678 H   0  0  0  0  0  0  0  0  0  0  0  0  # atno 10765 bound_to 10752
  141.0228  133.6855  156.2423 H   0  0  0  0  0  0  0  0  0  0  0  0  # atno 11005 bound_to 11000
  144.9479  139.4115  143.6417 LP  0  0  0  0  0  0  0  0  0  0  0  0  # atno 17320 bound_to 7965
  146.3295  139.8472  142.8879 LP  0  0  0  0  0  0  0  0  0  0  0  0  # atno 17321 bound_to 7965
  140.5163  143.2277  151.8457 LP  0  0  0  0  0  0  0  0  0  0  0  0  # atno 17342 bound_to 10162
  139.4819  144.4890  151.9210 LP  0  0  0  0  0  0  0  0  0  0  0  0  # atno 17343 bound_to 10162
  157.7182  130.9524  150.1335 LP  0  0  0  0  0  0  0  0  0  0  0  0  # atno 17370 bound_to 10713
  156.2187  130.3672  149.8582 LP  0  0  0  0  0  0  0  0  0  0  0  0  # atno 17371 bound_to 10713
  140.6544  134.5034  157.5579 LP  0  0  0  0  0  0  0  0  0  0  0  0  # atno 17394 bound_to 11000
  139.9157  134.8252  156.1376 LP  0  0  0  0  0  0  0  0  0  0  0  0  # atno 17395 bound_to 11000

$$$$
