AV-unprocessed.smi:212|AV-procd|sdf|1627|dock4
  -GOLD-   2262019573D 1   1.00000     0.00000
 Structure written by MMmdl.
 65 68  0  0  0  0  0  0  0  0  2 V2000
  142.9409  136.9670  152.8184 C   0  0  0  0  0  0  0  0  0  0  0  0
  144.4369  137.2925  152.6710 C   0  0  2  0  0  0  0  0  0  0  0  0
  145.1336  136.3754  151.6436 C   0  0  0  0  0  0  0  0  0  0  0  0
  145.3006  134.9940  152.1681 N   0  3  1  0  0  0  0  0  0  0  0  0
  145.8463  134.0436  151.1634 C   0  0  0  0  0  0  0  0  0  0  0  0
  144.7374  133.3308  150.3539 C   0  0  0  0  0  0  0  0  0  0  0  0
  145.3434  132.1947  149.5129 C   0  0  0  0  0  0  0  0  0  0  0  0
  143.6152  132.7844  151.2559 C   0  0  0  0  0  0  0  0  0  0  0  0
  144.1665  134.2462  149.4402 O   0  0  0  0  0  0  0  0  0  0  0  0
  146.0376  134.9728  153.4565 C   0  0  0  0  0  0  0  0  0  0  0  0
  145.3596  135.8856  154.4948 C   0  0  0  0  0  0  0  0  0  0  0  0
  145.1346  137.2291  153.9581 N   0  0  0  0  0  0  0  0  0  0  0  0
  146.0734  138.1874  154.1758 C   0  0  0  0  0  0  0  0  0  0  0  0
  146.4414  139.0194  153.1653 N   0  0  0  0  0  0  0  0  0  0  0  0
  147.3551  139.9724  153.3730 C   0  0  0  0  0  0  0  0  0  0  0  0
  148.0173  140.2630  154.4940 N   0  0  0  0  0  0  0  0  0  0  0  0
  147.6600  139.4266  155.5098 C   0  0  0  0  0  0  0  0  0  0  0  0
  146.7053  138.3732  155.4381 C   0  0  0  0  0  0  0  0  0  0  0  0
  146.6126  137.7348  156.6696 N   0  0  0  0  0  0  0  0  0  0  0  0
  147.4565  138.3799  157.4281 C   0  0  0  0  0  0  0  0  0  0  0  0
  148.1255  139.4130  156.8128 N   0  0  0  0  0  0  0  0  0  0  0  0
  149.1159  140.2844  157.4204 C   0  0  0  0  0  0  0  0  0  0  0  0
  150.2906  140.6202  156.4638 C   0  0  2  0  0  0  0  0  0  0  0  0
  150.8842  139.3433  155.8215 C   0  0  0  0  0  0  0  0  0  0  0  0
  151.7966  139.6635  154.7919 O   0  0  0  0  0  0  0  0  0  0  0  0
  151.3868  141.4955  157.1361 C   0  0  1  0  0  0  0  0  0  0  0  0
  150.9582  142.9430  157.3954 C   0  0  0  0  0  0  0  0  0  0  0  0
  151.3277  143.1876  158.8565 C   0  0  0  0  0  0  0  0  0  0  0  0
  151.2550  141.8969  159.4367 O   0  0  0  0  0  0  0  0  0  0  0  0
  151.8596  141.0047  158.5145 C   0  0  0  0  0  0  0  0  0  0  0  0
  142.4240  137.0760  151.8647 H   0  0  0  0  0  0  0  0  0  0  0  0
  142.4639  137.6438  153.5278 H   0  0  0  0  0  0  0  0  0  0  0  0
  142.7737  135.9476  153.1663 H   0  0  0  0  0  0  0  0  0  0  0  0
  144.4932  138.3048  152.2715 H   0  0  0  0  0  0  0  0  0  0  0  0
  144.5666  136.3654  150.7126 H   0  0  0  0  0  0  0  0  0  0  0  0
  146.1174  136.7811  151.4018 H   0  0  0  0  0  0  0  0  0  0  0  0
  146.5418  134.5579  150.4979 H   0  0  0  0  0  0  0  0  0  0  0  0
  146.4414  133.2800  151.6673 H   0  0  0  0  0  0  0  0  0  0  0  0
  145.7995  131.4343  150.1479 H   0  0  0  0  0  0  0  0  0  0  0  0
  146.1154  132.5655  148.8374 H   0  0  0  0  0  0  0  0  0  0  0  0
  144.5853  131.7001  148.9044 H   0  0  0  0  0  0  0  0  0  0  0  0
  144.0088  132.0815  151.9907 H   0  0  0  0  0  0  0  0  0  0  0  0
  142.8587  132.2584  150.6721 H   0  0  0  0  0  0  0  0  0  0  0  0
  143.1065  133.5807  151.8001 H   0  0  0  0  0  0  0  0  0  0  0  0
  144.8640  134.6945  148.9862 H   0  0  0  0  0  0  0  0  0  0  0  0
  146.0760  133.9538  153.8434 H   0  0  0  0  0  0  0  0  0  0  0  0
  147.0683  135.2876  153.2868 H   0  0  0  0  0  0  0  0  0  0  0  0
  144.3953  135.4640  154.7787 H   0  0  0  0  0  0  0  0  0  0  0  0
  145.9462  135.9227  155.4137 H   0  0  0  0  0  0  0  0  0  0  0  0
  147.5883  140.5913  152.5191 H   0  0  0  0  0  0  0  0  0  0  0  0
  147.6157  138.1193  158.4646 H   0  0  0  0  0  0  0  0  0  0  0  0
  148.5981  141.1860  157.7450 H   0  0  0  0  0  0  0  0  0  0  0  0
  149.4822  139.8064  158.3288 H   0  0  0  0  0  0  0  0  0  0  0  0
  149.8749  141.2139  155.6478 H   0  0  0  0  0  0  0  0  0  0  0  0
  151.3831  138.7241  156.5671 H   0  0  0  0  0  0  0  0  0  0  0  0
  150.1042  138.7297  155.3725 H   0  0  0  0  0  0  0  0  0  0  0  0
  152.3436  138.9100  154.6302 H   0  0  0  0  0  0  0  0  0  0  0  0
  152.2564  141.5271  156.4792 H   0  0  0  0  0  0  0  0  0  0  0  0
  151.4595  143.6488  156.7322 H   0  0  0  0  0  0  0  0  0  0  0  0
  149.8870  143.0801  157.2536 H   0  0  0  0  0  0  0  0  0  0  0  0
  152.3467  143.5684  158.9421 H   0  0  0  0  0  0  0  0  0  0  0  0
  150.6557  143.8900  159.3498 H   0  0  0  0  0  0  0  0  0  0  0  0
  151.6007  139.9688  158.7318 H   0  0  0  0  0  0  0  0  0  0  0  0
  152.9439  141.0943  158.5973 H   0  0  0  0  0  0  0  0  0  0  0  0
  144.3712  134.6608  152.3808 H   0  0  0  0  0  0  0  0  0  0  0  0
  1  2  1  0  0  0  0
  1 31  1  0  0  0  0
  1 32  1  0  0  0  0
  1 33  1  0  0  0  0
  2 12  1  0  0  0  0
  2  3  1  0  0  0  0
  2 34  1  0  0  0  0
  3  4  1  0  0  0  0
  3 35  1  0  0  0  0
  3 36  1  0  0  0  0
  4  5  1  0  0  0  0
  4 10  1  0  0  0  0
  4 65  1  0  0  0  0
  5  6  1  0  0  0  0
  5 37  1  0  0  0  0
  5 38  1  0  0  0  0
  6  7  1  0  0  0  0
  6  8  1  0  0  0  0
  6  9  1  0  0  0  0
  7 39  1  0  0  0  0
  7 40  1  0  0  0  0
  7 41  1  0  0  0  0
  8 42  1  0  0  0  0
  8 43  1  0  0  0  0
  8 44  1  0  0  0  0
  9 45  1  0  0  0  0
 10 11  1  0  0  0  0
 10 46  1  0  0  0  0
 10 47  1  0  0  0  0
 11 12  1  0  0  0  0
 11 48  1  0  0  0  0
 11 49  1  0  0  0  0
 12 13  1  0  0  0  0
 13 18  1  0  0  0  0
 13 14  2  0  0  0  0
 14 15  1  0  0  0  0
 15 16  2  0  0  0  0
 15 50  1  0  0  0  0
 16 17  1  0  0  0  0
 17 21  1  0  0  0  0
 17 18  2  0  0  0  0
 18 19  1  0  0  0  0
 19 20  2  0  0  0  0
 20 21  1  0  0  0  0
 20 51  1  0  0  0  0
 21 22  1  0  0  0  0
 22 23  1  0  0  0  0
 22 52  1  0  0  0  0
 22 53  1  0  0  0  0
 23 24  1  0  0  0  0
 23 26  1  0  0  0  0
 23 54  1  0  0  0  0
 24 25  1  0  0  0  0
 24 55  1  0  0  0  0
 24 56  1  0  0  0  0
 25 57  1  0  0  0  0
 26 30  1  0  0  0  0
 26 27  1  0  0  0  0
 26 58  1  0  0  0  0
 27 28  1  0  0  0  0
 27 59  1  0  0  0  0
 27 60  1  0  0  0  0
 28 29  1  0  0  0  0
 28 61  1  0  0  0  0
 28 62  1  0  0  0  0
 29 30  1  0  0  0  0
 30 63  1  0  0  0  0
 30 64  1  0  0  0  0
M  CHG  1   4   1
M  END
> <s_m_source_file>
AV-unprocessed.smi

> <i_m_source_file_index>
212

> <i_lp_mmshare_version>
43012

> <i_f3d_flags>
0

> <s_epik_input>
W0NIM11bQ0BASF0xW0NIMl1OKFtDSDJdQyhbQ0gzXSkoW0NIM10pW09IXSlbQ0gyXVtDSDJdTjFjKG5bY0hdbjIpYyhjMjMpbltjSF1uM1tDSDJdW0NASF0oW0NIMl1bT0hdKVtDQEBIXTRbQ0gyXVtDSDJdT1tDSDJdNA==

> <s_epik_cmdline>
J2VwaWtfcHl0aG9uJywgJy1waCcsICc3LjAnLCAnLXRuJywgJzgnLCAnLW1hJywgJzIwMCcsICctbWV0YWxfYmluZGluZycsICctaW1hZScsICc8aW5maWxlLm1hZT4nLCAnLW9tYWUnLCAnPG91dGZpbGUubWFlPic=

> <r_lp_tautomer_probability>
1

> <r_epik_Ionization_Penalty>
0.00182193

> <r_epik_Ionization_Penalty_Charging>
0.00173996

> <r_epik_Ionization_Penalty_Neutral>
8.19718e-05

> <r_epik_State_Penalty>
-0

> <r_epik_Charging_Adjusted_Penalty>
0.00173996

> <i_epik_Tot_Q>
1

> <i_epik_Tot_abs_Q>
1

> <r_epik_Metal_State_Penalty>
-0

> <b_epik_Metal_Only>
0

> <s_lp_Force_Field>
OPLS_2005

> <r_lp_Energy>
60.0337

> <b_lp_Chiralities_Consistent>
1

> <s_lp_Variant>
AV-unprocessed.smi:212-11

> <Gold.Version>
5.8.1

> <Gold.Id.Protein>
6NUR|6NUR_protein|mol2

> <Gold.PLP.Fitness>
46.3566

> <Gold.PLP.PLP>
-39.9738

> <Gold.PLP.part.hbond>
-2.9779

> <Gold.PLP.part.metal>
0.0000

> <Gold.PLP.part.buried>
-8.1273

> <Gold.PLP.part.nonpolar>
-29.4693

> <Gold.PLP.part.repulsive>
0.3294

> <Gold.PLP.ligand.clash>
0.0000

> <Gold.PLP.ligand.torsion>
1.5308

> <Gold.PLP.Chemscore.Hbond>
2.0000

> <Gold.PLP.Chemscore.CHOScore>
0.8032

> <Gold.PLP.Chemscore.Metal>
0.0000

> <Gold.Chemscore.Hbonds>
donor molecule, donor type, donor heavy atom, donor atom, acceptor molecule, acceptor atom, score
      L1  H     9    45       P1  7921  1.00
      P1  H  7989  7998       L1    25  1.00
      L1  C    15    50       P1  7957  0.79

> <Gold.PLP.Chemscore.Internal.Correction>
1.0347

> <Gold.Rescore>
     Score         DG    S(hbond)    S(metal)    S(lipo)     H(rot)  DE(clash)    DE(int)     intcor
     13.09     -14.40       1.96        0.00      94.80       3.40       0.11       1.20       ----

> <Gold.Chemscore.Fitness>
13.0906

> <Gold.Chemscore.DG>
-14.4040

> <Gold.Chemscore.ZeroCoef>
-5.4800

> <Gold.Chemscore.Hbond>
1.9559

> <Gold.Chemscore.Metal>
0.0000

> <Gold.Chemscore.Lipo>
94.8026

> <Gold.Chemscore.Internal_Hbond>
0.0000

> <Gold.Chemscore.DEClash>
0.1092

> <Gold.Chemscore.DEInternal>
1.2043

> <Gold.Chemscore.Rot>
3.3986

> <Gold.Chemscore.Internal.Correction>
   9.000000E+99

> <Gold.Chemscore.Hbonds>
donor molecule, donor type, donor heavy atom, donor atom, acceptor molecule, acceptor atom, score
      L1  H     9    45       P1  7921  0.96
      P1  H  7989  7998       L1    25  0.91

> <Gold.Chemscore.Hbond.Weighted>
-6.5326

> <Gold.Chemscore.Metal.Weighted>
-0.0000

> <Gold.Chemscore.Lipo.Weighted>
-11.0919

> <Gold.Chemscore.Internal_Hbond.Weighted>
0.0000

> <Gold.Chemscore.DEClash.Weighted>
0.1092

> <Gold.Chemscore.DEInternal.Weighted>
1.2043

> <Gold.Chemscore.Rot.Weighted>
8.7005

> <Gold.Chemscore.Internal.Correction.Weighted>
   9.000000E+99

> <Gold.Protein.RotatedTorsions>
[ 6907 6896 6895 6894 ] final  -92.47 input  -60.11 | X-H torsion
[ 7974 7965 7964 7962 ] final -130.01 input  175.53 | X-H torsion
[ 8008 7997 7996 7995 ] final -125.66 input   59.86 | X-H torsion
[ 10167 10162 10161 10158 ] final  141.48 input  -65.29 | X-H torsion
[ 10718 10713 10712 10709 ] final -119.77 input   66.30 | X-H torsion
[ 10763 10752 10751 10750 ] final  -41.43 input  -60.55 | X-H torsion
[ 11005 11000 10999 10996 ] final   -9.04 input  -57.11 | X-H torsion

> <Gold.Protein.ActiveResidues>
 VAL166  LYS551  ARG553  GLY616  TRP617  ASP618  TYR619  PRO620  LYS621  CYS622 
 ASP623  PHE694  ASN695  SER759  ASP760  ASP761  ALA762  ILE779  LEU786  VAL792 
 PHE793  MET794  SER795  GLU796  ALA797  LYS798  CYS799  TRP800  GLU811  SER814 

> <Gold.Protein.RotatedAtoms>
  150.6907  134.2117  159.4361 H   0  0  0  0  0  0  0  0  0  0  0  0  # atno 6907 bound_to 6896
  152.0079  134.9890  160.0576 H   0  0  0  0  0  0  0  0  0  0  0  0  # atno 6908 bound_to 6896
  152.1517  133.4491  159.4853 H   0  0  0  0  0  0  0  0  0  0  0  0  # atno 6909 bound_to 6896
  144.9516  140.7351  143.4784 H   0  0  0  0  0  0  0  0  0  0  0  0  # atno 7974 bound_to 7965
  155.2170  140.0420  157.2942 H   0  0  0  0  0  0  0  0  0  0  0  0  # atno 8008 bound_to 7997
  154.5974  140.2443  155.7809 H   0  0  0  0  0  0  0  0  0  0  0  0  # atno 8009 bound_to 7997
  156.2299  140.2942  156.0171 H   0  0  0  0  0  0  0  0  0  0  0  0  # atno 8010 bound_to 7997
  139.5019  144.6169  151.6143 H   0  0  0  0  0  0  0  0  0  0  0  0  # atno 10167 bound_to 10162
  156.1206  130.6320  150.9458 H   0  0  0  0  0  0  0  0  0  0  0  0  # atno 10718 bound_to 10713
  153.9624  135.6738  153.4745 H   0  0  0  0  0  0  0  0  0  0  0  0  # atno 10763 bound_to 10752
  153.0832  135.4912  154.8541 H   0  0  0  0  0  0  0  0  0  0  0  0  # atno 10764 bound_to 10752
  154.7265  135.3128  154.8922 H   0  0  0  0  0  0  0  0  0  0  0  0  # atno 10765 bound_to 10752
  140.7299  133.8758  155.8885 H   0  0  0  0  0  0  0  0  0  0  0  0  # atno 11005 bound_to 11000
  145.2835  139.1909  143.4778 LP  0  0  0  0  0  0  0  0  0  0  0  0  # atno 17320 bound_to 7965
  146.3323  140.2800  142.8610 LP  0  0  0  0  0  0  0  0  0  0  0  0  # atno 17321 bound_to 7965
  140.5859  143.9864  150.6295 LP  0  0  0  0  0  0  0  0  0  0  0  0  # atno 17342 bound_to 10162
  140.3029  143.3248  152.0954 LP  0  0  0  0  0  0  0  0  0  0  0  0  # atno 17343 bound_to 10162
  157.6390  131.0912  150.8290 LP  0  0  0  0  0  0  0  0  0  0  0  0  # atno 17370 bound_to 10713
  156.8387  130.5041  149.5323 LP  0  0  0  0  0  0  0  0  0  0  0  0  # atno 17371 bound_to 10713
  140.9930  134.1253  157.4390 LP  0  0  0  0  0  0  0  0  0  0  0  0  # atno 17394 bound_to 11000
  139.8829  135.0046  156.6260 LP  0  0  0  0  0  0  0  0  0  0  0  0  # atno 17395 bound_to 11000

$$$$
