AV-unprocessed.smi:1964|AV-procd|sdf|7930|dock2
  -GOLD-   2272010103D 1   1.00000     0.00000
 Structure written by MMmdl.
 46 48  0  0  0  0  0  0  0  0  1 V2000
  147.0779  140.9431  152.9581 C   0  0  0  0  0  0  0  0  0  0  0  0
  146.2883  141.5279  154.1423 C   0  0  2  0  0  0  0  0  0  0  0  0
  146.0658  143.0457  153.9777 C   0  0  0  0  0  0  0  0  0  0  0  0
  145.2214  143.6215  155.1258 C   0  0  0  0  0  0  0  0  0  0  0  0
  145.8489  143.3090  156.4923 C   0  0  0  0  0  0  0  0  0  0  0  0
  146.0784  141.7977  156.6684 C   0  0  0  0  0  0  0  0  0  0  0  0
  146.9150  141.1953  155.5217 C   0  0  2  0  0  0  0  0  0  0  0  0
  148.2987  141.6642  155.6179 N   0  0  0  0  0  0  0  0  0  0  0  0
  149.2156  141.2512  156.5064 C   0  0  0  0  0  0  0  0  0  0  0  0
  148.9818  140.4236  157.3883 O   0  0  0  0  0  0  0  0  0  0  0  0
  150.6103  141.8784  156.3663 C   0  0  0  0  0  0  0  0  0  0  0  0
  151.4316  141.7434  157.5889 N   0  0  0  0  0  0  0  0  0  0  0  0
  151.8251  140.4425  157.9948 C   0  0  0  0  0  0  0  0  0  0  0  0
  151.5155  139.4503  157.3322 O   0  0  0  0  0  0  0  0  0  0  0  0
  152.5917  140.3757  159.2365 C   0  0  0  0  0  0  0  0  0  0  0  0
  152.9759  139.0821  159.6954 C   0  0  0  0  0  0  0  0  0  0  0  0
  153.2754  138.0354  160.0887 N   0  0  0  0  0  0  0  0  0  0  0  0
  152.9115  141.4959  159.9166 C   0  0  0  0  0  0  0  0  0  0  0  0
  152.5538  142.7539  159.4833 N   0  0  0  0  0  0  0  0  0  0  0  0
  152.7691  143.9155  160.2992 C   0  0  0  0  0  0  0  0  0  0  0  0
  152.3204  143.9283  161.7476 C   0  0  0  0  0  0  0  0  0  0  0  0
  151.5770  144.7469  160.7204 C   0  0  0  0  0  0  0  0  0  0  0  0
  151.7536  142.9064  158.3297 C   0  0  0  0  0  0  0  0  0  0  0  0
  151.3383  144.0150  157.9834 O   0  0  0  0  0  0  0  0  0  0  0  0
  148.0577  141.4102  152.8537 H   0  0  0  0  0  0  0  0  0  0  0  0
  146.5429  141.0938  152.0205 H   0  0  0  0  0  0  0  0  0  0  0  0
  147.2310  139.8705  153.0801 H   0  0  0  0  0  0  0  0  0  0  0  0
  145.3047  141.0561  154.1206 H   0  0  0  0  0  0  0  0  0  0  0  0
  147.0261  143.5612  153.9361 H   0  0  0  0  0  0  0  0  0  0  0  0
  145.5695  143.2475  153.0279 H   0  0  0  0  0  0  0  0  0  0  0  0
  145.1144  144.6997  155.0037 H   0  0  0  0  0  0  0  0  0  0  0  0
  144.2144  143.2045  155.0831 H   0  0  0  0  0  0  0  0  0  0  0  0
  146.7956  143.8414  156.5908 H   0  0  0  0  0  0  0  0  0  0  0  0
  145.2044  143.6809  157.2893 H   0  0  0  0  0  0  0  0  0  0  0  0
  146.5578  141.6023  157.6285 H   0  0  0  0  0  0  0  0  0  0  0  0
  145.1114  141.2944  156.7068 H   0  0  0  0  0  0  0  0  0  0  0  0
  146.8960  140.1114  155.6486 H   0  0  0  0  0  0  0  0  0  0  0  0
  148.5866  142.3496  154.9345 H   0  0  0  0  0  0  0  0  0  0  0  0
  151.1240  141.4267  155.5156 H   0  0  0  0  0  0  0  0  0  0  0  0
  150.4858  142.9224  156.0760 H   0  0  0  0  0  0  0  0  0  0  0  0
  153.4746  141.4067  160.8346 H   0  0  0  0  0  0  0  0  0  0  0  0
  153.6800  144.4709  160.0820 H   0  0  0  0  0  0  0  0  0  0  0  0
  151.8155  143.0474  162.1394 H   0  0  0  0  0  0  0  0  0  0  0  0
  152.9462  144.4613  162.4604 H   0  0  0  0  0  0  0  0  0  0  0  0
  151.7049  145.8270  160.7485 H   0  0  0  0  0  0  0  0  0  0  0  0
  150.5846  144.4032  160.4348 H   0  0  0  0  0  0  0  0  0  0  0  0
  1  2  1  0  0  0  0
  1 25  1  0  0  0  0
  1 26  1  0  0  0  0
  1 27  1  0  0  0  0
  2  7  1  0  0  0  0
  2  3  1  0  0  0  0
  2 28  1  0  0  0  0
  3  4  1  0  0  0  0
  3 29  1  0  0  0  0
  3 30  1  0  0  0  0
  4  5  1  0  0  0  0
  4 31  1  0  0  0  0
  4 32  1  0  0  0  0
  5  6  1  0  0  0  0
  5 33  1  0  0  0  0
  5 34  1  0  0  0  0
  6  7  1  0  0  0  0
  6 35  1  0  0  0  0
  6 36  1  0  0  0  0
  7  8  1  0  0  0  0
  7 37  1  0  0  0  0
  8  9  1  0  0  0  0
  8 38  1  0  0  0  0
  9 10  2  0  0  0  0
  9 11  1  0  0  0  0
 11 12  1  0  0  0  0
 11 39  1  0  0  0  0
 11 40  1  0  0  0  0
 12 23  1  0  0  0  0
 12 13  1  0  0  0  0
 13 14  2  0  0  0  0
 13 15  1  0  0  0  0
 15 16  1  0  0  0  0
 15 18  2  0  0  0  0
 16 17  3  0  0  0  0
 18 19  1  0  0  0  0
 18 41  1  0  0  0  0
 19 20  1  0  0  0  0
 19 23  1  0  0  0  0
 20 22  1  0  0  0  0
 20 21  1  0  0  0  0
 20 42  1  0  0  0  0
 21 22  1  0  0  0  0
 21 43  1  0  0  0  0
 21 44  1  0  0  0  0
 22 45  1  0  0  0  0
 22 46  1  0  0  0  0
 23 24  2  0  0  0  0
M  END
> <s_m_source_file>
AV-unprocessed.smi

> <i_m_source_file_index>
1964

> <i_lp_mmshare_version>
43012

> <i_f3d_flags>
0

> <s_epik_input>
W0NIM11bQ0BASF0xW0NIMl1bQ0gyXVtDSDJdW0NIMl1bQ0BIXTFbTkhdQyg9TylbQ0gyXW4yYyg9TyljKEMjTilbY0hdbihjMj1PKVtDSF0zW0NIMl1bQ0gyXTM=

> <s_epik_cmdline>
J2VwaWtfcHl0aG9uJywgJy1waCcsICc3LjAnLCAnLXRuJywgJzgnLCAnLW1hJywgJzIwMCcsICctbWV0YWxfYmluZGluZycsICctaW1hZScsICc8aW5maWxlLm1hZT4nLCAnLW9tYWUnLCAnPG91dGZpbGUubWFlPic=

> <r_lp_tautomer_probability>
1

> <r_epik_Ionization_Penalty>
1.91372e-08

> <r_epik_Ionization_Penalty_Charging>
9.0283e-11

> <r_epik_Ionization_Penalty_Neutral>
1.90469e-08

> <r_epik_State_Penalty>
-0

> <r_epik_Charging_Adjusted_Penalty>
9.0283e-11

> <i_epik_Tot_Q>
0

> <i_epik_Tot_abs_Q>
0

> <r_epik_Metal_State_Penalty>
-0

> <b_epik_Metal_Only>
0

> <s_lp_Force_Field>
OPLS_2005

> <r_lp_Energy>
35.1398

> <b_lp_Chiralities_Consistent>
1

> <s_lp_Variant>
AV-unprocessed.smi:1964-3

> <Gold.Version>
5.8.1

> <Gold.Id.Protein>
6NUR|6NUR_protein|mol2

> <Gold.PLP.Fitness>
43.6043

> <Gold.PLP.PLP>
-44.5974

> <Gold.PLP.part.hbond>
-0.3561

> <Gold.PLP.part.metal>
0.0000

> <Gold.PLP.part.buried>
-7.0170

> <Gold.PLP.part.nonpolar>
-37.3783

> <Gold.PLP.part.repulsive>
0.2068

> <Gold.PLP.ligand.clash>
0.0000

> <Gold.PLP.ligand.torsion>
0.6207

> <Gold.PLP.Chemscore.Hbond>
0.0000

> <Gold.PLP.Chemscore.CHOScore>
0.0000

> <Gold.PLP.Chemscore.Metal>
0.0000

> <Gold.PLP.Chemscore.Internal.Correction>
0.2483

> <Gold.Rescore>
     Score         DG    S(hbond)    S(metal)    S(lipo)     H(rot)  DE(clash)    DE(int)     intcor
      9.24     -14.10       0.85        0.00      86.83       1.70       0.13       4.73       ----

> <Gold.Chemscore.Fitness>
9.2448

> <Gold.Chemscore.DG>
-14.1039

> <Gold.Chemscore.ZeroCoef>
-5.4800

> <Gold.Chemscore.Hbond>
0.8462

> <Gold.Chemscore.Metal>
0.0000

> <Gold.Chemscore.Lipo>
86.8312

> <Gold.Chemscore.Internal_Hbond>
0.0000

> <Gold.Chemscore.DEClash>
0.1305

> <Gold.Chemscore.DEInternal>
4.7286

> <Gold.Chemscore.Rot>
1.7038

> <Gold.Chemscore.Internal.Correction>
   9.000000E+99

> <Gold.Chemscore.Hbonds>
donor molecule, donor type, donor heavy atom, donor atom, acceptor molecule, acceptor atom, score
      L1  H     8    38       P1  8028  0.01

> <Gold.Chemscore.Hbond.Weighted>
-2.8264

> <Gold.Chemscore.Metal.Weighted>
-0.0000

> <Gold.Chemscore.Lipo.Weighted>
-10.1592

> <Gold.Chemscore.Internal_Hbond.Weighted>
0.0000

> <Gold.Chemscore.DEClash.Weighted>
0.1305

> <Gold.Chemscore.DEInternal.Weighted>
4.7286

> <Gold.Chemscore.Rot.Weighted>
4.3618

> <Gold.Chemscore.Internal.Correction.Weighted>
   9.000000E+99

> <Gold.Protein.RotatedTorsions>
[ 6907 6896 6895 6894 ] final -152.41 input  -60.11 | X-H torsion
[ 7974 7965 7964 7962 ] final -124.42 input  175.53 | X-H torsion
[ 8008 7997 7996 7995 ] final  -45.72 input   59.86 | X-H torsion
[ 10167 10162 10161 10158 ] final  -92.52 input  -65.29 | X-H torsion
[ 10718 10713 10712 10709 ] final  112.37 input   66.30 | X-H torsion
[ 10763 10752 10751 10750 ] final  172.45 input  -60.55 | X-H torsion
[ 11005 11000 10999 10996 ] final -146.67 input  -57.11 | X-H torsion

> <Gold.Protein.ActiveResidues>
 VAL166  LYS551  ARG553  GLY616  TRP617  ASP618  TYR619  PRO620  LYS621  CYS622 
 ASP623  PHE694  ASN695  SER759  ASP760  ASP761  ALA762  ILE779  LEU786  VAL792 
 PHE793  MET794  SER795  GLU796  ALA797  LYS798  CYS799  TRP800  GLU811  SER814 

> <Gold.Protein.RotatedAtoms>
  151.2274  133.4469  159.2602 H   0  0  0  0  0  0  0  0  0  0  0  0  # atno 6907 bound_to 6896
  151.0827  134.9868  159.8374 H   0  0  0  0  0  0  0  0  0  0  0  0  # atno 6908 bound_to 6896
  152.5426  134.2213  159.8841 H   0  0  0  0  0  0  0  0  0  0  0  0  # atno 6909 bound_to 6896
  145.0083  140.7883  143.4454 H   0  0  0  0  0  0  0  0  0  0  0  0  # atno 7974 bound_to 7965
  154.4002  140.1389  156.3894 H   0  0  0  0  0  0  0  0  0  0  0  0  # atno 8008 bound_to 7997
  155.7928  140.3478  155.5338 H   0  0  0  0  0  0  0  0  0  0  0  0  # atno 8009 bound_to 7997
  155.8562  140.0949  157.1633 H   0  0  0  0  0  0  0  0  0  0  0  0  # atno 8010 bound_to 7997
  140.3339  143.2979  151.9911 H   0  0  0  0  0  0  0  0  0  0  0  0  # atno 10167 bound_to 10162
  157.6396  131.0966  150.6886 H   0  0  0  0  0  0  0  0  0  0  0  0  # atno 10718 bound_to 10713
  154.4262  135.2759  155.1943 H   0  0  0  0  0  0  0  0  0  0  0  0  # atno 10763 bound_to 10752
  154.3868  135.6075  153.5824 H   0  0  0  0  0  0  0  0  0  0  0  0  # atno 10764 bound_to 10752
  152.9834  135.5893  154.4566 H   0  0  0  0  0  0  0  0  0  0  0  0  # atno 10765 bound_to 10752
  140.7796  134.3095  157.5050 H   0  0  0  0  0  0  0  0  0  0  0  0  # atno 11005 bound_to 11000
  145.2058  139.2229  143.5169 LP  0  0  0  0  0  0  0  0  0  0  0  0  # atno 17320 bound_to 7965
  146.3465  140.1885  142.8589 LP  0  0  0  0  0  0  0  0  0  0  0  0  # atno 17321 bound_to 7965
  139.4851  144.6212  151.7251 LP  0  0  0  0  0  0  0  0  0  0  0  0  # atno 17342 bound_to 10162
  140.5371  144.0638  150.6074 LP  0  0  0  0  0  0  0  0  0  0  0  0  # atno 17343 bound_to 10162
  156.7212  130.4681  149.5522 LP  0  0  0  0  0  0  0  0  0  0  0  0  # atno 17370 bound_to 10713
  156.1664  130.6408  151.0784 LP  0  0  0  0  0  0  0  0  0  0  0  0  # atno 17371 bound_to 10713
  139.8744  134.9310  156.3517 LP  0  0  0  0  0  0  0  0  0  0  0  0  # atno 17394 bound_to 11000
  140.9496  133.7460  156.0254 LP  0  0  0  0  0  0  0  0  0  0  0  0  # atno 17395 bound_to 11000

$$$$
