#       Name:                AV-unprocessed.smi:114
#       Creating user name   scv26
#       Creation time:       Thu Mar 26 18:22:35 2020


#       File generated by GOLD software.
#

@<TRIPOS>MOLECULE
AV-unprocessed.smi:114
    43    45     1
SMALL
NO_CHARGES


@<TRIPOS>ATOM
      1 ****        -5.1975   0.1978   0.2687 N.pl3          1 S1                 0.0000
      2 ****        -3.8856   0.4705   0.2367 C.ar           1 S1                 0.0000
      3 ****        -3.4974   1.7666   0.2382 N.ar           1 S1                 0.0000
      4 ****        -2.1970   2.0820   0.2071 C.ar           1 S1                 0.0000
      5 ****        -1.8981   3.4023   0.2097 F              1 S1                 0.0000
      6 ****        -1.1599   1.2389   0.1728 N.ar           1 S1                 0.0000
      7 ****        -1.5452  -0.0700   0.1710 C.ar           1 S1                 0.0000
      8 ****        -2.8879  -0.5340   0.2005 C.ar           1 S1                 0.0000
      9 ****        -2.9113  -1.9216   0.1855 N.2            1 S1                 0.0000
     10 ****        -1.6493  -2.2552   0.1480 C.2            1 S1                 0.0000
     11 ****        -0.7574  -1.2050   0.1322 N.pl3          1 S1                 0.0000
     12 ****         0.7394  -1.2926   0.0892 C.3            1 S1                 0.0000
     13 ****         1.2876  -0.3183   0.9263 O.3            1 S1                 0.0000
     14 ****         2.1091   0.5809   0.1834 C.3            1 S1                 0.0000
     15 ****         3.2474   1.1368   1.0570 C.3            1 S1                 0.0000
     16 ****         2.7771   2.2123   1.8408 O.3            1 S1                 0.0000
     17 ****         2.5498  -0.2383  -1.0384 C.3            1 S1                 0.0000
     18 ****         3.6661  -1.0563  -0.7367 O.3            1 S1                 0.0000
     19 ****         1.3273  -1.0963  -1.3231 C.3            1 S1                 0.0000
     20 ****         0.4551  -0.4408  -2.2270 O.3            1 S1                 0.0000
     21 ****         0.9689  -2.2746   0.5047 H              1 S1                 0.0000
     22 ****         1.4902   1.4027  -0.1785 H              1 S1                 0.0000
     23 ****         2.8186   0.4000  -1.8813 H              1 S1                 0.0000
     24 ****         1.5864  -2.0660  -1.7504 H              1 S1                 0.0000
     25 ****        -5.5111  -0.7622   0.2676 H              1 S1                 0.0000
     26 ****        -5.8686   0.9516   0.3006 H              1 S1                 0.0000
     27 ****        -1.3311  -3.2875   0.1283 H              1 S1                 0.0000
     28 ****         3.6740   0.3625   1.6956 H              1 S1                 0.0000
     29 ****         4.0505   1.5211   0.4276 H              1 S1                 0.0000
     30 ****         3.4897   2.5315   2.3732 H              1 S1                 0.0000
     31 ****         4.4038  -0.4981  -0.5433 H              1 S1                 0.0000
     32 ****        -0.3450  -0.9401  -2.2850 H              1 S1                 0.0000
     33 ****        -4.1851   2.4921   0.2626 LP             1 S1                 0.0000
     34 ****        -0.2051   1.5355   0.1508 LP             1 S1                 0.0000
     35 ****        -3.7085  -2.5251   0.2000 LP             1 S1                 0.0000
     36 ****         1.8414  -0.7638   1.6297 LP             1 S1                 0.0000
     37 ****         0.5477   0.1955   1.3604 LP             1 S1                 0.0000
     38 ****         2.0311   1.8997   2.4287 LP             1 S1                 0.0000
     39 ****         2.4475   2.9446   1.2449 LP             1 S1                 0.0000
     40 ****         3.8800  -1.6379  -1.5216 LP             1 S1                 0.0000
     41 ****         3.4598  -1.6294   0.0564 LP             1 S1                 0.0000
     42 ****         0.8838  -0.3840  -3.1287 LP             1 S1                 0.0000
     43 ****         0.2547   0.4807  -1.8946 LP             1 S1                 0.0000
@<TRIPOS>BOND
    1    1    2 1     
    2    1   25 1     
    3    1   26 1     
    4    2    8 ar    
    5    2    3 ar    
    6    3    4 ar    
    7    4    5 1     
    8    4    6 ar    
    9    6    7 ar    
   10    7   11 1     
   11    7    8 ar    
   12    8    9 1     
   13    9   10 2     
   14   10   11 1     
   15   10   27 1     
   16   11   12 1     
   17   12   21 1     
   18   12   19 1     
   19   12   13 1     
   20   13   14 1     
   21   14   22 1     
   22   14   15 1     
   23   14   17 1     
   24   15   16 1     
   25   15   28 1     
   26   15   29 1     
   27   16   30 1     
   28   17   23 1     
   29   17   18 1     
   30   17   19 1     
   31   18   31 1     
   32   19   24 1     
   33   19   20 1     
   34   20   32 1     
   35    3   33 1     
   36    6   34 1     
   37    9   35 1     
   38   13   36 1     
   39   13   37 1     
   40   16   38 1     
   41   16   39 1     
   42   18   40 1     
   43   18   41 1     
   44   20   42 1     
   45   20   43 1     
@<TRIPOS>SUBSTRUCTURE
      1 S1             1
@<TRIPOS>SET
LONE_PAIRS      STATIC     ATOMS    <user>   **** ""
11 33 34 35 36 37 38 39 40 41 42 43
DONOR_HYDROGENS      STATIC     ATOMS    <user>   **** ""
5 25 26 30 31 32
ATOM$BLUE        STATIC     ATOMS    COLORGROUP SYSTEM
11 33 34 35 36 37 38 39 40 41 42 43
ATOM$RED        STATIC     ATOMS    COLORGROUP SYSTEM
5 25 26 30 31 32
