AV-unprocessed.smi:1840|AV-procd|sdf|7488|dock9
  -GOLD-   22720 9183D 1   1.00000     0.00000
 Structure written by MMmdl.
 43 44  0  0  0  0  0  0  0  0  1 V2000
  144.3794  135.3875  153.0523 C   0  0  0  0  0  0  0  0  0  0  0  0
  144.9782  136.3282  151.9896 C   0  0  2  0  0  0  0  0  0  0  0  0
  145.1237  135.6629  150.6054 C   0  0  0  0  0  0  0  0  0  0  0  0
  145.2103  134.2151  150.6753 N   0  0  0  0  0  0  0  0  0  0  0  0
  144.2648  133.2806  150.3076 C   0  0  0  0  0  0  0  0  0  0  0  0
  144.7941  132.0471  150.5583 C   0  0  0  0  0  0  0  0  0  0  0  0
  146.0825  132.3339  151.0892 C   0  0  0  0  0  0  0  0  0  0  0  0
  146.3270  133.6324  151.1626 N   0  0  0  0  0  0  0  0  0  0  0  0
  146.2857  136.8115  152.4255 N   0  0  0  0  0  0  0  0  0  0  0  0
  146.4951  137.7546  153.3549 C   0  0  0  0  0  0  0  0  0  0  0  0
  145.5957  138.3453  153.9529 O   0  0  0  0  0  0  0  0  0  0  0  0
  147.8036  137.9635  153.5590 N   0  0  0  0  0  0  0  0  0  0  0  0
  148.3815  138.8971  154.5247 C   0  0  2  0  0  0  0  0  0  0  0  0
  147.6883  140.2659  154.3763 C   0  0  0  0  0  0  0  0  0  0  0  0
  148.2976  141.3148  155.3176 C   0  0  0  0  0  0  0  0  0  0  0  0
  149.8102  141.4428  155.0919 C   0  0  0  0  0  0  0  0  0  0  0  0
  150.5085  140.0841  155.2542 C   0  0  0  0  0  0  0  0  0  0  0  0
  149.9127  139.0132  154.3178 C   0  0  1  0  0  0  0  0  0  0  0  0
  150.6359  137.6671  154.5055 C   0  0  0  0  0  0  0  0  0  0  0  0
  143.3718  135.0699  152.7831 H   0  0  0  0  0  0  0  0  0  0  0  0
  144.3102  135.8801  154.0228 H   0  0  0  0  0  0  0  0  0  0  0  0
  144.9895  134.4924  153.1766 H   0  0  0  0  0  0  0  0  0  0  0  0
  144.3102  137.1847  151.8790 H   0  0  0  0  0  0  0  0  0  0  0  0
  144.2773  135.9244  149.9682 H   0  0  0  0  0  0  0  0  0  0  0  0
  146.0179  136.0339  150.1018 H   0  0  0  0  0  0  0  0  0  0  0  0
  143.3067  133.5674  149.8998 H   0  0  0  0  0  0  0  0  0  0  0  0
  144.3313  131.0863  150.3887 H   0  0  0  0  0  0  0  0  0  0  0  0
  146.8416  131.6418  151.4231 H   0  0  0  0  0  0  0  0  0  0  0  0
  147.0924  136.3865  151.9924 H   0  0  0  0  0  0  0  0  0  0  0  0
  148.4570  137.4224  153.0122 H   0  0  0  0  0  0  0  0  0  0  0  0
  148.2063  138.5416  155.5420 H   0  0  0  0  0  0  0  0  0  0  0  0
  147.7738  140.6143  153.3460 H   0  0  0  0  0  0  0  0  0  0  0  0
  146.6213  140.1676  154.5809 H   0  0  0  0  0  0  0  0  0  0  0  0
  147.8145  142.2800  155.1627 H   0  0  0  0  0  0  0  0  0  0  0  0
  148.1037  141.0339  156.3534 H   0  0  0  0  0  0  0  0  0  0  0  0
  150.0010  141.8372  154.0928 H   0  0  0  0  0  0  0  0  0  0  0  0
  150.2306  142.1628  155.7948 H   0  0  0  0  0  0  0  0  0  0  0  0
  151.5749  140.1999  155.0570 H   0  0  0  0  0  0  0  0  0  0  0  0
  150.4218  139.7550  156.2907 H   0  0  0  0  0  0  0  0  0  0  0  0
  150.0921  139.3394  153.2919 H   0  0  0  0  0  0  0  0  0  0  0  0
  150.4614  137.2606  155.5021 H   0  0  0  0  0  0  0  0  0  0  0  0
  151.7127  137.7791  154.3759 H   0  0  0  0  0  0  0  0  0  0  0  0
  150.3002  136.9248  153.7813 H   0  0  0  0  0  0  0  0  0  0  0  0
  1  2  1  0  0  0  0
  1 20  1  0  0  0  0
  1 21  1  0  0  0  0
  1 22  1  0  0  0  0
  2  3  1  0  0  0  0
  2  9  1  0  0  0  0
  2 23  1  0  0  0  0
  3  4  1  0  0  0  0
  3 24  1  0  0  0  0
  3 25  1  0  0  0  0
  4  8  1  0  0  0  0
  4  5  1  0  0  0  0
  5  6  2  0  0  0  0
  5 26  1  0  0  0  0
  6  7  1  0  0  0  0
  6 27  1  0  0  0  0
  7  8  2  0  0  0  0
  7 28  1  0  0  0  0
  9 10  1  0  0  0  0
  9 29  1  0  0  0  0
 10 11  2  0  0  0  0
 10 12  1  0  0  0  0
 12 13  1  0  0  0  0
 12 30  1  0  0  0  0
 13 18  1  0  0  0  0
 13 14  1  0  0  0  0
 13 31  1  0  0  0  0
 14 15  1  0  0  0  0
 14 32  1  0  0  0  0
 14 33  1  0  0  0  0
 15 16  1  0  0  0  0
 15 34  1  0  0  0  0
 15 35  1  0  0  0  0
 16 17  1  0  0  0  0
 16 36  1  0  0  0  0
 16 37  1  0  0  0  0
 17 18  1  0  0  0  0
 17 38  1  0  0  0  0
 17 39  1  0  0  0  0
 18 19  1  0  0  0  0
 18 40  1  0  0  0  0
 19 41  1  0  0  0  0
 19 42  1  0  0  0  0
 19 43  1  0  0  0  0
M  END
> <s_m_source_file>
AV-unprocessed.smi

> <i_m_source_file_index>
1840

> <i_lp_mmshare_version>
43012

> <i_f3d_flags>
0

> <s_epik_input>
bjFbY0hdW2NIXVtjSF1uMVtDSDJdW0NAQEhdKFtDSDNdKVtOSF1DKD1PKVtOSF1bQ0BASF0yW0NIMl1bQ0gyXVtDSDJdW0NIMl1bQ0BIXTJbQ0gzXQ==

> <s_epik_cmdline>
J2VwaWtfcHl0aG9uJywgJy1waCcsICc3LjAnLCAnLXRuJywgJzgnLCAnLW1hJywgJzIwMCcsICctbWV0YWxfYmluZGluZycsICctaW1hZScsICc8aW5maWxlLm1hZT4nLCAnLW9tYWUnLCAnPG91dGZpbGUubWFlPic=

> <r_lp_tautomer_probability>
1

> <r_epik_Ionization_Penalty>
7.38659e-05

> <r_epik_Ionization_Penalty_Charging>
0

> <r_epik_Ionization_Penalty_Neutral>
7.38659e-05

> <r_epik_State_Penalty>
-0

> <r_epik_Charging_Adjusted_Penalty>
0

> <i_epik_Tot_Q>
0

> <i_epik_Tot_abs_Q>
0

> <r_epik_Metal_State_Penalty>
-0

> <b_epik_Metal_Only>
0

> <s_lp_Force_Field>
OPLS_2005

> <r_lp_Energy>
8.70276

> <b_lp_Chiralities_Consistent>
1

> <s_lp_Variant>
AV-unprocessed.smi:1840-1

> <Gold.Version>
5.8.1

> <Gold.Id.Protein>
6NUR|6NUR_protein|mol2

> <Gold.PLP.Fitness>
43.7882

> <Gold.PLP.PLP>
-33.7213

> <Gold.PLP.part.hbond>
-2.0000

> <Gold.PLP.part.metal>
0.0000

> <Gold.PLP.part.buried>
-3.9459

> <Gold.PLP.part.nonpolar>
-28.5623

> <Gold.PLP.part.repulsive>
0.3918

> <Gold.PLP.ligand.clash>
0.0000

> <Gold.PLP.ligand.torsion>
0.9796

> <Gold.PLP.Chemscore.Hbond>
2.0000

> <Gold.PLP.Chemscore.CHOScore>
2.0000

> <Gold.PLP.Chemscore.Metal>
0.0000

> <Gold.Chemscore.Hbonds>
donor molecule, donor type, donor heavy atom, donor atom, acceptor molecule, acceptor atom, score
      L1  H     9    29       P1  7948  1.00
      L1  H    12    30       P1  7948  1.00
      L1  C     5    26       P1 10186  1.00
      L1  C     7    28       P1 10747  0.95

> <Gold.PLP.Chemscore.Internal.Correction>
0.0260

> <Gold.Rescore>
     Score         DG    S(hbond)    S(metal)    S(lipo)     H(rot)  DE(clash)    DE(int)     intcor
     15.80     -18.11       1.91        0.00      87.37       1.56       0.09       2.22       ----

> <Gold.Chemscore.Fitness>
15.8002

> <Gold.Chemscore.DG>
-18.1085

> <Gold.Chemscore.ZeroCoef>
-5.4800

> <Gold.Chemscore.Hbond>
1.9142

> <Gold.Chemscore.Metal>
0.0000

> <Gold.Chemscore.Lipo>
87.3736

> <Gold.Chemscore.Internal_Hbond>
0.0000

> <Gold.Chemscore.DEClash>
0.0853

> <Gold.Chemscore.DEInternal>
2.2230

> <Gold.Chemscore.Rot>
1.5576

> <Gold.Chemscore.Internal.Correction>
   9.000000E+99

> <Gold.Chemscore.Hbonds>
donor molecule, donor type, donor heavy atom, donor atom, acceptor molecule, acceptor atom, score
      L1  H     9    29       P1  7948  0.95
      L1  H    12    30       P1  7948  0.99

> <Gold.Chemscore.Hbond.Weighted>
-6.3933

> <Gold.Chemscore.Metal.Weighted>
-0.0000

> <Gold.Chemscore.Lipo.Weighted>
-10.2227

> <Gold.Chemscore.Internal_Hbond.Weighted>
0.0000

> <Gold.Chemscore.DEClash.Weighted>
0.0853

> <Gold.Chemscore.DEInternal.Weighted>
2.2230

> <Gold.Chemscore.Rot.Weighted>
3.9875

> <Gold.Chemscore.Internal.Correction.Weighted>
   9.000000E+99

> <Gold.Protein.RotatedTorsions>
[ 6907 6896 6895 6894 ] final  -82.39 input  -60.11 | X-H torsion
[ 7974 7965 7964 7962 ] final -117.48 input  175.53 | X-H torsion
[ 8008 7997 7996 7995 ] final  -71.94 input   59.86 | X-H torsion
[ 10167 10162 10161 10158 ] final   19.12 input  -65.29 | X-H torsion
[ 10718 10713 10712 10709 ] final  168.51 input   66.30 | X-H torsion
[ 10763 10752 10751 10750 ] final  -52.34 input  -60.55 | X-H torsion
[ 11005 11000 10999 10996 ] final  -52.29 input  -57.11 | X-H torsion

> <Gold.Protein.ActiveResidues>
 VAL166  LYS551  ARG553  GLY616  TRP617  ASP618  TYR619  PRO620  LYS621  CYS622 
 ASP623  PHE694  ASN695  SER759  ASP760  ASP761  ALA762  ILE779  LEU786  VAL792 
 PHE793  MET794  SER795  GLU796  ALA797  LYS798  CYS799  TRP800  GLU811  SER814 

> <Gold.Protein.RotatedAtoms>
  150.6898  134.3672  159.4975 H   0  0  0  0  0  0  0  0  0  0  0  0  # atno 6907 bound_to 6896
  152.1493  134.8998  160.0558 H   0  0  0  0  0  0  0  0  0  0  0  0  # atno 6908 bound_to 6896
  152.0102  133.3824  159.4254 H   0  0  0  0  0  0  0  0  0  0  0  0  # atno 6909 bound_to 6896
  145.0848  140.8450  143.4017 H   0  0  0  0  0  0  0  0  0  0  0  0  # atno 7974 bound_to 7965
  154.5127  140.0806  156.8022 H   0  0  0  0  0  0  0  0  0  0  0  0  # atno 8008 bound_to 7997
  155.3748  140.3425  155.4226 H   0  0  0  0  0  0  0  0  0  0  0  0  # atno 8009 bound_to 7997
  156.1592  140.1583  156.8628 H   0  0  0  0  0  0  0  0  0  0  0  0  # atno 8010 bound_to 7997
  140.5603  143.9350  150.6637 H   0  0  0  0  0  0  0  0  0  0  0  0  # atno 10167 bound_to 10162
  157.0360  131.0273  151.2729 H   0  0  0  0  0  0  0  0  0  0  0  0  # atno 10718 bound_to 10713
  154.1411  135.6505  153.4942 H   0  0  0  0  0  0  0  0  0  0  0  0  # atno 10763 bound_to 10752
  153.0165  135.5316  154.6903 H   0  0  0  0  0  0  0  0  0  0  0  0  # atno 10764 bound_to 10752
  154.6165  135.2960  155.0345 H   0  0  0  0  0  0  0  0  0  0  0  0  # atno 10765 bound_to 10752
  141.0916  133.6631  156.4002 H   0  0  0  0  0  0  0  0  0  0  0  0  # atno 11005 bound_to 11000
  145.1135  139.2741  143.5625 LP  0  0  0  0  0  0  0  0  0  0  0  0  # atno 17320 bound_to 7965
  146.3531  140.0738  142.8621 LP  0  0  0  0  0  0  0  0  0  0  0  0  # atno 17321 bound_to 7965
  140.2799  143.3397  152.1161 LP  0  0  0  0  0  0  0  0  0  0  0  0  # atno 17342 bound_to 10162
  139.5067  144.6818  151.5989 LP  0  0  0  0  0  0  0  0  0  0  0  0  # atno 17343 bound_to 10162
  157.5141  130.7957  149.7737 LP  0  0  0  0  0  0  0  0  0  0  0  0  # atno 17370 bound_to 10713
  156.0053  130.3858  150.2452 LP  0  0  0  0  0  0  0  0  0  0  0  0  # atno 17371 bound_to 10713
  140.5238  134.6279  157.5327 LP  0  0  0  0  0  0  0  0  0  0  0  0  # atno 17394 bound_to 11000
  139.9743  134.7240  155.9979 LP  0  0  0  0  0  0  0  0  0  0  0  0  # atno 17395 bound_to 11000

$$$$
