AV-unprocessed.smi:500|AV-procd|sdf|2740|dock8
  -GOLD-   2262023203D 1   1.00000     0.00000
 Structure written by MMmdl.
 45 47  0  0  0  0  0  0  0  0  3 V2000
  139.3685  136.9835  154.3620 C   0  0  0  0  0  0  0  0  0  0  0  0
  140.8836  136.7689  154.3632 C   0  0  0  0  0  0  0  0  0  0  0  0
  141.1476  135.3793  154.2387 O   0  0  0  0  0  0  0  0  0  0  0  0
  142.4681  135.0699  153.8155 C   0  0  0  0  0  0  0  0  0  0  0  0
  142.9357  135.9927  152.6771 C   0  0  0  0  0  0  0  0  0  0  0  0
  144.2852  135.6289  152.2038 N   0  0  0  0  0  0  0  0  0  0  0  0
  145.4802  136.3026  152.2413 C   0  0  0  0  0  0  0  0  0  0  0  0
  145.7684  137.6757  152.7951 C   0  0  2  0  0  0  0  0  0  0  0  0
  146.6619  138.4579  151.8233 C   0  0  0  0  0  0  0  0  0  0  0  0
  146.4213  137.6153  154.1044 N   0  5  0  0  0  0  0  0  0  0  0  0
  146.3852  138.6221  155.0235 C   0  0  0  0  0  0  0  0  0  0  0  0
  145.6717  138.7477  156.0248 O   0  0  0  0  0  0  0  0  0  0  0  0
  147.3753  139.6859  154.7334 C   0  0  0  0  0  0  0  0  0  0  0  0
  148.5371  139.6335  154.0092 C   0  0  0  0  0  0  0  0  0  0  0  0
  149.1050  140.9372  154.0464 C   0  0  0  0  0  0  0  0  0  0  0  0
  148.2499  141.6980  154.7901 C   0  0  0  0  0  0  0  0  0  0  0  0
  147.1934  140.9542  155.2154 O   0  0  0  0  0  0  0  0  0  0  0  0
  146.4092  135.4916  151.6570 N   0  3  0  0  0  0  0  0  0  0  0  0
  145.8227  134.2900  151.2662 C   0  0  0  0  0  0  0  0  0  0  0  0
  146.3688  133.1683  150.6511 C   0  0  0  0  0  0  0  0  0  0  0  0
  145.4884  132.0975  150.3923 C   0  0  0  0  0  0  0  0  0  0  0  0
  144.1248  132.1680  150.7437 C   0  0  0  0  0  0  0  0  0  0  0  0
  143.5835  133.3118  151.3668 C   0  0  0  0  0  0  0  0  0  0  0  0
  144.4603  134.3681  151.6170 C   0  0  0  0  0  0  0  0  0  0  0  0
  139.1249  138.0418  154.4565 H   0  0  0  0  0  0  0  0  0  0  0  0
  138.8979  136.4562  155.1922 H   0  0  0  0  0  0  0  0  0  0  0  0
  138.9222  136.6185  153.4366 H   0  0  0  0  0  0  0  0  0  0  0  0
  141.3335  137.3152  153.5331 H   0  0  0  0  0  0  0  0  0  0  0  0
  141.3067  137.1634  155.2868 H   0  0  0  0  0  0  0  0  0  0  0  0
  143.1246  135.2090  154.6752 H   0  0  0  0  0  0  0  0  0  0  0  0
  142.5487  134.0187  153.5346 H   0  0  0  0  0  0  0  0  0  0  0  0
  142.2530  135.9718  151.8284 H   0  0  0  0  0  0  0  0  0  0  0  0
  142.9543  137.0287  153.0156 H   0  0  0  0  0  0  0  0  0  0  0  0
  144.8186  138.2080  152.8617 H   0  0  0  0  0  0  0  0  0  0  0  0
  146.1866  138.5497  150.8464 H   0  0  0  0  0  0  0  0  0  0  0  0
  147.6245  137.9653  151.6794 H   0  0  0  0  0  0  0  0  0  0  0  0
  146.8548  139.4669  152.1894 H   0  0  0  0  0  0  0  0  0  0  0  0
  148.9311  138.7591  153.5124 H   0  0  0  0  0  0  0  0  0  0  0  0
  150.0222  141.2750  153.5873 H   0  0  0  0  0  0  0  0  0  0  0  0
  148.2402  142.7325  155.0998 H   0  0  0  0  0  0  0  0  0  0  0  0
  147.4143  133.1134  150.3858 H   0  0  0  0  0  0  0  0  0  0  0  0
  145.8674  131.2043  149.9172 H   0  0  0  0  0  0  0  0  0  0  0  0
  143.4804  131.3273  150.5321 H   0  0  0  0  0  0  0  0  0  0  0  0
  142.5384  133.3522  151.6355 H   0  0  0  0  0  0  0  0  0  0  0  0
  147.3825  135.7514  151.5604 H   0  0  0  0  0  0  0  0  0  0  0  0
  1  2  1  0  0  0  0
  1 25  1  0  0  0  0
  1 26  1  0  0  0  0
  1 27  1  0  0  0  0
  2  3  1  0  0  0  0
  2 28  1  0  0  0  0
  2 29  1  0  0  0  0
  3  4  1  0  0  0  0
  4  5  1  0  0  0  0
  4 30  1  0  0  0  0
  4 31  1  0  0  0  0
  5  6  1  0  0  0  0
  5 32  1  0  0  0  0
  5 33  1  0  0  0  0
  6 24  1  0  0  0  0
  6  7  1  0  0  0  0
  7  8  1  0  0  0  0
  7 18  2  0  0  0  0
  8  9  1  0  0  0  0
  8 10  1  0  0  0  0
  8 34  1  0  0  0  0
  9 35  1  0  0  0  0
  9 36  1  0  0  0  0
  9 37  1  0  0  0  0
 10 11  1  0  0  0  0
 11 12  2  0  0  0  0
 11 13  1  0  0  0  0
 13 17  1  0  0  0  0
 13 14  2  0  0  0  0
 14 15  1  0  0  0  0
 14 38  1  0  0  0  0
 15 16  2  0  0  0  0
 15 39  1  0  0  0  0
 16 17  1  0  0  0  0
 16 40  1  0  0  0  0
 18 19  1  0  0  0  0
 18 45  1  0  0  0  0
 19 24  2  0  0  0  0
 19 20  1  0  0  0  0
 20 21  2  0  0  0  0
 20 41  1  0  0  0  0
 21 22  1  0  0  0  0
 21 42  1  0  0  0  0
 22 23  2  0  0  0  0
 22 43  1  0  0  0  0
 23 24  1  0  0  0  0
 23 44  1  0  0  0  0
M  CHG  1  10  -1
M  CHG  1  18   1
M  END
> <s_m_source_file>
AV-unprocessed.smi

> <i_m_source_file_index>
500

> <i_lp_mmshare_version>
43012

> <i_f3d_flags>
0

> <s_epik_input>
W0NIM11bQ0gyXU9bQ0gyXVtDSDJdbihjKGMxMilbY0hdW2NIXVtjSF1bY0hdMiljKG4xKVtDQEhdKFtDSDNdKVtOSF1DKD1PKWMzW2NIXVtjSF1bY0hdbzM=

> <s_epik_cmdline>
J2VwaWtfcHl0aG9uJywgJy1waCcsICc3LjAnLCAnLXRuJywgJzgnLCAnLW1hJywgJzIwMCcsICctbWV0YWxfYmluZGluZycsICctaW1hZScsICc8aW5maWxlLm1hZT4nLCAnLW9tYWUnLCAnPG91dGZpbGUubWFlPic=

> <r_epik_Ionization_Penalty>
6.22753

> <r_epik_Ionization_Penalty_Charging>
6.22753

> <r_epik_Ionization_Penalty_Neutral>
2.56065e-12

> <r_epik_State_Penalty>
7.17947

> <r_epik_Charging_Adjusted_Penalty>
13.407

> <i_epik_Tot_Q>
0

> <i_epik_Tot_abs_Q>
2

> <r_epik_Metal_State_Penalty>
3.2092

> <b_epik_Metal_Only>
1

> <s_lp_Force_Field>
OPLS_2005

> <r_lp_Energy>
11.6209

> <b_lp_Chiralities_Consistent>
1

> <s_lp_Variant>
AV-unprocessed.smi:500-7

> <Gold.Version>
5.8.1

> <Gold.Id.Protein>
6NUR|6NUR_protein|mol2

> <Gold.PLP.Fitness>
53.1848

> <Gold.PLP.PLP>
-44.8590

> <Gold.PLP.part.hbond>
-2.0000

> <Gold.PLP.part.metal>
0.0000

> <Gold.PLP.part.buried>
-7.1155

> <Gold.PLP.part.nonpolar>
-37.5583

> <Gold.PLP.part.repulsive>
0.4455

> <Gold.PLP.ligand.clash>
0.0000

> <Gold.PLP.ligand.torsion>
1.9073

> <Gold.PLP.Chemscore.Hbond>
2.9913

> <Gold.PLP.Chemscore.CHOScore>
1.0000

> <Gold.PLP.Chemscore.Metal>
0.0000

> <Gold.Chemscore.Hbonds>
donor molecule, donor type, donor heavy atom, donor atom, acceptor molecule, acceptor atom, score
      L1  H    18    45       P1  7948  2.00
      P1  H 11000 11005       L1     3  0.90
      L1  C    16    40       P1  8028  1.00

> <Gold.PLP.Chemscore.Internal.Correction>
0.1666

> <Gold.Rescore>
     Score         DG    S(hbond)    S(metal)    S(lipo)     H(rot)  DE(clash)    DE(int)     intcor
     16.19     -18.17       1.68        0.00     102.00       1.90       0.10       1.87       ----

> <Gold.Chemscore.Fitness>
16.1948

> <Gold.Chemscore.DG>
-18.1715

> <Gold.Chemscore.ZeroCoef>
-5.4800

> <Gold.Chemscore.Hbond>
1.6827

> <Gold.Chemscore.Metal>
0.0000

> <Gold.Chemscore.Lipo>
101.9969

> <Gold.Chemscore.Internal_Hbond>
0.0000

> <Gold.Chemscore.DEClash>
0.1027

> <Gold.Chemscore.DEInternal>
1.8740

> <Gold.Chemscore.Rot>
1.8993

> <Gold.Chemscore.Internal.Correction>
   9.000000E+99

> <Gold.Chemscore.Hbonds>
donor molecule, donor type, donor heavy atom, donor atom, acceptor molecule, acceptor atom, score
      L1  H    18    45       P1  7948  0.99
      P1  H 11000 11005       L1     3  0.69

> <Gold.Chemscore.Hbond.Weighted>
-5.6201

> <Gold.Chemscore.Metal.Weighted>
-0.0000

> <Gold.Chemscore.Lipo.Weighted>
-11.9336

> <Gold.Chemscore.Internal_Hbond.Weighted>
0.0000

> <Gold.Chemscore.DEClash.Weighted>
0.1027

> <Gold.Chemscore.DEInternal.Weighted>
1.8740

> <Gold.Chemscore.Rot.Weighted>
4.8622

> <Gold.Chemscore.Internal.Correction.Weighted>
   9.000000E+99

> <Gold.Protein.RotatedTorsions>
[ 6907 6896 6895 6894 ] final   76.91 input  -60.11 | X-H torsion
[ 7974 7965 7964 7962 ] final  -16.11 input  175.53 | X-H torsion
[ 8008 7997 7996 7995 ] final  -90.98 input   59.86 | X-H torsion
[ 10167 10162 10161 10158 ] final  137.18 input  -65.29 | X-H torsion
[ 10718 10713 10712 10709 ] final   79.22 input   66.30 | X-H torsion
[ 10763 10752 10751 10750 ] final  -44.65 input  -60.55 | X-H torsion
[ 11005 11000 10999 10996 ] final   28.30 input  -57.11 | X-H torsion

> <Gold.Protein.ActiveResidues>
 VAL166  LYS551  ARG553  GLY616  TRP617  ASP618  TYR619  PRO620  LYS621  CYS622 
 ASP623  PHE694  ASN695  SER759  ASP760  ASP761  ALA762  ILE779  LEU786  VAL792 
 PHE793  MET794  SER795  GLU796  ALA797  LYS798  CYS799  TRP800  GLU811  SER814 

> <Gold.Protein.RotatedAtoms>
  152.5094  134.3897  159.9379 H   0  0  0  0  0  0  0  0  0  0  0  0  # atno 6907 bound_to 6896
  151.3857  133.3800  159.2723 H   0  0  0  0  0  0  0  0  0  0  0  0  # atno 6908 bound_to 6896
  150.9471  134.8895  159.7707 H   0  0  0  0  0  0  0  0  0  0  0  0  # atno 6909 bound_to 6896
  146.2002  140.3589  142.8426 H   0  0  0  0  0  0  0  0  0  0  0  0  # atno 7974 bound_to 7965
  154.7052  140.0524  157.0497 H   0  0  0  0  0  0  0  0  0  0  0  0  # atno 8008 bound_to 7997
  155.0630  140.3191  155.4635 H   0  0  0  0  0  0  0  0  0  0  0  0  # atno 8009 bound_to 7997
  156.2772  140.2095  156.5757 H   0  0  0  0  0  0  0  0  0  0  0  0  # atno 8010 bound_to 7997
  139.5153  144.6424  151.5533 H   0  0  0  0  0  0  0  0  0  0  0  0  # atno 10167 bound_to 10162
  157.6770  130.9904  150.1900 H   0  0  0  0  0  0  0  0  0  0  0  0  # atno 10718 bound_to 10713
  154.0156  135.6676  153.4768 H   0  0  0  0  0  0  0  0  0  0  0  0  # atno 10763 bound_to 10752
  153.0602  135.5032  154.8072 H   0  0  0  0  0  0  0  0  0  0  0  0  # atno 10764 bound_to 10752
  154.6969  135.3071  154.9363 H   0  0  0  0  0  0  0  0  0  0  0  0  # atno 10765 bound_to 10752
  140.3171  134.2585  155.7723 H   0  0  0  0  0  0  0  0  0  0  0  0  # atno 11005 bound_to 11000
  144.8667  140.7216  143.6073 LP  0  0  0  0  0  0  0  0  0  0  0  0  # atno 17320 bound_to 7965
  145.3509  139.1706  143.4435 LP  0  0  0  0  0  0  0  0  0  0  0  0  # atno 17321 bound_to 7965
  140.6196  143.9284  150.6515 LP  0  0  0  0  0  0  0  0  0  0  0  0  # atno 17342 bound_to 10162
  140.2553  143.3563  152.1370 LP  0  0  0  0  0  0  0  0  0  0  0  0  # atno 17343 bound_to 10162
  156.2613  130.3711  149.8127 LP  0  0  0  0  0  0  0  0  0  0  0  0  # atno 17370 bound_to 10713
  156.5871  130.8490  151.3398 LP  0  0  0  0  0  0  0  0  0  0  0  0  # atno 17371 bound_to 10713
  141.2095  133.7747  156.9992 LP  0  0  0  0  0  0  0  0  0  0  0  0  # atno 17394 bound_to 11000
  140.0974  134.9556  157.1870 LP  0  0  0  0  0  0  0  0  0  0  0  0  # atno 17395 bound_to 11000

$$$$
