#       Name:                AV-unprocessed.smi:2501
#       Creating user name   scv26
#       Creation time:       Fri Mar 27 13:46:55 2020


#       File generated by GOLD software.
#

@<TRIPOS>MOLECULE
AV-unprocessed.smi:2501
    48    49     1
SMALL
NO_CHARGES


@<TRIPOS>ATOM
      1 ****        -2.9053   1.7661   2.5552 C.3            1 S1                 0.0000
      2 ****        -4.0179   1.5709   1.5404 C.ar           1 S1                 0.0000
      3 ****        -5.3623   1.7548   1.9312 C.ar           1 S1                 0.0000
      4 ****        -6.4114   1.6042   1.0955 N.ar           1 S1                 0.0000
      5 ****        -6.1537   1.2576  -0.1824 C.ar           1 S1                 0.0000
      6 ****        -4.8526   1.0489  -0.6793 C.ar           1 S1                 0.0000
      7 ****        -3.7572   1.2087   0.1952 C.ar           1 S1                 0.0000
      8 ****        -2.3467   0.9855  -0.3274 C.3            1 S1                 0.0000
      9 ****        -1.8779  -0.4640  -0.1393 C.3            1 S1                 0.0000
     10 ****        -0.5261  -0.6336  -0.6550 N.am           1 S1                 0.0000
     11 ****         0.2990  -1.6433  -0.3340 C.2            1 S1                 0.0000
     12 ****        -0.0371  -2.5400   0.4407 O.2            1 S1                 0.0000
     13 ****         1.5178  -1.5936  -0.9296 N.am           1 S1                 0.0000
     14 ****         2.0316  -0.5118  -1.7854 C.3            1 S1                 0.0000
     15 ****         3.0902   0.2844  -0.9984 C.3            1 S1                 0.0000
     16 ****         4.2312  -0.6198  -0.4626 C.3            1 S1                 0.0000
     17 ****         5.0049  -1.0407  -1.5729 O.3            1 S1                 0.0000
     18 ****         5.1787   0.1578   0.4824 C.3            1 S1                 0.0000
     19 ****         4.5077   0.5944   1.5489 F              1 S1                 0.0000
     20 ****         6.1699  -0.6268   0.9077 F              1 S1                 0.0000
     21 ****         5.6981   1.2157  -0.1427 F              1 S1                 0.0000
     22 ****         3.6576  -1.8891   0.2190 C.3            1 S1                 0.0000
     23 ****         2.5700  -2.5720  -0.6331 C.3            1 S1                 0.0000
     24 ****        -3.3085   1.9422   3.5529 H              1 S1                 0.0000
     25 ****        -2.2909   2.6254   2.2857 H              1 S1                 0.0000
     26 ****        -2.2667   0.8846   2.6072 H              1 S1                 0.0000
     27 ****        -5.6066   2.0328   2.9460 H              1 S1                 0.0000
     28 ****        -7.0106   1.1424  -0.8295 H              1 S1                 0.0000
     29 ****        -4.7024   0.7708  -1.7122 H              1 S1                 0.0000
     30 ****        -2.3220   1.2439  -1.3871 H              1 S1                 0.0000
     31 ****        -1.6563   1.6740   0.1602 H              1 S1                 0.0000
     32 ****        -1.9118  -0.7322   0.9176 H              1 S1                 0.0000
     33 ****        -2.5450  -1.1485  -0.6649 H              1 S1                 0.0000
     34 ****        -0.1896   0.0672  -1.2992 H              1 S1                 0.0000
     35 ****         2.4785  -0.9465  -2.6807 H              1 S1                 0.0000
     36 ****         1.2607   0.1644  -2.1549 H              1 S1                 0.0000
     37 ****         3.4967   1.0797  -1.6243 H              1 S1                 0.0000
     38 ****         2.5963   0.7812  -0.1625 H              1 S1                 0.0000
     39 ****         5.4009  -0.2785  -1.9672 H              1 S1                 0.0000
     40 ****         4.4572  -2.5983   0.4366 H              1 S1                 0.0000
     41 ****         3.2231  -1.6195   1.1824 H              1 S1                 0.0000
     42 ****         2.1923  -3.4539  -0.1139 H              1 S1                 0.0000
     43 ****         2.9958  -2.9435  -1.5662 H              1 S1                 0.0000
     44 ****        -7.3490   1.7449   1.4133 LP             1 S1                 0.0000
     45 ****        -0.9488  -2.5302   0.8515 LP             1 S1                 0.0000
     46 ****         0.6017  -3.2779   0.6588 LP             1 S1                 0.0000
     47 ****         4.4172  -1.4990  -2.2397 LP             1 S1                 0.0000
     48 ****         5.7179  -1.6720  -1.2677 LP             1 S1                 0.0000
@<TRIPOS>BOND
    1    1    2 1     
    2    1   24 1     
    3    1   25 1     
    4    1   26 1     
    5    2    7 ar    
    6    2    3 ar    
    7    3    4 ar    
    8    3   27 1     
    9    4    5 ar    
   10    5    6 ar    
   11    5   28 1     
   12    6    7 ar    
   13    6   29 1     
   14    7    8 1     
   15    8    9 1     
   16    8   30 1     
   17    8   31 1     
   18    9   10 1     
   19    9   32 1     
   20    9   33 1     
   21   10   11 am    
   22   10   34 1     
   23   11   12 2     
   24   11   13 am    
   25   13   23 1     
   26   13   14 1     
   27   14   15 1     
   28   14   35 1     
   29   14   36 1     
   30   15   16 1     
   31   15   37 1     
   32   15   38 1     
   33   16   17 1     
   34   16   18 1     
   35   16   22 1     
   36   17   39 1     
   37   18   19 1     
   38   18   20 1     
   39   18   21 1     
   40   22   23 1     
   41   22   40 1     
   42   22   41 1     
   43   23   42 1     
   44   23   43 1     
   45    4   44 1     
   46   12   45 1     
   47   12   46 1     
   48   17   47 1     
   49   17   48 1     
@<TRIPOS>SUBSTRUCTURE
      1 S1             1
@<TRIPOS>SET
LONE_PAIRS      STATIC     ATOMS    <user>   **** ""
5 44 45 46 47 48
DONOR_HYDROGENS      STATIC     ATOMS    <user>   **** ""
2 34 39
ATOM$BLUE        STATIC     ATOMS    COLORGROUP SYSTEM
5 44 45 46 47 48
ATOM$RED        STATIC     ATOMS    COLORGROUP SYSTEM
2 34 39
