AV-unprocessed.smi:607|AV-procd|sdf|3043|dock10
  -GOLD-   2262023563D 1   1.00000     0.00000
 Structure written by MMmdl.
 42 43  0  0  0  0  0  0  0  0  1 V2000
  153.8349  137.6416  158.2018 C   0  0  0  0  0  0  0  0  0  0  0  0
  152.3411  137.6850  158.0485 C   0  0  0  0  0  0  0  0  0  0  0  0
  151.6123  136.7067  158.5569 N   0  0  0  0  0  0  0  0  0  0  0  0
  150.3402  137.0374  158.2624 N   0  0  0  0  0  0  0  0  0  0  0  0
  149.2637  136.1613  158.6824 C   0  0  0  0  0  0  0  0  0  0  0  0
  150.2630  138.2298  157.5692 C   0  0  0  0  0  0  0  0  0  0  0  0
  148.9479  138.8021  157.1418 C   0  0  0  0  0  0  0  0  0  0  0  0
  151.5488  138.6836  157.4075 C   0  0  0  0  0  0  0  0  0  0  0  0
  152.0589  139.9407  156.7307 C   0  0  1  0  0  0  0  0  0  0  0  0
  150.9518  140.6427  155.9215 C   0  0  0  0  0  0  0  0  0  0  0  0
  152.7294  140.8565  157.7680 C   0  0  0  0  0  0  0  0  0  0  0  0
  153.9539  140.8796  157.8939 O   0  0  0  0  0  0  0  0  0  0  0  0
  151.9020  141.6153  158.5064 N   0  0  0  0  0  0  0  0  0  0  0  0
  152.2870  142.6146  159.5051 C   0  0  0  0  0  0  0  0  0  0  0  0
  153.1825  142.0254  160.5188 C   0  0  0  0  0  0  0  0  0  0  0  0
  153.8856  141.5644  161.3138 N   0  0  0  0  0  0  0  0  0  0  0  0
  152.9711  143.7867  158.7861 C   0  0  0  0  0  0  0  0  0  0  0  0
  151.8515  144.7313  158.3276 C   0  0  0  0  0  0  0  0  0  0  0  0
  150.6013  144.3454  159.1285 C   0  0  0  0  0  0  0  0  0  0  0  0
  151.0535  143.2839  160.1350 C   0  0  0  0  0  0  0  0  0  0  0  0
  154.1797  138.4339  158.8665 H   0  0  0  0  0  0  0  0  0  0  0  0
  154.3295  137.7752  157.2398 H   0  0  0  0  0  0  0  0  0  0  0  0
  154.1727  136.6908  158.6158 H   0  0  0  0  0  0  0  0  0  0  0  0
  148.6117  136.6898  159.3783 H   0  0  0  0  0  0  0  0  0  0  0  0
  149.6593  135.2725  159.1763 H   0  0  0  0  0  0  0  0  0  0  0  0
  148.6828  135.8518  157.8132 H   0  0  0  0  0  0  0  0  0  0  0  0
  149.0506  139.8245  156.7809 H   0  0  0  0  0  0  0  0  0  0  0  0
  148.2424  138.8203  157.9727 H   0  0  0  0  0  0  0  0  0  0  0  0
  148.5116  138.2066  156.3396 H   0  0  0  0  0  0  0  0  0  0  0  0
  152.8441  139.6835  156.0190 H   0  0  0  0  0  0  0  0  0  0  0  0
  150.1137  140.9460  156.5489 H   0  0  0  0  0  0  0  0  0  0  0  0
  150.5603  139.9802  155.1490 H   0  0  0  0  0  0  0  0  0  0  0  0
  151.3311  141.5347  155.4214 H   0  0  0  0  0  0  0  0  0  0  0  0
  150.9121  141.5228  158.3294 H   0  0  0  0  0  0  0  0  0  0  0  0
  153.6099  144.3205  159.4917 H   0  0  0  0  0  0  0  0  0  0  0  0
  153.6103  143.4671  157.9619 H   0  0  0  0  0  0  0  0  0  0  0  0
  152.1295  145.7726  158.4930 H   0  0  0  0  0  0  0  0  0  0  0  0
  151.6621  144.6106  157.2604 H   0  0  0  0  0  0  0  0  0  0  0  0
  150.1452  145.2041  159.6223 H   0  0  0  0  0  0  0  0  0  0  0  0
  149.8543  143.9202  158.4572 H   0  0  0  0  0  0  0  0  0  0  0  0
  150.2551  142.5869  160.3905 H   0  0  0  0  0  0  0  0  0  0  0  0
  151.3479  143.7804  161.0608 H   0  0  0  0  0  0  0  0  0  0  0  0
  1  2  1  0  0  0  0
  1 21  1  0  0  0  0
  1 22  1  0  0  0  0
  1 23  1  0  0  0  0
  2  8  1  0  0  0  0
  2  3  2  0  0  0  0
  3  4  1  0  0  0  0
  4  5  1  0  0  0  0
  4  6  1  0  0  0  0
  5 24  1  0  0  0  0
  5 25  1  0  0  0  0
  5 26  1  0  0  0  0
  6  7  1  0  0  0  0
  6  8  2  0  0  0  0
  7 27  1  0  0  0  0
  7 28  1  0  0  0  0
  7 29  1  0  0  0  0
  8  9  1  0  0  0  0
  9 10  1  0  0  0  0
  9 11  1  0  0  0  0
  9 30  1  0  0  0  0
 10 31  1  0  0  0  0
 10 32  1  0  0  0  0
 10 33  1  0  0  0  0
 11 12  2  0  0  0  0
 11 13  1  0  0  0  0
 13 14  1  0  0  0  0
 13 34  1  0  0  0  0
 14 20  1  0  0  0  0
 14 15  1  0  0  0  0
 14 17  1  0  0  0  0
 15 16  3  0  0  0  0
 17 18  1  0  0  0  0
 17 35  1  0  0  0  0
 17 36  1  0  0  0  0
 18 19  1  0  0  0  0
 18 37  1  0  0  0  0
 18 38  1  0  0  0  0
 19 20  1  0  0  0  0
 19 39  1  0  0  0  0
 19 40  1  0  0  0  0
 20 41  1  0  0  0  0
 20 42  1  0  0  0  0
M  END
> <s_m_source_file>
AV-unprocessed.smi

> <i_m_source_file_index>
607

> <i_lp_mmshare_version>
43012

> <i_f3d_flags>
0

> <s_epik_input>
W0NIM11jMW5uKFtDSDNdKWMoW0NIM10pYzFbQ0BIXShbQ0gzXSlDKD1PKVtOSF1DMihDI04pW0NIMl1bQ0gyXVtDSDJdW0NIMl0y

> <s_epik_cmdline>
J2VwaWtfcHl0aG9uJywgJy1waCcsICc3LjAnLCAnLXRuJywgJzgnLCAnLW1hJywgJzIwMCcsICctbWV0YWxfYmluZGluZycsICctaW1hZScsICc8aW5maWxlLm1hZT4nLCAnLW9tYWUnLCAnPG91dGZpbGUubWFlPic=

> <r_lp_tautomer_probability>
1

> <r_epik_Ionization_Penalty>
0.00342632

> <r_epik_Ionization_Penalty_Charging>
0

> <r_epik_Ionization_Penalty_Neutral>
0.00342632

> <r_epik_State_Penalty>
0.00242724

> <r_epik_Charging_Adjusted_Penalty>
0.00242724

> <i_epik_Tot_Q>
0

> <i_epik_Tot_abs_Q>
0

> <r_epik_Metal_State_Penalty>
-0

> <b_epik_Metal_Only>
0

> <s_lp_Force_Field>
OPLS_2005

> <r_lp_Energy>
13.7926

> <b_lp_Chiralities_Consistent>
1

> <s_lp_Variant>
AV-unprocessed.smi:607-2

> <Gold.Version>
5.8.1

> <Gold.Id.Protein>
6NUR|6NUR_protein|mol2

> <Gold.PLP.Fitness>
41.6200

> <Gold.PLP.PLP>
-38.1420

> <Gold.PLP.part.hbond>
-2.2037

> <Gold.PLP.part.metal>
0.0000

> <Gold.PLP.part.buried>
-4.5246

> <Gold.PLP.part.nonpolar>
-31.8626

> <Gold.PLP.part.repulsive>
0.1482

> <Gold.PLP.ligand.clash>
0.5969

> <Gold.PLP.ligand.torsion>
0.6587

> <Gold.PLP.Chemscore.Hbond>
1.7593

> <Gold.PLP.Chemscore.CHOScore>
0.0000

> <Gold.PLP.Chemscore.Metal>
0.0000

> <Gold.Chemscore.Hbonds>
donor molecule, donor type, donor heavy atom, donor atom, acceptor molecule, acceptor atom, score
      P1  H  6896  6908       L1     3  0.28
      P1  H  7997  8008       L1    12  0.13

> <Gold.PLP.Chemscore.Internal.Correction>
0.1146

> <Gold.Rescore>
     Score         DG    S(hbond)    S(metal)    S(lipo)     H(rot)  DE(clash)    DE(int)     intcor
     13.37     -17.13       1.39        0.00      89.92       1.37       0.28       3.48       ----

> <Gold.Chemscore.Fitness>
13.3685

> <Gold.Chemscore.DG>
-17.1283

> <Gold.Chemscore.ZeroCoef>
-5.4800

> <Gold.Chemscore.Hbond>
1.3893

> <Gold.Chemscore.Metal>
0.0000

> <Gold.Chemscore.Lipo>
89.9171

> <Gold.Chemscore.Internal_Hbond>
0.0000

> <Gold.Chemscore.DEClash>
0.2762

> <Gold.Chemscore.DEInternal>
3.4835

> <Gold.Chemscore.Rot>
1.3720

> <Gold.Chemscore.Internal.Correction>
   9.000000E+99

> <Gold.Chemscore.Hbonds>
donor molecule, donor type, donor heavy atom, donor atom, acceptor molecule, acceptor atom, score
      P1  H  6896  6908       L1     3  0.03
      P1  H  7997  8008       L1    12  0.14

> <Gold.Chemscore.Hbond.Weighted>
-4.6403

> <Gold.Chemscore.Metal.Weighted>
-0.0000

> <Gold.Chemscore.Lipo.Weighted>
-10.5203

> <Gold.Chemscore.Internal_Hbond.Weighted>
0.0000

> <Gold.Chemscore.DEClash.Weighted>
0.2762

> <Gold.Chemscore.DEInternal.Weighted>
3.4835

> <Gold.Chemscore.Rot.Weighted>
3.5123

> <Gold.Chemscore.Internal.Correction.Weighted>
   9.000000E+99

> <Gold.Protein.RotatedTorsions>
[ 6907 6896 6895 6894 ] final -155.07 input  -60.11 | X-H torsion
[ 7974 7965 7964 7962 ] final   96.82 input  175.53 | X-H torsion
[ 8008 7997 7996 7995 ] final -109.90 input   59.86 | X-H torsion
[ 10167 10162 10161 10158 ] final  -58.22 input  -65.29 | X-H torsion
[ 10718 10713 10712 10709 ] final  139.19 input   66.30 | X-H torsion
[ 10763 10752 10751 10750 ] final  121.51 input  -60.55 | X-H torsion
[ 11005 11000 10999 10996 ] final   82.10 input  -57.11 | X-H torsion

> <Gold.Protein.ActiveResidues>
 VAL166  LYS551  ARG553  GLY616  TRP617  ASP618  TYR619  PRO620  LYS621  CYS622 
 ASP623  PHE694  ASN695  SER759  ASP760  ASP761  ALA762  ILE779  LEU786  VAL792 
 PHE793  MET794  SER795  GLU796  ALA797  LYS798  CYS799  TRP800  GLU811  SER814 

> <Gold.Protein.RotatedAtoms>
  151.2670  133.4274  159.2618 H   0  0  0  0  0  0  0  0  0  0  0  0  # atno 6907 bound_to 6896
  151.0479  134.9653  159.8206 H   0  0  0  0  0  0  0  0  0  0  0  0  # atno 6908 bound_to 6896
  152.5377  134.2626  159.8993 H   0  0  0  0  0  0  0  0  0  0  0  0  # atno 6909 bound_to 6896
  145.4338  139.2308  143.3130 H   0  0  0  0  0  0  0  0  0  0  0  0  # atno 7974 bound_to 7965
  154.9664  140.0398  157.2214 H   0  0  0  0  0  0  0  0  0  0  0  0  # atno 8008 bound_to 7997
  154.7841  140.2824  155.6019 H   0  0  0  0  0  0  0  0  0  0  0  0  # atno 8009 bound_to 7997
  156.2940  140.2586  156.2674 H   0  0  0  0  0  0  0  0  0  0  0  0  # atno 8010 bound_to 7997
  140.6211  143.2420  151.5479 H   0  0  0  0  0  0  0  0  0  0  0  0  # atno 10167 bound_to 10162
  157.4171  131.1034  151.0393 H   0  0  0  0  0  0  0  0  0  0  0  0  # atno 10718 bound_to 10713
  153.6152  135.3423  155.2992 H   0  0  0  0  0  0  0  0  0  0  0  0  # atno 10763 bound_to 10752
  154.8611  135.4259  154.2267 H   0  0  0  0  0  0  0  0  0  0  0  0  # atno 10764 bound_to 10752
  153.3127  135.7032  153.7174 H   0  0  0  0  0  0  0  0  0  0  0  0  # atno 10765 bound_to 10752
  139.9075  134.8046  156.2129 H   0  0  0  0  0  0  0  0  0  0  0  0  # atno 11005 bound_to 11000
  146.2593  140.5078  142.8860 LP  0  0  0  0  0  0  0  0  0  0  0  0  # atno 17320 bound_to 7965
  144.8166  140.6478  143.6380 LP  0  0  0  0  0  0  0  0  0  0  0  0  # atno 17321 bound_to 7965
  139.5439  144.2573  152.1405 LP  0  0  0  0  0  0  0  0  0  0  0  0  # atno 17342 bound_to 10162
  140.1793  144.4860  150.6537 LP  0  0  0  0  0  0  0  0  0  0  0  0  # atno 17343 bound_to 10162
  157.1336  130.6113  149.5536 LP  0  0  0  0  0  0  0  0  0  0  0  0  # atno 17370 bound_to 10713
  155.9869  130.4905  150.7099 LP  0  0  0  0  0  0  0  0  0  0  0  0  # atno 17371 bound_to 10713
  141.0454  133.6916  156.1673 LP  0  0  0  0  0  0  0  0  0  0  0  0  # atno 17394 bound_to 11000
  140.6892  134.4684  157.5589 LP  0  0  0  0  0  0  0  0  0  0  0  0  # atno 17395 bound_to 11000

$$$$
