AV-unprocessed.smi:344|AV-procd|sdf|2389|dock4
  -GOLD-   2262022313D 1   1.00000     0.00000
 Structure written by MMmdl.
 38 39  0  0  0  0  0  0  0  0  1 V2000
  148.8401  138.2135  153.9400 N   0  0  0  0  0  0  0  0  0  0  0  0
  149.1927  138.9163  155.0198 C   0  0  0  0  0  0  0  0  0  0  0  0
  149.8069  139.9780  154.9370 O   0  0  0  0  0  0  0  0  0  0  0  0
  148.8016  138.3441  156.3853 C   0  0  0  0  0  0  0  0  0  0  0  0
  149.9952  138.2845  157.2951 C   0  0  0  0  0  0  0  0  0  0  0  0
  150.5798  137.1558  157.8183 C   0  0  0  0  0  0  0  0  0  0  0  0
  151.9494  137.5347  158.8278 S   0  0  0  0  0  0  0  0  0  0  0  0
  151.6782  139.2369  158.4897 C   0  0  0  0  0  0  0  0  0  0  0  0
  152.5091  140.2517  159.0326 N   0  0  0  0  0  0  0  0  0  0  0  0
  153.5953  140.1128  159.8156 C   0  0  0  0  0  0  0  0  0  0  0  0
  154.0555  139.0313  160.1843 O   0  0  0  0  0  0  0  0  0  0  0  0
  154.2582  141.4272  160.2438 C   0  0  0  0  0  0  0  0  0  0  0  0
  153.4081  142.2683  161.2167 C   0  0  0  0  0  0  0  0  0  0  0  0
  152.2007  142.9393  160.5379 C   0  0  0  0  0  0  0  0  0  0  0  0
  152.5322  143.6895  159.2431 C   0  0  0  0  0  0  0  0  0  0  0  0
  151.3972  144.7040  159.0534 C   0  0  0  0  0  0  0  0  0  0  0  0
  150.7046  144.8416  160.4172 C   0  0  0  0  0  0  0  0  0  0  0  0
  151.5376  144.0150  161.4003 C   0  0  0  0  0  0  0  0  0  0  0  0
  150.6365  139.4658  157.6825 N   0  0  0  0  0  0  0  0  0  0  0  0
  149.0824  138.5546  153.0209 H   0  0  0  0  0  0  0  0  0  0  0  0
  148.3374  137.3443  154.0441 H   0  0  0  0  0  0  0  0  0  0  0  0
  148.0131  138.9493  156.8349 H   0  0  0  0  0  0  0  0  0  0  0  0
  148.3772  137.3506  156.2355 H   0  0  0  0  0  0  0  0  0  0  0  0
  150.2849  136.1272  157.6739 H   0  0  0  0  0  0  0  0  0  0  0  0
  152.2451  141.1980  158.8006 H   0  0  0  0  0  0  0  0  0  0  0  0
  155.2193  141.1919  160.7027 H   0  0  0  0  0  0  0  0  0  0  0  0
  154.4727  142.0089  159.3465 H   0  0  0  0  0  0  0  0  0  0  0  0
  153.0407  141.6282  162.0202 H   0  0  0  0  0  0  0  0  0  0  0  0
  154.0308  143.0279  161.6920 H   0  0  0  0  0  0  0  0  0  0  0  0
  151.4507  142.1790  160.3135 H   0  0  0  0  0  0  0  0  0  0  0  0
  153.4774  144.2226  159.3544 H   0  0  0  0  0  0  0  0  0  0  0  0
  152.6324  143.0203  158.3880 H   0  0  0  0  0  0  0  0  0  0  0  0
  151.7850  145.6606  158.7022 H   0  0  0  0  0  0  0  0  0  0  0  0
  150.6849  144.3485  158.3083 H   0  0  0  0  0  0  0  0  0  0  0  0
  150.6189  145.8817  160.7332 H   0  0  0  0  0  0  0  0  0  0  0  0
  149.6944  144.4345  160.3567 H   0  0  0  0  0  0  0  0  0  0  0  0
  150.9344  143.5940  162.2053 H   0  0  0  0  0  0  0  0  0  0  0  0
  152.2993  144.6502  161.8550 H   0  0  0  0  0  0  0  0  0  0  0  0
  1  2  1  0  0  0  0
  1 20  1  0  0  0  0
  1 21  1  0  0  0  0
  2  3  2  0  0  0  0
  2  4  1  0  0  0  0
  4  5  1  0  0  0  0
  4 22  1  0  0  0  0
  4 23  1  0  0  0  0
  5 19  1  0  0  0  0
  5  6  2  0  0  0  0
  6  7  1  0  0  0  0
  6 24  1  0  0  0  0
  7  8  1  0  0  0  0
  8  9  1  0  0  0  0
  8 19  2  0  0  0  0
  9 10  1  0  0  0  0
  9 25  1  0  0  0  0
 10 11  2  0  0  0  0
 10 12  1  0  0  0  0
 12 13  1  0  0  0  0
 12 26  1  0  0  0  0
 12 27  1  0  0  0  0
 13 14  1  0  0  0  0
 13 28  1  0  0  0  0
 13 29  1  0  0  0  0
 14 18  1  0  0  0  0
 14 15  1  0  0  0  0
 14 30  1  0  0  0  0
 15 16  1  0  0  0  0
 15 31  1  0  0  0  0
 15 32  1  0  0  0  0
 16 17  1  0  0  0  0
 16 33  1  0  0  0  0
 16 34  1  0  0  0  0
 17 18  1  0  0  0  0
 17 35  1  0  0  0  0
 17 36  1  0  0  0  0
 18 37  1  0  0  0  0
 18 38  1  0  0  0  0
M  END
> <s_m_source_file>
AV-unprocessed.smi

> <i_m_source_file_index>
344

> <i_lp_mmshare_version>
43012

> <i_f3d_flags>
0

> <s_epik_input>
W05IMl1DKD1PKVtDSDJdYzFbY0hdc2MobjEpW05IXUMoPU8pW0NIMl1bQ0gyXVtDSF0yW0NIMl1bQ0gyXVtDSDJdW0NIMl0y

> <s_epik_cmdline>
J2VwaWtfcHl0aG9uJywgJy1waCcsICc3LjAnLCAnLXRuJywgJzgnLCAnLW1hJywgJzIwMCcsICctbWV0YWxfYmluZGluZycsICctaW1hZScsICc8aW5maWxlLm1hZT4nLCAnLW9tYWUnLCAnPG91dGZpbGUubWFlPic=

> <r_lp_tautomer_probability>
1

> <r_epik_Ionization_Penalty>
0.000156249

> <r_epik_Ionization_Penalty_Charging>
0

> <r_epik_Ionization_Penalty_Neutral>
0.000156249

> <r_epik_State_Penalty>
-0

> <r_epik_Charging_Adjusted_Penalty>
0

> <i_epik_Tot_Q>
0

> <i_epik_Tot_abs_Q>
0

> <r_epik_Metal_State_Penalty>
0.0972404

> <b_epik_Metal_Only>
0

> <s_lp_Force_Field>
OPLS_2005

> <r_lp_Energy>
21.4861

> <b_lp_Chiralities_Consistent>
1

> <s_lp_Variant>
AV-unprocessed.smi:344-1

> <Gold.Version>
5.8.1

> <Gold.Id.Protein>
6NUR|6NUR_protein|mol2

> <Gold.PLP.Fitness>
47.7014

> <Gold.PLP.PLP>
-42.2322

> <Gold.PLP.part.hbond>
-3.0000

> <Gold.PLP.part.metal>
0.0000

> <Gold.PLP.part.buried>
-6.7593

> <Gold.PLP.part.nonpolar>
-32.6705

> <Gold.PLP.part.repulsive>
0.3223

> <Gold.PLP.ligand.clash>
0.0000

> <Gold.PLP.ligand.torsion>
0.2654

> <Gold.PLP.Chemscore.Hbond>
1.9865

> <Gold.PLP.Chemscore.CHOScore>
0.0000

> <Gold.PLP.Chemscore.Metal>
0.0000

> <Gold.Chemscore.Hbonds>
donor molecule, donor type, donor heavy atom, donor atom, acceptor molecule, acceptor atom, score
      L1  H     1    20       P1  7957  0.02

> <Gold.PLP.Chemscore.Internal.Correction>
0.0404

> <Gold.Rescore>
     Score         DG    S(hbond)    S(metal)    S(lipo)     H(rot)  DE(clash)    DE(int)     intcor
     14.32     -16.29       1.87        0.00      92.38       2.44       0.13       1.85       ----

> <Gold.Chemscore.Fitness>
14.3156

> <Gold.Chemscore.DG>
-16.2896

> <Gold.Chemscore.ZeroCoef>
-5.4800

> <Gold.Chemscore.Hbond>
1.8706

> <Gold.Chemscore.Metal>
0.0000

> <Gold.Chemscore.Lipo>
92.3794

> <Gold.Chemscore.Internal_Hbond>
0.0000

> <Gold.Chemscore.DEClash>
0.1288

> <Gold.Chemscore.DEInternal>
1.8452

> <Gold.Chemscore.Rot>
2.4400

> <Gold.Chemscore.Internal.Correction>
   9.000000E+99

> <Gold.Chemscore.Hbonds>
donor molecule, donor type, donor heavy atom, donor atom, acceptor molecule, acceptor atom, score
      L1  H     1    20       P1  7957  0.07
      P1  H  7989  7998       L1     3  0.02

> <Gold.Chemscore.Hbond.Weighted>
-6.2477

> <Gold.Chemscore.Metal.Weighted>
-0.0000

> <Gold.Chemscore.Lipo.Weighted>
-10.8084

> <Gold.Chemscore.Internal_Hbond.Weighted>
0.0000

> <Gold.Chemscore.DEClash.Weighted>
0.1288

> <Gold.Chemscore.DEInternal.Weighted>
1.8452

> <Gold.Chemscore.Rot.Weighted>
6.2465

> <Gold.Chemscore.Internal.Correction.Weighted>
   9.000000E+99

> <Gold.Protein.RotatedTorsions>
[ 6907 6896 6895 6894 ] final  -45.78 input  -60.11 | X-H torsion
[ 7974 7965 7964 7962 ] final -121.34 input  175.53 | X-H torsion
[ 8008 7997 7996 7995 ] final   16.74 input   59.86 | X-H torsion
[ 10167 10162 10161 10158 ] final   55.12 input  -65.29 | X-H torsion
[ 10718 10713 10712 10709 ] final -164.36 input   66.30 | X-H torsion
[ 10763 10752 10751 10750 ] final   21.61 input  -60.55 | X-H torsion
[ 11005 11000 10999 10996 ] final   29.57 input  -57.11 | X-H torsion

> <Gold.Protein.ActiveResidues>
 VAL166  LYS551  ARG553  GLY616  TRP617  ASP618  TYR619  PRO620  LYS621  CYS622 
 ASP623  PHE694  ASN695  SER759  ASP760  ASP761  ALA762  ILE779  LEU786  VAL792 
 PHE793  MET794  SER795  GLU796  ALA797  LYS798  CYS799  TRP800  GLU811  SER814 

> <Gold.Protein.RotatedAtoms>
  150.9183  134.8600  159.7471 H   0  0  0  0  0  0  0  0  0  0  0  0  # atno 6907 bound_to 6896
  152.4980  134.4256  159.9505 H   0  0  0  0  0  0  0  0  0  0  0  0  # atno 6908 bound_to 6896
  151.4292  133.3635  159.2801 H   0  0  0  0  0  0  0  0  0  0  0  0  # atno 6909 bound_to 6896
  145.0415  140.8148  143.4264 H   0  0  0  0  0  0  0  0  0  0  0  0  # atno 7974 bound_to 7965
  154.8813  140.2973  155.5423 H   0  0  0  0  0  0  0  0  0  0  0  0  # atno 8008 bound_to 7997
  156.3022  140.2442  156.3750 H   0  0  0  0  0  0  0  0  0  0  0  0  # atno 8009 bound_to 7997
  154.8714  140.0401  157.1716 H   0  0  0  0  0  0  0  0  0  0  0  0  # atno 8010 bound_to 7997
  140.2228  144.3770  150.6444 H   0  0  0  0  0  0  0  0  0  0  0  0  # atno 10167 bound_to 10162
  156.6380  130.8957  151.2990 H   0  0  0  0  0  0  0  0  0  0  0  0  # atno 10718 bound_to 10713
  153.0981  135.6665  153.9724 H   0  0  0  0  0  0  0  0  0  0  0  0  # atno 10763 bound_to 10752
  153.9302  135.3005  155.3447 H   0  0  0  0  0  0  0  0  0  0  0  0  # atno 10764 bound_to 10752
  154.7401  135.5083  153.9182 H   0  0  0  0  0  0  0  0  0  0  0  0  # atno 10765 bound_to 10752
  140.3036  134.2729  155.7748 H   0  0  0  0  0  0  0  0  0  0  0  0  # atno 11005 bound_to 11000
  145.1642  139.2441  143.5375 LP  0  0  0  0  0  0  0  0  0  0  0  0  # atno 17320 bound_to 7965
  146.3510  140.1377  142.8595 LP  0  0  0  0  0  0  0  0  0  0  0  0  # atno 17321 bound_to 7965
  140.6242  143.2179  151.6630 LP  0  0  0  0  0  0  0  0  0  0  0  0  # atno 17342 bound_to 10162
  139.5138  144.3432  152.0721 LP  0  0  0  0  0  0  0  0  0  0  0  0  # atno 17343 bound_to 10162
  157.7180  130.9521  150.1327 LP  0  0  0  0  0  0  0  0  0  0  0  0  # atno 17370 bound_to 10713
  156.2182  130.3672  149.8588 LP  0  0  0  0  0  0  0  0  0  0  0  0  # atno 17371 bound_to 10713
  141.2123  133.7662  156.9803 LP  0  0  0  0  0  0  0  0  0  0  0  0  # atno 17394 bound_to 11000
  140.1087  134.9490  157.2033 LP  0  0  0  0  0  0  0  0  0  0  0  0  # atno 17395 bound_to 11000

$$$$
