AV-unprocessed.smi:1190|AV-procd|sdf|4982|dock3
  -GOLD-   22720 3583D 1   1.00000     0.00000
 Structure written by MMmdl.
 44 45  0  0  0  0  0  0  0  0  2 V2000
  150.9389  143.0247  157.6439 C   0  0  0  0  0  0  0  0  0  0  0  0
  151.6020  141.9483  156.9902 O   0  0  0  0  0  0  0  0  0  0  0  0
  150.8748  141.1642  156.1182 C   0  0  0  0  0  0  0  0  0  0  0  0
  151.4738  140.0000  155.5985 C   0  0  0  0  0  0  0  0  0  0  0  0
  150.7350  139.1966  154.7101 C   0  0  0  0  0  0  0  0  0  0  0  0
  149.4191  139.5721  154.3724 C   0  0  0  0  0  0  0  0  0  0  0  0
  148.7067  138.7463  153.4608 N   0  0  0  0  0  0  0  0  0  0  0  0
  147.3906  138.7362  153.1882 C   0  0  0  0  0  0  0  0  0  0  0  0
  146.5465  139.4583  153.7163 O   0  0  0  0  0  0  0  0  0  0  0  0
  147.0957  137.8096  152.2655 N   0  0  0  0  0  0  0  0  0  0  0  0
  145.7616  137.5381  151.7311 C   0  0  0  0  0  0  0  0  0  0  0  0
  145.6086  136.1097  151.1421 C   0  0  2  0  0  0  0  0  0  0  0  0
  144.1122  135.7751  150.9571 C   0  0  0  0  0  0  0  0  0  0  0  0
  146.3367  135.0722  151.9431 N   0  3  0  0  0  0  0  0  0  0  0  0
  145.8752  134.9544  153.3541 C   0  0  0  0  0  0  0  0  0  0  0  0
  146.6799  133.8876  154.1161 C   0  0  0  0  0  0  0  0  0  0  0  0
  146.5816  132.6400  153.4461 O   0  0  0  0  0  0  0  0  0  0  0  0
  147.1254  132.7103  152.1370 C   0  0  0  0  0  0  0  0  0  0  0  0
  146.3312  133.7284  151.3023 C   0  0  0  0  0  0  0  0  0  0  0  0
  148.9109  140.7674  154.9378 C   0  0  0  0  0  0  0  0  0  0  0  0
  149.6149  141.5426  155.7899 N   0  0  0  0  0  0  0  0  0  0  0  0
  151.6442  143.5404  158.2954 H   0  0  0  0  0  0  0  0  0  0  0  0
  150.1158  142.6682  158.2648 H   0  0  0  0  0  0  0  0  0  0  0  0
  150.5575  143.7531  156.9270 H   0  0  0  0  0  0  0  0  0  0  0  0
  152.4818  139.7291  155.8758 H   0  0  0  0  0  0  0  0  0  0  0  0
  151.1756  138.3006  154.2978 H   0  0  0  0  0  0  0  0  0  0  0  0
  149.2625  138.0465  152.9919 H   0  0  0  0  0  0  0  0  0  0  0  0
  147.8566  137.2678  151.8821 H   0  0  0  0  0  0  0  0  0  0  0  0
  144.9995  137.7245  152.4899 H   0  0  0  0  0  0  0  0  0  0  0  0
  145.5647  138.2809  150.9585 H   0  0  0  0  0  0  0  0  0  0  0  0
  146.0499  136.1231  150.1441 H   0  0  0  0  0  0  0  0  0  0  0  0
  143.5779  136.6049  150.4935 H   0  0  0  0  0  0  0  0  0  0  0  0
  143.6263  135.5624  151.9096 H   0  0  0  0  0  0  0  0  0  0  0  0
  143.9635  134.9167  150.3024 H   0  0  0  0  0  0  0  0  0  0  0  0
  145.9972  135.8975  153.8848 H   0  0  0  0  0  0  0  0  0  0  0  0
  144.8130  134.7061  153.3720 H   0  0  0  0  0  0  0  0  0  0  0  0
  147.7260  134.1832  154.2113 H   0  0  0  0  0  0  0  0  0  0  0  0
  146.2891  133.7752  155.1277 H   0  0  0  0  0  0  0  0  0  0  0  0
  148.1824  132.9787  152.1794 H   0  0  0  0  0  0  0  0  0  0  0  0
  147.0665  131.7230  151.6786 H   0  0  0  0  0  0  0  0  0  0  0  0
  145.3022  133.3866  151.1808 H   0  0  0  0  0  0  0  0  0  0  0  0
  146.7743  133.7674  150.3085 H   0  0  0  0  0  0  0  0  0  0  0  0
  147.9275  141.1418  154.7018 H   0  0  0  0  0  0  0  0  0  0  0  0
  147.3007  135.3707  151.9849 H   0  0  0  0  0  0  0  0  0  0  0  0
  1  2  1  0  0  0  0
  1 22  1  0  0  0  0
  1 23  1  0  0  0  0
  1 24  1  0  0  0  0
  2  3  1  0  0  0  0
  3 21  1  0  0  0  0
  3  4  2  0  0  0  0
  4  5  1  0  0  0  0
  4 25  1  0  0  0  0
  5  6  2  0  0  0  0
  5 26  1  0  0  0  0
  6  7  1  0  0  0  0
  6 20  1  0  0  0  0
  7  8  1  0  0  0  0
  7 27  1  0  0  0  0
  8  9  2  0  0  0  0
  8 10  1  0  0  0  0
 10 11  1  0  0  0  0
 10 28  1  0  0  0  0
 11 12  1  0  0  0  0
 11 29  1  0  0  0  0
 11 30  1  0  0  0  0
 12 13  1  0  0  0  0
 12 14  1  0  0  0  0
 12 31  1  0  0  0  0
 13 32  1  0  0  0  0
 13 33  1  0  0  0  0
 13 34  1  0  0  0  0
 14 19  1  0  0  0  0
 14 15  1  0  0  0  0
 14 44  1  0  0  0  0
 15 16  1  0  0  0  0
 15 35  1  0  0  0  0
 15 36  1  0  0  0  0
 16 17  1  0  0  0  0
 16 37  1  0  0  0  0
 16 38  1  0  0  0  0
 17 18  1  0  0  0  0
 18 19  1  0  0  0  0
 18 39  1  0  0  0  0
 18 40  1  0  0  0  0
 19 41  1  0  0  0  0
 19 42  1  0  0  0  0
 20 21  2  0  0  0  0
 20 43  1  0  0  0  0
M  CHG  1  14   1
M  END
> <s_m_source_file>
AV-unprocessed.smi

> <i_m_source_file_index>
1190

> <i_lp_mmshare_version>
43012

> <i_f3d_flags>
0

> <s_epik_input>
W0NIM11PYzFbY0hdW2NIXWMoW2NIXW4xKVtOSF1DKD1PKVtOSF1bQ0gyXVtDQEhdKFtDSDNdKU4yW0NIMl1bQ0gyXU9bQ0gyXVtDSDJdMg==

> <s_epik_cmdline>
J2VwaWtfcHl0aG9uJywgJy1waCcsICc3LjAnLCAnLXRuJywgJzgnLCAnLW1hJywgJzIwMCcsICctbWV0YWxfYmluZGluZycsICctaW1hZScsICc8aW5maWxlLm1hZT4nLCAnLW9tYWUnLCAnPG91dGZpbGUubWFlPic=

> <r_lp_tautomer_probability>
1

> <r_epik_Ionization_Penalty>
0.602608

> <r_epik_Ionization_Penalty_Charging>
0.602531

> <r_epik_Ionization_Penalty_Neutral>
7.70246e-05

> <r_epik_State_Penalty>
0.617039

> <r_epik_Charging_Adjusted_Penalty>
1.21957

> <i_epik_Tot_Q>
1

> <i_epik_Tot_abs_Q>
1

> <r_epik_Metal_State_Penalty>
0.617043

> <b_epik_Metal_Only>
0

> <s_lp_Force_Field>
OPLS_2005

> <r_lp_Energy>
31.3292

> <b_lp_Chiralities_Consistent>
1

> <s_lp_Variant>
AV-unprocessed.smi:1190-3

> <Gold.Version>
5.8.1

> <Gold.Id.Protein>
6NUR|6NUR_protein|mol2

> <Gold.PLP.Fitness>
42.1562

> <Gold.PLP.PLP>
-32.5241

> <Gold.PLP.part.hbond>
-3.7359

> <Gold.PLP.part.metal>
0.0000

> <Gold.PLP.part.buried>
1.3136

> <Gold.PLP.part.nonpolar>
-30.7219

> <Gold.PLP.part.repulsive>
0.5718

> <Gold.PLP.ligand.clash>
0.0000

> <Gold.PLP.ligand.torsion>
0.4607

> <Gold.PLP.Chemscore.Hbond>
3.4885

> <Gold.PLP.Chemscore.CHOScore>
0.0000

> <Gold.PLP.Chemscore.Metal>
0.0000

> <Gold.Chemscore.Hbonds>
donor molecule, donor type, donor heavy atom, donor atom, acceptor molecule, acceptor atom, score
      L1  H     7    27       P1  7948  0.60
      L1  H    10    28       P1  7948  0.88
      L1  H    14    44       P1  7948  2.00

> <Gold.PLP.Chemscore.Internal.Correction>
0.0879

> <Gold.Rescore>
     Score         DG    S(hbond)    S(metal)    S(lipo)     H(rot)  DE(clash)    DE(int)     intcor
     14.48     -17.41       2.48        0.00      70.16       1.79       1.32       1.61       ----

> <Gold.Chemscore.Fitness>
14.4768

> <Gold.Chemscore.DG>
-17.4072

> <Gold.Chemscore.ZeroCoef>
-5.4800

> <Gold.Chemscore.Hbond>
2.4837

> <Gold.Chemscore.Metal>
0.0000

> <Gold.Chemscore.Lipo>
70.1630

> <Gold.Chemscore.Internal_Hbond>
0.0000

> <Gold.Chemscore.DEClash>
1.3249

> <Gold.Chemscore.DEInternal>
1.6055

> <Gold.Chemscore.Rot>
1.7881

> <Gold.Chemscore.Internal.Correction>
   9.000000E+99

> <Gold.Chemscore.Hbonds>
donor molecule, donor type, donor heavy atom, donor atom, acceptor molecule, acceptor atom, score
      L1  H     7    27       P1  7948  0.58
      L1  H    10    28       P1  7948  0.85
      L1  H    14    44       P1  7948  1.00

> <Gold.Chemscore.Hbond.Weighted>
-8.2956

> <Gold.Chemscore.Metal.Weighted>
-0.0000

> <Gold.Chemscore.Lipo.Weighted>
-8.2091

> <Gold.Chemscore.Internal_Hbond.Weighted>
0.0000

> <Gold.Chemscore.DEClash.Weighted>
1.3249

> <Gold.Chemscore.DEInternal.Weighted>
1.6055

> <Gold.Chemscore.Rot.Weighted>
4.5775

> <Gold.Chemscore.Internal.Correction.Weighted>
   9.000000E+99

> <Gold.Protein.RotatedTorsions>
[ 6907 6896 6895 6894 ] final   -6.74 input  -60.11 | X-H torsion
[ 7974 7965 7964 7962 ] final   33.33 input  175.53 | X-H torsion
[ 8008 7997 7996 7995 ] final -145.67 input   59.86 | X-H torsion
[ 10167 10162 10161 10158 ] final  -58.55 input  -65.29 | X-H torsion
[ 10718 10713 10712 10709 ] final   39.25 input   66.30 | X-H torsion
[ 10763 10752 10751 10750 ] final  -31.58 input  -60.55 | X-H torsion
[ 11005 11000 10999 10996 ] final  -88.67 input  -57.11 | X-H torsion

> <Gold.Protein.ActiveResidues>
 VAL166  LYS551  ARG553  GLY616  TRP617  ASP618  TYR619  PRO620  LYS621  CYS622 
 ASP623  PHE694  ASN695  SER759  ASP760  ASP761  ALA762  ILE779  LEU786  VAL792 
 PHE793  MET794  SER795  GLU796  ALA797  LYS798  CYS799  TRP800  GLU811  SER814 

> <Gold.Protein.RotatedAtoms>
  151.4607  135.1038  159.9723 H   0  0  0  0  0  0  0  0  0  0  0  0  # atno 6907 bound_to 6896
  152.4854  133.8355  159.7136 H   0  0  0  0  0  0  0  0  0  0  0  0  # atno 6908 bound_to 6896
  150.8959  133.7121  159.2919 H   0  0  0  0  0  0  0  0  0  0  0  0  # atno 6909 bound_to 6896
  146.1427  139.6410  142.9152 H   0  0  0  0  0  0  0  0  0  0  0  0  # atno 7974 bound_to 7965
  155.5469  140.0613  157.2858 H   0  0  0  0  0  0  0  0  0  0  0  0  # atno 8008 bound_to 7997
  154.4433  140.1909  156.0692 H   0  0  0  0  0  0  0  0  0  0  0  0  # atno 8009 bound_to 7997
  156.0544  140.3280  155.7392 H   0  0  0  0  0  0  0  0  0  0  0  0  # atno 8010 bound_to 7997
  140.6190  143.2412  151.5527 H   0  0  0  0  0  0  0  0  0  0  0  0  # atno 10167 bound_to 10162
  157.3683  130.7687  149.7100 H   0  0  0  0  0  0  0  0  0  0  0  0  # atno 10718 bound_to 10713
  153.7996  135.6891  153.4858 H   0  0  0  0  0  0  0  0  0  0  0  0  # atno 10763 bound_to 10752
  153.1697  135.4547  154.9884 H   0  0  0  0  0  0  0  0  0  0  0  0  # atno 10764 bound_to 10752
  154.8012  135.3338  154.7486 H   0  0  0  0  0  0  0  0  0  0  0  0  # atno 10765 bound_to 10752
  141.1598  133.7584  156.9485 H   0  0  0  0  0  0  0  0  0  0  0  0  # atno 11005 bound_to 11000
  145.5008  141.0437  143.2541 LP  0  0  0  0  0  0  0  0  0  0  0  0  # atno 17320 bound_to 7965
  144.7811  139.6524  143.7154 LP  0  0  0  0  0  0  0  0  0  0  0  0  # atno 17321 bound_to 7965
  139.5423  144.2615  152.1374 LP  0  0  0  0  0  0  0  0  0  0  0  0  # atno 17342 bound_to 10162
  140.1831  144.4825  150.6518 LP  0  0  0  0  0  0  0  0  0  0  0  0  # atno 17343 bound_to 10162
  155.9750  130.4094  150.3878 LP  0  0  0  0  0  0  0  0  0  0  0  0  # atno 17370 bound_to 10713
  157.1965  131.0428  151.2673 LP  0  0  0  0  0  0  0  0  0  0  0  0  # atno 17371 bound_to 10713
  140.1273  134.9378  157.2288 LP  0  0  0  0  0  0  0  0  0  0  0  0  # atno 17394 bound_to 11000
  140.2997  134.3146  155.7293 LP  0  0  0  0  0  0  0  0  0  0  0  0  # atno 17395 bound_to 11000

$$$$
