#       Name:                AV-unprocessed.smi:810
#       Creating user name   scv26
#       Creation time:       Fri Mar 27 01:25:06 2020


#       File generated by GOLD software.
#

@<TRIPOS>MOLECULE
AV-unprocessed.smi:810
    39    40     1
SMALL
NO_CHARGES


@<TRIPOS>ATOM
      1 ****        -1.2428  -0.5850   0.9280 O.2            1 S1                 0.0000
      2 ****        -0.4984  -0.4334  -0.0400 C.2            1 S1                 0.0000
      3 ****        -0.6183  -1.0669  -1.2192 N.am           1 S1                 0.0000
      4 ****        -1.5600  -2.0623  -1.5954 C.ar           1 S1                 0.0000
      5 ****        -1.7839  -2.2745  -2.9714 C.ar           1 S1                 0.0000
      6 ****        -2.6968  -3.2680  -3.3730 C.ar           1 S1                 0.0000
      7 ****        -3.3469  -4.0218  -2.3769 C.ar           1 S1                 0.0000
      8 ****        -3.1331  -3.8431  -1.0564 N.ar           1 S1                 0.0000
      9 ****        -2.2578  -2.8868  -0.6778 C.ar           1 S1                 0.0000
     10 ****         0.5388   0.4159  -0.0519 N.am           1 S1                 0.0000
     11 ****         0.9534   1.2644   1.0628 C.3            1 S1                 0.0000
     12 ****         2.4791   1.4765   1.0109 C.3            1 S1                 0.0000
     13 ****         3.2899   0.1755   1.1362 C.3            1 S1                 0.0000
     14 ****         4.6699   0.4701   1.1360 O.3            1 S1                 0.0000
     15 ****         0.2241   2.5970   1.0950 C.3            1 S1                 0.0000
     16 ****         0.1652   3.4206   2.3597 C.3            1 S1                 0.0000
     17 ****        -1.0856   2.7577   1.8301 C.3            1 S1                 0.0000
     18 ****         0.0124  -0.7704  -1.9496 H              1 S1                 0.0000
     19 ****        -1.2670  -1.6822  -3.7124 H              1 S1                 0.0000
     20 ****        -2.8935  -3.4490  -4.4193 H              1 S1                 0.0000
     21 ****        -4.0529  -4.7926  -2.6484 H              1 S1                 0.0000
     22 ****        -2.1098  -2.8099   0.3880 H              1 S1                 0.0000
     23 ****         1.0884   0.4793  -0.8963 H              1 S1                 0.0000
     24 ****         0.7332   0.7451   1.9979 H              1 S1                 0.0000
     25 ****         2.7462   1.9870   0.0844 H              1 S1                 0.0000
     26 ****         2.7710   2.1475   1.8202 H              1 S1                 0.0000
     27 ****         3.0400  -0.3454   2.0609 H              1 S1                 0.0000
     28 ****         3.0777  -0.5042   0.3106 H              1 S1                 0.0000
     29 ****         4.8886   0.8910   0.3186 H              1 S1                 0.0000
     30 ****         0.3225   3.1672   0.1730 H              1 S1                 0.0000
     31 ****         0.6117   3.0018   3.2594 H              1 S1                 0.0000
     32 ****         0.2443   4.5012   2.2590 H              1 S1                 0.0000
     33 ****        -1.8409   3.3956   1.3760 H              1 S1                 0.0000
     34 ****        -1.4691   1.9006   2.3799 H              1 S1                 0.0000
     35 ****        -2.0112  -1.2225   0.8728 LP             1 S1                 0.0000
     36 ****        -1.0793  -0.0706   1.7699 LP             1 S1                 0.0000
     37 ****        -3.6090  -4.4026  -0.3778 LP             1 S1                 0.0000
     38 ****         5.1949  -0.3757   1.2303 LP             1 S1                 0.0000
     39 ****         4.8838   1.0819   1.8977 LP             1 S1                 0.0000
@<TRIPOS>BOND
    1    1    2 2     
    2    2    3 am    
    3    2   10 am    
    4    3    4 1     
    5    3   18 1     
    6    4    9 ar    
    7    4    5 ar    
    8    5    6 ar    
    9    5   19 1     
   10    6    7 ar    
   11    6   20 1     
   12    7    8 ar    
   13    7   21 1     
   14    8    9 ar    
   15    9   22 1     
   16   10   11 1     
   17   10   23 1     
   18   11   12 1     
   19   11   15 1     
   20   11   24 1     
   21   12   13 1     
   22   12   25 1     
   23   12   26 1     
   24   13   14 1     
   25   13   27 1     
   26   13   28 1     
   27   14   29 1     
   28   15   17 1     
   29   15   16 1     
   30   15   30 1     
   31   16   17 1     
   32   16   31 1     
   33   16   32 1     
   34   17   33 1     
   35   17   34 1     
   36    1   35 1     
   37    1   36 1     
   38    8   37 1     
   39   14   38 1     
   40   14   39 1     
@<TRIPOS>SUBSTRUCTURE
      1 S1             1
@<TRIPOS>SET
LONE_PAIRS      STATIC     ATOMS    <user>   **** ""
5 35 36 37 38 39
DONOR_HYDROGENS      STATIC     ATOMS    <user>   **** ""
3 18 23 29
ATOM$BLUE        STATIC     ATOMS    COLORGROUP SYSTEM
5 35 36 37 38 39
ATOM$RED        STATIC     ATOMS    COLORGROUP SYSTEM
3 18 23 29
