#       Name:                AV-unprocessed.smi:2658
#       Creating user name   scv26
#       Creation time:       Fri Mar 27 14:32:57 2020


#       File generated by GOLD software.
#

@<TRIPOS>MOLECULE
AV-unprocessed.smi:2658
    53    55     1
SMALL
NO_CHARGES


@<TRIPOS>ATOM
      1 ****        -6.1901   2.7116  -2.4843 C.3            1 S1                 0.0000
      2 ****        -5.0660   2.2963  -1.5504 C.ar           1 S1                 0.0000
      3 ****        -5.4021   1.7517  -0.2904 C.ar           1 S1                 0.0000
      4 ****        -4.3520   1.3810   0.5410 C.ar           1 S1                 0.0000
      5 ****        -4.3531   0.8211   1.8204 N.pl3          1 S1                 1.0000
      6 ****        -3.0698   0.6325   2.2349 C.2            1 S1                 0.0000
      7 ****        -2.2488   1.0647   1.2398 N.pl3          1 S1                 0.0000
      8 ****        -0.7798   1.0903   1.1817 C.3            1 S1                 0.0000
      9 ****        -0.1714  -0.2460   0.7112 C.3            1 S1                 0.0000
     10 ****        -0.6298  -0.5355  -0.5949 O.3            1 S1                 0.0000
     11 ****         1.3641  -0.1938   0.6876 C.3            1 S1                 0.0000
     12 ****         1.8732  -1.5237   0.7354 O.3            1 S1                 0.0000
     13 ****         3.2413  -1.7021   0.7478 C.ar           1 S1                 0.0000
     14 ****         3.7564  -3.0108   0.8069 C.ar           1 S1                 0.0000
     15 ****         5.1552  -3.1656   0.8236 C.ar           1 S1                 0.0000
     16 ****         5.7827  -4.5452   0.8884 C.3            1 S1                 0.0000
     17 ****         5.9341  -1.9875   0.7794 C.ar           1 S1                 0.0000
     18 ****         7.4507  -2.0325   0.7931 C.3            1 S1                 0.0000
     19 ****         5.3796  -0.7541   0.7209 N.ar           1 S1                 0.0000
     20 ****         4.0505  -0.6120   0.7054 N.ar           1 S1                 0.0000
     21 ****        -3.0049   1.5382   0.1605 C.ar           1 S1                 0.0000
     22 ****        -2.6570   2.0718  -1.0783 C.ar           1 S1                 0.0000
     23 ****        -3.7106   2.4528  -1.9397 C.ar           1 S1                 0.0000
     24 ****        -3.3603   3.0348  -3.2987 C.3            1 S1                 0.0000
     25 ****        -7.1682   2.5098  -2.0466 H              1 S1                 0.0000
     26 ****        -6.1281   2.1655  -3.4259 H              1 S1                 0.0000
     27 ****        -6.1346   3.7793  -2.6982 H              1 S1                 0.0000
     28 ****        -6.4316   1.6280   0.0124 H              1 S1                 0.0000
     29 ****        -2.7590   0.2170   3.1827 H              1 S1                 0.0000
     30 ****        -0.4566   1.9182   0.5503 H              1 S1                 0.0000
     31 ****        -0.4279   1.3215   2.1878 H              1 S1                 0.0000
     32 ****        -0.5002  -1.0391   1.3841 H              1 S1                 0.0000
     33 ****        -0.2531  -1.3585  -0.8677 H              1 S1                 0.0000
     34 ****         1.7227   0.3458  -0.1912 H              1 S1                 0.0000
     35 ****         1.7182   0.3418   1.5704 H              1 S1                 0.0000
     36 ****         3.0953  -3.8644   0.8400 H              1 S1                 0.0000
     37 ****         6.3724  -4.6525   1.7989 H              1 S1                 0.0000
     38 ****         6.4360  -4.7078   0.0310 H              1 S1                 0.0000
     39 ****         5.0213  -5.3257   0.8851 H              1 S1                 0.0000
     40 ****         7.8223  -2.5413  -0.0964 H              1 S1                 0.0000
     41 ****         7.8089  -2.5675   1.6727 H              1 S1                 0.0000
     42 ****         7.8798  -1.0298   0.8126 H              1 S1                 0.0000
     43 ****        -1.6259   2.1855  -1.3783 H              1 S1                 0.0000
     44 ****        -2.2809   3.0932  -3.4417 H              1 S1                 0.0000
     45 ****        -3.7646   4.0422  -3.4004 H              1 S1                 0.0000
     46 ****        -3.7683   2.4145  -4.0969 H              1 S1                 0.0000
     47 ****        -5.1679   0.5843   2.3719 H              1 S1                 0.0000
     48 ****        -0.3454   0.1903  -1.2212 LP             1 S1                 0.0000
     49 ****        -1.6275  -0.6040  -0.5952 LP             1 S1                 0.0000
     50 ****         1.5195  -2.0047  -0.0667 LP             1 S1                 0.0000
     51 ****         1.5119  -1.9489   1.5653 LP             1 S1                 0.0000
     52 ****         5.9669   0.0546   0.6892 LP             1 S1                 0.0000
     53 ****         3.6493   0.3030   0.6623 LP             1 S1                 0.0000
@<TRIPOS>BOND
    1    1    2 1     
    2    1   25 1     
    3    1   26 1     
    4    1   27 1     
    5    2   23 ar    
    6    2    3 ar    
    7    3    4 ar    
    8    3   28 1     
    9    4   21 ar    
   10    4    5 1     
   11    5    6 2     
   12    5   47 1     
   13    6    7 1     
   14    6   29 1     
   15    7    8 1     
   16    7   21 1     
   17    8    9 1     
   18    8   30 1     
   19    8   31 1     
   20    9   10 1     
   21    9   11 1     
   22    9   32 1     
   23   10   33 1     
   24   11   12 1     
   25   11   34 1     
   26   11   35 1     
   27   12   13 1     
   28   13   20 ar    
   29   13   14 ar    
   30   14   15 ar    
   31   14   36 1     
   32   15   16 1     
   33   15   17 ar    
   34   16   37 1     
   35   16   38 1     
   36   16   39 1     
   37   17   18 1     
   38   17   19 ar    
   39   18   40 1     
   40   18   41 1     
   41   18   42 1     
   42   19   20 ar    
   43   21   22 ar    
   44   22   23 ar    
   45   22   43 1     
   46   23   24 1     
   47   24   44 1     
   48   24   45 1     
   49   24   46 1     
   50   10   48 1     
   51   10   49 1     
   52   12   50 1     
   53   12   51 1     
   54   19   52 1     
   55   20   53 1     
@<TRIPOS>SUBSTRUCTURE
      1 S1             1
@<TRIPOS>SET
LONE_PAIRS      STATIC     ATOMS    <user>   **** ""
6 48 49 50 51 52 53
DONOR_HYDROGENS      STATIC     ATOMS    <user>   **** ""
2 47 33
ATOM$BLUE        STATIC     ATOMS    COLORGROUP SYSTEM
6 48 49 50 51 52 53
ATOM$RED        STATIC     ATOMS    COLORGROUP SYSTEM
2 47 33
