AV-unprocessed.smi:2001|AV-procd|sdf|8112|dock5
  -GOLD-   2272010343D 1   1.00000     0.00000
 Structure written by MMmdl.
 50 51  0  0  0  0  0  0  0  0  3 V2000
  150.9403  145.1733  159.8411 C   0  0  0  0  0  0  0  0  0  0  0  0
  151.5829  144.3431  160.7925 O   0  0  0  0  0  0  0  0  0  0  0  0
  152.5312  143.4730  160.1981 C   0  0  0  0  0  0  0  0  0  0  0  0
  152.9612  142.4189  161.2294 C   0  0  0  0  0  0  0  0  0  0  0  0
  153.0501  141.0864  160.6242 N   0  0  0  0  0  0  0  0  0  0  0  0
  152.2807  140.9343  159.4832 N   0  0  0  0  0  0  0  0  0  0  0  0
  152.2826  139.8141  158.8354 C   0  0  0  0  0  0  0  0  0  0  0  0
  151.4576  139.6513  157.5952 C   0  0  0  0  0  0  0  0  0  0  0  0
  151.5712  138.5574  157.0255 O   0  0  0  0  0  0  0  0  0  0  0  0
  150.6619  140.6849  157.1874 N   0  5  0  0  0  0  0  0  0  0  0  0
  150.5583  141.1818  155.8144 C   0  0  0  0  0  0  0  0  0  0  0  0
  150.0399  140.0604  154.8950 C   0  0  0  0  0  0  0  0  0  0  0  0
  148.5549  139.9498  154.9456 N   0  3  1  0  0  0  0  0  0  0  0  0
  147.8347  141.2487  154.9851 C   0  0  0  0  0  0  0  0  0  0  0  0
  147.7602  141.8937  153.5843 C   0  0  2  0  0  0  0  0  0  0  0  0
  146.9122  143.1704  153.5843 C   0  0  0  0  0  0  0  0  0  0  0  0
  147.1729  140.9717  152.6712 O   0  0  0  0  0  0  0  0  0  0  0  0
  147.9238  139.7687  152.5401 C   0  0  2  0  0  0  0  0  0  0  0  0
  147.2529  138.9014  151.4692 C   0  0  0  0  0  0  0  0  0  0  0  0
  147.9743  139.0624  153.9091 C   0  0  0  0  0  0  0  0  0  0  0  0
  153.0905  138.6935  159.3029 C   0  0  0  0  0  0  0  0  0  0  0  0
  153.8393  138.8594  160.4149 C   0  0  0  0  0  0  0  0  0  0  0  0
  153.8597  140.1216  161.1541 C   0  0  0  0  0  0  0  0  0  0  0  0
  154.5476  140.3018  162.1588 O   0  0  0  0  0  0  0  0  0  0  0  0
  150.2332  145.8312  160.3464 H   0  0  0  0  0  0  0  0  0  0  0  0
  150.3864  144.5806  159.1120 H   0  0  0  0  0  0  0  0  0  0  0  0
  151.6606  145.7972  159.3102 H   0  0  0  0  0  0  0  0  0  0  0  0
  152.0938  142.9845  159.3256 H   0  0  0  0  0  0  0  0  0  0  0  0
  153.3953  144.0455  159.8568 H   0  0  0  0  0  0  0  0  0  0  0  0
  153.9145  142.7019  161.6796 H   0  0  0  0  0  0  0  0  0  0  0  0
  152.2454  142.4037  162.0533 H   0  0  0  0  0  0  0  0  0  0  0  0
  149.8868  142.0379  155.7347 H   0  0  0  0  0  0  0  0  0  0  0  0
  151.5241  141.5235  155.4419 H   0  0  0  0  0  0  0  0  0  0  0  0
  150.3771  140.2384  153.8738 H   0  0  0  0  0  0  0  0  0  0  0  0
  150.5042  139.1201  155.1969 H   0  0  0  0  0  0  0  0  0  0  0  0
  146.8259  141.0637  155.3567 H   0  0  0  0  0  0  0  0  0  0  0  0
  148.3066  141.9239  155.6999 H   0  0  0  0  0  0  0  0  0  0  0  0
  148.7608  142.1507  153.2338 H   0  0  0  0  0  0  0  0  0  0  0  0
  147.3274  143.9174  154.2615 H   0  0  0  0  0  0  0  0  0  0  0  0
  145.8887  142.9651  153.8992 H   0  0  0  0  0  0  0  0  0  0  0  0
  146.8717  143.6113  152.5877 H   0  0  0  0  0  0  0  0  0  0  0  0
  148.9345  140.0090  152.2056 H   0  0  0  0  0  0  0  0  0  0  0  0
  147.7989  137.9692  151.3212 H   0  0  0  0  0  0  0  0  0  0  0  0
  147.2188  139.4213  150.5114 H   0  0  0  0  0  0  0  0  0  0  0  0
  146.2295  138.6497  151.7486 H   0  0  0  0  0  0  0  0  0  0  0  0
  148.5361  138.1287  153.8532 H   0  0  0  0  0  0  0  0  0  0  0  0
  146.9642  138.7919  154.2198 H   0  0  0  0  0  0  0  0  0  0  0  0
  153.1039  137.7459  158.7853 H   0  0  0  0  0  0  0  0  0  0  0  0
  154.4425  138.0368  160.7698 H   0  0  0  0  0  0  0  0  0  0  0  0
  148.3790  139.4901  155.8288 H   0  0  0  0  0  0  0  0  0  0  0  0
  1  2  1  0  0  0  0
  1 25  1  0  0  0  0
  1 26  1  0  0  0  0
  1 27  1  0  0  0  0
  2  3  1  0  0  0  0
  3  4  1  0  0  0  0
  3 28  1  0  0  0  0
  3 29  1  0  0  0  0
  4  5  1  0  0  0  0
  4 30  1  0  0  0  0
  4 31  1  0  0  0  0
  5 23  1  0  0  0  0
  5  6  1  0  0  0  0
  6  7  2  0  0  0  0
  7  8  1  0  0  0  0
  7 21  1  0  0  0  0
  8  9  2  0  0  0  0
  8 10  1  0  0  0  0
 10 11  1  0  0  0  0
 11 12  1  0  0  0  0
 11 32  1  0  0  0  0
 11 33  1  0  0  0  0
 12 13  1  0  0  0  0
 12 34  1  0  0  0  0
 12 35  1  0  0  0  0
 13 20  1  0  0  0  0
 13 14  1  0  0  0  0
 13 50  1  0  0  0  0
 14 15  1  0  0  0  0
 14 36  1  0  0  0  0
 14 37  1  0  0  0  0
 15 16  1  0  0  0  0
 15 17  1  0  0  0  0
 15 38  1  0  0  0  0
 16 39  1  0  0  0  0
 16 40  1  0  0  0  0
 16 41  1  0  0  0  0
 17 18  1  0  0  0  0
 18 19  1  0  0  0  0
 18 20  1  0  0  0  0
 18 42  1  0  0  0  0
 19 43  1  0  0  0  0
 19 44  1  0  0  0  0
 19 45  1  0  0  0  0
 20 46  1  0  0  0  0
 20 47  1  0  0  0  0
 21 22  2  0  0  0  0
 21 48  1  0  0  0  0
 22 23  1  0  0  0  0
 22 49  1  0  0  0  0
 23 24  2  0  0  0  0
M  CHG  1  10  -1
M  CHG  1  13   1
M  END
> <s_m_source_file>
AV-unprocessed.smi

> <i_m_source_file_index>
2001

> <i_lp_mmshare_version>
43012

> <i_f3d_flags>
0

> <s_epik_input>
W0NIM11PW0NIMl1bQ0gyXW4xbmMoW2NIXVtjSF1jMT1PKUMoPU8pW05IXVtDSDJdW0NIMl1OMltDSDJdW0NAQEhdKFtDSDNdKU9bQ0BASF0oW0NIM10pW0NIMl0y

> <s_epik_cmdline>
J2VwaWtfcHl0aG9uJywgJy1waCcsICc3LjAnLCAnLXRuJywgJzgnLCAnLW1hJywgJzIwMCcsICctbWV0YWxfYmluZGluZycsICctaW1hZScsICc8aW5maWxlLm1hZT4nLCAnLW9tYWUnLCAnPG91dGZpbGUubWFlPic=

> <r_lp_tautomer_probability>
1

> <r_epik_Ionization_Penalty>
6.90846

> <r_epik_Ionization_Penalty_Charging>
6.90846

> <r_epik_Ionization_Penalty_Neutral>
1.08445e-11

> <r_epik_State_Penalty>
7.54671

> <r_epik_Charging_Adjusted_Penalty>
14.4552

> <i_epik_Tot_Q>
0

> <i_epik_Tot_abs_Q>
2

> <r_epik_Metal_State_Penalty>
3.46181

> <b_epik_Metal_Only>
1

> <s_lp_Force_Field>
OPLS_2005

> <r_lp_Energy>
41.6735

> <b_lp_Chiralities_Consistent>
1

> <s_lp_Variant>
AV-unprocessed.smi:2001-11

> <Gold.Version>
5.8.1

> <Gold.Id.Protein>
6NUR|6NUR_protein|mol2

> <Gold.PLP.Fitness>
41.7007

> <Gold.PLP.PLP>
-44.0510

> <Gold.PLP.part.hbond>
-1.0000

> <Gold.PLP.part.metal>
0.0000

> <Gold.PLP.part.buried>
-3.2917

> <Gold.PLP.part.nonpolar>
-41.8154

> <Gold.PLP.part.repulsive>
1.0405

> <Gold.PLP.ligand.clash>
0.0000

> <Gold.PLP.ligand.torsion>
1.2983

> <Gold.PLP.Chemscore.Hbond>
0.0000

> <Gold.PLP.Chemscore.CHOScore>
0.0000

> <Gold.PLP.Chemscore.Metal>
0.0000

> <Gold.PLP.Chemscore.Internal.Correction>
0.2463

> <Gold.Rescore>
     Score         DG    S(hbond)    S(metal)    S(lipo)     H(rot)  DE(clash)    DE(int)     intcor
      8.85     -12.50       0.00        0.00     104.14       2.02       1.35       2.30       ----

> <Gold.Chemscore.Fitness>
8.8487

> <Gold.Chemscore.DG>
-12.4982

> <Gold.Chemscore.ZeroCoef>
-5.4800

> <Gold.Chemscore.Hbond>
0.0000

> <Gold.Chemscore.Metal>
0.0000

> <Gold.Chemscore.Lipo>
104.1375

> <Gold.Chemscore.Internal_Hbond>
0.0000

> <Gold.Chemscore.DEClash>
1.3452

> <Gold.Chemscore.DEInternal>
2.3044

> <Gold.Chemscore.Rot>
2.0179

> <Gold.Chemscore.Internal.Correction>
   9.000000E+99

> <Gold.Chemscore.Hbond.Weighted>
-0.0000

> <Gold.Chemscore.Metal.Weighted>
-0.0000

> <Gold.Chemscore.Lipo.Weighted>
-12.1841

> <Gold.Chemscore.Internal_Hbond.Weighted>
0.0000

> <Gold.Chemscore.DEClash.Weighted>
1.3452

> <Gold.Chemscore.DEInternal.Weighted>
2.3044

> <Gold.Chemscore.Rot.Weighted>
5.1659

> <Gold.Chemscore.Internal.Correction.Weighted>
   9.000000E+99

> <Gold.Protein.RotatedTorsions>
[ 6907 6896 6895 6894 ] final -132.79 input  -60.11 | X-H torsion
[ 7974 7965 7964 7962 ] final  -52.49 input  175.53 | X-H torsion
[ 8008 7997 7996 7995 ] final  137.65 input   59.86 | X-H torsion
[ 10167 10162 10161 10158 ] final   -7.74 input  -65.29 | X-H torsion
[ 10718 10713 10712 10709 ] final -176.08 input   66.30 | X-H torsion
[ 10763 10752 10751 10750 ] final -175.65 input  -60.55 | X-H torsion
[ 11005 11000 10999 10996 ] final  132.19 input  -57.11 | X-H torsion

> <Gold.Protein.ActiveResidues>
 VAL166  LYS551  ARG553  GLY616  TRP617  ASP618  TYR619  PRO620  LYS621  CYS622 
 ASP623  PHE694  ASN695  SER759  ASP760  ASP761  ALA762  ILE779  LEU786  VAL792 
 PHE793  MET794  SER795  GLU796  ALA797  LYS798  CYS799  TRP800  GLU811  SER814 

> <Gold.Protein.RotatedAtoms>
  150.9664  133.6390  159.2745 H   0  0  0  0  0  0  0  0  0  0  0  0  # atno 6907 bound_to 6896
  151.3694  135.0918  159.9470 H   0  0  0  0  0  0  0  0  0  0  0  0  # atno 6908 bound_to 6896
  152.5167  133.9222  159.7594 H   0  0  0  0  0  0  0  0  0  0  0  0  # atno 6909 bound_to 6896
  145.9073  140.7944  142.9713 H   0  0  0  0  0  0  0  0  0  0  0  0  # atno 7974 bound_to 7965
  156.3001  140.2414  156.3944 H   0  0  0  0  0  0  0  0  0  0  0  0  # atno 8008 bound_to 7997
  154.8584  140.0421  157.1669 H   0  0  0  0  0  0  0  0  0  0  0  0  # atno 8009 bound_to 7997
  154.8923  140.2965  155.5368 H   0  0  0  0  0  0  0  0  0  0  0  0  # atno 8010 bound_to 7997
  140.7038  143.6047  150.8763 H   0  0  0  0  0  0  0  0  0  0  0  0  # atno 10167 bound_to 10162
  156.8094  130.9580  151.3116 H   0  0  0  0  0  0  0  0  0  0  0  0  # atno 10718 bound_to 10713
  154.5819  135.2837  155.0724 H   0  0  0  0  0  0  0  0  0  0  0  0  # atno 10763 bound_to 10752
  154.2058  135.6416  153.5104 H   0  0  0  0  0  0  0  0  0  0  0  0  # atno 10764 bound_to 10752
  153.0091  135.5480  154.6475 H   0  0  0  0  0  0  0  0  0  0  0  0  # atno 10765 bound_to 10752
  139.9775  134.9559  156.9547 H   0  0  0  0  0  0  0  0  0  0  0  0  # atno 11005 bound_to 11000
  144.6740  140.1771  143.7409 LP  0  0  0  0  0  0  0  0  0  0  0  0  # atno 17320 bound_to 7965
  145.8716  139.2275  143.1658 LP  0  0  0  0  0  0  0  0  0  0  0  0  # atno 17321 bound_to 7965
  139.9771  143.5993  152.2955 LP  0  0  0  0  0  0  0  0  0  0  0  0  # atno 17342 bound_to 10162
  139.6600  144.7662  151.1981 LP  0  0  0  0  0  0  0  0  0  0  0  0  # atno 17343 bound_to 10162
  157.6513  130.8887  149.9640 LP  0  0  0  0  0  0  0  0  0  0  0  0  # atno 17370 bound_to 10713
  156.1053  130.3653  150.0144 LP  0  0  0  0  0  0  0  0  0  0  0  0  # atno 17371 bound_to 10713
  140.5164  134.0951  155.7282 LP  0  0  0  0  0  0  0  0  0  0  0  0  # atno 17394 bound_to 11000
  141.1451  133.9070  157.2235 LP  0  0  0  0  0  0  0  0  0  0  0  0  # atno 17395 bound_to 11000

$$$$
