AV-unprocessed.smi:655|AV-procd|sdf|3215|dock8
  -GOLD-   22720 0153D 1   1.00000     0.00000
 Structure written by MMmdl.
 35 36  0  0  0  0  0  0  0  0  1 V2000
  153.0788  143.0065  162.5332 C   0  0  0  0  0  0  0  0  0  0  0  0
  152.7927  143.5109  161.1118 C   0  0  2  0  0  0  0  0  0  0  0  0
  151.3791  144.1087  160.9996 C   0  0  0  0  0  0  0  0  0  0  0  0
  151.0834  144.6166  159.5758 C   0  0  0  0  0  0  0  0  0  0  0  0
  151.2869  143.5261  158.4959 C   0  0  2  0  0  0  0  0  0  0  0  0
  151.2971  144.1706  157.2356 O   0  0  0  0  0  0  0  0  0  0  0  0
  150.1844  142.4254  158.4486 C   0  0  0  0  0  0  0  0  0  0  0  0
  150.2136  141.5534  157.2891 N   0  0  0  0  0  0  0  0  0  0  0  0
  149.3681  141.7560  156.2076 C   0  0  0  0  0  0  0  0  0  0  0  0
  149.3687  140.9757  155.1003 C   0  0  0  0  0  0  0  0  0  0  0  0
  148.2777  141.2958  153.7999 Cl  0  0  0  0  0  0  0  0  0  0  0  0
  150.2984  139.8525  154.9987 C   0  0  0  0  0  0  0  0  0  0  0  0
  150.3835  139.0813  154.0451 O   0  0  0  0  0  0  0  0  0  0  0  0
  151.1391  139.6894  156.1030 N   0  0  0  0  0  0  0  0  0  0  0  0
  151.1477  140.4900  157.2455 C   0  0  0  0  0  0  0  0  0  0  0  0
  151.9484  140.2457  158.1463 O   0  0  0  0  0  0  0  0  0  0  0  0
  152.6961  142.9043  158.6457 C   0  0  0  0  0  0  0  0  0  0  0  0
  152.9809  142.3950  160.0691 C   0  0  0  0  0  0  0  0  0  0  0  0
  151.8007  138.9273  156.0695 H   0  0  0  0  0  0  0  0  0  0  0  0
  152.3950  142.2053  162.8150 H   0  0  0  0  0  0  0  0  0  0  0  0
  152.9707  143.8091  163.2632 H   0  0  0  0  0  0  0  0  0  0  0  0
  154.0952  142.6207  162.6166 H   0  0  0  0  0  0  0  0  0  0  0  0
  153.5116  144.3020  160.8931 H   0  0  0  0  0  0  0  0  0  0  0  0
  150.6489  143.3564  161.2916 H   0  0  0  0  0  0  0  0  0  0  0  0
  151.2668  144.9313  161.7066 H   0  0  0  0  0  0  0  0  0  0  0  0
  150.0785  145.0351  159.5259 H   0  0  0  0  0  0  0  0  0  0  0  0
  151.7564  145.4513  159.3725 H   0  0  0  0  0  0  0  0  0  0  0  0
  150.4146  144.4371  157.0287 H   0  0  0  0  0  0  0  0  0  0  0  0
  150.2798  141.7542  159.3045 H   0  0  0  0  0  0  0  0  0  0  0  0
  149.1806  142.8430  158.5357 H   0  0  0  0  0  0  0  0  0  0  0  0
  148.6688  142.5791  156.2476 H   0  0  0  0  0  0  0  0  0  0  0  0
  152.8319  142.0933  157.9291 H   0  0  0  0  0  0  0  0  0  0  0  0
  153.4528  143.6506  158.3977 H   0  0  0  0  0  0  0  0  0  0  0  0
  154.0011  142.0130  160.1177 H   0  0  0  0  0  0  0  0  0  0  0  0
  152.3307  141.5513  160.3021 H   0  0  0  0  0  0  0  0  0  0  0  0
  1  2  1  0  0  0  0
  1 20  1  0  0  0  0
  1 21  1  0  0  0  0
  1 22  1  0  0  0  0
  2 18  1  0  0  0  0
  2  3  1  0  0  0  0
  2 23  1  0  0  0  0
  3  4  1  0  0  0  0
  3 24  1  0  0  0  0
  3 25  1  0  0  0  0
  4  5  1  0  0  0  0
  4 26  1  0  0  0  0
  4 27  1  0  0  0  0
  5  6  1  0  0  0  0
  5  7  1  0  0  0  0
  5 17  1  0  0  0  0
  6 28  1  0  0  0  0
  7  8  1  0  0  0  0
  7 29  1  0  0  0  0
  7 30  1  0  0  0  0
  8 15  1  0  0  0  0
  8  9  1  0  0  0  0
  9 10  2  0  0  0  0
  9 31  1  0  0  0  0
 10 11  1  0  0  0  0
 10 12  1  0  0  0  0
 12 13  2  0  0  0  0
 12 14  1  0  0  0  0
 14 19  1  0  0  0  0
 14 15  1  0  0  0  0
 15 16  2  0  0  0  0
 17 18  1  0  0  0  0
 17 32  1  0  0  0  0
 17 33  1  0  0  0  0
 18 34  1  0  0  0  0
 18 35  1  0  0  0  0
M  END
> <s_m_source_file>
AV-unprocessed.smi

> <i_m_source_file_index>
655

> <i_lp_mmshare_version>
43012

> <i_f3d_flags>
0

> <s_epik_input>
W0NIMl0xW0NIMl1bQ0BIXShbQ0gzXSlbQ0gyXVtDSDJdW0NAQF0xKFtPSF0pW0NIMl1uMltjSF1jKENsKWMoPU8pW25IXWMyPU8=

> <s_epik_cmdline>
J2VwaWtfcHl0aG9uJywgJy1waCcsICc3LjAnLCAnLXRuJywgJzgnLCAnLW1hJywgJzIwMCcsICctbWV0YWxfYmluZGluZycsICctaW1hZScsICc8aW5maWxlLm1hZT4nLCAnLW9tYWUnLCAnPG91dGZpbGUubWFlPic=

> <r_lp_tautomer_probability>
0.999537

> <r_epik_Ionization_Penalty>
0.0114762

> <r_epik_Ionization_Penalty_Charging>
0.0114753

> <r_epik_Ionization_Penalty_Neutral>
8.25878e-07

> <r_epik_State_Penalty>
0.00883314

> <r_epik_Charging_Adjusted_Penalty>
0.0203085

> <i_epik_Tot_Q>
0

> <i_epik_Tot_abs_Q>
0

> <r_epik_Metal_State_Penalty>
1.64347

> <b_epik_Metal_Only>
0

> <s_lp_Force_Field>
OPLS_2005

> <r_lp_Energy>
18.8489

> <b_lp_Chiralities_Consistent>
1

> <s_lp_Variant>
AV-unprocessed.smi:655-2

> <Gold.Version>
5.8.1

> <Gold.Id.Protein>
6NUR|6NUR_protein|mol2

> <Gold.PLP.Fitness>
44.3456

> <Gold.PLP.PLP>
-39.1182

> <Gold.PLP.part.hbond>
-1.4890

> <Gold.PLP.part.metal>
0.0000

> <Gold.PLP.part.buried>
-3.9901

> <Gold.PLP.part.nonpolar>
-32.4983

> <Gold.PLP.part.repulsive>
0.3283

> <Gold.PLP.ligand.clash>
0.0000

> <Gold.PLP.ligand.torsion>
0.3549

> <Gold.PLP.Chemscore.Hbond>
0.9750

> <Gold.PLP.Chemscore.CHOScore>
1.0000

> <Gold.PLP.Chemscore.Metal>
0.0000

> <Gold.Chemscore.Hbonds>
donor molecule, donor type, donor heavy atom, donor atom, acceptor molecule, acceptor atom, score
      L1  H     6    28       P1  8028  0.98
      L1  C     9    31       P1  8028  1.00

> <Gold.PLP.Chemscore.Internal.Correction>
0.0122

> <Gold.Rescore>
     Score         DG    S(hbond)    S(metal)    S(lipo)     H(rot)  DE(clash)    DE(int)     intcor
     12.75     -15.64       0.93        0.00     100.78       1.84       0.03       2.87       ----

> <Gold.Chemscore.Fitness>
12.7466

> <Gold.Chemscore.DG>
-15.6445

> <Gold.Chemscore.ZeroCoef>
-5.4800

> <Gold.Chemscore.Hbond>
0.9250

> <Gold.Chemscore.Metal>
0.0000

> <Gold.Chemscore.Lipo>
100.7809

> <Gold.Chemscore.Internal_Hbond>
0.0000

> <Gold.Chemscore.DEClash>
0.0329

> <Gold.Chemscore.DEInternal>
2.8650

> <Gold.Chemscore.Rot>
1.8424

> <Gold.Chemscore.Internal.Correction>
   9.000000E+99

> <Gold.Chemscore.Hbonds>
donor molecule, donor type, donor heavy atom, donor atom, acceptor molecule, acceptor atom, score
      L1  H     6    28       P1  8028  0.75

> <Gold.Chemscore.Hbond.Weighted>
-3.0896

> <Gold.Chemscore.Metal.Weighted>
-0.0000

> <Gold.Chemscore.Lipo.Weighted>
-11.7914

> <Gold.Chemscore.Internal_Hbond.Weighted>
0.0000

> <Gold.Chemscore.DEClash.Weighted>
0.0329

> <Gold.Chemscore.DEInternal.Weighted>
2.8650

> <Gold.Chemscore.Rot.Weighted>
4.7164

> <Gold.Chemscore.Internal.Correction.Weighted>
   9.000000E+99

> <Gold.Protein.RotatedTorsions>
[ 6907 6896 6895 6894 ] final -149.22 input  -60.11 | X-H torsion
[ 7974 7965 7964 7962 ] final  127.19 input  175.53 | X-H torsion
[ 8008 7997 7996 7995 ] final   96.22 input   59.86 | X-H torsion
[ 10167 10162 10161 10158 ] final   22.97 input  -65.29 | X-H torsion
[ 10718 10713 10712 10709 ] final -130.15 input   66.30 | X-H torsion
[ 10763 10752 10751 10750 ] final  135.11 input  -60.55 | X-H torsion
[ 11005 11000 10999 10996 ] final   45.38 input  -57.11 | X-H torsion

> <Gold.Protein.ActiveResidues>
 VAL166  LYS551  ARG553  GLY616  TRP617  ASP618  TYR619  PRO620  LYS621  CYS622 
 ASP623  PHE694  ASN695  SER759  ASP760  ASP761  ALA762  ILE779  LEU786  VAL792 
 PHE793  MET794  SER795  GLU796  ALA797  LYS798  CYS799  TRP800  GLU811  SER814 

> <Gold.Protein.RotatedAtoms>
  151.1810  133.4725  159.2593 H   0  0  0  0  0  0  0  0  0  0  0  0  # atno 6907 bound_to 6896
  151.1259  135.0104  159.8570 H   0  0  0  0  0  0  0  0  0  0  0  0  # atno 6908 bound_to 6896
  152.5458  134.1718  159.8653 H   0  0  0  0  0  0  0  0  0  0  0  0  # atno 6909 bound_to 6896
  145.0533  139.3865  143.5043 H   0  0  0  0  0  0  0  0  0  0  0  0  # atno 7974 bound_to 7965
  156.0773  140.3275  155.7650 H   0  0  0  0  0  0  0  0  0  0  0  0  # atno 8008 bound_to 7997
  155.5209  140.0585  157.2924 H   0  0  0  0  0  0  0  0  0  0  0  0  # atno 8009 bound_to 7997
  154.4562  140.1944  156.0389 H   0  0  0  0  0  0  0  0  0  0  0  0  # atno 8010 bound_to 7997
  140.5306  143.9847  150.6464 H   0  0  0  0  0  0  0  0  0  0  0  0  # atno 10167 bound_to 10162
  156.2116  130.6922  151.0656 H   0  0  0  0  0  0  0  0  0  0  0  0  # atno 10718 bound_to 10713
  153.8346  135.3099  155.3421 H   0  0  0  0  0  0  0  0  0  0  0  0  # atno 10763 bound_to 10752
  154.7958  135.4756  154.0162 H   0  0  0  0  0  0  0  0  0  0  0  0  # atno 10764 bound_to 10752
  153.1613  135.6861  153.8830 H   0  0  0  0  0  0  0  0  0  0  0  0  # atno 10765 bound_to 10752
  140.1465  134.4516  155.8412 H   0  0  0  0  0  0  0  0  0  0  0  0  # atno 11005 bound_to 11000
  146.3519  140.0194  142.8660 LP  0  0  0  0  0  0  0  0  0  0  0  0  # atno 17320 bound_to 7965
  145.1500  140.9618  143.4438 LP  0  0  0  0  0  0  0  0  0  0  0  0  # atno 17321 bound_to 7965
  140.3221  143.3130  152.0773 LP  0  0  0  0  0  0  0  0  0  0  0  0  # atno 17342 bound_to 10162
  139.4953  144.6566  151.6558 LP  0  0  0  0  0  0  0  0  0  0  0  0  # atno 17343 bound_to 10162
  157.7041  131.0763  150.6723 LP  0  0  0  0  0  0  0  0  0  0  0  0  # atno 17370 bound_to 10713
  156.6783  130.4560  149.5635 LP  0  0  0  0  0  0  0  0  0  0  0  0  # atno 17371 bound_to 10713
  141.2193  133.6854  156.7344 LP  0  0  0  0  0  0  0  0  0  0  0  0  # atno 17394 bound_to 11000
  140.2657  134.8432  157.3800 LP  0  0  0  0  0  0  0  0  0  0  0  0  # atno 17395 bound_to 11000

$$$$
