AV-unprocessed.smi:276|AV-procd|sdf|2084|dock10
  -GOLD-   2262021363D 1   1.00000     0.00000
 Structure written by MMmdl.
 57 61  0  0  0  0  0  0  0  0  1 V2000
  147.5893  129.5596  153.3840 C   0  0  0  0  0  0  0  0  0  0  0  0
  148.6569  130.4879  153.3063 O   0  0  0  0  0  0  0  0  0  0  0  0
  148.2981  131.7734  153.7876 C   0  0  2  0  0  0  0  0  0  0  0  0
  149.4452  132.7905  153.7973 C   0  0  0  0  0  0  0  0  0  0  0  0
  148.8648  133.3065  155.1210 C   0  0  2  0  0  0  0  0  0  0  0  0
  149.8918  133.7387  156.0721 N   0  0  0  0  0  0  0  0  0  0  0  0
  151.0963  132.9202  156.1318 C   0  0  0  0  0  0  0  0  0  0  0  0
  150.2236  135.0494  156.0346 C   0  0  0  0  0  0  0  0  0  0  0  0
  150.7279  135.5215  154.8669 N   0  0  0  0  0  0  0  0  0  0  0  0
  151.0875  136.8041  154.7616 C   0  0  0  0  0  0  0  0  0  0  0  0
  151.0194  137.7689  155.6813 N   0  0  0  0  0  0  0  0  0  0  0  0
  150.4908  137.3026  156.8490 C   0  0  0  0  0  0  0  0  0  0  0  0
  150.0629  135.9702  157.1103 C   0  0  0  0  0  0  0  0  0  0  0  0
  149.5639  135.8821  158.4052 N   0  0  0  0  0  0  0  0  0  0  0  0
  149.7031  137.0875  158.8856 C   0  0  0  0  0  0  0  0  0  0  0  0
  150.2532  138.0024  158.0176 N   0  0  0  0  0  0  0  0  0  0  0  0
  150.5189  139.4046  158.2832 C   0  0  0  0  0  0  0  0  0  0  0  0
  152.0166  139.6867  158.5075 C   0  0  1  0  0  0  0  0  0  0  0  0
  152.6949  139.7875  157.2691 O   0  0  0  0  0  0  0  0  0  0  0  0
  152.2602  140.9393  159.3742 C   0  0  1  0  0  0  0  0  0  0  0  0
  153.6855  141.1557  159.8919 C   0  0  0  0  0  0  0  0  0  0  0  0
  153.7716  142.6656  160.0768 C   0  0  0  0  0  0  0  0  0  0  0  0
  152.4745  143.2052  159.4653 C   0  0  0  0  0  0  0  0  0  0  0  0
  151.9654  142.1393  158.6776 O   0  0  0  0  0  0  0  0  0  0  0  0
  148.2819  131.8821  155.3247 C   0  0  0  0  0  0  0  0  0  0  0  0
  146.9854  131.6405  156.1086 C   0  0  0  0  0  0  0  0  0  0  0  0
  147.7994  130.9194  157.1883 C   0  0  0  0  0  0  0  0  0  0  0  0
  148.9639  130.8092  156.1983 C   0  0  0  0  0  0  0  0  0  0  0  0
  147.9207  128.5892  153.0144 H   0  0  0  0  0  0  0  0  0  0  0  0
  146.7408  129.8781  152.7772 H   0  0  0  0  0  0  0  0  0  0  0  0
  147.2541  129.4309  154.4141 H   0  0  0  0  0  0  0  0  0  0  0  0
  147.3821  132.1675  153.3412 H   0  0  0  0  0  0  0  0  0  0  0  0
  150.4260  132.3221  153.9028 H   0  0  0  0  0  0  0  0  0  0  0  0
  149.4247  133.5086  152.9773 H   0  0  0  0  0  0  0  0  0  0  0  0
  148.0865  134.0476  154.9339 H   0  0  0  0  0  0  0  0  0  0  0  0
  151.6445  132.9709  155.1901 H   0  0  0  0  0  0  0  0  0  0  0  0
  150.8461  131.8768  156.3234 H   0  0  0  0  0  0  0  0  0  0  0  0
  151.7583  133.2515  156.9333 H   0  0  0  0  0  0  0  0  0  0  0  0
  151.4889  137.0990  153.8033 H   0  0  0  0  0  0  0  0  0  0  0  0
  149.4017  137.3457  159.8904 H   0  0  0  0  0  0  0  0  0  0  0  0
  150.1376  139.9947  157.4486 H   0  0  0  0  0  0  0  0  0  0  0  0
  149.9440  139.6995  159.1619 H   0  0  0  0  0  0  0  0  0  0  0  0
  152.4531  138.8342  159.0297 H   0  0  0  0  0  0  0  0  0  0  0  0
  152.0547  139.7695  156.5745 H   0  0  0  0  0  0  0  0  0  0  0  0
  151.5866  140.8964  160.2325 H   0  0  0  0  0  0  0  0  0  0  0  0
  153.8740  140.6069  160.8149 H   0  0  0  0  0  0  0  0  0  0  0  0
  154.4317  140.8425  159.1616 H   0  0  0  0  0  0  0  0  0  0  0  0
  153.8553  142.9452  161.1274 H   0  0  0  0  0  0  0  0  0  0  0  0
  154.6439  143.0619  159.5558 H   0  0  0  0  0  0  0  0  0  0  0  0
  151.7536  143.4456  160.2482 H   0  0  0  0  0  0  0  0  0  0  0  0
  152.6342  144.1010  158.8649 H   0  0  0  0  0  0  0  0  0  0  0  0
  146.4820  132.5442  156.4515 H   0  0  0  0  0  0  0  0  0  0  0  0
  146.2990  130.9723  155.5868 H   0  0  0  0  0  0  0  0  0  0  0  0
  148.0243  131.5539  158.0454 H   0  0  0  0  0  0  0  0  0  0  0  0
  147.3831  129.9616  157.5004 H   0  0  0  0  0  0  0  0  0  0  0  0
  149.0009  129.8268  155.7266 H   0  0  0  0  0  0  0  0  0  0  0  0
  149.9359  131.0816  156.6083 H   0  0  0  0  0  0  0  0  0  0  0  0
  1  2  1  0  0  0  0
  1 29  1  0  0  0  0
  1 30  1  0  0  0  0
  1 31  1  0  0  0  0
  2  3  1  0  0  0  0
  3 25  1  0  0  0  0
  3  4  1  0  0  0  0
  3 32  1  0  0  0  0
  4  5  1  0  0  0  0
  4 33  1  0  0  0  0
  4 34  1  0  0  0  0
  5  6  1  0  0  0  0
  5 25  1  0  0  0  0
  5 35  1  0  0  0  0
  6  7  1  0  0  0  0
  6  8  1  0  0  0  0
  7 36  1  0  0  0  0
  7 37  1  0  0  0  0
  7 38  1  0  0  0  0
  8 13  1  0  0  0  0
  8  9  2  0  0  0  0
  9 10  1  0  0  0  0
 10 11  2  0  0  0  0
 10 39  1  0  0  0  0
 11 12  1  0  0  0  0
 12 16  1  0  0  0  0
 12 13  2  0  0  0  0
 13 14  1  0  0  0  0
 14 15  2  0  0  0  0
 15 16  1  0  0  0  0
 15 40  1  0  0  0  0
 16 17  1  0  0  0  0
 17 18  1  0  0  0  0
 17 41  1  0  0  0  0
 17 42  1  0  0  0  0
 18 19  1  0  0  0  0
 18 20  1  0  0  0  0
 18 43  1  0  0  0  0
 19 44  1  0  0  0  0
 20 24  1  0  0  0  0
 20 21  1  0  0  0  0
 20 45  1  0  0  0  0
 21 22  1  0  0  0  0
 21 46  1  0  0  0  0
 21 47  1  0  0  0  0
 22 23  1  0  0  0  0
 22 48  1  0  0  0  0
 22 49  1  0  0  0  0
 23 24  1  0  0  0  0
 23 50  1  0  0  0  0
 23 51  1  0  0  0  0
 25 28  1  0  0  0  0
 25 26  1  0  0  0  0
 26 27  1  0  0  0  0
 26 52  1  0  0  0  0
 26 53  1  0  0  0  0
 27 28  1  0  0  0  0
 27 54  1  0  0  0  0
 27 55  1  0  0  0  0
 28 56  1  0  0  0  0
 28 57  1  0  0  0  0
M  END
> <s_m_source_file>
AV-unprocessed.smi

> <i_m_source_file_index>
276

> <i_lp_mmshare_version>
43012

> <i_f3d_flags>
0

> <s_epik_input>
W0NIMl0xW0NIMl1bQ0gyXUMxMltDQEhdKE9bQ0gzXSlbQ0gyXVtDQEhdMk4oW0NIM10pYyhuW2NIXW4zKWMoYzM0KW5bY0hdbjRbQ0gyXVtDQEhdKFtPSF0pW0NAQEhdNVtDSDJdW0NIMl1bQ0gyXU81

> <s_epik_cmdline>
J2VwaWtfcHl0aG9uJywgJy1waCcsICc3LjAnLCAnLXRuJywgJzgnLCAnLW1hJywgJzIwMCcsICctbWV0YWxfYmluZGluZycsICctaW1hZScsICc8aW5maWxlLm1hZT4nLCAnLW9tYWUnLCAnPG91dGZpbGUubWFlPic=

> <r_lp_tautomer_probability>
1

> <r_epik_Ionization_Penalty>
0.00204117

> <r_epik_Ionization_Penalty_Charging>
0

> <r_epik_Ionization_Penalty_Neutral>
0.00204117

> <r_epik_State_Penalty>
0.00127401

> <r_epik_Charging_Adjusted_Penalty>
0.00127401

> <i_epik_Tot_Q>
0

> <i_epik_Tot_abs_Q>
0

> <r_epik_Metal_State_Penalty>
-0

> <b_epik_Metal_Only>
0

> <s_lp_Force_Field>
OPLS_2005

> <r_lp_Energy>
58.0628

> <b_lp_Chiralities_Consistent>
1

> <s_lp_Variant>
AV-unprocessed.smi:276-15

> <Gold.Version>
5.8.1

> <Gold.Id.Protein>
6NUR|6NUR_protein|mol2

> <Gold.PLP.Fitness>
42.7512

> <Gold.PLP.PLP>
-35.2980

> <Gold.PLP.part.hbond>
-2.4220

> <Gold.PLP.part.metal>
0.0000

> <Gold.PLP.part.buried>
-6.2642

> <Gold.PLP.part.nonpolar>
-27.3919

> <Gold.PLP.part.repulsive>
0.3494

> <Gold.PLP.ligand.clash>
0.0000

> <Gold.PLP.ligand.torsion>
1.1244

> <Gold.PLP.Chemscore.Hbond>
2.0000

> <Gold.PLP.Chemscore.CHOScore>
1.0000

> <Gold.PLP.Chemscore.Metal>
0.0000

> <Gold.Chemscore.Hbonds>
donor molecule, donor type, donor heavy atom, donor atom, acceptor molecule, acceptor atom, score
      P1  H  6896  6907       L1    14  0.96
      P1  H  7997  8010       L1    19  0.98
      L1  C    10    39       P1  7949  0.85

> <Gold.PLP.Chemscore.Internal.Correction>
0.7021

> <Gold.Rescore>
     Score         DG    S(hbond)    S(metal)    S(lipo)     H(rot)  DE(clash)    DE(int)     intcor
     11.65     -13.97       1.66        0.00      84.71       2.72       0.01       2.31       ----

> <Gold.Chemscore.Fitness>
11.6490

> <Gold.Chemscore.DG>
-13.9697

> <Gold.Chemscore.ZeroCoef>
-5.4800

> <Gold.Chemscore.Hbond>
1.6572

> <Gold.Chemscore.Metal>
0.0000

> <Gold.Chemscore.Lipo>
84.7063

> <Gold.Chemscore.Internal_Hbond>
0.0000

> <Gold.Chemscore.DEClash>
0.0064

> <Gold.Chemscore.DEInternal>
2.3143

> <Gold.Chemscore.Rot>
2.7172

> <Gold.Chemscore.Internal.Correction>
   9.000000E+99

> <Gold.Chemscore.Hbonds>
donor molecule, donor type, donor heavy atom, donor atom, acceptor molecule, acceptor atom, score
      P1  H  6896  6907       L1    14  0.30
      P1  H  7997  8010       L1    19  0.47

> <Gold.Chemscore.Hbond.Weighted>
-5.5351

> <Gold.Chemscore.Metal.Weighted>
-0.0000

> <Gold.Chemscore.Lipo.Weighted>
-9.9106

> <Gold.Chemscore.Internal_Hbond.Weighted>
0.0000

> <Gold.Chemscore.DEClash.Weighted>
0.0064

> <Gold.Chemscore.DEInternal.Weighted>
2.3143

> <Gold.Chemscore.Rot.Weighted>
6.9560

> <Gold.Chemscore.Internal.Correction.Weighted>
   9.000000E+99

> <Gold.Protein.RotatedTorsions>
[ 6907 6896 6895 6894 ] final  -58.02 input  -60.11 | X-H torsion
[ 7974 7965 7964 7962 ] final  179.99 input  175.53 | X-H torsion
[ 8008 7997 7996 7995 ] final   75.29 input   59.86 | X-H torsion
[ 10167 10162 10161 10158 ] final  141.01 input  -65.29 | X-H torsion
[ 10718 10713 10712 10709 ] final  174.37 input   66.30 | X-H torsion
[ 10763 10752 10751 10750 ] final  -65.22 input  -60.55 | X-H torsion
[ 11005 11000 10999 10996 ] final   23.18 input  -57.11 | X-H torsion

> <Gold.Protein.ActiveResidues>
 VAL166  LYS551  ARG553  GLY616  TRP617  ASP618  TYR619  PRO620  LYS621  CYS622 
 ASP623  PHE694  ASN695  SER759  ASP760  ASP761  ALA762  ILE779  LEU786  VAL792 
 PHE793  MET794  SER795  GLU796  ALA797  LYS798  CYS799  TRP800  GLU811  SER814 

> <Gold.Protein.RotatedAtoms>
  150.8040  134.7152  159.6626 H   0  0  0  0  0  0  0  0  0  0  0  0  # atno 6907 bound_to 6896
  152.4158  134.6040  160.0017 H   0  0  0  0  0  0  0  0  0  0  0  0  # atno 6908 bound_to 6896
  151.6270  133.3298  159.3136 H   0  0  0  0  0  0  0  0  0  0  0  0  # atno 6909 bound_to 6896
  144.7141  140.0632  143.6432 H   0  0  0  0  0  0  0  0  0  0  0  0  # atno 7974 bound_to 7965
  155.8108  140.3473  155.5457 H   0  0  0  0  0  0  0  0  0  0  0  0  # atno 8008 bound_to 7997
  155.8442  140.0946  157.1735 H   0  0  0  0  0  0  0  0  0  0  0  0  # atno 8009 bound_to 7997
  154.4006  140.1388  156.3753 H   0  0  0  0  0  0  0  0  0  0  0  0  # atno 8010 bound_to 7997
  139.5032  144.6198  151.6078 H   0  0  0  0  0  0  0  0  0  0  0  0  # atno 10167 bound_to 10162
  156.9506  131.0030  151.2949 H   0  0  0  0  0  0  0  0  0  0  0  0  # atno 10718 bound_to 10713
  154.3417  135.6155  153.5599 H   0  0  0  0  0  0  0  0  0  0  0  0  # atno 10763 bound_to 10752
  152.9804  135.5771  154.4845 H   0  0  0  0  0  0  0  0  0  0  0  0  # atno 10764 bound_to 10752
  154.4550  135.2854  155.1731 H   0  0  0  0  0  0  0  0  0  0  0  0  # atno 10765 bound_to 10752
  140.3725  134.2007  155.7666 H   0  0  0  0  0  0  0  0  0  0  0  0  # atno 11005 bound_to 11000
  145.9846  139.2967  143.1021 LP  0  0  0  0  0  0  0  0  0  0  0  0  # atno 17320 bound_to 7965
  145.8972  140.9266  143.0522 LP  0  0  0  0  0  0  0  0  0  0  0  0  # atno 17321 bound_to 7965
  140.5897  143.9802  150.6317 LP  0  0  0  0  0  0  0  0  0  0  0  0  # atno 17342 bound_to 10162
  140.2978  143.3281  152.1001 LP  0  0  0  0  0  0  0  0  0  0  0  0  # atno 17343 bound_to 10162
  157.5724  130.8320  149.8410 LP  0  0  0  0  0  0  0  0  0  0  0  0  # atno 17370 bound_to 10713
  156.0364  130.3750  150.1549 LP  0  0  0  0  0  0  0  0  0  0  0  0  # atno 17371 bound_to 10713
  141.1950  133.8115  157.0734 LP  0  0  0  0  0  0  0  0  0  0  0  0  # atno 17394 bound_to 11000
  140.0541  134.9790  157.1189 LP  0  0  0  0  0  0  0  0  0  0  0  0  # atno 17395 bound_to 11000

$$$$
