AV-unprocessed.smi:1715|AV-procd|sdf|6913|dock3
  -GOLD-   22720 8113D 1   1.00000     0.00000
 Structure written by MMmdl.
 41 42  0  0  0  0  0  0  0  0  2 V2000
  149.2429  135.2015  156.5252 C   0  0  0  0  0  0  0  0  0  0  0  0
  149.2511  136.1128  155.2930 C   0  0  1  0  0  0  0  0  0  0  0  0
  147.8625  136.7125  155.0027 C   0  0  0  0  0  0  0  0  0  0  0  0
  147.9268  137.6437  153.8512 N   0  3  1  0  0  0  0  0  0  0  0  0
  146.5951  138.1972  153.5002 C   0  0  0  0  0  0  0  0  0  0  0  0
  146.1955  137.8987  152.0418 C   0  0  0  0  0  0  0  0  0  0  0  0
  146.3312  136.4806  151.7287 N   0  0  0  0  0  0  0  0  0  0  0  0
  145.3120  135.6580  151.4420 C   0  0  0  0  0  0  0  0  0  0  0  0
  144.1352  136.0195  151.4196 O   0  0  0  0  0  0  0  0  0  0  0  0
  145.7436  134.4114  151.1899 N   0  0  0  0  0  0  0  0  0  0  0  0
  144.9562  133.2787  150.8615 C   0  0  0  0  0  0  0  0  0  0  0  0
  145.4782  132.0016  150.5198 C   0  0  0  0  0  0  0  0  0  0  0  0
  144.5085  131.1353  150.2639 N   0  0  0  0  0  0  0  0  0  0  0  0
  143.3724  131.8468  150.4396 N   0  0  0  0  0  0  0  0  0  0  0  0
  143.5962  133.1564  150.8030 C   0  0  0  0  0  0  0  0  0  0  0  0
  148.9588  138.6831  154.0885 C   0  0  0  0  0  0  0  0  0  0  0  0
  150.3185  138.0319  154.4065 C   0  0  1  0  0  0  0  0  0  0  0  0
  151.3944  139.0709  154.7398 C   0  0  0  0  0  0  0  0  0  0  0  0
  150.1720  137.1715  155.5306 O   0  0  0  0  0  0  0  0  0  0  0  0
  142.4619  131.4288  150.3096 H   0  0  0  0  0  0  0  0  0  0  0  0
  148.5584  134.3637  156.3902 H   0  0  0  0  0  0  0  0  0  0  0  0
  148.9340  135.7460  157.4180 H   0  0  0  0  0  0  0  0  0  0  0  0
  150.2355  134.7916  156.7127 H   0  0  0  0  0  0  0  0  0  0  0  0
  149.5878  135.5300  154.4337 H   0  0  0  0  0  0  0  0  0  0  0  0
  147.1546  135.9105  154.7893 H   0  0  0  0  0  0  0  0  0  0  0  0
  147.4896  137.2451  155.8794 H   0  0  0  0  0  0  0  0  0  0  0  0
  145.8422  137.7543  154.1539 H   0  0  0  0  0  0  0  0  0  0  0  0
  146.5833  139.2699  153.7003 H   0  0  0  0  0  0  0  0  0  0  0  0
  145.1711  138.2101  151.8350 H   0  0  0  0  0  0  0  0  0  0  0  0
  146.8345  138.4591  151.3588 H   0  0  0  0  0  0  0  0  0  0  0  0
  147.2666  136.1003  151.7233 H   0  0  0  0  0  0  0  0  0  0  0  0
  146.7396  134.2539  151.2379 H   0  0  0  0  0  0  0  0  0  0  0  0
  146.5071  131.6806  150.4504 H   0  0  0  0  0  0  0  0  0  0  0  0
  142.7903  133.8528  150.9802 H   0  0  0  0  0  0  0  0  0  0  0  0
  149.0639  139.3215  153.2120 H   0  0  0  0  0  0  0  0  0  0  0  0
  148.6462  139.3247  154.9143 H   0  0  0  0  0  0  0  0  0  0  0  0
  150.6559  137.4471  153.5486 H   0  0  0  0  0  0  0  0  0  0  0  0
  151.5573  139.7505  153.9031 H   0  0  0  0  0  0  0  0  0  0  0  0
  152.3454  138.5878  154.9649 H   0  0  0  0  0  0  0  0  0  0  0  0
  151.1114  139.6685  155.6069 H   0  0  0  0  0  0  0  0  0  0  0  0
  148.2324  137.0956  153.0597 H   0  0  0  0  0  0  0  0  0  0  0  0
  1  2  1  0  0  0  0
  1 21  1  0  0  0  0
  1 22  1  0  0  0  0
  1 23  1  0  0  0  0
  2 19  1  0  0  0  0
  2  3  1  0  0  0  0
  2 24  1  0  0  0  0
  3  4  1  0  0  0  0
  3 25  1  0  0  0  0
  3 26  1  0  0  0  0
  4  5  1  0  0  0  0
  4 16  1  0  0  0  0
  4 41  1  0  0  0  0
  5  6  1  0  0  0  0
  5 27  1  0  0  0  0
  5 28  1  0  0  0  0
  6  7  1  0  0  0  0
  6 29  1  0  0  0  0
  6 30  1  0  0  0  0
  7  8  1  0  0  0  0
  7 31  1  0  0  0  0
  8  9  2  0  0  0  0
  8 10  1  0  0  0  0
 10 11  1  0  0  0  0
 10 32  1  0  0  0  0
 11 15  2  0  0  0  0
 11 12  1  0  0  0  0
 12 13  2  0  0  0  0
 12 33  1  0  0  0  0
 13 14  1  0  0  0  0
 14 20  1  0  0  0  0
 14 15  1  0  0  0  0
 15 34  1  0  0  0  0
 16 17  1  0  0  0  0
 16 35  1  0  0  0  0
 16 36  1  0  0  0  0
 17 18  1  0  0  0  0
 17 19  1  0  0  0  0
 17 37  1  0  0  0  0
 18 38  1  0  0  0  0
 18 39  1  0  0  0  0
 18 40  1  0  0  0  0
M  CHG  1   4   1
M  END
> <s_m_source_file>
AV-unprocessed.smi

> <i_m_source_file_index>
1715

> <i_lp_mmshare_version>
43012

> <i_f3d_flags>
0

> <s_epik_input>
W0NIM11bQ0BASF0xW0NIMl1OKFtDSDJdW0NASF0oTzEpW0NIM10pW0NIMl1bQ0gyXVtOSF1DKD1PKVtOSF1jMltjSF1uW25IXVtjSF0y

> <s_epik_cmdline>
J2VwaWtfcHl0aG9uJywgJy1waCcsICc3LjAnLCAnLXRuJywgJzgnLCAnLW1hJywgJzIwMCcsICctbWV0YWxfYmluZGluZycsICctaW1hZScsICc8aW5maWxlLm1hZT4nLCAnLW9tYWUnLCAnPG91dGZpbGUubWFlPic=

> <r_lp_tautomer_probability>
0.5

> <r_epik_Ionization_Penalty>
0.646007

> <r_epik_Ionization_Penalty_Charging>
0.645968

> <r_epik_Ionization_Penalty_Neutral>
3.91671e-05

> <r_epik_State_Penalty>
0.664063

> <r_epik_Charging_Adjusted_Penalty>
1.31003

> <i_epik_Tot_Q>
1

> <i_epik_Tot_abs_Q>
1

> <r_epik_Metal_State_Penalty>
0.664064

> <b_epik_Metal_Only>
0

> <s_lp_Force_Field>
OPLS_2005

> <r_lp_Energy>
16.9027

> <b_lp_Chiralities_Consistent>
1

> <s_lp_Variant>
AV-unprocessed.smi:1715-5

> <Gold.Version>
5.8.1

> <Gold.Id.Protein>
6NUR|6NUR_protein|mol2

> <Gold.PLP.Fitness>
42.3438

> <Gold.PLP.PLP>
-26.6243

> <Gold.PLP.part.hbond>
-3.6685

> <Gold.PLP.part.metal>
0.0000

> <Gold.PLP.part.buried>
-2.2597

> <Gold.PLP.part.nonpolar>
-22.0859

> <Gold.PLP.part.repulsive>
1.1585

> <Gold.PLP.ligand.clash>
0.0000

> <Gold.PLP.ligand.torsion>
0.7736

> <Gold.PLP.Chemscore.Hbond>
3.7475

> <Gold.PLP.Chemscore.CHOScore>
2.0000

> <Gold.PLP.Chemscore.Metal>
0.0000

> <Gold.Chemscore.Hbonds>
donor molecule, donor type, donor heavy atom, donor atom, acceptor molecule, acceptor atom, score
      L1  H     4    41       P1  7948  2.00
      L1  H     7    31       P1  7948  1.00
      L1  H    14    20       P1 10952  0.83
      P1  H 10785 10796       L1    13  0.01
      L1  C    12    33       P1 10747  0.82
      L1  C    15    34       P1 10186  0.98

> <Gold.PLP.Chemscore.Internal.Correction>
0.0242

> <Gold.Rescore>
     Score         DG    S(hbond)    S(metal)    S(lipo)     H(rot)  DE(clash)    DE(int)     intcor
     14.97     -17.81       2.68        0.00      65.44       1.67       0.96       1.88       ----

> <Gold.Chemscore.Fitness>
14.9678

> <Gold.Chemscore.DG>
-17.8127

> <Gold.Chemscore.ZeroCoef>
-5.4800

> <Gold.Chemscore.Hbond>
2.6780

> <Gold.Chemscore.Metal>
0.0000

> <Gold.Chemscore.Lipo>
65.4353

> <Gold.Chemscore.Internal_Hbond>
0.0000

> <Gold.Chemscore.DEClash>
0.9621

> <Gold.Chemscore.DEInternal>
1.8829

> <Gold.Chemscore.Rot>
1.6671

> <Gold.Chemscore.Internal.Correction>
   9.000000E+99

> <Gold.Chemscore.Hbonds>
donor molecule, donor type, donor heavy atom, donor atom, acceptor molecule, acceptor atom, score
      L1  H     4    41       P1  7948  1.00
      L1  H     7    31       P1  7948  0.97
      L1  H    14    20       P1 10952  0.54

> <Gold.Chemscore.Hbond.Weighted>
-8.9445

> <Gold.Chemscore.Metal.Weighted>
-0.0000

> <Gold.Chemscore.Lipo.Weighted>
-7.6559

> <Gold.Chemscore.Internal_Hbond.Weighted>
0.0000

> <Gold.Chemscore.DEClash.Weighted>
0.9621

> <Gold.Chemscore.DEInternal.Weighted>
1.8829

> <Gold.Chemscore.Rot.Weighted>
4.2677

> <Gold.Chemscore.Internal.Correction.Weighted>
   9.000000E+99

> <Gold.Protein.RotatedTorsions>
[ 6907 6896 6895 6894 ] final   63.59 input  -60.11 | X-H torsion
[ 7974 7965 7964 7962 ] final   63.46 input  175.53 | X-H torsion
[ 8008 7997 7996 7995 ] final  -63.79 input   59.86 | X-H torsion
[ 10167 10162 10161 10158 ] final -102.11 input  -65.29 | X-H torsion
[ 10718 10713 10712 10709 ] final -115.82 input   66.30 | X-H torsion
[ 10763 10752 10751 10750 ] final -178.27 input  -60.55 | X-H torsion
[ 11005 11000 10999 10996 ] final  139.21 input  -57.11 | X-H torsion

> <Gold.Protein.ActiveResidues>
 VAL166  LYS551  ARG553  GLY616  TRP617  ASP618  TYR619  PRO620  LYS621  CYS622 
 ASP623  PHE694  ASN695  SER759  ASP760  ASP761  ALA762  ILE779  LEU786  VAL792 
 PHE793  MET794  SER795  GLU796  ALA797  LYS798  CYS799  TRP800  GLU811  SER814 

> <Gold.Protein.RotatedAtoms>
  152.4265  134.5858  159.9960 H   0  0  0  0  0  0  0  0  0  0  0  0  # atno 6907 bound_to 6896
  151.5993  133.3352  159.3052 H   0  0  0  0  0  0  0  0  0  0  0  0  # atno 6908 bound_to 6896
  150.8155  134.7371  159.6791 H   0  0  0  0  0  0  0  0  0  0  0  0  # atno 6909 bound_to 6896
  145.8616  139.3318  143.0815 H   0  0  0  0  0  0  0  0  0  0  0  0  # atno 7974 bound_to 7965
  154.4574  140.0967  156.6797 H   0  0  0  0  0  0  0  0  0  0  0  0  # atno 8008 bound_to 7997
  155.5096  140.3476  155.4367 H   0  0  0  0  0  0  0  0  0  0  0  0  # atno 8009 bound_to 7997
  156.0805  140.1372  156.9707 H   0  0  0  0  0  0  0  0  0  0  0  0  # atno 8010 bound_to 7997
  140.2342  143.3585  152.0860 H   0  0  0  0  0  0  0  0  0  0  0  0  # atno 10167 bound_to 10162
  156.0922  130.6102  150.8956 H   0  0  0  0  0  0  0  0  0  0  0  0  # atno 10718 bound_to 10713
  154.5498  135.2812  155.1019 H   0  0  0  0  0  0  0  0  0  0  0  0  # atno 10763 bound_to 10752
  154.2469  135.6346  153.5230 H   0  0  0  0  0  0  0  0  0  0  0  0  # atno 10764 bound_to 10752
  153.0000  135.5573  154.6061 H   0  0  0  0  0  0  0  0  0  0  0  0  # atno 10765 bound_to 10752
  140.0238  134.9384  157.0528 H   0  0  0  0  0  0  0  0  0  0  0  0  # atno 11005 bound_to 11000
  145.9241  140.9094  143.0390 LP  0  0  0  0  0  0  0  0  0  0  0  0  # atno 17320 bound_to 7965
  144.6726  140.1329  143.7442 LP  0  0  0  0  0  0  0  0  0  0  0  0  # atno 17321 bound_to 7965
  139.5099  144.6876  151.5847 LP  0  0  0  0  0  0  0  0  0  0  0  0  # atno 17342 bound_to 10162
  140.6162  143.9344  150.6490 LP  0  0  0  0  0  0  0  0  0  0  0  0  # atno 17343 bound_to 10162
  157.6073  131.0938  150.8856 LP  0  0  0  0  0  0  0  0  0  0  0  0  # atno 17370 bound_to 10713
  156.9002  130.5244  149.5283 LP  0  0  0  0  0  0  0  0  0  0  0  0  # atno 17371 bound_to 10713
  140.4341  134.1749  155.7170 LP  0  0  0  0  0  0  0  0  0  0  0  0  # atno 17394 bound_to 11000
  141.1790  133.8453  157.1323 LP  0  0  0  0  0  0  0  0  0  0  0  0  # atno 17395 bound_to 11000

$$$$
