AV-unprocessed.smi:3331|AV-procd|sdf|12822|dock2
  -GOLD-   2272019193D 1   1.00000     0.00000
 Structure written by MMmdl.
 47 48  0  0  0  0  0  0  0  0  2 V2000
  153.0999  143.0135  162.6524 C   0  0  0  0  0  0  0  0  0  0  0  0
  152.3274  143.2099  161.3406 C   0  0  1  0  0  0  0  0  0  0  0  0
  152.2227  144.7058  160.9642 C   0  0  0  0  0  0  0  0  0  0  0  0
  151.5737  144.9361  159.5802 C   0  0  2  0  0  0  0  0  0  0  0  0
  150.0436  144.7708  159.6203 C   0  0  0  0  0  0  0  0  0  0  0  0
  152.2482  144.0283  158.5282 C   0  0  0  0  0  0  0  0  0  0  0  0
  152.1711  142.6265  158.9638 N   0  0  0  0  0  0  0  0  0  0  0  0
  151.4049  141.6525  158.4105 C   0  0  0  0  0  0  0  0  0  0  0  0
  151.4007  140.4993  158.8462 O   0  0  0  0  0  0  0  0  0  0  0  0
  150.5018  141.9690  157.1985 C   0  0  1  0  0  0  0  0  0  0  0  0
  150.9547  141.1548  155.9759 C   0  0  0  0  0  0  0  0  0  0  0  0
  149.0771  141.6794  157.4857 N   0  3  0  0  0  0  0  0  0  0  0  0
  148.3446  142.7666  158.1702 C   0  0  0  0  0  0  0  0  0  0  0  0
  146.8774  142.3808  158.4022 C   0  0  0  0  0  0  0  0  0  0  0  0
  146.3528  142.9712  159.6183 N   0  0  0  0  0  0  0  0  0  0  0  0
  146.3221  144.3009  159.9829 C   0  0  0  0  0  0  0  0  0  0  0  0
  145.7378  144.3703  161.2152 C   0  0  0  0  0  0  0  0  0  0  0  0
  145.4445  143.0134  161.5276 C   0  0  0  0  0  0  0  0  0  0  0  0
  145.8153  142.1780  160.5703 N   0  0  0  0  0  0  0  0  0  0  0  0
  152.9608  142.4088  160.1834 C   0  0  0  0  0  0  0  0  0  0  0  0
  154.1279  143.3663  162.5648 H   0  0  0  0  0  0  0  0  0  0  0  0
  153.1322  141.9608  162.9350 H   0  0  0  0  0  0  0  0  0  0  0  0
  152.6285  143.5590  163.4704 H   0  0  0  0  0  0  0  0  0  0  0  0
  151.3180  142.8281  161.4999 H   0  0  0  0  0  0  0  0  0  0  0  0
  151.6788  145.2547  161.7341 H   0  0  0  0  0  0  0  0  0  0  0  0
  153.2269  145.1321  160.9475 H   0  0  0  0  0  0  0  0  0  0  0  0
  151.7671  145.9714  159.2958 H   0  0  0  0  0  0  0  0  0  0  0  0
  149.7476  143.7624  159.9093 H   0  0  0  0  0  0  0  0  0  0  0  0
  149.6024  144.9787  158.6454 H   0  0  0  0  0  0  0  0  0  0  0  0
  149.5953  145.4618  160.3347 H   0  0  0  0  0  0  0  0  0  0  0  0
  151.8349  144.2124  157.5388 H   0  0  0  0  0  0  0  0  0  0  0  0
  153.3003  144.3035  158.4370 H   0  0  0  0  0  0  0  0  0  0  0  0
  150.5467  143.0280  156.9500 H   0  0  0  0  0  0  0  0  0  0  0  0
  151.9932  141.3630  155.7165 H   0  0  0  0  0  0  0  0  0  0  0  0
  150.3482  141.3928  155.1015 H   0  0  0  0  0  0  0  0  0  0  0  0
  150.8686  140.0823  156.1557 H   0  0  0  0  0  0  0  0  0  0  0  0
  148.6105  141.5031  156.6077 H   0  0  0  0  0  0  0  0  0  0  0  0
  148.8204  142.9884  159.1263 H   0  0  0  0  0  0  0  0  0  0  0  0
  148.4029  143.6728  157.5656 H   0  0  0  0  0  0  0  0  0  0  0  0
  146.2575  142.7031  157.5641 H   0  0  0  0  0  0  0  0  0  0  0  0
  146.7778  141.2968  158.4733 H   0  0  0  0  0  0  0  0  0  0  0  0
  146.7131  145.0789  159.3437 H   0  0  0  0  0  0  0  0  0  0  0  0
  145.5500  145.2554  161.8047 H   0  0  0  0  0  0  0  0  0  0  0  0
  144.9770  142.6141  162.4156 H   0  0  0  0  0  0  0  0  0  0  0  0
  153.9879  142.7361  160.0136 H   0  0  0  0  0  0  0  0  0  0  0  0
  153.0324  141.3553  160.4575 H   0  0  0  0  0  0  0  0  0  0  0  0
  149.0300  140.8429  158.0503 H   0  0  0  0  0  0  0  0  0  0  0  0
  1  2  1  0  0  0  0
  1 21  1  0  0  0  0
  1 22  1  0  0  0  0
  1 23  1  0  0  0  0
  2 20  1  0  0  0  0
  2  3  1  0  0  0  0
  2 24  1  0  0  0  0
  3  4  1  0  0  0  0
  3 25  1  0  0  0  0
  3 26  1  0  0  0  0
  4  5  1  0  0  0  0
  4  6  1  0  0  0  0
  4 27  1  0  0  0  0
  5 28  1  0  0  0  0
  5 29  1  0  0  0  0
  5 30  1  0  0  0  0
  6  7  1  0  0  0  0
  6 31  1  0  0  0  0
  6 32  1  0  0  0  0
  7  8  1  0  0  0  0
  7 20  1  0  0  0  0
  8  9  2  0  0  0  0
  8 10  1  0  0  0  0
 10 11  1  0  0  0  0
 10 12  1  0  0  0  0
 10 33  1  0  0  0  0
 11 34  1  0  0  0  0
 11 35  1  0  0  0  0
 11 36  1  0  0  0  0
 12 13  1  0  0  0  0
 12 37  1  0  0  0  0
 12 47  1  0  0  0  0
 13 14  1  0  0  0  0
 13 38  1  0  0  0  0
 13 39  1  0  0  0  0
 14 15  1  0  0  0  0
 14 40  1  0  0  0  0
 14 41  1  0  0  0  0
 15 19  1  0  0  0  0
 15 16  1  0  0  0  0
 16 17  2  0  0  0  0
 16 42  1  0  0  0  0
 17 18  1  0  0  0  0
 17 43  1  0  0  0  0
 18 19  2  0  0  0  0
 18 44  1  0  0  0  0
 20 45  1  0  0  0  0
 20 46  1  0  0  0  0
M  CHG  1  12   1
M  END
> <s_m_source_file>
AV-unprocessed.smi

> <i_m_source_file_index>
3331

> <i_lp_mmshare_version>
43012

> <i_f3d_flags>
0

> <s_epik_input>
W0NIM11bQ0BASF0xW0NIMl1bQ0BASF0oW0NIM10pW0NIMl1OKFtDSDJdMSlDKD1PKVtDQEhdKFtDSDNdKVtOSF1bQ0gyXVtDSDJdbjJbY0hdW2NIXVtjSF1uMg==

> <s_epik_cmdline>
J2VwaWtfcHl0aG9uJywgJy1waCcsICc3LjAnLCAnLXRuJywgJzgnLCAnLW1hJywgJzIwMCcsICctbWV0YWxfYmluZGluZycsICctaW1hZScsICc8aW5maWxlLm1hZT4nLCAnLW9tYWUnLCAnPG91dGZpbGUubWFlPic=

> <r_lp_tautomer_probability>
1

> <r_epik_Ionization_Penalty>
0.189706

> <r_epik_Ionization_Penalty_Charging>
0.189703

> <r_epik_Ionization_Penalty_Neutral>
2.45875e-06

> <r_epik_State_Penalty>
0.179341

> <r_epik_Charging_Adjusted_Penalty>
0.369044

> <i_epik_Tot_Q>
1

> <i_epik_Tot_abs_Q>
1

> <r_epik_Metal_State_Penalty>
0.179578

> <b_epik_Metal_Only>
0

> <s_lp_Force_Field>
OPLS_2005

> <r_lp_Energy>
28.0969

> <b_lp_Chiralities_Consistent>
1

> <s_lp_Variant>
AV-unprocessed.smi:3331-6

> <Gold.Version>
5.8.1

> <Gold.Id.Protein>
6NUR|6NUR_protein|mol2

> <Gold.PLP.Fitness>
53.5514

> <Gold.PLP.PLP>
-48.5510

> <Gold.PLP.part.hbond>
-1.0000

> <Gold.PLP.part.metal>
0.0000

> <Gold.PLP.part.buried>
-7.6593

> <Gold.PLP.part.nonpolar>
-40.1207

> <Gold.PLP.part.repulsive>
0.0805

> <Gold.PLP.ligand.clash>
0.0000

> <Gold.PLP.ligand.torsion>
0.5376

> <Gold.PLP.Chemscore.Hbond>
1.0000

> <Gold.PLP.Chemscore.CHOScore>
1.0000

> <Gold.PLP.Chemscore.Metal>
0.0000

> <Gold.Chemscore.Hbonds>
donor molecule, donor type, donor heavy atom, donor atom, acceptor molecule, acceptor atom, score
      P1  H  6934  6946       L1    19  1.00
      L1  C    16    42       P1  8029  1.00

> <Gold.PLP.Chemscore.Internal.Correction>
0.0757

> <Gold.Rescore>
     Score         DG    S(hbond)    S(metal)    S(lipo)     H(rot)  DE(clash)    DE(int)     intcor
     15.97     -16.75       0.92        0.00     107.81       1.73       0.04       0.74       ----

> <Gold.Chemscore.Fitness>
15.9725

> <Gold.Chemscore.DG>
-16.7493

> <Gold.Chemscore.ZeroCoef>
-5.4800

> <Gold.Chemscore.Hbond>
0.9199

> <Gold.Chemscore.Metal>
0.0000

> <Gold.Chemscore.Lipo>
107.8125

> <Gold.Chemscore.Internal_Hbond>
0.0000

> <Gold.Chemscore.DEClash>
0.0396

> <Gold.Chemscore.DEInternal>
0.7373

> <Gold.Chemscore.Rot>
1.7254

> <Gold.Chemscore.Internal.Correction>
   9.000000E+99

> <Gold.Chemscore.Hbonds>
donor molecule, donor type, donor heavy atom, donor atom, acceptor molecule, acceptor atom, score
      P1  H  6934  6946       L1    19  0.55

> <Gold.Chemscore.Hbond.Weighted>
-3.0723

> <Gold.Chemscore.Metal.Weighted>
-0.0000

> <Gold.Chemscore.Lipo.Weighted>
-12.6141

> <Gold.Chemscore.Internal_Hbond.Weighted>
0.0000

> <Gold.Chemscore.DEClash.Weighted>
0.0396

> <Gold.Chemscore.DEInternal.Weighted>
0.7373

> <Gold.Chemscore.Rot.Weighted>
4.4170

> <Gold.Chemscore.Internal.Correction.Weighted>
   9.000000E+99

> <Gold.Protein.RotatedTorsions>
[ 6907 6896 6895 6894 ] final  -53.24 input  -60.11 | X-H torsion
[ 7974 7965 7964 7962 ] final  -44.69 input  175.53 | X-H torsion
[ 8008 7997 7996 7995 ] final  -39.26 input   59.86 | X-H torsion
[ 10167 10162 10161 10158 ] final  120.65 input  -65.29 | X-H torsion
[ 10718 10713 10712 10709 ] final -141.55 input   66.30 | X-H torsion
[ 10763 10752 10751 10750 ] final  159.81 input  -60.55 | X-H torsion
[ 11005 11000 10999 10996 ] final  156.09 input  -57.11 | X-H torsion

> <Gold.Protein.ActiveResidues>
 VAL166  LYS551  ARG553  GLY616  TRP617  ASP618  TYR619  PRO620  LYS621  CYS622 
 ASP623  PHE694  ASN695  SER759  ASP760  ASP761  ALA762  ILE779  LEU786  VAL792 
 PHE793  MET794  SER795  GLU796  ALA797  LYS798  CYS799  TRP800  GLU811  SER814 

> <Gold.Protein.RotatedAtoms>
  150.8445  134.7748  159.6958 H   0  0  0  0  0  0  0  0  0  0  0  0  # atno 6907 bound_to 6896
  152.4525  134.5360  159.9835 H   0  0  0  0  0  0  0  0  0  0  0  0  # atno 6908 bound_to 6896
  151.5494  133.3382  159.2986 H   0  0  0  0  0  0  0  0  0  0  0  0  # atno 6909 bound_to 6896
  145.9895  140.7196  142.9324 H   0  0  0  0  0  0  0  0  0  0  0  0  # atno 7974 bound_to 7965
  154.4025  140.1556  156.2835 H   0  0  0  0  0  0  0  0  0  0  0  0  # atno 8008 bound_to 7997
  155.8849  140.3442  155.5892 H   0  0  0  0  0  0  0  0  0  0  0  0  # atno 8009 bound_to 7997
  155.7625  140.0819  157.2139 H   0  0  0  0  0  0  0  0  0  0  0  0  # atno 8010 bound_to 7997
  139.5969  144.7044  151.3155 H   0  0  0  0  0  0  0  0  0  0  0  0  # atno 10167 bound_to 10162
  156.3354  130.7608  151.1734 H   0  0  0  0  0  0  0  0  0  0  0  0  # atno 10718 bound_to 10713
  154.2376  135.2776  155.2866 H   0  0  0  0  0  0  0  0  0  0  0  0  # atno 10763 bound_to 10752
  154.5572  135.5658  153.6978 H   0  0  0  0  0  0  0  0  0  0  0  0  # atno 10764 bound_to 10752
  153.0006  135.6289  154.2519 H   0  0  0  0  0  0  0  0  0  0  0  0  # atno 10765 bound_to 10752
  140.1642  134.8588  157.2612 H   0  0  0  0  0  0  0  0  0  0  0  0  # atno 11005 bound_to 11000
  144.6885  140.3046  143.7258 LP  0  0  0  0  0  0  0  0  0  0  0  0  # atno 17320 bound_to 7965
  145.7650  139.1837  143.2245 LP  0  0  0  0  0  0  0  0  0  0  0  0  # atno 17321 bound_to 7965
  140.7219  143.7112  150.7768 LP  0  0  0  0  0  0  0  0  0  0  0  0  # atno 17342 bound_to 10162
  140.0680  143.5089  152.2594 LP  0  0  0  0  0  0  0  0  0  0  0  0  # atno 17343 bound_to 10162
  157.7438  131.0469  150.4920 LP  0  0  0  0  0  0  0  0  0  0  0  0  # atno 17370 bound_to 10713
  156.5092  130.4135  149.6310 LP  0  0  0  0  0  0  0  0  0  0  0  0  # atno 17371 bound_to 10713
  140.2453  134.3747  155.7464 LP  0  0  0  0  0  0  0  0  0  0  0  0  # atno 17394 bound_to 11000
  141.2212  133.7287  156.8852 LP  0  0  0  0  0  0  0  0  0  0  0  0  # atno 17395 bound_to 11000

$$$$
