AV-unprocessed.smi:58|AV-procd|sdf|583|dock7
  -GOLD-   2262016483D 1   1.00000     0.00000
 Structure written by MMmdl.
 32 33  0  0  0  0  0  0  0  0  1 V2000
  152.1033  145.7109  160.0302 C   0  0  0  0  0  0  0  0  0  0  0  0
  151.8665  144.5315  159.2262 N   0  0  0  0  0  0  0  0  0  0  0  0
  151.0324  144.3837  158.1399 C   0  0  0  0  0  0  0  0  0  0  0  0
  151.1486  143.0928  157.7086 C   0  0  0  0  0  0  0  0  0  0  0  0
  150.4686  142.5302  156.6083 N   0  0  0  0  0  0  0  0  0  0  0  0
  152.0783  142.5092  158.6256 C   0  0  0  0  0  0  0  0  0  0  0  0
  152.5277  141.0817  158.4779 C   0  0  0  0  0  0  0  0  0  0  0  0
  152.2837  140.4786  157.4321 O   0  0  0  0  0  0  0  0  0  0  0  0
  153.1441  140.4999  159.5338 N   0  0  0  0  0  0  0  0  0  0  0  0
  153.4891  141.1600  160.7957 C   0  0  0  0  0  0  0  0  0  0  0  0
  154.0483  140.0693  161.7064 C   0  0  0  0  0  0  0  0  0  0  0  0
  154.5651  139.0164  160.7381 C   0  0  0  0  0  0  0  0  0  0  0  0
  153.6158  139.1083  159.5357 C   0  0  1  0  0  0  0  0  0  0  0  0
  152.4343  138.1176  159.6402 C   0  0  0  0  0  0  0  0  0  0  0  0
  152.9124  136.7998  159.8085 O   0  0  0  0  0  0  0  0  0  0  0  0
  152.5197  143.3885  159.5159 N   0  0  0  0  0  0  0  0  0  0  0  0
  151.4865  146.5363  159.6739 H   0  0  0  0  0  0  0  0  0  0  0  0
  153.1529  145.9984  159.9634 H   0  0  0  0  0  0  0  0  0  0  0  0
  151.8527  145.5048  161.0712 H   0  0  0  0  0  0  0  0  0  0  0  0
  150.4363  145.2026  157.7641 H   0  0  0  0  0  0  0  0  0  0  0  0
  149.8265  143.0742  156.0493 H   0  0  0  0  0  0  0  0  0  0  0  0
  150.4770  141.5361  156.4302 H   0  0  0  0  0  0  0  0  0  0  0  0
  154.2566  141.9123  160.6092 H   0  0  0  0  0  0  0  0  0  0  0  0
  152.6288  141.6521  161.2515 H   0  0  0  0  0  0  0  0  0  0  0  0
  154.8200  140.4374  162.3830 H   0  0  0  0  0  0  0  0  0  0  0  0
  153.2451  139.6484  162.3126 H   0  0  0  0  0  0  0  0  0  0  0  0
  155.5753  139.2817  160.4232 H   0  0  0  0  0  0  0  0  0  0  0  0
  154.6132  138.0219  161.1829 H   0  0  0  0  0  0  0  0  0  0  0  0
  154.1724  138.9119  158.6171 H   0  0  0  0  0  0  0  0  0  0  0  0
  151.7763  138.3755  160.4706 H   0  0  0  0  0  0  0  0  0  0  0  0
  151.8258  138.1309  158.7362 H   0  0  0  0  0  0  0  0  0  0  0  0
  153.7638  136.8390  160.2169 H   0  0  0  0  0  0  0  0  0  0  0  0
  1  2  1  0  0  0  0
  1 17  1  0  0  0  0
  1 18  1  0  0  0  0
  1 19  1  0  0  0  0
  2 16  1  0  0  0  0
  2  3  1  0  0  0  0
  3  4  2  0  0  0  0
  3 20  1  0  0  0  0
  4  5  1  0  0  0  0
  4  6  1  0  0  0  0
  5 21  1  0  0  0  0
  5 22  1  0  0  0  0
  6  7  1  0  0  0  0
  6 16  2  0  0  0  0
  7  8  2  0  0  0  0
  7  9  1  0  0  0  0
  9 13  1  0  0  0  0
  9 10  1  0  0  0  0
 10 11  1  0  0  0  0
 10 23  1  0  0  0  0
 10 24  1  0  0  0  0
 11 12  1  0  0  0  0
 11 25  1  0  0  0  0
 11 26  1  0  0  0  0
 12 13  1  0  0  0  0
 12 27  1  0  0  0  0
 12 28  1  0  0  0  0
 13 14  1  0  0  0  0
 13 29  1  0  0  0  0
 14 15  1  0  0  0  0
 14 30  1  0  0  0  0
 14 31  1  0  0  0  0
 15 32  1  0  0  0  0
M  END
> <s_m_source_file>
AV-unprocessed.smi

> <i_m_source_file_index>
58

> <i_lp_mmshare_version>
43012

> <i_f3d_flags>
0

> <s_epik_input>
W0NIM11uMVtjSF1jKFtOSDJdKWMobjEpQyg9TylOMltDSDJdW0NIMl1bQ0gyXVtDQEhdMltDSDJdW09IXQ==

> <s_epik_cmdline>
J2VwaWtfcHl0aG9uJywgJy1waCcsICc3LjAnLCAnLXRuJywgJzgnLCAnLW1hJywgJzIwMCcsICctbWV0YWxfYmluZGluZycsICctaW1hZScsICc8aW5maWxlLm1hZT4nLCAnLW9tYWUnLCAnPG91dGZpbGUubWFlPic=

> <r_lp_tautomer_probability>
1

> <r_epik_Ionization_Penalty>
5.64206e-05

> <r_epik_Ionization_Penalty_Charging>
0

> <r_epik_Ionization_Penalty_Neutral>
5.64206e-05

> <r_epik_State_Penalty>
-0

> <r_epik_Charging_Adjusted_Penalty>
0

> <i_epik_Tot_Q>
0

> <i_epik_Tot_abs_Q>
0

> <r_epik_Metal_State_Penalty>
-0

> <b_epik_Metal_Only>
0

> <s_lp_Force_Field>
OPLS_2005

> <r_lp_Energy>
40.444

> <b_lp_Chiralities_Consistent>
1

> <s_lp_Variant>
AV-unprocessed.smi:58-1

> <Gold.Version>
5.8.1

> <Gold.Id.Protein>
6NUR|6NUR_protein|mol2

> <Gold.PLP.Fitness>
41.7917

> <Gold.PLP.PLP>
-32.4573

> <Gold.PLP.part.hbond>
-2.6702

> <Gold.PLP.part.metal>
0.0000

> <Gold.PLP.part.buried>
-5.1224

> <Gold.PLP.part.nonpolar>
-25.6919

> <Gold.PLP.part.repulsive>
0.0536

> <Gold.PLP.ligand.clash>
0.1241

> <Gold.PLP.ligand.torsion>
0.1419

> <Gold.PLP.Chemscore.Hbond>
2.4390

> <Gold.PLP.Chemscore.CHOScore>
0.7141

> <Gold.PLP.Chemscore.Metal>
0.0000

> <Gold.Chemscore.Hbonds>
donor molecule, donor type, donor heavy atom, donor atom, acceptor molecule, acceptor atom, score
      L1  H     5    21       P1  8028  1.00
      P1  H  6896  6907       L1    15  1.00
      P1  H  7997  8008       L1     8  0.39
      L1  C     3    20       P1  8028  0.36
      L1  C     3    20       P1  8029  0.29

> <Gold.PLP.Chemscore.Internal.Correction>
0.2830

> <Gold.Rescore>
     Score         DG    S(hbond)    S(metal)    S(lipo)     H(rot)  DE(clash)    DE(int)     intcor
     14.99     -17.95       2.09        0.00      79.39       1.49       0.05       2.91       ----

> <Gold.Chemscore.Fitness>
14.9924

> <Gold.Chemscore.DG>
-17.9486

> <Gold.Chemscore.ZeroCoef>
-5.4800

> <Gold.Chemscore.Hbond>
2.0947

> <Gold.Chemscore.Metal>
0.0000

> <Gold.Chemscore.Lipo>
79.3899

> <Gold.Chemscore.Internal_Hbond>
0.0000

> <Gold.Chemscore.DEClash>
0.0471

> <Gold.Chemscore.DEInternal>
2.9092

> <Gold.Chemscore.Rot>
1.4907

> <Gold.Chemscore.Internal.Correction>
   9.000000E+99

> <Gold.Chemscore.Hbonds>
donor molecule, donor type, donor heavy atom, donor atom, acceptor molecule, acceptor atom, score
      L1  H     5    21       P1  8028  0.95
      P1  H  6896  6907       L1    15  0.77
      P1  H  7997  8008       L1     8  0.09

> <Gold.Chemscore.Hbond.Weighted>
-6.9963

> <Gold.Chemscore.Metal.Weighted>
-0.0000

> <Gold.Chemscore.Lipo.Weighted>
-9.2886

> <Gold.Chemscore.Internal_Hbond.Weighted>
0.0000

> <Gold.Chemscore.DEClash.Weighted>
0.0471

> <Gold.Chemscore.DEInternal.Weighted>
2.9092

> <Gold.Chemscore.Rot.Weighted>
3.8163

> <Gold.Chemscore.Internal.Correction.Weighted>
   9.000000E+99

> <Gold.Protein.RotatedTorsions>
[ 6907 6896 6895 6894 ] final   31.41 input  -60.11 | X-H torsion
[ 7974 7965 7964 7962 ] final   40.76 input  175.53 | X-H torsion
[ 8008 7997 7996 7995 ] final  -63.60 input   59.86 | X-H torsion
[ 10167 10162 10161 10158 ] final -120.86 input  -65.29 | X-H torsion
[ 10718 10713 10712 10709 ] final  -77.60 input   66.30 | X-H torsion
[ 10763 10752 10751 10750 ] final  -39.13 input  -60.55 | X-H torsion
[ 11005 11000 10999 10996 ] final   47.65 input  -57.11 | X-H torsion

> <Gold.Protein.ActiveResidues>
 VAL166  LYS551  ARG553  GLY616  TRP617  ASP618  TYR619  PRO620  LYS621  CYS622 
 ASP623  PHE694  ASN695  SER759  ASP760  ASP761  ALA762  ILE779  LEU786  VAL792 
 PHE793  MET794  SER795  GLU796  ALA797  LYS798  CYS799  TRP800  GLU811  SER814 

> <Gold.Protein.RotatedAtoms>
  152.0599  134.9600  160.0574 H   0  0  0  0  0  0  0  0  0  0  0  0  # atno 6907 bound_to 6896
  152.0968  133.4224  159.4577 H   0  0  0  0  0  0  0  0  0  0  0  0  # atno 6908 bound_to 6896
  150.6838  134.2727  159.4638 H   0  0  0  0  0  0  0  0  0  0  0  0  # atno 6909 bound_to 6896
  146.0879  139.5495  142.9495 H   0  0  0  0  0  0  0  0  0  0  0  0  # atno 7974 bound_to 7965
  154.4563  140.0971  156.6767 H   0  0  0  0  0  0  0  0  0  0  0  0  # atno 8008 bound_to 7997
  155.5128  140.3477  155.4373 H   0  0  0  0  0  0  0  0  0  0  0  0  # atno 8009 bound_to 7997
  156.0784  140.1367  156.9731 H   0  0  0  0  0  0  0  0  0  0  0  0  # atno 8010 bound_to 7997
  140.0313  143.5246  152.2175 H   0  0  0  0  0  0  0  0  0  0  0  0  # atno 10167 bound_to 10162
  156.0140  130.4496  150.3370 H   0  0  0  0  0  0  0  0  0  0  0  0  # atno 10718 bound_to 10713
  153.9242  135.6779  153.4747 H   0  0  0  0  0  0  0  0  0  0  0  0  # atno 10763 bound_to 10752
  153.1013  135.4827  154.8868 H   0  0  0  0  0  0  0  0  0  0  0  0  # atno 10764 bound_to 10752
  154.7462  135.3173  154.8597 H   0  0  0  0  0  0  0  0  0  0  0  0  # atno 10765 bound_to 10752
  140.1260  134.4767  155.8559 H   0  0  0  0  0  0  0  0  0  0  0  0  # atno 11005 bound_to 11000
  145.6095  141.0342  143.1974 LP  0  0  0  0  0  0  0  0  0  0  0  0  # atno 17320 bound_to 7965
  144.7339  139.7644  143.7337 LP  0  0  0  0  0  0  0  0  0  0  0  0  # atno 17321 bound_to 7965
  139.6074  144.7600  151.3029 LP  0  0  0  0  0  0  0  0  0  0  0  0  # atno 17342 bound_to 10162
  140.7301  143.6890  150.7938 LP  0  0  0  0  0  0  0  0  0  0  0  0  # atno 17343 bound_to 10162
  157.1466  131.0310  151.2904 LP  0  0  0  0  0  0  0  0  0  0  0  0  # atno 17370 bound_to 10713
  157.4427  130.7553  149.7083 LP  0  0  0  0  0  0  0  0  0  0  0  0  # atno 17371 bound_to 10713
  141.2161  133.6778  156.6980 LP  0  0  0  0  0  0  0  0  0  0  0  0  # atno 17394 bound_to 11000
  140.2903  134.8246  157.4011 LP  0  0  0  0  0  0  0  0  0  0  0  0  # atno 17395 bound_to 11000

$$$$
