AV-unprocessed.smi:2655|AV-procd|sdf|10304|dock7
  -GOLD-   2272014323D 1   1.00000     0.00000
 Structure written by MMmdl.
 33 34  0  0  0  0  0  0  0  0  2 V2000
  152.5209  141.5460  159.6656 C   0  0  0  0  0  0  0  0  0  0  0  0
  152.3493  140.8493  158.3461 C   0  0  0  0  0  0  0  0  0  0  0  0
  153.0086  139.7157  158.1260 N   0  0  0  0  0  0  0  0  0  0  0  0
  152.6499  139.3565  156.8791 N   0  0  0  0  0  0  0  0  0  0  0  0
  151.7737  140.2552  156.3265 C   0  0  0  0  0  0  0  0  0  0  0  0
  151.2889  140.0796  155.0677 O   0  0  0  0  0  0  0  0  0  0  0  0
  151.5383  141.2442  157.2365 C   0  0  0  0  0  0  0  0  0  0  0  0
  150.6516  142.4540  157.1090 C   0  0  0  0  0  0  0  0  0  0  0  0
  151.1558  143.6170  157.9734 C   0  0  0  0  0  0  0  0  0  0  0  0
  150.0395  144.3071  158.6065 N   0  0  0  0  0  0  0  0  0  0  0  0
  149.8528  144.4235  159.9281 C   0  0  0  0  0  0  0  0  0  0  0  0
  150.6682  143.9266  160.7086 O   0  0  0  0  0  0  0  0  0  0  0  0
  148.7342  145.1077  160.2631 N   0  5  0  0  0  0  0  0  0  0  0  0
  147.6338  144.4512  160.6619 C   0  0  0  0  0  0  0  0  0  0  0  0
  146.5605  144.9975  161.4178 C   0  0  0  0  0  0  0  0  0  0  0  0
  145.6990  143.9449  161.5430 C   0  0  0  0  0  0  0  0  0  0  0  0
  144.3762  143.7941  162.2136 C   0  0  0  0  0  0  0  0  0  0  0  0
  146.1975  142.8493  160.9098 O   0  0  0  0  0  0  0  0  0  0  0  0
  147.4333  143.1834  160.3432 N   0  0  0  0  0  0  0  0  0  0  0  0
  152.2315  142.5949  159.6017 H   0  0  0  0  0  0  0  0  0  0  0  0
  153.5584  141.5130  159.9994 H   0  0  0  0  0  0  0  0  0  0  0  0
  151.9070  141.0789  160.4357 H   0  0  0  0  0  0  0  0  0  0  0  0
  153.0043  138.5191  156.4391 H   0  0  0  0  0  0  0  0  0  0  0  0
  149.6286  142.2082  157.3965 H   0  0  0  0  0  0  0  0  0  0  0  0
  150.5948  142.7782  156.0693 H   0  0  0  0  0  0  0  0  0  0  0  0
  151.8354  143.2447  158.7418 H   0  0  0  0  0  0  0  0  0  0  0  0
  151.7156  144.3259  157.3614 H   0  0  0  0  0  0  0  0  0  0  0  0
  149.3520  144.7272  157.9982 H   0  0  0  0  0  0  0  0  0  0  0  0
  146.4453  145.9979  161.8072 H   0  0  0  0  0  0  0  0  0  0  0  0
  143.6481  144.4849  161.7886 H   0  0  0  0  0  0  0  0  0  0  0  0
  144.4595  144.0030  163.2802 H   0  0  0  0  0  0  0  0  0  0  0  0
  143.9887  142.7818  162.0973 H   0  0  0  0  0  0  0  0  0  0  0  0
  150.3741  139.8552  155.1371 H   0  0  0  0  0  0  0  0  0  0  0  0
  1 20  1  0  0  0  0
  1 21  1  0  0  0  0
  1 22  1  0  0  0  0
  1  2  1  0  0  0  0
  2  7  1  0  0  0  0
  2  3  2  0  0  0  0
  3  4  1  0  0  0  0
  4 23  1  0  0  0  0
  4  5  1  0  0  0  0
  5  7  2  0  0  0  0
  5  6  1  0  0  0  0
  6 33  1  0  0  0  0
  7  8  1  0  0  0  0
  8  9  1  0  0  0  0
  8 24  1  0  0  0  0
  8 25  1  0  0  0  0
  9 10  1  0  0  0  0
  9 26  1  0  0  0  0
  9 27  1  0  0  0  0
 10 11  1  0  0  0  0
 10 28  1  0  0  0  0
 11 12  2  0  0  0  0
 11 13  1  0  0  0  0
 13 14  1  0  0  0  0
 14 19  2  0  0  0  0
 14 15  1  0  0  0  0
 15 16  2  0  0  0  0
 15 29  1  0  0  0  0
 16 17  1  0  0  0  0
 16 18  1  0  0  0  0
 17 30  1  0  0  0  0
 17 31  1  0  0  0  0
 17 32  1  0  0  0  0
 18 19  1  0  0  0  0
M  CHG  1  13  -1
M  END
> <s_m_source_file>
AV-unprocessed.smi

> <i_m_source_file_index>
2655

> <i_lp_mmshare_version>
43012

> <i_f3d_flags>
0

> <s_epik_input>
W0NIM11DMT1OW05IXUMoPU8pW0NASF0xW0NIMl1bQ0gyXVtOSF1DKD1PKVtOSF1jMltjSF1jKFtDSDNdKW9uMg==

> <s_epik_cmdline>
J2VwaWtfcHl0aG9uJywgJy1waCcsICc3LjAnLCAnLXRuJywgJzgnLCAnLW1hJywgJzIwMCcsICctbWV0YWxfYmluZGluZycsICctaW1hZScsICc8aW5maWxlLm1hZT4nLCAnLW9tYWUnLCAnPG91dGZpbGUubWFlPic=

> <r_lp_tautomer_probability>
0.0227396

> <r_epik_Ionization_Penalty>
10.1454

> <r_epik_Ionization_Penalty_Charging>
6.5559

> <r_epik_Ionization_Penalty_Neutral>
3.58948

> <r_epik_State_Penalty>
8.16616

> <r_epik_Charging_Adjusted_Penalty>
14.7221

> <i_epik_Tot_Q>
-1

> <i_epik_Tot_abs_Q>
1

> <r_epik_Metal_State_Penalty>
5.48631

> <b_epik_Metal_Only>
1

> <s_lp_Force_Field>
OPLS_2005

> <r_lp_Energy>
-4.29972

> <b_lp_Chiralities_Consistent>
1

> <s_lp_Variant>
AV-unprocessed.smi:2655-7

> <Gold.Version>
5.8.1

> <Gold.Id.Protein>
6NUR|6NUR_protein|mol2

> <Gold.PLP.Fitness>
42.1015

> <Gold.PLP.PLP>
-36.1171

> <Gold.PLP.part.hbond>
-7.5274

> <Gold.PLP.part.metal>
0.0000

> <Gold.PLP.part.buried>
-6.9430

> <Gold.PLP.part.nonpolar>
-24.9630

> <Gold.PLP.part.repulsive>
2.0489

> <Gold.PLP.ligand.clash>
0.0000

> <Gold.PLP.ligand.torsion>
1.4742

> <Gold.PLP.Chemscore.Hbond>
2.9592

> <Gold.PLP.Chemscore.CHOScore>
0.0000

> <Gold.PLP.Chemscore.Metal>
0.0000

> <Gold.Chemscore.Hbonds>
donor molecule, donor type, donor heavy atom, donor atom, acceptor molecule, acceptor atom, score
      L1  H    10    28       P1  8029  0.75
      P1  H  6933  6944       L1    19  1.00
      P1  H  6934  6946       L1    18  0.16
      P1  H  7989  7998       L1     6  1.00

> <Gold.PLP.Chemscore.Internal.Correction>
0.0551

> <Gold.Rescore>
     Score         DG    S(hbond)    S(metal)    S(lipo)     H(rot)  DE(clash)    DE(int)     intcor
      9.09     -12.07       1.63        0.00      64.38       2.49       0.48       2.49       ----

> <Gold.Chemscore.Fitness>
9.0915

> <Gold.Chemscore.DG>
-12.0665

> <Gold.Chemscore.ZeroCoef>
-5.4800

> <Gold.Chemscore.Hbond>
1.6271

> <Gold.Chemscore.Metal>
0.0000

> <Gold.Chemscore.Lipo>
64.3768

> <Gold.Chemscore.Internal_Hbond>
0.0000

> <Gold.Chemscore.DEClash>
0.4845

> <Gold.Chemscore.DEInternal>
2.4906

> <Gold.Chemscore.Rot>
2.4922

> <Gold.Chemscore.Internal.Correction>
   9.000000E+99

> <Gold.Chemscore.Hbonds>
donor molecule, donor type, donor heavy atom, donor atom, acceptor molecule, acceptor atom, score
      L1  H    10    28       P1  8029  0.09
      P1  H  6933  6944       L1    19  0.10
      P1  H  7989  7998       L1     6  0.78

> <Gold.Chemscore.Hbond.Weighted>
-5.4344

> <Gold.Chemscore.Metal.Weighted>
-0.0000

> <Gold.Chemscore.Lipo.Weighted>
-7.5321

> <Gold.Chemscore.Internal_Hbond.Weighted>
0.0000

> <Gold.Chemscore.DEClash.Weighted>
0.4845

> <Gold.Chemscore.DEInternal.Weighted>
2.4906

> <Gold.Chemscore.Rot.Weighted>
6.3800

> <Gold.Chemscore.Internal.Correction.Weighted>
   9.000000E+99

> <Gold.Protein.RotatedTorsions>
[ 6907 6896 6895 6894 ] final  -78.71 input  -60.11 | X-H torsion
[ 7974 7965 7964 7962 ] final  -87.82 input  175.53 | X-H torsion
[ 8008 7997 7996 7995 ] final  173.18 input   59.86 | X-H torsion
[ 10167 10162 10161 10158 ] final -117.98 input  -65.29 | X-H torsion
[ 10718 10713 10712 10709 ] final  -89.05 input   66.30 | X-H torsion
[ 10763 10752 10751 10750 ] final -126.09 input  -60.55 | X-H torsion
[ 11005 11000 10999 10996 ] final -103.11 input  -57.11 | X-H torsion

> <Gold.Protein.ActiveResidues>
 VAL166  LYS551  ARG553  GLY616  TRP617  ASP618  TYR619  PRO620  LYS621  CYS622 
 ASP623  PHE694  ASN695  SER759  ASP760  ASP761  ALA762  ILE779  LEU786  VAL792 
 PHE793  MET794  SER795  GLU796  ALA797  LYS798  CYS799  TRP800  GLU811  SER814 

> <Gold.Protein.RotatedAtoms>
  150.6966  134.4231  159.5213 H   0  0  0  0  0  0  0  0  0  0  0  0  # atno 6907 bound_to 6896
  152.1971  134.8618  160.0521 H   0  0  0  0  0  0  0  0  0  0  0  0  # atno 6908 bound_to 6896
  151.9552  133.3643  159.4051 H   0  0  0  0  0  0  0  0  0  0  0  0  # atno 6909 bound_to 6896
  145.4614  140.9561  143.1967 H   0  0  0  0  0  0  0  0  0  0  0  0  # atno 7974 bound_to 7965
  156.1101  140.1467  156.9350 H   0  0  0  0  0  0  0  0  0  0  0  0  # atno 8008 bound_to 7997
  154.4761  140.0894  156.7308 H   0  0  0  0  0  0  0  0  0  0  0  0  # atno 8009 bound_to 7997
  155.4611  140.3438  155.4315 H   0  0  0  0  0  0  0  0  0  0  0  0  # atno 8010 bound_to 7997
  140.0624  143.4955  152.2024 H   0  0  0  0  0  0  0  0  0  0  0  0  # atno 10167 bound_to 10162
  155.9984  130.4858  150.5112 H   0  0  0  0  0  0  0  0  0  0  0  0  # atno 10718 bound_to 10713
  154.8742  135.4007  154.3375 H   0  0  0  0  0  0  0  0  0  0  0  0  # atno 10763 bound_to 10752
  153.4179  135.7022  153.6319 H   0  0  0  0  0  0  0  0  0  0  0  0  # atno 10764 bound_to 10752
  153.4994  135.3731  155.2502 H   0  0  0  0  0  0  0  0  0  0  0  0  # atno 10765 bound_to 10752
  141.1160  133.8613  157.1445 H   0  0  0  0  0  0  0  0  0  0  0  0  # atno 11005 bound_to 11000
  144.8000  139.6159  143.7076 LP  0  0  0  0  0  0  0  0  0  0  0  0  # atno 17320 bound_to 7965
  146.2449  139.6077  142.9466 LP  0  0  0  0  0  0  0  0  0  0  0  0  # atno 17321 bound_to 7965
  139.5885  144.7541  151.3458 LP  0  0  0  0  0  0  0  0  0  0  0  0  # atno 17342 bound_to 10162
  140.7165  143.7251  150.7666 LP  0  0  0  0  0  0  0  0  0  0  0  0  # atno 17343 bound_to 10162
  157.3085  131.0659  151.2018 LP  0  0  0  0  0  0  0  0  0  0  0  0  # atno 17370 bound_to 10713
  157.2972  130.6825  149.6145 LP  0  0  0  0  0  0  0  0  0  0  0  0  # atno 17371 bound_to 10713
  140.0082  134.9999  157.0339 LP  0  0  0  0  0  0  0  0  0  0  0  0  # atno 17394 bound_to 11000
  140.4644  134.1450  155.7195 LP  0  0  0  0  0  0  0  0  0  0  0  0  # atno 17395 bound_to 11000

$$$$
