AV-unprocessed.smi:830|AV-procd|sdf|3873|dock1
  -GOLD-   22720 1323D 1   1.00000     0.00000
 Structure written by MMmdl.
 53 55  0  0  0  0  0  0  0  0  2 V2000
  152.4121  138.3423  154.6688 C   0  0  0  0  0  0  0  0  0  0  0  0
  150.9018  138.6302  154.6846 C   0  0  1  0  0  0  0  0  0  0  0  0
  150.2003  137.3925  154.3459 N   0  0  0  0  0  0  0  0  0  0  0  0
  150.4448  136.1910  154.8893 C   0  0  0  0  0  0  0  0  0  0  0  0
  151.2719  136.0013  155.7812 O   0  0  0  0  0  0  0  0  0  0  0  0
  149.6936  135.2361  154.3174 N   0  0  0  0  0  0  0  0  0  0  0  0
  149.7593  133.8321  154.5389 C   0  0  0  0  0  0  0  0  0  0  0  0
  150.7216  133.2581  155.4081 C   0  0  0  0  0  0  0  0  0  0  0  0
  150.7244  131.8673  155.6275 C   0  0  0  0  0  0  0  0  0  0  0  0
  149.7587  131.0733  154.9838 C   0  0  0  0  0  0  0  0  0  0  0  0
  148.8473  131.6525  154.1745 N   0  3  0  0  0  0  0  0  0  0  0  0
  148.7962  132.9846  153.9256 C   0  0  0  0  0  0  0  0  0  0  0  0
  147.8140  133.4772  153.0397 N   0  0  0  0  0  0  0  0  0  0  0  0
  147.9782  133.0393  151.6554 C   0  0  0  0  0  0  0  0  0  0  0  0
  146.5692  132.8343  151.0951 C   0  0  0  0  0  0  0  0  0  0  0  0
  145.7449  132.5171  152.3367 C   0  0  0  0  0  0  0  0  0  0  0  0
  146.3992  133.3970  153.4000 C   0  0  0  0  0  0  0  0  0  0  0  0
  150.5179  139.1088  156.0946 C   0  0  0  0  0  0  0  0  0  0  0  0
  149.8645  138.3847  156.8480 O   0  0  0  0  0  0  0  0  0  0  0  0
  150.9473  140.3318  156.4404 N   0  0  0  0  0  0  0  0  0  0  0  0
  150.6912  140.9817  157.7228 C   0  0  0  0  0  0  0  0  0  0  0  0
  149.8165  142.2361  157.5360 C   0  0  0  0  0  0  0  0  0  0  0  0
  150.4876  143.3438  158.3495 C   0  0  0  0  0  0  0  0  0  0  0  0
  151.9710  142.9915  158.3121 C   0  0  0  0  0  0  0  0  0  0  0  0
  151.9959  141.4647  158.3890 C   0  0  0  0  0  0  0  0  0  0  0  0
  152.9891  139.2369  154.9071 H   0  0  0  0  0  0  0  0  0  0  0  0
  152.7335  138.0036  153.6833 H   0  0  0  0  0  0  0  0  0  0  0  0
  152.6858  137.5692  155.3887 H   0  0  0  0  0  0  0  0  0  0  0  0
  150.6676  139.4020  153.9484 H   0  0  0  0  0  0  0  0  0  0  0  0
  149.5065  137.4538  153.6153 H   0  0  0  0  0  0  0  0  0  0  0  0
  149.1174  135.5295  153.5419 H   0  0  0  0  0  0  0  0  0  0  0  0
  151.4494  133.8672  155.9228 H   0  0  0  0  0  0  0  0  0  0  0  0
  151.4542  131.4182  156.2852 H   0  0  0  0  0  0  0  0  0  0  0  0
  149.6849  130.0010  155.0927 H   0  0  0  0  0  0  0  0  0  0  0  0
  148.5309  133.7744  151.0699 H   0  0  0  0  0  0  0  0  0  0  0  0
  148.5327  132.0999  151.6222 H   0  0  0  0  0  0  0  0  0  0  0  0
  146.2116  133.7605  150.6430 H   0  0  0  0  0  0  0  0  0  0  0  0
  146.5234  132.0500  150.3390 H   0  0  0  0  0  0  0  0  0  0  0  0
  144.6817  132.7233  152.2091 H   0  0  0  0  0  0  0  0  0  0  0  0
  145.8589  131.4647  152.6004 H   0  0  0  0  0  0  0  0  0  0  0  0
  146.2029  133.0272  154.4061 H   0  0  0  0  0  0  0  0  0  0  0  0
  145.9882  134.4058  153.3499 H   0  0  0  0  0  0  0  0  0  0  0  0
  151.4820  140.8554  155.7624 H   0  0  0  0  0  0  0  0  0  0  0  0
  150.1814  140.2827  158.3884 H   0  0  0  0  0  0  0  0  0  0  0  0
  149.7917  142.5352  156.4867 H   0  0  0  0  0  0  0  0  0  0  0  0
  148.7847  142.0692  157.8468 H   0  0  0  0  0  0  0  0  0  0  0  0
  150.2815  144.3392  157.9548 H   0  0  0  0  0  0  0  0  0  0  0  0
  150.1294  143.3127  159.3793 H   0  0  0  0  0  0  0  0  0  0  0  0
  152.4025  143.3194  157.3655 H   0  0  0  0  0  0  0  0  0  0  0  0
  152.5359  143.4618  159.1175 H   0  0  0  0  0  0  0  0  0  0  0  0
  151.9972  141.1576  159.4355 H   0  0  0  0  0  0  0  0  0  0  0  0
  152.8973  141.0503  157.9351 H   0  0  0  0  0  0  0  0  0  0  0  0
  148.1598  131.0513  153.7198 H   0  0  0  0  0  0  0  0  0  0  0  0
  1  2  1  0  0  0  0
  1 26  1  0  0  0  0
  1 27  1  0  0  0  0
  1 28  1  0  0  0  0
  2  3  1  0  0  0  0
  2 18  1  0  0  0  0
  2 29  1  0  0  0  0
  3  4  1  0  0  0  0
  3 30  1  0  0  0  0
  4  5  2  0  0  0  0
  4  6  1  0  0  0  0
  6  7  1  0  0  0  0
  6 31  1  0  0  0  0
  7 12  1  0  0  0  0
  7  8  2  0  0  0  0
  8  9  1  0  0  0  0
  8 32  1  0  0  0  0
  9 10  2  0  0  0  0
  9 33  1  0  0  0  0
 10 11  1  0  0  0  0
 10 34  1  0  0  0  0
 11 12  2  0  0  0  0
 11 53  1  0  0  0  0
 12 13  1  0  0  0  0
 13 17  1  0  0  0  0
 13 14  1  0  0  0  0
 14 15  1  0  0  0  0
 14 35  1  0  0  0  0
 14 36  1  0  0  0  0
 15 16  1  0  0  0  0
 15 37  1  0  0  0  0
 15 38  1  0  0  0  0
 16 17  1  0  0  0  0
 16 39  1  0  0  0  0
 16 40  1  0  0  0  0
 17 41  1  0  0  0  0
 17 42  1  0  0  0  0
 18 19  2  0  0  0  0
 18 20  1  0  0  0  0
 20 21  1  0  0  0  0
 20 43  1  0  0  0  0
 21 25  1  0  0  0  0
 21 22  1  0  0  0  0
 21 44  1  0  0  0  0
 22 23  1  0  0  0  0
 22 45  1  0  0  0  0
 22 46  1  0  0  0  0
 23 24  1  0  0  0  0
 23 47  1  0  0  0  0
 23 48  1  0  0  0  0
 24 25  1  0  0  0  0
 24 49  1  0  0  0  0
 24 50  1  0  0  0  0
 25 51  1  0  0  0  0
 25 52  1  0  0  0  0
M  CHG  1  11   1
M  END
> <s_m_source_file>
AV-unprocessed.smi

> <i_m_source_file_index>
830

> <i_lp_mmshare_version>
43012

> <i_f3d_flags>
0

> <s_epik_input>
W0NIMl0xW0NIMl1bQ0gyXVtDSDJdW0NIXTFbTkhdQyg9TylbQ0BIXShbQ0gzXSlbTkhdQyg9TylbTkhdYzJbY0hdW2NIXVtjSF1uYzJOM1tDSDJdW0NIMl1bQ0gyXVtDSDJdMw==

> <s_epik_cmdline>
J2VwaWtfcHl0aG9uJywgJy1waCcsICc3LjAnLCAnLXRuJywgJzgnLCAnLW1hJywgJzIwMCcsICctbWV0YWxfYmluZGluZycsICctaW1hZScsICc8aW5maWxlLm1hZT4nLCAnLW9tYWUnLCAnPG91dGZpbGUubWFlPic=

> <r_lp_tautomer_probability>
0.999994

> <r_epik_Ionization_Penalty>
1.21091

> <r_epik_Ionization_Penalty_Charging>
1.21089

> <r_epik_Ionization_Penalty_Neutral>
1.88713e-05

> <r_epik_State_Penalty>
1.27732

> <r_epik_Charging_Adjusted_Penalty>
2.48821

> <i_epik_Tot_Q>
1

> <i_epik_Tot_abs_Q>
1

> <r_epik_Metal_State_Penalty>
1.3505

> <b_epik_Metal_Only>
0

> <s_lp_Force_Field>
OPLS_2005

> <r_lp_Energy>
52.3557

> <b_lp_Chiralities_Consistent>
1

> <s_lp_Variant>
AV-unprocessed.smi:830-4

> <Gold.Version>
5.8.1

> <Gold.Id.Protein>
6NUR|6NUR_protein|mol2

> <Gold.PLP.Fitness>
43.9279

> <Gold.PLP.PLP>
-38.1762

> <Gold.PLP.part.hbond>
-3.0000

> <Gold.PLP.part.metal>
0.0000

> <Gold.PLP.part.buried>
-5.5251

> <Gold.PLP.part.nonpolar>
-29.8347

> <Gold.PLP.part.repulsive>
0.3904

> <Gold.PLP.ligand.clash>
0.0000

> <Gold.PLP.ligand.torsion>
0.4360

> <Gold.PLP.Chemscore.Hbond>
2.1421

> <Gold.PLP.Chemscore.CHOScore>
0.0000

> <Gold.PLP.Chemscore.Metal>
0.0000

> <Gold.Chemscore.Hbonds>
donor molecule, donor type, donor heavy atom, donor atom, acceptor molecule, acceptor atom, score
      L1  H     3    30       P1  7948  0.44
      L1  H     6    31       P1  7948  0.98
      P1  H 10752 10763       L1     5  1.00

> <Gold.PLP.Chemscore.Internal.Correction>
0.1975

> <Gold.Rescore>
     Score         DG    S(hbond)    S(metal)    S(lipo)     H(rot)  DE(clash)    DE(int)     intcor
     12.71     -18.69       1.88        0.00      95.73       1.67       0.25       5.72       ----

> <Gold.Chemscore.Fitness>
12.7149

> <Gold.Chemscore.DG>
-18.6937

> <Gold.Chemscore.ZeroCoef>
-5.4800

> <Gold.Chemscore.Hbond>
1.8808

> <Gold.Chemscore.Metal>
0.0000

> <Gold.Chemscore.Lipo>
95.7333

> <Gold.Chemscore.Internal_Hbond>
0.0000

> <Gold.Chemscore.DEClash>
0.2540

> <Gold.Chemscore.DEInternal>
5.7248

> <Gold.Chemscore.Rot>
1.6676

> <Gold.Chemscore.Internal.Correction>
   9.000000E+99

> <Gold.Chemscore.Hbonds>
donor molecule, donor type, donor heavy atom, donor atom, acceptor molecule, acceptor atom, score
      L1  H     3    30       P1  7948  0.41
      L1  H     6    31       P1  7948  0.56
      P1  H 10752 10763       L1     5  0.61

> <Gold.Chemscore.Hbond.Weighted>
-6.2820

> <Gold.Chemscore.Metal.Weighted>
-0.0000

> <Gold.Chemscore.Lipo.Weighted>
-11.2008

> <Gold.Chemscore.Internal_Hbond.Weighted>
0.0000

> <Gold.Chemscore.DEClash.Weighted>
0.2540

> <Gold.Chemscore.DEInternal.Weighted>
5.7248

> <Gold.Chemscore.Rot.Weighted>
4.2691

> <Gold.Chemscore.Internal.Correction.Weighted>
   9.000000E+99

> <Gold.Protein.RotatedTorsions>
[ 6907 6896 6895 6894 ] final   12.71 input  -60.11 | X-H torsion
[ 7974 7965 7964 7962 ] final -143.60 input  175.53 | X-H torsion
[ 8008 7997 7996 7995 ] final    9.09 input   59.86 | X-H torsion
[ 10167 10162 10161 10158 ] final  -85.29 input  -65.29 | X-H torsion
[ 10718 10713 10712 10709 ] final  123.52 input   66.30 | X-H torsion
[ 10763 10752 10751 10750 ] final   78.76 input  -60.55 | X-H torsion
[ 11005 11000 10999 10996 ] final  -92.12 input  -57.11 | X-H torsion

> <Gold.Protein.ActiveResidues>
 VAL166  LYS551  ARG553  GLY616  TRP617  ASP618  TYR619  PRO620  LYS621  CYS622 
 ASP623  PHE694  ASN695  SER759  ASP760  ASP761  ALA762  ILE779  LEU786  VAL792 
 PHE793  MET794  SER795  GLU796  ALA797  LYS798  CYS799  TRP800  GLU811  SER814 

> <Gold.Protein.RotatedAtoms>
  151.7747  135.0777  160.0364 H   0  0  0  0  0  0  0  0  0  0  0  0  # atno 6907 bound_to 6896
  152.3264  133.5905  159.5788 H   0  0  0  0  0  0  0  0  0  0  0  0  # atno 6908 bound_to 6896
  150.7398  133.9850  159.3630 H   0  0  0  0  0  0  0  0  0  0  0  0  # atno 6909 bound_to 6896
  144.8358  140.5815  143.5485 H   0  0  0  0  0  0  0  0  0  0  0  0  # atno 7974 bound_to 7965
  154.7755  140.2809  155.6104 H   0  0  0  0  0  0  0  0  0  0  0  0  # atno 8008 bound_to 7997
  156.2941  140.2633  156.2496 H   0  0  0  0  0  0  0  0  0  0  0  0  # atno 8009 bound_to 7997
  154.9848  140.0374  157.2283 H   0  0  0  0  0  0  0  0  0  0  0  0  # atno 8010 bound_to 7997
  140.4051  143.2646  151.9091 H   0  0  0  0  0  0  0  0  0  0  0  0  # atno 10167 bound_to 10162
  157.5658  131.1086  150.8456 H   0  0  0  0  0  0  0  0  0  0  0  0  # atno 10718 bound_to 10713
  153.0899  135.4865  154.8670 H   0  0  0  0  0  0  0  0  0  0  0  0  # atno 10763 bound_to 10752
  154.7256  135.3049  154.8978 H   0  0  0  0  0  0  0  0  0  0  0  0  # atno 10764 bound_to 10752
  153.9629  135.6810  153.4798 H   0  0  0  0  0  0  0  0  0  0  0  0  # atno 10765 bound_to 10752
  141.1529  133.7800  156.9975 H   0  0  0  0  0  0  0  0  0  0  0  0  # atno 11005 bound_to 11000
  145.4798  139.1496  143.3768 LP  0  0  0  0  0  0  0  0  0  0  0  0  # atno 17320 bound_to 7965
  146.2657  140.4934  142.8835 LP  0  0  0  0  0  0  0  0  0  0  0  0  # atno 17321 bound_to 7965
  139.4783  144.5594  151.8263 LP  0  0  0  0  0  0  0  0  0  0  0  0  # atno 17342 bound_to 10162
  140.4698  144.1603  150.5916 LP  0  0  0  0  0  0  0  0  0  0  0  0  # atno 17343 bound_to 10162
  156.8941  130.5223  149.5285 LP  0  0  0  0  0  0  0  0  0  0  0  0  # atno 17370 bound_to 10713
  156.0707  130.5740  150.9377 LP  0  0  0  0  0  0  0  0  0  0  0  0  # atno 17371 bound_to 10713
  140.0962  134.9563  157.1853 LP  0  0  0  0  0  0  0  0  0  0  0  0  # atno 17394 bound_to 11000
  140.3379  134.2736  155.7217 LP  0  0  0  0  0  0  0  0  0  0  0  0  # atno 17395 bound_to 11000

$$$$
