AV-unprocessed.smi:1947|AV-procd|sdf|7866|dock7
  -GOLD-   2272010 13D 1   1.00000     0.00000
 Structure written by MMmdl.
 39 40  0  0  0  0  0  0  0  0  1 V2000
  151.5479  145.1761  159.1131 C   0  0  0  0  0  0  0  0  0  0  0  0
  152.4895  144.2031  159.8405 C   0  0  1  0  0  0  0  0  0  0  0  0
  152.0591  143.9746  161.3031 C   0  0  0  0  0  0  0  0  0  0  0  0
  153.0250  143.0267  162.0318 C   0  0  0  0  0  0  0  0  0  0  0  0
  153.1581  141.6881  161.2901 C   0  0  0  0  0  0  0  0  0  0  0  0
  153.5825  141.8992  159.8269 C   0  0  0  0  0  0  0  0  0  0  0  0
  152.6350  142.8620  159.0871 C   0  0  1  0  0  0  0  0  0  0  0  0
  151.3568  142.2459  158.9870 O   0  0  0  0  0  0  0  0  0  0  0  0
  151.3392  141.0617  158.2062 C   0  0  0  0  0  0  0  0  0  0  0  0
  150.8829  141.4150  156.7829 C   0  0  0  0  0  0  0  0  0  0  0  0
  149.9341  140.4347  156.2648 N   0  0  0  0  0  0  0  0  0  0  0  0
  149.4197  140.4362  155.0273 C   0  0  0  0  0  0  0  0  0  0  0  0
  149.7388  141.2504  154.1612 O   0  0  0  0  0  0  0  0  0  0  0  0
  148.5201  139.4512  154.8751 N   0  0  0  0  0  0  0  0  0  0  0  0
  147.7275  139.1633  153.7364 C   0  0  0  0  0  0  0  0  0  0  0  0
  147.0248  138.0244  153.7313 N   0  0  0  0  0  0  0  0  0  0  0  0
  146.2929  137.8694  152.5603 N   0  0  0  0  0  0  0  0  0  0  0  0
  146.4710  138.8997  151.7280 C   0  0  0  0  0  0  0  0  0  0  0  0
  147.5505  140.1633  152.2912 S   0  0  0  0  0  0  0  0  0  0  0  0
  150.5244  144.8016  159.0925 H   0  0  0  0  0  0  0  0  0  0  0  0
  151.8649  145.3330  158.0818 H   0  0  0  0  0  0  0  0  0  0  0  0
  151.5328  146.1488  159.6052 H   0  0  0  0  0  0  0  0  0  0  0  0
  153.4747  144.6713  159.8597 H   0  0  0  0  0  0  0  0  0  0  0  0
  152.0151  144.9271  161.8319 H   0  0  0  0  0  0  0  0  0  0  0  0
  151.0503  143.5603  161.3328 H   0  0  0  0  0  0  0  0  0  0  0  0
  154.0056  143.4971  162.1154 H   0  0  0  0  0  0  0  0  0  0  0  0
  152.6774  142.8537  163.0507 H   0  0  0  0  0  0  0  0  0  0  0  0
  153.8832  141.0522  161.7986 H   0  0  0  0  0  0  0  0  0  0  0  0
  152.2063  141.1566  161.3230 H   0  0  0  0  0  0  0  0  0  0  0  0
  154.5958  142.3019  159.8019 H   0  0  0  0  0  0  0  0  0  0  0  0
  153.6208  140.9409  159.3080 H   0  0  0  0  0  0  0  0  0  0  0  0
  153.0525  143.0630  158.0983 H   0  0  0  0  0  0  0  0  0  0  0  0
  152.3311  140.6073  158.1825 H   0  0  0  0  0  0  0  0  0  0  0  0
  150.6579  140.3361  158.6522 H   0  0  0  0  0  0  0  0  0  0  0  0
  150.4379  142.4107  156.7633 H   0  0  0  0  0  0  0  0  0  0  0  0
  151.7444  141.4442  156.1150 H   0  0  0  0  0  0  0  0  0  0  0  0
  149.6144  139.7297  156.9127 H   0  0  0  0  0  0  0  0  0  0  0  0
  148.3688  138.8505  155.6722 H   0  0  0  0  0  0  0  0  0  0  0  0
  145.9623  138.9157  150.7756 H   0  0  0  0  0  0  0  0  0  0  0  0
  1  2  1  0  0  0  0
  1 20  1  0  0  0  0
  1 21  1  0  0  0  0
  1 22  1  0  0  0  0
  2  7  1  0  0  0  0
  2  3  1  0  0  0  0
  2 23  1  0  0  0  0
  3  4  1  0  0  0  0
  3 24  1  0  0  0  0
  3 25  1  0  0  0  0
  4  5  1  0  0  0  0
  4 26  1  0  0  0  0
  4 27  1  0  0  0  0
  5  6  1  0  0  0  0
  5 28  1  0  0  0  0
  5 29  1  0  0  0  0
  6  7  1  0  0  0  0
  6 30  1  0  0  0  0
  6 31  1  0  0  0  0
  7  8  1  0  0  0  0
  7 32  1  0  0  0  0
  8  9  1  0  0  0  0
  9 10  1  0  0  0  0
  9 33  1  0  0  0  0
  9 34  1  0  0  0  0
 10 11  1  0  0  0  0
 10 35  1  0  0  0  0
 10 36  1  0  0  0  0
 11 12  1  0  0  0  0
 11 37  1  0  0  0  0
 12 13  2  0  0  0  0
 12 14  1  0  0  0  0
 14 15  1  0  0  0  0
 14 38  1  0  0  0  0
 15 19  1  0  0  0  0
 15 16  2  0  0  0  0
 16 17  1  0  0  0  0
 17 18  2  0  0  0  0
 18 19  1  0  0  0  0
 18 39  1  0  0  0  0
M  END
> <s_m_source_file>
AV-unprocessed.smi

> <i_m_source_file_index>
1947

> <i_lp_mmshare_version>
43012

> <i_f3d_flags>
0

> <s_epik_input>
W0NIM11bQ0BASF0xW0NIMl1bQ0gyXVtDSDJdW0NIMl1bQ0BIXTFPW0NIMl1bQ0gyXVtOSF1DKD1PKVtOSF1jMm5uW2NIXXMy

> <s_epik_cmdline>
J2VwaWtfcHl0aG9uJywgJy1waCcsICc3LjAnLCAnLXRuJywgJzgnLCAnLW1hJywgJzIwMCcsICctbWV0YWxfYmluZGluZycsICctaW1hZScsICc8aW5maWxlLm1hZT4nLCAnLW9tYWUnLCAnPG91dGZpbGUubWFlPic=

> <r_lp_tautomer_probability>
1

> <r_epik_Ionization_Penalty>
0.00220897

> <r_epik_Ionization_Penalty_Charging>
0

> <r_epik_Ionization_Penalty_Neutral>
0.00220897

> <r_epik_State_Penalty>
-0

> <r_epik_Charging_Adjusted_Penalty>
0

> <i_epik_Tot_Q>
0

> <i_epik_Tot_abs_Q>
0

> <r_epik_Metal_State_Penalty>
0.345002

> <b_epik_Metal_Only>
0

> <s_lp_Force_Field>
OPLS_2005

> <r_lp_Energy>
8.88806

> <b_lp_Chiralities_Consistent>
1

> <s_lp_Variant>
AV-unprocessed.smi:1947-2

> <Gold.Version>
5.8.1

> <Gold.Id.Protein>
6NUR|6NUR_protein|mol2

> <Gold.PLP.Fitness>
43.7123

> <Gold.PLP.PLP>
-39.5404

> <Gold.PLP.part.hbond>
-1.8487

> <Gold.PLP.part.metal>
0.0000

> <Gold.PLP.part.buried>
0.0852

> <Gold.PLP.part.nonpolar>
-38.8828

> <Gold.PLP.part.repulsive>
1.1246

> <Gold.PLP.ligand.clash>
0.0000

> <Gold.PLP.ligand.torsion>
0.5938

> <Gold.PLP.Chemscore.Hbond>
0.7779

> <Gold.PLP.Chemscore.CHOScore>
1.0000

> <Gold.PLP.Chemscore.Metal>
0.0000

> <Gold.Chemscore.Hbonds>
donor molecule, donor type, donor heavy atom, donor atom, acceptor molecule, acceptor atom, score
      P1  H  7989  7998       L1    13  0.38
      P1  H  8011  8017       L1    13  0.48
      L1  C    18    39       P1 10171  1.00

> <Gold.PLP.Chemscore.Internal.Correction>
0.0256

> <Gold.Rescore>
     Score         DG    S(hbond)    S(metal)    S(lipo)     H(rot)  DE(clash)    DE(int)     intcor
     12.68     -16.27       0.64        0.00     116.26       1.94       2.35       1.24       ----

> <Gold.Chemscore.Fitness>
12.6826

> <Gold.Chemscore.DG>
-16.2730

> <Gold.Chemscore.ZeroCoef>
-5.4800

> <Gold.Chemscore.Hbond>
0.6447

> <Gold.Chemscore.Metal>
0.0000

> <Gold.Chemscore.Lipo>
116.2589

> <Gold.Chemscore.Internal_Hbond>
0.0000

> <Gold.Chemscore.DEClash>
2.3526

> <Gold.Chemscore.DEInternal>
1.2378

> <Gold.Chemscore.Rot>
1.9385

> <Gold.Chemscore.Internal.Correction>
   9.000000E+99

> <Gold.Chemscore.Hbonds>
donor molecule, donor type, donor heavy atom, donor atom, acceptor molecule, acceptor atom, score
      P1  H  7989  7998       L1    13  0.30
      P1  H  8011  8017       L1    13  0.48

> <Gold.Chemscore.Hbond.Weighted>
-2.1533

> <Gold.Chemscore.Metal.Weighted>
-0.0000

> <Gold.Chemscore.Lipo.Weighted>
-13.6023

> <Gold.Chemscore.Internal_Hbond.Weighted>
0.0000

> <Gold.Chemscore.DEClash.Weighted>
2.3526

> <Gold.Chemscore.DEInternal.Weighted>
1.2378

> <Gold.Chemscore.Rot.Weighted>
4.9625

> <Gold.Chemscore.Internal.Correction.Weighted>
   9.000000E+99

> <Gold.Protein.RotatedTorsions>
[ 6907 6896 6895 6894 ] final  143.06 input  -60.11 | X-H torsion
[ 7974 7965 7964 7962 ] final -143.61 input  175.53 | X-H torsion
[ 8008 7997 7996 7995 ] final   20.48 input   59.86 | X-H torsion
[ 10167 10162 10161 10158 ] final   81.14 input  -65.29 | X-H torsion
[ 10718 10713 10712 10709 ] final -129.47 input   66.30 | X-H torsion
[ 10763 10752 10751 10750 ] final   15.56 input  -60.55 | X-H torsion
[ 11005 11000 10999 10996 ] final   27.35 input  -57.11 | X-H torsion

> <Gold.Protein.ActiveResidues>
 VAL166  LYS551  ARG553  GLY616  TRP617  ASP618  TYR619  PRO620  LYS621  CYS622 
 ASP623  PHE694  ASN695  SER759  ASP760  ASP761  ALA762  ILE779  LEU786  VAL792 
 PHE793  MET794  SER795  GLU796  ALA797  LYS798  CYS799  TRP800  GLU811  SER814 

> <Gold.Protein.RotatedAtoms>
  152.2109  133.4910  159.5109 H   0  0  0  0  0  0  0  0  0  0  0  0  # atno 6907 bound_to 6896
  150.6990  134.1468  159.4134 H   0  0  0  0  0  0  0  0  0  0  0  0  # atno 6908 bound_to 6896
  151.9387  135.0223  160.0585 H   0  0  0  0  0  0  0  0  0  0  0  0  # atno 6909 bound_to 6896
  144.8357  140.5813  143.5486 H   0  0  0  0  0  0  0  0  0  0  0  0  # atno 7974 bound_to 7965
  154.9363  140.3047  155.5143 H   0  0  0  0  0  0  0  0  0  0  0  0  # atno 8008 bound_to 7997
  156.2999  140.2344  156.4365 H   0  0  0  0  0  0  0  0  0  0  0  0  # atno 8009 bound_to 7997
  154.8188  140.0424  157.1385 H   0  0  0  0  0  0  0  0  0  0  0  0  # atno 8010 bound_to 7997
  139.9424  144.6081  150.8239 H   0  0  0  0  0  0  0  0  0  0  0  0  # atno 10167 bound_to 10162
  156.2050  130.6882  151.0583 H   0  0  0  0  0  0  0  0  0  0  0  0  # atno 10718 bound_to 10713
  153.1513  135.6779  153.8878 H   0  0  0  0  0  0  0  0  0  0  0  0  # atno 10763 bound_to 10752
  153.8303  135.3118  155.3419 H   0  0  0  0  0  0  0  0  0  0  0  0  # atno 10764 bound_to 10752
  154.7864  135.4859  154.0042 H   0  0  0  0  0  0  0  0  0  0  0  0  # atno 10765 bound_to 10752
  140.3272  134.2478  155.7708 H   0  0  0  0  0  0  0  0  0  0  0  0  # atno 11005 bound_to 11000
  145.4800  139.1496  143.3767 LP  0  0  0  0  0  0  0  0  0  0  0  0  # atno 17320 bound_to 7965
  146.2656  140.4936  142.8835 LP  0  0  0  0  0  0  0  0  0  0  0  0  # atno 17321 bound_to 7965
  140.7607  143.3157  151.2739 LP  0  0  0  0  0  0  0  0  0  0  0  0  # atno 17342 bound_to 10162
  139.6694  144.0048  152.2743 LP  0  0  0  0  0  0  0  0  0  0  0  0  # atno 17343 bound_to 10162
  157.7007  131.0777  150.6829 LP  0  0  0  0  0  0  0  0  0  0  0  0  # atno 17370 bound_to 10713
  156.6887  130.4589  149.5606 LP  0  0  0  0  0  0  0  0  0  0  0  0  # atno 17371 bound_to 10713
  141.2072  133.7811  157.0131 LP  0  0  0  0  0  0  0  0  0  0  0  0  # atno 17394 bound_to 11000
  140.0891  134.9603  157.1748 LP  0  0  0  0  0  0  0  0  0  0  0  0  # atno 17395 bound_to 11000

$$$$
