AV-unprocessed.smi:2391|AV-procd|sdf|9484|dock1
  -GOLD-   2272013113D 1   1.00000     0.00000
 Structure written by MMmdl.
 35 36  0  0  0  0  0  0  0  0  1 V2000
  152.0458  138.7026  159.4502 O   0  0  0  0  0  0  0  0  0  0  0  0
  152.8675  139.3353  158.7807 C   0  0  0  0  0  0  0  0  0  0  0  0
  154.1300  138.9402  158.3543 N   0  0  0  0  0  0  0  0  0  0  0  0
  154.5450  137.7099  158.4398 C   0  0  0  0  0  0  0  0  0  0  0  0
  155.8768  137.3417  157.9905 C   0  0  0  0  0  0  0  0  0  0  0  0
  156.3204  136.0661  158.0724 C   0  0  0  0  0  0  0  0  0  0  0  0
  155.4337  135.0590  158.6209 C   0  0  0  0  0  0  0  0  0  0  0  0
  154.2430  135.3410  159.0325 N   0  0  0  0  0  0  0  0  0  0  0  0
  153.8111  136.6157  158.9475 N   0  0  0  0  0  0  0  0  0  0  0  0
  152.6169  140.5823  158.3534 N   0  0  0  0  0  0  0  0  0  0  0  0
  151.3969  141.3587  158.5890 C   0  0  1  0  0  0  0  0  0  0  0  0
  151.7738  142.7666  159.1179 C   0  0  0  0  0  0  0  0  0  0  0  0
  152.3470  142.7783  160.5409 C   0  0  0  0  0  0  0  0  0  0  0  0
  152.2431  144.2379  160.9797 C   0  0  0  0  0  0  0  0  0  0  0  0
  150.9888  144.7841  160.2874 C   0  0  0  0  0  0  0  0  0  0  0  0
  150.6044  143.7581  159.2112 C   0  0  0  0  0  0  0  0  0  0  0  0
  150.5650  141.3833  157.2863 C   0  0  0  0  0  0  0  0  0  0  0  0
  150.6255  140.1920  156.6893 F   0  0  0  0  0  0  0  0  0  0  0  0
  149.2834  141.6439  157.5416 F   0  0  0  0  0  0  0  0  0  0  0  0
  151.0346  142.3062  156.4458 F   0  0  0  0  0  0  0  0  0  0  0  0
  156.5504  138.0794  157.5790 H   0  0  0  0  0  0  0  0  0  0  0  0
  157.3110  135.7922  157.7402 H   0  0  0  0  0  0  0  0  0  0  0  0
  155.8382  134.0478  158.6630 H   0  0  0  0  0  0  0  0  0  0  0  0
  153.3349  141.0374  157.8083 H   0  0  0  0  0  0  0  0  0  0  0  0
  150.7899  140.8666  159.3506 H   0  0  0  0  0  0  0  0  0  0  0  0
  152.5281  143.1999  158.4589 H   0  0  0  0  0  0  0  0  0  0  0  0
  151.7373  142.1537  161.1959 H   0  0  0  0  0  0  0  0  0  0  0  0
  153.3717  142.4078  160.5879 H   0  0  0  0  0  0  0  0  0  0  0  0
  152.2014  144.3432  162.0641 H   0  0  0  0  0  0  0  0  0  0  0  0
  153.1197  144.7851  160.6299 H   0  0  0  0  0  0  0  0  0  0  0  0
  150.1725  144.9065  161.0003 H   0  0  0  0  0  0  0  0  0  0  0  0
  151.1884  145.7628  159.8496 H   0  0  0  0  0  0  0  0  0  0  0  0
  150.3968  144.2364  158.2535 H   0  0  0  0  0  0  0  0  0  0  0  0
  149.6963  143.2388  159.5210 H   0  0  0  0  0  0  0  0  0  0  0  0
  152.8743  136.7917  159.2822 H   0  0  0  0  0  0  0  0  0  0  0  0
  1  2  2  0  0  0  0
  2  3  1  0  0  0  0
  2 10  1  0  0  0  0
  3  4  2  0  0  0  0
  4  9  1  0  0  0  0
  4  5  1  0  0  0  0
  5  6  2  0  0  0  0
  5 21  1  0  0  0  0
  6  7  1  0  0  0  0
  6 22  1  0  0  0  0
  7  8  2  0  0  0  0
  7 23  1  0  0  0  0
  8  9  1  0  0  0  0
  9 35  1  0  0  0  0
 10 11  1  0  0  0  0
 10 24  1  0  0  0  0
 11 12  1  0  0  0  0
 11 17  1  0  0  0  0
 11 25  1  0  0  0  0
 12 16  1  0  0  0  0
 12 13  1  0  0  0  0
 12 26  1  0  0  0  0
 13 14  1  0  0  0  0
 13 27  1  0  0  0  0
 13 28  1  0  0  0  0
 14 15  1  0  0  0  0
 14 29  1  0  0  0  0
 14 30  1  0  0  0  0
 15 16  1  0  0  0  0
 15 31  1  0  0  0  0
 15 32  1  0  0  0  0
 16 33  1  0  0  0  0
 16 34  1  0  0  0  0
 17 18  1  0  0  0  0
 17 19  1  0  0  0  0
 17 20  1  0  0  0  0
M  END
> <s_m_source_file>
AV-unprocessed.smi

> <i_m_source_file_index>
2391

> <i_lp_mmshare_version>
43012

> <i_f3d_flags>
0

> <s_epik_input>
W0NIMl0xW0NIMl1bQ0gyXVtDSDJdW0NIXTFbQ0BIXShDKEYpKEYpRilbTkhdQyg9TylbTkhdYzJbY0hdW2NIXVtjSF1ubjI=

> <s_epik_cmdline>
J2VwaWtfcHl0aG9uJywgJy1waCcsICc3LjAnLCAnLXRuJywgJzgnLCAnLW1hJywgJzIwMCcsICctbWV0YWxfYmluZGluZycsICctaW1hZScsICc8aW5maWxlLm1hZT4nLCAnLW9tYWUnLCAnPG91dGZpbGUubWFlPic=

> <r_epik_Ionization_Penalty>
0.0611197

> <r_epik_Ionization_Penalty_Charging>
0.0611196

> <r_epik_Ionization_Penalty_Neutral>
6.50554e-08

> <r_epik_State_Penalty>
2.29873

> <r_epik_Charging_Adjusted_Penalty>
2.35985

> <i_epik_Tot_Q>
0

> <i_epik_Tot_abs_Q>
0

> <r_epik_Metal_State_Penalty>
2.32932

> <b_epik_Metal_Only>
0

> <s_lp_Force_Field>
OPLS_2005

> <r_lp_Energy>
50.064

> <b_lp_Chiralities_Consistent>
1

> <s_lp_Variant>
AV-unprocessed.smi:2391-4

> <Gold.Version>
5.8.1

> <Gold.Id.Protein>
6NUR|6NUR_protein|mol2

> <Gold.PLP.Fitness>
33.8640

> <Gold.PLP.PLP>
-29.1446

> <Gold.PLP.part.hbond>
-2.0000

> <Gold.PLP.part.metal>
0.0000

> <Gold.PLP.part.buried>
-6.1658

> <Gold.PLP.part.nonpolar>
-21.7745

> <Gold.PLP.part.repulsive>
0.1957

> <Gold.PLP.ligand.clash>
0.0000

> <Gold.PLP.ligand.torsion>
0.8530

> <Gold.PLP.Chemscore.Hbond>
2.0000

> <Gold.PLP.Chemscore.CHOScore>
0.0000

> <Gold.PLP.Chemscore.Metal>
0.0000

> <Gold.Chemscore.Hbonds>
donor molecule, donor type, donor heavy atom, donor atom, acceptor molecule, acceptor atom, score
      P1  H  6896  6908       L1     8  0.77
      P1  H  7997  8010       L1     3  1.00

> <Gold.PLP.Chemscore.Internal.Correction>
0.4253

> <Gold.Rescore>
     Score         DG    S(hbond)    S(metal)    S(lipo)     H(rot)  DE(clash)    DE(int)     intcor
     14.89     -16.46       1.76        0.00      72.72       1.33       0.05       1.52       ----

> <Gold.Chemscore.Fitness>
14.8918

> <Gold.Chemscore.DG>
-16.4594

> <Gold.Chemscore.ZeroCoef>
-5.4800

> <Gold.Chemscore.Hbond>
1.7595

> <Gold.Chemscore.Metal>
0.0000

> <Gold.Chemscore.Lipo>
72.7228

> <Gold.Chemscore.Internal_Hbond>
0.0000

> <Gold.Chemscore.DEClash>
0.0474

> <Gold.Chemscore.DEInternal>
1.5202

> <Gold.Chemscore.Rot>
1.3304

> <Gold.Chemscore.Internal.Correction>
   9.000000E+99

> <Gold.Chemscore.Hbonds>
donor molecule, donor type, donor heavy atom, donor atom, acceptor molecule, acceptor atom, score
      P1  H  6896  6908       L1     8  0.17
      P1  H  7997  8010       L1     3  0.90

> <Gold.Chemscore.Hbond.Weighted>
-5.8766

> <Gold.Chemscore.Metal.Weighted>
-0.0000

> <Gold.Chemscore.Lipo.Weighted>
-8.5086

> <Gold.Chemscore.Internal_Hbond.Weighted>
0.0000

> <Gold.Chemscore.DEClash.Weighted>
0.0474

> <Gold.Chemscore.DEInternal.Weighted>
1.5202

> <Gold.Chemscore.Rot.Weighted>
3.4057

> <Gold.Chemscore.Internal.Correction.Weighted>
   9.000000E+99

> <Gold.Protein.RotatedTorsions>
[ 6907 6896 6895 6894 ] final  -46.77 input  -60.11 | X-H torsion
[ 7974 7965 7964 7962 ] final  139.89 input  175.53 | X-H torsion
[ 8008 7997 7996 7995 ] final   12.76 input   59.86 | X-H torsion
[ 10167 10162 10161 10158 ] final   -8.73 input  -65.29 | X-H torsion
[ 10718 10713 10712 10709 ] final  -60.94 input   66.30 | X-H torsion
[ 10763 10752 10751 10750 ] final   12.39 input  -60.55 | X-H torsion
[ 11005 11000 10999 10996 ] final   21.66 input  -57.11 | X-H torsion

> <Gold.Protein.ActiveResidues>
 VAL166  LYS551  ARG553  GLY616  TRP617  ASP618  TYR619  PRO620  LYS621  CYS622 
 ASP623  PHE694  ASN695  SER759  ASP760  ASP761  ALA762  ILE779  LEU786  VAL792 
 PHE793  MET794  SER795  GLU796  ALA797  LYS798  CYS799  TRP800  GLU811  SER814 

> <Gold.Protein.RotatedAtoms>
  150.9078  134.8494  159.7404 H   0  0  0  0  0  0  0  0  0  0  0  0  # atno 6907 bound_to 6896
  152.4928  134.4405  159.9552 H   0  0  0  0  0  0  0  0  0  0  0  0  # atno 6908 bound_to 6896
  151.4450  133.3593  159.2822 H   0  0  0  0  0  0  0  0  0  0  0  0  # atno 6909 bound_to 6896
  144.9237  139.5135  143.5651 H   0  0  0  0  0  0  0  0  0  0  0  0  # atno 7974 bound_to 7965
  154.8251  140.2890  155.5760 H   0  0  0  0  0  0  0  0  0  0  0  0  # atno 8008 bound_to 7997
  156.3001  140.2543  156.3096 H   0  0  0  0  0  0  0  0  0  0  0  0  # atno 8009 bound_to 7997
  154.9295  140.0384  157.2030 H   0  0  0  0  0  0  0  0  0  0  0  0  # atno 8010 bound_to 7997
  140.7067  143.5936  150.8868 H   0  0  0  0  0  0  0  0  0  0  0  0  # atno 10167 bound_to 10162
  156.0956  130.4193  150.0924 H   0  0  0  0  0  0  0  0  0  0  0  0  # atno 10718 bound_to 10713
  153.1828  135.6830  153.8456 H   0  0  0  0  0  0  0  0  0  0  0  0  # atno 10763 bound_to 10752
  153.7782  135.3186  155.3363 H   0  0  0  0  0  0  0  0  0  0  0  0  # atno 10764 bound_to 10752
  154.8070  135.4742  154.0513 H   0  0  0  0  0  0  0  0  0  0  0  0  # atno 10765 bound_to 10752
  140.3892  134.1837  155.7662 H   0  0  0  0  0  0  0  0  0  0  0  0  # atno 11005 bound_to 11000
  146.3216  139.8136  142.8941 LP  0  0  0  0  0  0  0  0  0  0  0  0  # atno 17320 bound_to 7965
  145.3254  141.0254  143.3476 LP  0  0  0  0  0  0  0  0  0  0  0  0  # atno 17321 bound_to 7965
  139.9661  143.6109  152.2988 LP  0  0  0  0  0  0  0  0  0  0  0  0  # atno 17342 bound_to 10162
  139.6679  144.7662  151.1839 LP  0  0  0  0  0  0  0  0  0  0  0  0  # atno 17343 bound_to 10162
  156.8924  130.9593  151.3587 LP  0  0  0  0  0  0  0  0  0  0  0  0  # atno 17370 bound_to 10713
  157.6116  130.8587  149.8960 LP  0  0  0  0  0  0  0  0  0  0  0  0  # atno 17371 bound_to 10713
  141.1897  133.8233  157.0948 LP  0  0  0  0  0  0  0  0  0  0  0  0  # atno 17394 bound_to 11000
  140.0420  134.9850  157.0978 LP  0  0  0  0  0  0  0  0  0  0  0  0  # atno 17395 bound_to 11000

$$$$
