AV-unprocessed.smi:1518|AV-procd|sdf|6127|dock1
  -GOLD-   22720 6263D 1   1.00000     0.00000
 Structure written by MMmdl.
 46 48  0  0  0  0  0  0  0  0  2 V2000
  141.8991  142.8074  155.4925 C   0  0  0  0  0  0  0  0  0  0  0  0
  140.6303  142.6956  154.6484 C   0  0  0  0  0  0  0  0  0  0  0  0
  140.0596  143.7297  154.3034 O   0  0  0  0  0  0  0  0  0  0  0  0
  140.1493  141.3307  154.2863 C   0  0  0  0  0  0  0  0  0  0  0  0
  138.9027  141.1892  153.6361 C   0  0  0  0  0  0  0  0  0  0  0  0
  138.4239  139.9152  153.2813 C   0  0  0  0  0  0  0  0  0  0  0  0
  139.1864  138.7703  153.5728 C   0  0  0  0  0  0  0  0  0  0  0  0
  140.4327  138.8822  154.2195 C   0  0  0  0  0  0  0  0  0  0  0  0
  141.1123  137.7080  154.4632 O   0  0  0  0  0  0  0  0  0  0  0  0
  142.4168  137.7822  155.0250 C   0  0  0  0  0  0  0  0  0  0  0  0
  143.3323  136.7372  154.3664 C   0  0  1  0  0  0  0  0  0  0  0  0
  142.9664  135.4463  154.8115 O   0  0  0  0  0  0  0  0  0  0  0  0
  143.3586  136.8244  152.8268 C   0  0  0  0  0  0  0  0  0  0  0  0
  144.5195  136.1376  152.2375 N   0  0  0  0  0  0  0  0  0  0  0  0
  145.7966  136.5777  152.0434 C   0  0  0  0  0  0  0  0  0  0  0  0
  146.3524  137.9168  152.4015 C   0  0  0  0  0  0  0  0  0  0  0  0
  147.3257  138.3577  151.4810 O   0  0  0  0  0  0  0  0  0  0  0  0
  146.4916  135.5580  151.4651 N   0  3  0  0  0  0  0  0  0  0  0  0
  145.6544  134.4562  151.2866 C   0  0  0  0  0  0  0  0  0  0  0  0
  145.9069  133.2000  150.7440 C   0  0  0  0  0  0  0  0  0  0  0  0
  144.8260  132.2947  150.7140 C   0  0  0  0  0  0  0  0  0  0  0  0
  143.5561  132.6515  151.2119 C   0  0  0  0  0  0  0  0  0  0  0  0
  143.3123  133.9285  151.7586 C   0  0  0  0  0  0  0  0  0  0  0  0
  144.3856  134.8195  151.7828 C   0  0  0  0  0  0  0  0  0  0  0  0
  140.9085  140.1704  154.5749 C   0  0  0  0  0  0  0  0  0  0  0  0
  142.7471  142.3670  154.9680 H   0  0  0  0  0  0  0  0  0  0  0  0
  141.7707  142.2956  156.4463 H   0  0  0  0  0  0  0  0  0  0  0  0
  142.1308  143.8531  155.6959 H   0  0  0  0  0  0  0  0  0  0  0  0
  138.3000  142.0555  153.4027 H   0  0  0  0  0  0  0  0  0  0  0  0
  137.4701  139.8162  152.7847 H   0  0  0  0  0  0  0  0  0  0  0  0
  138.8113  137.7955  153.2969 H   0  0  0  0  0  0  0  0  0  0  0  0
  142.8300  138.7741  154.8348 H   0  0  0  0  0  0  0  0  0  0  0  0
  142.3877  137.6359  156.1064 H   0  0  0  0  0  0  0  0  0  0  0  0
  144.3430  136.9064  154.7388 H   0  0  0  0  0  0  0  0  0  0  0  0
  142.6243  135.5176  155.6897 H   0  0  0  0  0  0  0  0  0  0  0  0
  142.4454  136.4229  152.3879 H   0  0  0  0  0  0  0  0  0  0  0  0
  143.4043  137.8681  152.5158 H   0  0  0  0  0  0  0  0  0  0  0  0
  145.5432  138.6465  152.4373 H   0  0  0  0  0  0  0  0  0  0  0  0
  146.7916  137.8793  153.3982 H   0  0  0  0  0  0  0  0  0  0  0  0
  147.8598  139.0157  151.8994 H   0  0  0  0  0  0  0  0  0  0  0  0
  146.8796  132.9236  150.3642 H   0  0  0  0  0  0  0  0  0  0  0  0
  144.9743  131.3066  150.3031 H   0  0  0  0  0  0  0  0  0  0  0  0
  142.7518  131.9309  151.1756 H   0  0  0  0  0  0  0  0  0  0  0  0
  142.3369  134.1875  152.1430 H   0  0  0  0  0  0  0  0  0  0  0  0
  141.8605  140.2719  155.0709 H   0  0  0  0  0  0  0  0  0  0  0  0
  147.4708  135.6137  151.2166 H   0  0  0  0  0  0  0  0  0  0  0  0
  1  2  1  0  0  0  0
  1 26  1  0  0  0  0
  1 27  1  0  0  0  0
  1 28  1  0  0  0  0
  2  3  2  0  0  0  0
  2  4  1  0  0  0  0
  4 25  1  0  0  0  0
  4  5  2  0  0  0  0
  5  6  1  0  0  0  0
  5 29  1  0  0  0  0
  6  7  2  0  0  0  0
  6 30  1  0  0  0  0
  7  8  1  0  0  0  0
  7 31  1  0  0  0  0
  8  9  1  0  0  0  0
  8 25  2  0  0  0  0
  9 10  1  0  0  0  0
 10 11  1  0  0  0  0
 10 32  1  0  0  0  0
 10 33  1  0  0  0  0
 11 12  1  0  0  0  0
 11 13  1  0  0  0  0
 11 34  1  0  0  0  0
 12 35  1  0  0  0  0
 13 14  1  0  0  0  0
 13 36  1  0  0  0  0
 13 37  1  0  0  0  0
 14 24  1  0  0  0  0
 14 15  1  0  0  0  0
 15 16  1  0  0  0  0
 15 18  2  0  0  0  0
 16 17  1  0  0  0  0
 16 38  1  0  0  0  0
 16 39  1  0  0  0  0
 17 40  1  0  0  0  0
 18 19  1  0  0  0  0
 18 46  1  0  0  0  0
 19 24  2  0  0  0  0
 19 20  1  0  0  0  0
 20 21  2  0  0  0  0
 20 41  1  0  0  0  0
 21 22  1  0  0  0  0
 21 42  1  0  0  0  0
 22 23  2  0  0  0  0
 22 43  1  0  0  0  0
 23 24  1  0  0  0  0
 23 44  1  0  0  0  0
 25 45  1  0  0  0  0
M  CHG  1  18   1
M  END
> <s_m_source_file>
AV-unprocessed.smi

> <i_m_source_file_index>
1518

> <i_lp_mmshare_version>
43012

> <i_f3d_flags>
0

> <s_epik_input>
W0NIM11DKD1PKWMxW2NIXVtjSF1bY0hdYyhbY0hdMSlPW0NIMl1bQ0BIXShbT0hdKVtDSDJdbihjKG4yKVtDSDJdW09IXSljKGMyMylbY0hdW2NIXVtjSF1bY0hdMw==

> <s_epik_cmdline>
J2VwaWtfcHl0aG9uJywgJy1waCcsICc3LjAnLCAnLXRuJywgJzgnLCAnLW1hJywgJzIwMCcsICctbWV0YWxfYmluZGluZycsICctaW1hZScsICc8aW5maWxlLm1hZT4nLCAnLW9tYWUnLCAnPG91dGZpbGUubWFlPic=

> <r_lp_tautomer_probability>
0.99995

> <r_epik_Ionization_Penalty>
1.40416

> <r_epik_Ionization_Penalty_Charging>
1.4033

> <r_epik_Ionization_Penalty_Neutral>
0.000858184

> <r_epik_State_Penalty>
1.48564

> <r_epik_Charging_Adjusted_Penalty>
2.88894

> <i_epik_Tot_Q>
1

> <i_epik_Tot_abs_Q>
1

> <r_epik_Metal_State_Penalty>
5.52809

> <b_epik_Metal_Only>
0

> <s_lp_Force_Field>
OPLS_2005

> <r_lp_Energy>
25.8835

> <b_lp_Chiralities_Consistent>
1

> <s_lp_Variant>
AV-unprocessed.smi:1518-4

> <Gold.Version>
5.8.1

> <Gold.Id.Protein>
6NUR|6NUR_protein|mol2

> <Gold.PLP.Fitness>
54.7619

> <Gold.PLP.PLP>
-44.6006

> <Gold.PLP.part.hbond>
-5.0000

> <Gold.PLP.part.metal>
0.0000

> <Gold.PLP.part.buried>
-7.4186

> <Gold.PLP.part.nonpolar>
-33.1716

> <Gold.PLP.part.repulsive>
0.2559

> <Gold.PLP.ligand.clash>
0.0000

> <Gold.PLP.ligand.torsion>
1.1911

> <Gold.PLP.Chemscore.Hbond>
4.0478

> <Gold.PLP.Chemscore.CHOScore>
0.0000

> <Gold.PLP.Chemscore.Metal>
0.0000

> <Gold.Chemscore.Hbonds>
donor molecule, donor type, donor heavy atom, donor atom, acceptor molecule, acceptor atom, score
      L1  H    17    40       P1  7957  0.43
      L1  H    18    46       P1  7948  1.66
      P1  H  7954  7966       L1    17  1.00
      P1  H 10162 10167       L1     3  1.00

> <Gold.PLP.Chemscore.Internal.Correction>
0.4001

> <Gold.Rescore>
     Score         DG    S(hbond)    S(metal)    S(lipo)     H(rot)  DE(clash)    DE(int)     intcor
     16.29     -17.58       2.94        0.00      92.61       3.34       0.03       1.25       ----

> <Gold.Chemscore.Fitness>
16.2911

> <Gold.Chemscore.DG>
-17.5751

> <Gold.Chemscore.ZeroCoef>
-5.4800

> <Gold.Chemscore.Hbond>
2.9360

> <Gold.Chemscore.Metal>
0.0000

> <Gold.Chemscore.Lipo>
92.6139

> <Gold.Chemscore.Internal_Hbond>
0.0000

> <Gold.Chemscore.DEClash>
0.0341

> <Gold.Chemscore.DEInternal>
1.2500

> <Gold.Chemscore.Rot>
3.3387

> <Gold.Chemscore.Internal.Correction>
   9.000000E+99

> <Gold.Chemscore.Hbonds>
donor molecule, donor type, donor heavy atom, donor atom, acceptor molecule, acceptor atom, score
      L1  H    17    40       P1  7957  0.42
      L1  H    18    46       P1  7948  0.67
      P1  H  7954  7966       L1    17  0.60
      P1  H 10162 10167       L1     3  0.83

> <Gold.Chemscore.Hbond.Weighted>
-9.8064

> <Gold.Chemscore.Metal.Weighted>
-0.0000

> <Gold.Chemscore.Lipo.Weighted>
-10.8358

> <Gold.Chemscore.Internal_Hbond.Weighted>
0.0000

> <Gold.Chemscore.DEClash.Weighted>
0.0341

> <Gold.Chemscore.DEInternal.Weighted>
1.2500

> <Gold.Chemscore.Rot.Weighted>
8.5471

> <Gold.Chemscore.Internal.Correction.Weighted>
   9.000000E+99

> <Gold.Protein.RotatedTorsions>
[ 6907 6896 6895 6894 ] final -158.77 input  -60.11 | X-H torsion
[ 7974 7965 7964 7962 ] final -141.78 input  175.53 | X-H torsion
[ 8008 7997 7996 7995 ] final   75.23 input   59.86 | X-H torsion
[ 10167 10162 10161 10158 ] final -151.45 input  -65.29 | X-H torsion
[ 10718 10713 10712 10709 ] final  -33.98 input   66.30 | X-H torsion
[ 10763 10752 10751 10750 ] final  178.38 input  -60.55 | X-H torsion
[ 11005 11000 10999 10996 ] final   12.32 input  -57.11 | X-H torsion

> <Gold.Protein.ActiveResidues>
 VAL166  LYS551  ARG553  GLY616  TRP617  ASP618  TYR619  PRO620  LYS621  CYS622 
 ASP623  PHE694  ASN695  SER759  ASP760  ASP761  ALA762  ILE779  LEU786  VAL792 
 PHE793  MET794  SER795  GLU796  ALA797  LYS798  CYS799  TRP800  GLU811  SER814 

> <Gold.Protein.RotatedAtoms>
  151.3233  133.4031  159.2656 H   0  0  0  0  0  0  0  0  0  0  0  0  # atno 6907 bound_to 6896
  151.0016  134.9327  159.7967 H   0  0  0  0  0  0  0  0  0  0  0  0  # atno 6908 bound_to 6896
  152.5276  134.3198  159.9196 H   0  0  0  0  0  0  0  0  0  0  0  0  # atno 6909 bound_to 6896
  144.8493  140.6039  143.5400 H   0  0  0  0  0  0  0  0  0  0  0  0  # atno 7974 bound_to 7965
  155.8099  140.3473  155.5452 H   0  0  0  0  0  0  0  0  0  0  0  0  # atno 8008 bound_to 7997
  155.8451  140.0947  157.1730 H   0  0  0  0  0  0  0  0  0  0  0  0  # atno 8009 bound_to 7997
  154.4006  140.1387  156.3763 H   0  0  0  0  0  0  0  0  0  0  0  0  # atno 8010 bound_to 7997
  139.7266  143.8873  152.2521 H   0  0  0  0  0  0  0  0  0  0  0  0  # atno 10167 bound_to 10162
  156.3561  130.4316  149.7663 H   0  0  0  0  0  0  0  0  0  0  0  0  # atno 10718 bound_to 10713
  154.5069  135.2786  155.1375 H   0  0  0  0  0  0  0  0  0  0  0  0  # atno 10763 bound_to 10752
  154.2986  135.6252  153.5419 H   0  0  0  0  0  0  0  0  0  0  0  0  # atno 10764 bound_to 10752
  152.9912  135.5691  154.5525 H   0  0  0  0  0  0  0  0  0  0  0  0  # atno 10765 bound_to 10752
  140.4933  134.0818  155.7776 H   0  0  0  0  0  0  0  0  0  0  0  0  # atno 11005 bound_to 11000
  145.4532  139.1521  143.3907 LP  0  0  0  0  0  0  0  0  0  0  0  0  # atno 17320 bound_to 7965
  146.2771  140.4658  142.8791 LP  0  0  0  0  0  0  0  0  0  0  0  0  # atno 17321 bound_to 7965
  139.8784  144.7031  150.8906 LP  0  0  0  0  0  0  0  0  0  0  0  0  # atno 17342 bound_to 10162
  140.7764  143.3681  151.1701 LP  0  0  0  0  0  0  0  0  0  0  0  0  # atno 17343 bound_to 10162
  156.4845  130.8056  151.3069 LP  0  0  0  0  0  0  0  0  0  0  0  0  # atno 17370 bound_to 10713
  157.7467  130.9995  150.2892 LP  0  0  0  0  0  0  0  0  0  0  0  0  # atno 17371 bound_to 10713
  141.1473  133.9032  157.2185 LP  0  0  0  0  0  0  0  0  0  0  0  0  # atno 17394 bound_to 11000
  139.9756  135.0115  156.9623 LP  0  0  0  0  0  0  0  0  0  0  0  0  # atno 17395 bound_to 11000

$$$$
