AV-unprocessed.smi:100|AV-procd|sdf|911|dock7
  -GOLD-   2262017413D 1   1.00000     0.00000
 Structure written by MMmdl.
 31 33  0  0  0  0  0  0  0  0  1 V2000
  149.6202  138.5793  153.1784 N   0  0  0  0  0  0  0  0  0  0  0  0
  150.4814  138.9568  154.1336 C   0  0  0  0  0  0  0  0  0  0  0  0
  151.6463  138.2779  154.2536 N   0  0  0  0  0  0  0  0  0  0  0  0
  152.5227  138.6361  155.1975 C   0  0  0  0  0  0  0  0  0  0  0  0
  152.4271  139.6191  156.0966 N   0  0  0  0  0  0  0  0  0  0  0  0
  151.2521  140.3037  155.9744 C   0  0  0  0  0  0  0  0  0  0  0  0
  150.2302  140.0327  155.0225 C   0  0  0  0  0  0  0  0  0  0  0  0
  149.1779  140.9221  155.1914 N   0  0  0  0  0  0  0  0  0  0  0  0
  149.5608  141.6754  156.1873 C   0  0  0  0  0  0  0  0  0  0  0  0
  150.7954  141.3736  156.7195 N   0  0  0  0  0  0  0  0  0  0  0  0
  151.4854  142.0609  157.8577 C   0  0  2  0  0  0  0  0  0  0  0  0
  150.5936  142.2233  158.9171 O   0  0  0  0  0  0  0  0  0  0  0  0
  150.7819  143.4904  159.5491 C   0  0  2  0  0  0  0  0  0  0  0  0
  149.4686  144.2837  159.4452 C   0  0  0  0  0  0  0  0  0  0  0  0
  148.4859  143.7191  160.2877 O   0  0  0  0  0  0  0  0  0  0  0  0
  151.9631  144.1572  158.8280 C   0  0  1  0  0  0  0  0  0  0  0  0
  153.0878  143.9139  159.5036 F   0  0  0  0  0  0  0  0  0  0  0  0
  152.0272  143.4479  157.4889 C   0  0  2  0  0  0  0  0  0  0  0  0
  151.2743  144.1274  156.5007 O   0  0  0  0  0  0  0  0  0  0  0  0
  148.7444  139.0698  153.0679 H   0  0  0  0  0  0  0  0  0  0  0  0
  149.8514  137.8092  152.5676 H   0  0  0  0  0  0  0  0  0  0  0  0
  153.4306  138.0525  155.2384 H   0  0  0  0  0  0  0  0  0  0  0  0
  148.9463  142.4794  156.5657 H   0  0  0  0  0  0  0  0  0  0  0  0
  152.2746  141.3741  158.1681 H   0  0  0  0  0  0  0  0  0  0  0  0
  151.0176  143.3205  160.6008 H   0  0  0  0  0  0  0  0  0  0  0  0
  149.6154  145.3320  159.7051 H   0  0  0  0  0  0  0  0  0  0  0  0
  149.0945  144.2555  158.4213 H   0  0  0  0  0  0  0  0  0  0  0  0
  148.0421  144.4192  160.7416 H   0  0  0  0  0  0  0  0  0  0  0  0
  151.8764  145.2415  158.7460 H   0  0  0  0  0  0  0  0  0  0  0  0
  153.0500  143.3539  157.1219 H   0  0  0  0  0  0  0  0  0  0  0  0
  150.3748  144.1704  156.7877 H   0  0  0  0  0  0  0  0  0  0  0  0
  1  2  1  0  0  0  0
  1 20  1  0  0  0  0
  1 21  1  0  0  0  0
  2  7  1  0  0  0  0
  2  3  2  0  0  0  0
  3  4  1  0  0  0  0
  4  5  2  0  0  0  0
  4 22  1  0  0  0  0
  5  6  1  0  0  0  0
  6 10  1  0  0  0  0
  6  7  2  0  0  0  0
  7  8  1  0  0  0  0
  8  9  2  0  0  0  0
  9 10  1  0  0  0  0
  9 23  1  0  0  0  0
 10 11  1  0  0  0  0
 11 18  1  0  0  0  0
 11 12  1  0  0  0  0
 11 24  1  0  0  0  0
 12 13  1  0  0  0  0
 13 14  1  0  0  0  0
 13 16  1  0  0  0  0
 13 25  1  0  0  0  0
 14 15  1  0  0  0  0
 14 26  1  0  0  0  0
 14 27  1  0  0  0  0
 15 28  1  0  0  0  0
 16 17  1  0  0  0  0
 16 18  1  0  0  0  0
 16 29  1  0  0  0  0
 18 19  1  0  0  0  0
 18 30  1  0  0  0  0
 19 31  1  0  0  0  0
M  END
> <s_m_source_file>
AV-unprocessed.smi

> <i_m_source_file_index>
100

> <i_lp_mmshare_version>
43012

> <i_f3d_flags>
0

> <s_epik_input>
bjFbY0hdbmMoW05IMl0pYyhjMTIpbltjSF1uMltDQEBIXTNPW0NAQEhdKFtDSDJdW09IXSlbQ0BIXShGKVtDQEhdM1tPSF0=

> <s_epik_cmdline>
J2VwaWtfcHl0aG9uJywgJy1waCcsICc3LjAnLCAnLXRuJywgJzgnLCAnLW1hJywgJzIwMCcsICctbWV0YWxfYmluZGluZycsICctaW1hZScsICc8aW5maWxlLm1hZT4nLCAnLW9tYWUnLCAnPG91dGZpbGUubWFlPic=

> <r_lp_tautomer_probability>
1

> <r_epik_Ionization_Penalty>
0.000750324

> <r_epik_Ionization_Penalty_Charging>
0

> <r_epik_Ionization_Penalty_Neutral>
0.000750324

> <r_epik_State_Penalty>
-0

> <r_epik_Charging_Adjusted_Penalty>
0

> <i_epik_Tot_Q>
0

> <i_epik_Tot_abs_Q>
0

> <r_epik_Metal_State_Penalty>
-0

> <b_epik_Metal_Only>
0

> <s_epik_Chemistry_Notes>
This compound contains an acetal/aminal-like group ( X-CH(R)-Y where X, Y are N, S, or O) that may be acid/base labile, releasing an aldehyde.

> <s_lp_Force_Field>
OPLS_2005

> <r_lp_Energy>
38.301

> <b_lp_Chiralities_Consistent>
1

> <s_lp_Variant>
AV-unprocessed.smi:100-15

> <Gold.Version>
5.8.1

> <Gold.Id.Protein>
6NUR|6NUR_protein|mol2

> <Gold.PLP.Fitness>
46.4690

> <Gold.PLP.PLP>
-34.5765

> <Gold.PLP.part.hbond>
-5.2446

> <Gold.PLP.part.metal>
0.0000

> <Gold.PLP.part.buried>
-3.3478

> <Gold.PLP.part.nonpolar>
-24.7994

> <Gold.PLP.part.repulsive>
0.4036

> <Gold.PLP.ligand.clash>
0.0000

> <Gold.PLP.ligand.torsion>
0.3381

> <Gold.PLP.Chemscore.Hbond>
3.2400

> <Gold.PLP.Chemscore.CHOScore>
0.9491

> <Gold.PLP.Chemscore.Metal>
0.0000

> <Gold.Chemscore.Hbonds>
donor molecule, donor type, donor heavy atom, donor atom, acceptor molecule, acceptor atom, score
      L1  H     1    21       P1  7948  0.74
      L1  H    19    31       P1  8028  0.48
      P1  H  6933  6944       L1    15  0.86
      P1  H  7997  8009       L1     5  1.00
      L1  C     9    23       P1  8028  0.91

> <Gold.PLP.Chemscore.Internal.Correction>
0.0014

> <Gold.Rescore>
     Score         DG    S(hbond)    S(metal)    S(lipo)     H(rot)  DE(clash)    DE(int)     intcor
      8.91     -11.38       2.53        0.00      48.06       3.19       1.78       0.69       ----

> <Gold.Chemscore.Fitness>
8.9148

> <Gold.Chemscore.DG>
-11.3820

> <Gold.Chemscore.ZeroCoef>
-5.4800

> <Gold.Chemscore.Hbond>
2.5285

> <Gold.Chemscore.Metal>
0.0000

> <Gold.Chemscore.Lipo>
48.0650

> <Gold.Chemscore.Internal_Hbond>
0.0000

> <Gold.Chemscore.DEClash>
1.7817

> <Gold.Chemscore.DEInternal>
0.6856

> <Gold.Chemscore.Rot>
3.1901

> <Gold.Chemscore.Internal.Correction>
   9.000000E+99

> <Gold.Chemscore.Hbonds>
donor molecule, donor type, donor heavy atom, donor atom, acceptor molecule, acceptor atom, score
      L1  H     1    21       P1  7948  0.17
      L1  H    19    31       P1  8028  0.47
      P1  H  6933  6944       L1    15  0.47
      P1  H  7997  8009       L1     5  0.29

> <Gold.Chemscore.Hbond.Weighted>
-8.4451

> <Gold.Chemscore.Metal.Weighted>
-0.0000

> <Gold.Chemscore.Lipo.Weighted>
-5.6236

> <Gold.Chemscore.Internal_Hbond.Weighted>
0.0000

> <Gold.Chemscore.DEClash.Weighted>
1.7817

> <Gold.Chemscore.DEInternal.Weighted>
0.6856

> <Gold.Chemscore.Rot.Weighted>
8.1667

> <Gold.Chemscore.Internal.Correction.Weighted>
   9.000000E+99

> <Gold.Protein.RotatedTorsions>
[ 6907 6896 6895 6894 ] final -131.54 input  -60.11 | X-H torsion
[ 7974 7965 7964 7962 ] final -168.61 input  175.53 | X-H torsion
[ 8008 7997 7996 7995 ] final -162.26 input   59.86 | X-H torsion
[ 10167 10162 10161 10158 ] final  143.76 input  -65.29 | X-H torsion
[ 10718 10713 10712 10709 ] final -151.15 input   66.30 | X-H torsion
[ 10763 10752 10751 10750 ] final -152.31 input  -60.55 | X-H torsion
[ 11005 11000 10999 10996 ] final  -39.87 input  -57.11 | X-H torsion

> <Gold.Protein.ActiveResidues>
 VAL166  LYS551  ARG553  GLY616  TRP617  ASP618  TYR619  PRO620  LYS621  CYS622 
 ASP623  PHE694  ASN695  SER759  ASP760  ASP761  ALA762  ILE779  LEU786  VAL792 
 PHE793  MET794  SER795  GLU796  ALA797  LYS798  CYS799  TRP800  GLU811  SER814 

> <Gold.Protein.RotatedAtoms>
  150.9521  133.6537  159.2769 H   0  0  0  0  0  0  0  0  0  0  0  0  # atno 6907 bound_to 6896
  151.3889  135.0951  159.9529 H   0  0  0  0  0  0  0  0  0  0  0  0  # atno 6908 bound_to 6896
  152.5114  133.9040  159.7510 H   0  0  0  0  0  0  0  0  0  0  0  0  # atno 6909 bound_to 6896
  144.7200  140.2345  143.6300 H   0  0  0  0  0  0  0  0  0  0  0  0  # atno 7974 bound_to 7965
  155.8042  140.0896  157.1940 H   0  0  0  0  0  0  0  0  0  0  0  0  # atno 8008 bound_to 7997
  154.3981  140.1466  156.3370 H   0  0  0  0  0  0  0  0  0  0  0  0  # atno 8009 bound_to 7997
  155.8431  140.3438  155.5647 H   0  0  0  0  0  0  0  0  0  0  0  0  # atno 8010 bound_to 7997
  139.4962  144.6019  151.6463 H   0  0  0  0  0  0  0  0  0  0  0  0  # atno 10167 bound_to 10162
  156.4555  130.8188  151.2419 H   0  0  0  0  0  0  0  0  0  0  0  0  # atno 10718 bound_to 10713
  154.8002  135.3239  154.7569 H   0  0  0  0  0  0  0  0  0  0  0  0  # atno 10763 bound_to 10752
  153.8238  135.6885  153.4828 H   0  0  0  0  0  0  0  0  0  0  0  0  # atno 10764 bound_to 10752
  153.1714  135.4621  154.9851 H   0  0  0  0  0  0  0  0  0  0  0  0  # atno 10765 bound_to 10752
  141.0134  133.6897  156.2245 H   0  0  0  0  0  0  0  0  0  0  0  0  # atno 11005 bound_to 11000
  145.8379  139.2116  143.1844 LP  0  0  0  0  0  0  0  0  0  0  0  0  # atno 17320 bound_to 7965
  146.0373  140.8200  142.9846 LP  0  0  0  0  0  0  0  0  0  0  0  0  # atno 17321 bound_to 7965
  140.5670  144.0172  150.6197 LP  0  0  0  0  0  0  0  0  0  0  0  0  # atno 17342 bound_to 10162
  140.3277  143.3097  152.0719 LP  0  0  0  0  0  0  0  0  0  0  0  0  # atno 17343 bound_to 10162
  157.7501  131.0124  150.3383 LP  0  0  0  0  0  0  0  0  0  0  0  0  # atno 17370 bound_to 10713
  156.3771  130.3874  149.7130 LP  0  0  0  0  0  0  0  0  0  0  0  0  # atno 17371 bound_to 10713
  140.6696  134.4882  157.5586 LP  0  0  0  0  0  0  0  0  0  0  0  0  # atno 17394 bound_to 11000
  139.9103  134.8360  156.1554 LP  0  0  0  0  0  0  0  0  0  0  0  0  # atno 17395 bound_to 11000

$$$$
