#       Name:                AV-unprocessed.smi:99
#       Creating user name   scv26
#       Creation time:       Thu Mar 26 17:37:15 2020


#       File generated by GOLD software.
#

@<TRIPOS>MOLECULE
AV-unprocessed.smi:99
    65    68     1
SMALL
NO_CHARGES


@<TRIPOS>ATOM
      1 ****        -3.0552  -0.7377   0.8513 O.2            1 S1                 0.0000
      2 ****        -2.5139   0.3648   0.9551 C.2            1 S1                 0.0000
      3 ****        -1.2938   0.5516   1.4973 O.3            1 S1                 0.0000
      4 ****        -0.4833  -0.5649   1.8312 C.3            1 S1                 0.0000
      5 ****         0.9964  -0.1395   1.9078 C.3            1 S1                 0.0000
      6 ****         1.7557  -1.2641   2.3353 O.3            1 S1                 0.0000
      7 ****         2.2944  -1.8927   1.2148 C.3            1 S1                 0.0000
      8 ****         3.3477  -2.9041   1.6445 N.am           1 S1                 0.0000
      9 ****         4.5552  -3.0329   0.9730 C.2            1 S1                 0.0000
     10 ****         5.4703  -3.9577   1.3289 C.2            1 S1                 0.0000
     11 ****         5.1792  -4.8641   2.4341 C.2            1 S1                 0.0000
     12 ****         6.0373  -5.6712   2.7859 O.2            1 S1                 0.0000
     13 ****         3.9533  -4.7788   3.0244 N.pl3          1 S1                -1.0000
     14 ****         3.0173  -3.8581   2.6503 C.2            1 S1                 0.0000
     15 ****         1.8880  -3.8242   3.1397 O.2            1 S1                 0.0000
     16 ****         2.7806  -0.7060   0.3644 C.3            1 S1                 0.0000
     17 ****         3.9961  -0.1297   0.8094 O.3            1 S1                 0.0000
     18 ****         1.6611   0.3064   0.5822 C.3            1 S1                 0.0000
     19 ****         0.7653   0.2593  -0.5267 O.3            1 S1                 0.0000
     20 ****         0.4163   1.3804  -1.1991 C.2            1 S1                 0.0000
     21 ****         0.9170   2.4886  -0.9994 O.2            1 S1                 0.0000
     22 ****        -0.6803   1.1439  -2.1813 C.ar           1 S1                 0.0000
     23 ****        -1.2170   2.2398  -2.8966 C.ar           1 S1                 0.0000
     24 ****        -2.2810   2.0548  -3.8002 C.ar           1 S1                 0.0000
     25 ****        -2.8203   0.7710  -4.0012 C.ar           1 S1                 0.0000
     26 ****        -2.2921  -0.3283  -3.2993 C.ar           1 S1                 0.0000
     27 ****        -1.2275  -0.1454  -2.3957 C.ar           1 S1                 0.0000
     28 ****        -3.1194   1.6290   0.4470 C.ar           1 S1                 0.0000
     29 ****        -4.3433   1.5750  -0.2597 C.ar           1 S1                 0.0000
     30 ****        -4.9202   2.7472  -0.7850 C.ar           1 S1                 0.0000
     31 ****        -4.2812   3.9882  -0.6079 C.ar           1 S1                 0.0000
     32 ****        -3.0654   4.0558   0.0969 C.ar           1 S1                 0.0000
     33 ****        -2.4868   2.8845   0.6227 C.ar           1 S1                 0.0000
     34 ****        -0.8102  -0.9639   2.7918 H              1 S1                 0.0000
     35 ****        -0.5993  -1.3619   1.0950 H              1 S1                 0.0000
     36 ****         1.1045   0.6422   2.6604 H              1 S1                 0.0000
     37 ****         1.5325  -2.4867   0.7059 H              1 S1                 0.0000
     38 ****         4.7826  -2.4048   0.1263 H              1 S1                 0.0000
     39 ****         6.4012  -4.0415   0.7874 H              1 S1                 0.0000
     40 ****         2.8877  -1.0070  -0.6787 H              1 S1                 0.0000
     41 ****         3.9188   0.0469   1.7347 H              1 S1                 0.0000
     42 ****         2.0858   1.3040   0.7032 H              1 S1                 0.0000
     43 ****        -0.8271   3.2368  -2.7508 H              1 S1                 0.0000
     44 ****        -2.6864   2.9004  -4.3361 H              1 S1                 0.0000
     45 ****        -3.6388   0.6299  -4.6916 H              1 S1                 0.0000
     46 ****        -2.7069  -1.3140  -3.4505 H              1 S1                 0.0000
     47 ****        -0.8525  -1.0089  -1.8661 H              1 S1                 0.0000
     48 ****        -4.8470   0.6321  -0.4167 H              1 S1                 0.0000
     49 ****        -5.8524   2.6931  -1.3276 H              1 S1                 0.0000
     50 ****        -4.7226   4.8869  -1.0129 H              1 S1                 0.0000
     51 ****        -2.5728   5.0073   0.2319 H              1 S1                 0.0000
     52 ****        -1.5486   2.9702   1.1510 H              1 S1                 0.0000
     53 ****        -2.5863  -1.5578   1.1793 LP             1 S1                 0.0000
     54 ****        -3.9632  -0.8121   0.4391 LP             1 S1                 0.0000
     55 ****         1.1635  -1.9026   2.8269 LP             1 S1                 0.0000
     56 ****         2.4937  -0.9620   2.9387 LP             1 S1                 0.0000
     57 ****         6.9196  -5.6996   2.3160 LP             1 S1                 0.0000
     58 ****         5.8530  -6.2993   3.5419 LP             1 S1                 0.0000
     59 ****         3.7306  -5.4168   3.7616 LP             1 S1                 0.0000
     60 ****         1.2291  -3.1389   2.8296 LP             1 S1                 0.0000
     61 ****         1.6298  -4.4820   3.8472 LP             1 S1                 0.0000
     62 ****         4.1671   0.7227   0.3154 LP             1 S1                 0.0000
     63 ****         4.7509  -0.7656   0.6482 LP             1 S1                 0.0000
     64 ****         1.6274   2.5983  -0.3042 LP             1 S1                 0.0000
     65 ****         0.6129   3.2780  -1.5325 LP             1 S1                 0.0000
@<TRIPOS>BOND
    1    1    2 2     
    2    2    3 1     
    3    2   28 1     
    4    3    4 1     
    5    4    5 1     
    6    4   34 1     
    7    4   35 1     
    8    5   18 1     
    9    5    6 1     
   10    5   36 1     
   11    6    7 1     
   12    7    8 1     
   13    7   16 1     
   14    7   37 1     
   15    8   14 am    
   16    8    9 1     
   17    9   10 2     
   18    9   38 1     
   19   10   11 1     
   20   10   39 1     
   21   11   12 2     
   22   11   13 1     
   23   13   14 1     
   24   14   15 2     
   25   16   17 1     
   26   16   18 1     
   27   16   40 1     
   28   17   41 1     
   29   18   19 1     
   30   18   42 1     
   31   19   20 1     
   32   20   21 2     
   33   20   22 1     
   34   22   27 ar    
   35   22   23 ar    
   36   23   24 ar    
   37   23   43 1     
   38   24   25 ar    
   39   24   44 1     
   40   25   26 ar    
   41   25   45 1     
   42   26   27 ar    
   43   26   46 1     
   44   27   47 1     
   45   28   33 ar    
   46   28   29 ar    
   47   29   30 ar    
   48   29   48 1     
   49   30   31 ar    
   50   30   49 1     
   51   31   32 ar    
   52   31   50 1     
   53   32   33 ar    
   54   32   51 1     
   55   33   52 1     
   56    1   53 1     
   57    1   54 1     
   58    6   55 1     
   59    6   56 1     
   60   12   57 1     
   61   12   58 1     
   62   13   59 1     
   63   15   60 1     
   64   15   61 1     
   65   17   62 1     
   66   17   63 1     
   67   21   64 1     
   68   21   65 1     
@<TRIPOS>SUBSTRUCTURE
      1 S1             1
@<TRIPOS>SET
LONE_PAIRS      STATIC     ATOMS    <user>   **** ""
13 53 54 55 56 57 58 59 60 61 62 63 64 65
DONOR_HYDROGENS      STATIC     ATOMS    <user>   **** ""
1 41
ATOM$BLUE        STATIC     ATOMS    COLORGROUP SYSTEM
13 53 54 55 56 57 58 59 60 61 62 63 64 65
ATOM$RED        STATIC     ATOMS    COLORGROUP SYSTEM
1 41
