AV-unprocessed.smi:1867|AV-procd|sdf|7572|dock7
  -GOLD-   22720 9283D 1   1.00000     0.00000
 Structure written by MMmdl.
 53 56  0  0  0  0  0  0  0  0  3 V2000
  146.7259  139.9301  154.0180 O   0  0  0  0  0  0  0  0  0  0  0  0
  147.4994  139.0614  153.6230 C   0  0  0  0  0  0  0  0  0  0  0  0
  148.8042  138.9882  153.9534 N   0  0  0  0  0  0  0  0  0  0  0  0
  149.5740  139.8871  154.7409 C   0  0  0  0  0  0  0  0  0  0  0  0
  150.8587  139.5901  155.2619 C   0  0  0  0  0  0  0  0  0  0  0  0
  151.5294  140.5507  156.0461 C   0  0  0  0  0  0  0  0  0  0  0  0
  150.9060  141.7918  156.3123 C   0  0  0  0  0  0  0  0  0  0  0  0
  151.4917  142.8140  157.0725 N   0  0  0  0  0  0  0  0  0  0  0  0
  151.2115  144.1693  156.6263 C   0  0  0  0  0  0  0  0  0  0  0  0
  151.5671  145.0731  157.8098 C   0  0  0  0  0  0  0  0  0  0  0  0
  151.5240  144.1539  159.0361 C   0  0  0  0  0  0  0  0  0  0  0  0
  151.1482  142.7765  158.4838 C   0  0  0  0  0  0  0  0  0  0  0  0
  149.6767  142.0302  155.8057 N   0  3  0  0  0  0  0  0  0  0  0  0
  149.0006  141.1387  155.0493 C   0  0  0  0  0  0  0  0  0  0  0  0
  147.0734  138.0667  152.8239 N   0  0  0  0  0  0  0  0  0  0  0  0
  145.7296  137.8477  152.2838 C   0  0  2  0  0  0  0  0  0  0  0  0
  144.6640  137.7351  153.3668 C   0  0  0  0  0  0  0  0  0  0  0  0
  143.5020  137.0522  152.6392 C   0  0  0  0  0  0  0  0  0  0  0  0
  144.0970  136.2432  151.5475 N   0  3  2  0  0  0  0  0  0  0  0  0
  143.7335  134.8016  151.5984 C   0  0  0  0  0  0  0  0  0  0  0  0
  144.6647  133.9680  150.7062 C   0  0  0  0  0  0  0  0  0  0  0  0
  146.1284  134.0593  151.1770 C   0  0  0  0  0  0  0  0  0  0  0  0
  146.4087  135.3380  151.9894 C   0  0  0  0  0  0  0  0  0  0  0  0
  145.5589  136.5342  151.4943 C   0  0  2  0  0  0  0  0  0  0  0  0
  149.2973  138.1706  153.6263 H   0  0  0  0  0  0  0  0  0  0  0  0
  151.3424  138.6417  155.0876 H   0  0  0  0  0  0  0  0  0  0  0  0
  152.5125  140.3292  156.4351 H   0  0  0  0  0  0  0  0  0  0  0  0
  151.7995  144.4195  155.7426 H   0  0  0  0  0  0  0  0  0  0  0  0
  150.1578  144.2874  156.3721 H   0  0  0  0  0  0  0  0  0  0  0  0
  152.5708  145.4825  157.6875 H   0  0  0  0  0  0  0  0  0  0  0  0
  150.8755  145.9117  157.8956 H   0  0  0  0  0  0  0  0  0  0  0  0
  152.5065  144.1189  159.5089 H   0  0  0  0  0  0  0  0  0  0  0  0
  150.8077  144.4938  159.7845 H   0  0  0  0  0  0  0  0  0  0  0  0
  150.0792  142.5988  158.6107 H   0  0  0  0  0  0  0  0  0  0  0  0
  151.6858  141.9790  158.9978 H   0  0  0  0  0  0  0  0  0  0  0  0
  148.0250  141.4571  154.7115 H   0  0  0  0  0  0  0  0  0  0  0  0
  147.7646  137.3759  152.5676 H   0  0  0  0  0  0  0  0  0  0  0  0
  145.4502  138.6874  151.6438 H   0  0  0  0  0  0  0  0  0  0  0  0
  145.0152  137.0979  154.1801 H   0  0  0  0  0  0  0  0  0  0  0  0
  144.3857  138.6997  153.7924 H   0  0  0  0  0  0  0  0  0  0  0  0
  142.8872  136.4668  153.3243 H   0  0  0  0  0  0  0  0  0  0  0  0
  142.8547  137.8025  152.1839 H   0  0  0  0  0  0  0  0  0  0  0  0
  143.7960  134.4333  152.6239 H   0  0  0  0  0  0  0  0  0  0  0  0
  142.6957  134.6863  151.2842 H   0  0  0  0  0  0  0  0  0  0  0  0
  144.3444  132.9259  150.6867 H   0  0  0  0  0  0  0  0  0  0  0  0
  144.5880  134.3290  149.6796 H   0  0  0  0  0  0  0  0  0  0  0  0
  146.3803  133.1910  151.7870 H   0  0  0  0  0  0  0  0  0  0  0  0
  146.7840  134.0174  150.3065 H   0  0  0  0  0  0  0  0  0  0  0  0
  146.1885  135.1511  153.0415 H   0  0  0  0  0  0  0  0  0  0  0  0
  147.4743  135.5624  151.9392 H   0  0  0  0  0  0  0  0  0  0  0  0
  145.8255  136.7143  150.4518 H   0  0  0  0  0  0  0  0  0  0  0  0
  143.7120  136.6051  150.6866 H   0  0  0  0  0  0  0  0  0  0  0  0
  149.2370  142.9290  156.0061 H   0  0  0  0  0  0  0  0  0  0  0  0
  1  2  2  0  0  0  0
  2  3  1  0  0  0  0
  2 15  1  0  0  0  0
  3  4  1  0  0  0  0
  3 25  1  0  0  0  0
  4 14  1  0  0  0  0
  4  5  2  0  0  0  0
  5  6  1  0  0  0  0
  5 26  1  0  0  0  0
  6  7  2  0  0  0  0
  6 27  1  0  0  0  0
  7  8  1  0  0  0  0
  7 13  1  0  0  0  0
  8 12  1  0  0  0  0
  8  9  1  0  0  0  0
  9 10  1  0  0  0  0
  9 28  1  0  0  0  0
  9 29  1  0  0  0  0
 10 11  1  0  0  0  0
 10 30  1  0  0  0  0
 10 31  1  0  0  0  0
 11 12  1  0  0  0  0
 11 32  1  0  0  0  0
 11 33  1  0  0  0  0
 12 34  1  0  0  0  0
 12 35  1  0  0  0  0
 13 14  2  0  0  0  0
 13 53  1  0  0  0  0
 14 36  1  0  0  0  0
 15 16  1  0  0  0  0
 15 37  1  0  0  0  0
 16 24  1  0  0  0  0
 16 17  1  0  0  0  0
 16 38  1  0  0  0  0
 17 18  1  0  0  0  0
 17 39  1  0  0  0  0
 17 40  1  0  0  0  0
 18 19  1  0  0  0  0
 18 41  1  0  0  0  0
 18 42  1  0  0  0  0
 19 24  1  0  0  0  0
 19 20  1  0  0  0  0
 19 52  1  0  0  0  0
 20 21  1  0  0  0  0
 20 43  1  0  0  0  0
 20 44  1  0  0  0  0
 21 22  1  0  0  0  0
 21 45  1  0  0  0  0
 21 46  1  0  0  0  0
 22 23  1  0  0  0  0
 22 47  1  0  0  0  0
 22 48  1  0  0  0  0
 23 24  1  0  0  0  0
 23 49  1  0  0  0  0
 23 50  1  0  0  0  0
 24 51  1  0  0  0  0
M  CHG  1  13   1
M  CHG  1  19   1
M  END
> <s_m_source_file>
AV-unprocessed.smi

> <i_m_source_file_index>
1867

> <i_lp_mmshare_version>
43012

> <i_f3d_flags>
0

> <s_epik_input>
W0NIMl0xW0NIMl1bQ0gyXVtDSDJdW0NASF0oTjEyKVtDQEBIXShbQ0gyXVtDSDJdMilbTkhdQyg9TylbTkhdYzNbY0hdW2NIXWMobltjSF0zKU40W0NIMl1bQ0gyXVtDSDJdW0NIMl00

> <s_epik_cmdline>
J2VwaWtfcHl0aG9uJywgJy1waCcsICc3LjAnLCAnLXRuJywgJzgnLCAnLW1hJywgJzIwMCcsICctbWV0YWxfYmluZGluZycsICctaW1hZScsICc8aW5maWxlLm1hZT4nLCAnLW9tYWUnLCAnPG91dGZpbGUubWFlPic=

> <r_lp_tautomer_probability>
0.999994

> <r_epik_Ionization_Penalty>
1.27347

> <r_epik_Ionization_Penalty_Charging>
1.27345

> <r_epik_Ionization_Penalty_Neutral>
1.96458e-05

> <r_epik_State_Penalty>
1.34393

> <r_epik_Charging_Adjusted_Penalty>
2.61738

> <i_epik_Tot_Q>
2

> <i_epik_Tot_abs_Q>
2

> <r_epik_Metal_State_Penalty>
1.41094

> <b_epik_Metal_Only>
0

> <s_lp_Force_Field>
OPLS_2005

> <r_lp_Energy>
89.9373

> <b_lp_Chiralities_Consistent>
1

> <s_lp_Variant>
AV-unprocessed.smi:1867-13

> <Gold.Version>
5.8.1

> <Gold.Id.Protein>
6NUR|6NUR_protein|mol2

> <Gold.PLP.Fitness>
47.8251

> <Gold.PLP.PLP>
-38.5031

> <Gold.PLP.part.hbond>
-3.9573

> <Gold.PLP.part.metal>
0.0000

> <Gold.PLP.part.buried>
5.7157

> <Gold.PLP.part.nonpolar>
-39.8836

> <Gold.PLP.part.repulsive>
0.4573

> <Gold.PLP.ligand.clash>
0.0000

> <Gold.PLP.ligand.torsion>
0.7602

> <Gold.PLP.Chemscore.Hbond>
3.6076

> <Gold.PLP.Chemscore.CHOScore>
0.0000

> <Gold.PLP.Chemscore.Metal>
0.0000

> <Gold.Chemscore.Hbonds>
donor molecule, donor type, donor heavy atom, donor atom, acceptor molecule, acceptor atom, score
      L1  H    13    53       P1  8028  2.00
      L1  H    15    37       P1  7948  1.00
      L1  H    19    52       P1 10171  0.44

> <Gold.PLP.Chemscore.Internal.Correction>
0.0195

> <Gold.Rescore>
     Score         DG    S(hbond)    S(metal)    S(lipo)     H(rot)  DE(clash)    DE(int)     intcor
     19.45     -23.84       2.52        0.00     111.16       1.20       2.57       1.82       ----

> <Gold.Chemscore.Fitness>
19.4502

> <Gold.Chemscore.DG>
-23.8397

> <Gold.Chemscore.ZeroCoef>
-5.4800

> <Gold.Chemscore.Hbond>
2.5188

> <Gold.Chemscore.Metal>
0.0000

> <Gold.Chemscore.Lipo>
111.1644

> <Gold.Chemscore.Internal_Hbond>
0.0000

> <Gold.Chemscore.DEClash>
2.5667

> <Gold.Chemscore.DEInternal>
1.8228

> <Gold.Chemscore.Rot>
1.1950

> <Gold.Chemscore.Internal.Correction>
   9.000000E+99

> <Gold.Chemscore.Hbonds>
donor molecule, donor type, donor heavy atom, donor atom, acceptor molecule, acceptor atom, score
      L1  H    13    53       P1  8028  0.97
      L1  H    15    37       P1  7948  1.00
      L1  H    19    52       P1 10171  0.43

> <Gold.Chemscore.Hbond.Weighted>
-8.4127

> <Gold.Chemscore.Metal.Weighted>
-0.0000

> <Gold.Chemscore.Lipo.Weighted>
-13.0062

> <Gold.Chemscore.Internal_Hbond.Weighted>
0.0000

> <Gold.Chemscore.DEClash.Weighted>
2.5667

> <Gold.Chemscore.DEInternal.Weighted>
1.8228

> <Gold.Chemscore.Rot.Weighted>
3.0593

> <Gold.Chemscore.Internal.Correction.Weighted>
   9.000000E+99

> <Gold.Protein.RotatedTorsions>
[ 6907 6896 6895 6894 ] final  -51.12 input  -60.11 | X-H torsion
[ 7974 7965 7964 7962 ] final   19.24 input  175.53 | X-H torsion
[ 8008 7997 7996 7995 ] final  -42.77 input   59.86 | X-H torsion
[ 10167 10162 10161 10158 ] final  111.47 input  -65.29 | X-H torsion
[ 10718 10713 10712 10709 ] final -179.49 input   66.30 | X-H torsion
[ 10763 10752 10751 10750 ] final   49.48 input  -60.55 | X-H torsion
[ 11005 11000 10999 10996 ] final  161.26 input  -57.11 | X-H torsion

> <Gold.Protein.ActiveResidues>
 VAL166  LYS551  ARG553  GLY616  TRP617  ASP618  TYR619  PRO620  LYS621  CYS622 
 ASP623  PHE694  ASN695  SER759  ASP760  ASP761  ALA762  ILE779  LEU786  VAL792 
 PHE793  MET794  SER795  GLU796  ALA797  LYS798  CYS799  TRP800  GLU811  SER814 

> <Gold.Protein.RotatedAtoms>
  150.8642  134.8001  159.7105 H   0  0  0  0  0  0  0  0  0  0  0  0  # atno 6907 bound_to 6896
  152.4669  134.5051  159.9746 H   0  0  0  0  0  0  0  0  0  0  0  0  # atno 6908 bound_to 6896
  151.5150  133.3439  159.2927 H   0  0  0  0  0  0  0  0  0  0  0  0  # atno 6909 bound_to 6896
  146.2156  139.8342  142.8654 H   0  0  0  0  0  0  0  0  0  0  0  0  # atno 7974 bound_to 7965
  154.3998  140.1465  156.3409 H   0  0  0  0  0  0  0  0  0  0  0  0  # atno 8008 bound_to 7997
  155.8357  140.3464  155.5579 H   0  0  0  0  0  0  0  0  0  0  0  0  # atno 8009 bound_to 7997
  155.8140  140.0888  157.1878 H   0  0  0  0  0  0  0  0  0  0  0  0  # atno 8010 bound_to 7997
  139.6608  144.7128  151.1868 H   0  0  0  0  0  0  0  0  0  0  0  0  # atno 10167 bound_to 10162
  156.8599  130.9748  151.3084 H   0  0  0  0  0  0  0  0  0  0  0  0  # atno 10718 bound_to 10713
  152.9787  135.5910  154.4096 H   0  0  0  0  0  0  0  0  0  0  0  0  # atno 10763 bound_to 10752
  154.3733  135.2767  155.2256 H   0  0  0  0  0  0  0  0  0  0  0  0  # atno 10764 bound_to 10752
  154.4201  135.6061  153.6059 H   0  0  0  0  0  0  0  0  0  0  0  0  # atno 10765 bound_to 10752
  140.2140  134.8246  157.3151 H   0  0  0  0  0  0  0  0  0  0  0  0  # atno 11005 bound_to 11000
  145.2966  141.0182  143.3633 LP  0  0  0  0  0  0  0  0  0  0  0  0  # atno 17320 bound_to 7965
  144.9037  139.4616  143.6620 LP  0  0  0  0  0  0  0  0  0  0  0  0  # atno 17321 bound_to 7965
  140.7579  143.5997  150.8712 LP  0  0  0  0  0  0  0  0  0  0  0  0  # atno 17342 bound_to 10162
  139.9654  143.6116  152.2990 LP  0  0  0  0  0  0  0  0  0  0  0  0  # atno 17343 bound_to 10162
  157.6256  130.8689  149.9183 LP  0  0  0  0  0  0  0  0  0  0  0  0  # atno 17370 bound_to 10713
  156.0782  130.3676  150.0634 LP  0  0  0  0  0  0  0  0  0  0  0  0  # atno 17371 bound_to 10713
  140.1920  134.4360  155.7710 LP  0  0  0  0  0  0  0  0  0  0  0  0  # atno 17394 bound_to 11000
  141.2225  133.7031  156.8043 LP  0  0  0  0  0  0  0  0  0  0  0  0  # atno 17395 bound_to 11000

$$$$
