AV-unprocessed.smi:2229|AV-procd|sdf|9032|dock9
  -GOLD-   2272012243D 1   1.00000     0.00000
 Structure written by MMmdl.
 43 44  0  0  0  0  0  0  0  0  2 V2000
  152.4673  142.7922  159.9646 C   0  0  0  0  0  0  0  0  0  0  0  0
  152.1077  143.6391  158.7314 C   0  0  0  0  0  0  0  0  0  0  0  0
  151.9509  145.1165  159.1220 C   0  0  0  0  0  0  0  0  0  0  0  0
  150.8445  143.1307  158.0050 C   0  0  0  0  0  0  0  0  0  0  0  0
  151.0167  141.7384  157.3753 C   0  0  0  0  0  0  0  0  0  0  0  0
  149.8061  141.2614  156.5415 C   0  0  1  0  0  0  0  0  0  0  0  0
  149.7760  141.8206  155.1146 C   0  0  0  0  0  0  0  0  0  0  0  0
  148.8155  140.8986  154.3724 C   0  0  0  0  0  0  0  0  0  0  0  0
  149.1070  139.5083  154.9384 C   0  0  0  0  0  0  0  0  0  0  0  0
  149.6485  139.7250  156.3659 C   0  0  1  0  0  0  0  0  0  0  0  0
  150.9047  138.9948  156.5465 N   0  0  0  0  0  0  0  0  0  0  0  0
  152.0072  139.1437  155.7953 C   0  0  0  0  0  0  0  0  0  0  0  0
  152.1155  139.9872  154.9050 O   0  0  0  0  0  0  0  0  0  0  0  0
  153.1649  138.1853  156.0849 C   0  0  0  0  0  0  0  0  0  0  0  0
  153.1204  137.7159  157.4708 N   0  0  0  0  0  0  0  0  0  0  0  0
  153.3256  138.5372  158.5512 C   0  0  0  0  0  0  0  0  0  0  0  0
  153.2680  137.8696  159.6474 N   0  0  0  0  0  0  0  0  0  0  0  0
  153.0090  136.5101  159.2814 N   0  5  0  0  0  0  0  0  0  0  0  0
  152.9317  136.4789  157.9329 C   0  0  0  0  0  0  0  0  0  0  0  0
  152.7256  135.5109  157.2022 O   0  0  0  0  0  0  0  0  0  0  0  0
  151.6459  142.7636  160.6810 H   0  0  0  0  0  0  0  0  0  0  0  0
  153.3402  143.1981  160.4763 H   0  0  0  0  0  0  0  0  0  0  0  0
  152.7119  141.7655  159.6928 H   0  0  0  0  0  0  0  0  0  0  0  0
  152.9449  143.5775  158.0345 H   0  0  0  0  0  0  0  0  0  0  0  0
  151.1252  145.2561  159.8203 H   0  0  0  0  0  0  0  0  0  0  0  0
  151.7563  145.7368  158.2467 H   0  0  0  0  0  0  0  0  0  0  0  0
  152.8564  145.4962  159.5959 H   0  0  0  0  0  0  0  0  0  0  0  0
  149.9983  143.1214  158.6931 H   0  0  0  0  0  0  0  0  0  0  0  0
  150.5888  143.8420  157.2195 H   0  0  0  0  0  0  0  0  0  0  0  0
  151.9107  141.7391  156.7523 H   0  0  0  0  0  0  0  0  0  0  0  0
  151.1925  141.0183  158.1735 H   0  0  0  0  0  0  0  0  0  0  0  0
  148.9021  141.6118  157.0426 H   0  0  0  0  0  0  0  0  0  0  0  0
  149.4582  142.8630  155.0763 H   0  0  0  0  0  0  0  0  0  0  0  0
  150.7680  141.7566  154.6649 H   0  0  0  0  0  0  0  0  0  0  0  0
  147.7872  141.1809  154.6025 H   0  0  0  0  0  0  0  0  0  0  0  0
  148.9388  140.9462  153.2902 H   0  0  0  0  0  0  0  0  0  0  0  0
  148.2187  138.8758  154.9293 H   0  0  0  0  0  0  0  0  0  0  0  0
  149.8536  139.0190  154.3105 H   0  0  0  0  0  0  0  0  0  0  0  0
  148.9074  139.3636  157.0813 H   0  0  0  0  0  0  0  0  0  0  0  0
  150.9121  138.2720  157.2516 H   0  0  0  0  0  0  0  0  0  0  0  0
  153.1084  137.3416  155.3951 H   0  0  0  0  0  0  0  0  0  0  0  0
  154.1212  138.6743  155.8917 H   0  0  0  0  0  0  0  0  0  0  0  0
  153.5102  139.6028  158.4049 H   0  0  0  0  0  0  0  0  0  0  0  0
  1  2  1  0  0  0  0
  1 21  1  0  0  0  0
  1 22  1  0  0  0  0
  1 23  1  0  0  0  0
  2  3  1  0  0  0  0
  2  4  1  0  0  0  0
  2 24  1  0  0  0  0
  3 25  1  0  0  0  0
  3 26  1  0  0  0  0
  3 27  1  0  0  0  0
  4  5  1  0  0  0  0
  4 28  1  0  0  0  0
  4 29  1  0  0  0  0
  5  6  1  0  0  0  0
  5 30  1  0  0  0  0
  5 31  1  0  0  0  0
  6 10  1  0  0  0  0
  6  7  1  0  0  0  0
  6 32  1  0  0  0  0
  7  8  1  0  0  0  0
  7 33  1  0  0  0  0
  7 34  1  0  0  0  0
  8  9  1  0  0  0  0
  8 35  1  0  0  0  0
  8 36  1  0  0  0  0
  9 10  1  0  0  0  0
  9 37  1  0  0  0  0
  9 38  1  0  0  0  0
 10 11  1  0  0  0  0
 10 39  1  0  0  0  0
 11 12  1  0  0  0  0
 11 40  1  0  0  0  0
 12 13  2  0  0  0  0
 12 14  1  0  0  0  0
 14 15  1  0  0  0  0
 14 41  1  0  0  0  0
 14 42  1  0  0  0  0
 15 19  1  0  0  0  0
 15 16  1  0  0  0  0
 16 17  2  0  0  0  0
 16 43  1  0  0  0  0
 17 18  1  0  0  0  0
 18 19  1  0  0  0  0
 19 20  2  0  0  0  0
M  CHG  1  18  -1
M  END
> <s_m_source_file>
AV-unprocessed.smi

> <i_m_source_file_index>
2229

> <i_lp_mmshare_version>
43012

> <i_f3d_flags>
0

> <s_epik_input>
W0NIM11bQ0hdKFtDSDNdKVtDSDJdW0NIMl1bQ0BASF0xW0NIMl1bQ0gyXVtDSDJdW0NASF0xW05IXUMoPU8pW0NIMl1uMltjSF1uW25IXWMyPU8=

> <s_epik_cmdline>
J2VwaWtfcHl0aG9uJywgJy1waCcsICc3LjAnLCAnLXRuJywgJzgnLCAnLW1hJywgJzIwMCcsICctbWV0YWxfYmluZGluZycsICctaW1hZScsICc8aW5maWxlLm1hZT4nLCAnLW9tYWUnLCAnPG91dGZpbGUubWFlPic=

> <r_lp_tautomer_probability>
1

> <r_epik_Ionization_Penalty>
13.6733

> <r_epik_Ionization_Penalty_Charging>
13.6725

> <r_epik_Ionization_Penalty_Neutral>
0.000837689

> <r_epik_State_Penalty>
5.67062

> <r_epik_Charging_Adjusted_Penalty>
19.3431

> <i_epik_Tot_Q>
-1

> <i_epik_Tot_abs_Q>
1

> <r_epik_Metal_State_Penalty>
1.61781

> <b_epik_Metal_Only>
1

> <s_lp_Force_Field>
OPLS_2005

> <r_lp_Energy>
25.9104

> <b_lp_Chiralities_Consistent>
1

> <s_lp_Variant>
AV-unprocessed.smi:2229-6

> <Gold.Version>
5.8.1

> <Gold.Id.Protein>
6NUR|6NUR_protein|mol2

> <Gold.PLP.Fitness>
46.3029

> <Gold.PLP.PLP>
-36.2513

> <Gold.PLP.part.hbond>
-3.0286

> <Gold.PLP.part.metal>
0.0000

> <Gold.PLP.part.buried>
-3.0886

> <Gold.PLP.part.nonpolar>
-30.2852

> <Gold.PLP.part.repulsive>
0.0932

> <Gold.PLP.ligand.clash>
0.0000

> <Gold.PLP.ligand.torsion>
0.6738

> <Gold.PLP.Chemscore.Hbond>
3.7840

> <Gold.PLP.Chemscore.CHOScore>
0.0000

> <Gold.PLP.Chemscore.Metal>
0.0000

> <Gold.Chemscore.Hbonds>
donor molecule, donor type, donor heavy atom, donor atom, acceptor molecule, acceptor atom, score
      P1  H  6896  6908       L1    18  2.00
      P1  H  7989  7998       L1    13  0.78
      P1  H 10752 10765       L1    20  0.96

> <Gold.PLP.Chemscore.Internal.Correction>
0.0472

> <Gold.Rescore>
     Score         DG    S(hbond)    S(metal)    S(lipo)     H(rot)  DE(clash)    DE(int)     intcor
     15.63     -18.30       2.64        0.00      90.95       2.59       0.00       2.66       ----

> <Gold.Chemscore.Fitness>
15.6324

> <Gold.Chemscore.DG>
-18.2984

> <Gold.Chemscore.ZeroCoef>
-5.4800

> <Gold.Chemscore.Hbond>
2.6400

> <Gold.Chemscore.Metal>
0.0000

> <Gold.Chemscore.Lipo>
90.9510

> <Gold.Chemscore.Internal_Hbond>
0.0000

> <Gold.Chemscore.DEClash>
0.0038

> <Gold.Chemscore.DEInternal>
2.6622

> <Gold.Chemscore.Rot>
2.5939

> <Gold.Chemscore.Internal.Correction>
   9.000000E+99

> <Gold.Chemscore.Hbonds>
donor molecule, donor type, donor heavy atom, donor atom, acceptor molecule, acceptor atom, score
      P1  H  6896  6908       L1    18  0.71
      P1  H  7989  7998       L1    13  0.78
      P1  H 10752 10765       L1    20  0.88

> <Gold.Chemscore.Hbond.Weighted>
-8.8176

> <Gold.Chemscore.Metal.Weighted>
-0.0000

> <Gold.Chemscore.Lipo.Weighted>
-10.6413

> <Gold.Chemscore.Internal_Hbond.Weighted>
0.0000

> <Gold.Chemscore.DEClash.Weighted>
0.0038

> <Gold.Chemscore.DEInternal.Weighted>
2.6622

> <Gold.Chemscore.Rot.Weighted>
6.6405

> <Gold.Chemscore.Internal.Correction.Weighted>
   9.000000E+99

> <Gold.Protein.RotatedTorsions>
[ 6907 6896 6895 6894 ] final  -88.16 input  -60.11 | X-H torsion
[ 7974 7965 7964 7962 ] final   38.01 input  175.53 | X-H torsion
[ 8008 7997 7996 7995 ] final  156.12 input   59.86 | X-H torsion
[ 10167 10162 10161 10158 ] final  -29.72 input  -65.29 | X-H torsion
[ 10718 10713 10712 10709 ] final  -24.77 input   66.30 | X-H torsion
[ 10763 10752 10751 10750 ] final -114.94 input  -60.55 | X-H torsion
[ 11005 11000 10999 10996 ] final  148.48 input  -57.11 | X-H torsion

> <Gold.Protein.ActiveResidues>
 VAL166  LYS551  ARG553  GLY616  TRP617  ASP618  TYR619  PRO620  LYS621  CYS622 
 ASP623  PHE694  ASN695  SER759  ASP760  ASP761  ALA762  ILE779  LEU786  VAL792 
 PHE793  MET794  SER795  GLU796  ALA797  LYS798  CYS799  TRP800  GLU811  SER814 

> <Gold.Protein.RotatedAtoms>
  150.6868  134.2784  159.4616 H   0  0  0  0  0  0  0  0  0  0  0  0  # atno 6907 bound_to 6896
  152.0700  134.9537  160.0584 H   0  0  0  0  0  0  0  0  0  0  0  0  # atno 6908 bound_to 6896
  152.0931  133.4176  159.4589 H   0  0  0  0  0  0  0  0  0  0  0  0  # atno 6909 bound_to 6896
  146.1094  139.5824  142.9362 H   0  0  0  0  0  0  0  0  0  0  0  0  # atno 7974 bound_to 7965
  156.2440  140.1921  156.6906 H   0  0  0  0  0  0  0  0  0  0  0  0  # atno 8008 bound_to 7997
  154.6254  140.0603  156.9693 H   0  0  0  0  0  0  0  0  0  0  0  0  # atno 8009 bound_to 7997
  155.1795  140.3275  155.4380 H   0  0  0  0  0  0  0  0  0  0  0  0  # atno 8010 bound_to 7997
  140.7257  143.3906  151.1437 H   0  0  0  0  0  0  0  0  0  0  0  0  # atno 10167 bound_to 10162
  156.4733  130.4529  149.6856 H   0  0  0  0  0  0  0  0  0  0  0  0  # atno 10718 bound_to 10713
  154.8461  135.4399  154.1585 H   0  0  0  0  0  0  0  0  0  0  0  0  # atno 10763 bound_to 10752
  153.2728  135.6946  153.7469 H   0  0  0  0  0  0  0  0  0  0  0  0  # atno 10764 bound_to 10752
  153.6703  135.3420  155.3126 H   0  0  0  0  0  0  0  0  0  0  0  0  # atno 10765 bound_to 10752
  140.0963  134.9010  157.1728 H   0  0  0  0  0  0  0  0  0  0  0  0  # atno 11005 bound_to 11000
  145.5694  141.0396  143.2182 LP  0  0  0  0  0  0  0  0  0  0  0  0  # atno 17320 bound_to 7965
  144.7499  139.7222  143.7277 LP  0  0  0  0  0  0  0  0  0  0  0  0  # atno 17321 bound_to 7965
  139.7510  143.8779  152.3076 LP  0  0  0  0  0  0  0  0  0  0  0  0  # atno 17342 bound_to 10162
  139.8632  144.7106  150.9074 LP  0  0  0  0  0  0  0  0  0  0  0  0  # atno 17343 bound_to 10162
  156.3596  130.7474  151.2445 LP  0  0  0  0  0  0  0  0  0  0  0  0  # atno 17370 bound_to 10713
  157.7489  131.0354  150.4361 LP  0  0  0  0  0  0  0  0  0  0  0  0  # atno 17371 bound_to 10713
  140.3282  134.2840  155.7233 LP  0  0  0  0  0  0  0  0  0  0  0  0  # atno 17394 bound_to 11000
  141.2093  133.7753  157.0006 LP  0  0  0  0  0  0  0  0  0  0  0  0  # atno 17395 bound_to 11000

$$$$
