AV-unprocessed.smi:2047|AV-procd|sdf|8319|dock2
  -GOLD-   2272010583D 1   1.00000     0.00000
 Structure written by MMmdl.
 42 44  0  0  0  0  0  0  0  0  3 V2000
  153.7205  139.5988  158.5537 O   0  0  0  0  0  0  0  0  0  0  0  0
  152.5530  139.1930  158.5257 C   0  0  0  0  0  0  0  0  0  0  0  0
  151.5406  140.0523  158.3192 N   0  0  0  0  0  0  0  0  0  0  0  0
  151.5909  141.4594  158.1102 C   0  0  0  0  0  0  0  0  0  0  0  0
  152.5005  142.2887  158.8138 C   0  0  0  0  0  0  0  0  0  0  0  0
  152.5060  143.6772  158.5799 C   0  0  0  0  0  0  0  0  0  0  0  0
  151.5945  144.2163  157.6548 C   0  0  0  0  0  0  0  0  0  0  0  0
  150.7282  143.4024  157.0164 N   0  3  0  0  0  0  0  0  0  0  0  0
  150.6776  142.0594  157.2007 C   0  0  0  0  0  0  0  0  0  0  0  0
  149.7100  141.3097  156.4979 N   0  0  0  0  0  0  0  0  0  0  0  0
  148.3300  141.7166  156.7521 C   0  0  0  0  0  0  0  0  0  0  0  0
  147.5823  141.5726  155.4246 C   0  0  0  0  0  0  0  0  0  0  0  0
  148.6850  141.7301  154.3850 C   0  0  0  0  0  0  0  0  0  0  0  0
  149.8768  141.0620  155.0670 C   0  0  0  0  0  0  0  0  0  0  0  0
  152.1125  137.9144  158.6670 N   0  5  0  0  0  0  0  0  0  0  0  0
  150.8608  137.3927  158.1109 C   0  0  2  0  0  0  0  0  0  0  0  0
  149.8550  137.0708  159.2339 C   0  0  0  0  0  0  0  0  0  0  0  0
  148.7240  136.2124  158.6496 C   0  0  0  0  0  0  0  0  0  0  0  0
  149.4981  135.2011  157.3288 S   0  0  0  0  0  0  0  0  0  0  0  0
  149.7176  133.8325  157.8225 O   0  0  0  0  0  0  0  0  0  0  0  0
  148.7850  135.4390  156.0640 O   0  0  0  0  0  0  0  0  0  0  0  0
  151.1000  136.0987  157.3167 C   0  0  0  0  0  0  0  0  0  0  0  0
  150.6339  139.6250  158.2014 H   0  0  0  0  0  0  0  0  0  0  0  0
  153.1873  141.8798  159.5393 H   0  0  0  0  0  0  0  0  0  0  0  0
  153.1970  144.3182  159.1073 H   0  0  0  0  0  0  0  0  0  0  0  0
  151.5252  145.2673  157.4146 H   0  0  0  0  0  0  0  0  0  0  0  0
  147.8741  141.1027  157.5292 H   0  0  0  0  0  0  0  0  0  0  0  0
  148.3007  142.7553  157.0861 H   0  0  0  0  0  0  0  0  0  0  0  0
  147.1476  140.5747  155.3511 H   0  0  0  0  0  0  0  0  0  0  0  0
  146.7783  142.3000  155.3094 H   0  0  0  0  0  0  0  0  0  0  0  0
  148.4360  141.2783  153.4246 H   0  0  0  0  0  0  0  0  0  0  0  0
  148.8936  142.7882  154.2205 H   0  0  0  0  0  0  0  0  0  0  0  0
  150.8242  141.4037  154.6511 H   0  0  0  0  0  0  0  0  0  0  0  0
  149.8353  139.9834  154.9120 H   0  0  0  0  0  0  0  0  0  0  0  0
  150.3788  138.1104  157.4451 H   0  0  0  0  0  0  0  0  0  0  0  0
  150.3550  136.4990  160.0172 H   0  0  0  0  0  0  0  0  0  0  0  0
  149.4658  137.9764  159.7002 H   0  0  0  0  0  0  0  0  0  0  0  0
  148.2580  135.5667  159.3935 H   0  0  0  0  0  0  0  0  0  0  0  0
  147.9494  136.8320  158.1950 H   0  0  0  0  0  0  0  0  0  0  0  0
  151.4212  136.2842  156.2918 H   0  0  0  0  0  0  0  0  0  0  0  0
  151.8395  135.4630  157.8047 H   0  0  0  0  0  0  0  0  0  0  0  0
  150.0696  143.8223  156.3606 H   0  0  0  0  0  0  0  0  0  0  0  0
  1  2  2  0  0  0  0
  2  3  1  0  0  0  0
  2 15  1  0  0  0  0
  3  4  1  0  0  0  0
  3 23  1  0  0  0  0
  4  9  1  0  0  0  0
  4  5  2  0  0  0  0
  5  6  1  0  0  0  0
  5 24  1  0  0  0  0
  6  7  2  0  0  0  0
  6 25  1  0  0  0  0
  7  8  1  0  0  0  0
  7 26  1  0  0  0  0
  8  9  2  0  0  0  0
  8 42  1  0  0  0  0
  9 10  1  0  0  0  0
 10 14  1  0  0  0  0
 10 11  1  0  0  0  0
 11 12  1  0  0  0  0
 11 27  1  0  0  0  0
 11 28  1  0  0  0  0
 12 13  1  0  0  0  0
 12 29  1  0  0  0  0
 12 30  1  0  0  0  0
 13 14  1  0  0  0  0
 13 31  1  0  0  0  0
 13 32  1  0  0  0  0
 14 33  1  0  0  0  0
 14 34  1  0  0  0  0
 15 16  1  0  0  0  0
 16 22  1  0  0  0  0
 16 17  1  0  0  0  0
 16 35  1  0  0  0  0
 17 18  1  0  0  0  0
 17 36  1  0  0  0  0
 17 37  1  0  0  0  0
 18 19  1  0  0  0  0
 18 38  1  0  0  0  0
 18 39  1  0  0  0  0
 19 20  2  0  0  0  0
 19 21  2  0  0  0  0
 19 22  1  0  0  0  0
 22 40  1  0  0  0  0
 22 41  1  0  0  0  0
M  CHG  1   8   1
M  CHG  1  15  -1
M  END
> <s_m_source_file>
AV-unprocessed.smi

> <i_m_source_file_index>
2047

> <i_lp_mmshare_version>
43012

> <i_f3d_flags>
0

> <s_epik_input>
Tz1TMSg9TylbQ0gyXVtDSDJdW0NASF0oW0NIMl0xKVtOSF1DKD1PKVtOSF1jMltjSF1bY0hdW2NIXW5jMk4zW0NIMl1bQ0gyXVtDSDJdW0NIMl0z

> <s_epik_cmdline>
J2VwaWtfcHl0aG9uJywgJy1waCcsICc3LjAnLCAnLXRuJywgJzgnLCAnLW1hJywgJzIwMCcsICctbWV0YWxfYmluZGluZycsICctaW1hZScsICc8aW5maWxlLm1hZT4nLCAnLW9tYWUnLCAnPG91dGZpbGUubWFlPic=

> <r_lp_tautomer_probability>
0.999994

> <r_epik_Ionization_Penalty>
8.27033

> <r_epik_Ionization_Penalty_Charging>
8.27033

> <r_epik_Ionization_Penalty_Neutral>
3.23223e-06

> <r_epik_State_Penalty>
7.90314

> <r_epik_Charging_Adjusted_Penalty>
16.1735

> <i_epik_Tot_Q>
0

> <i_epik_Tot_abs_Q>
2

> <r_epik_Metal_State_Penalty>
3.89381

> <b_epik_Metal_Only>
1

> <s_lp_Force_Field>
OPLS_2005

> <r_lp_Energy>
38.7939

> <b_lp_Chiralities_Consistent>
1

> <s_lp_Variant>
AV-unprocessed.smi:2047-5

> <Gold.Version>
5.8.1

> <Gold.Id.Protein>
6NUR|6NUR_protein|mol2

> <Gold.PLP.Fitness>
44.8799

> <Gold.PLP.PLP>
-33.9974

> <Gold.PLP.part.hbond>
-3.0000

> <Gold.PLP.part.metal>
0.0000

> <Gold.PLP.part.buried>
-2.3328

> <Gold.PLP.part.nonpolar>
-28.9448

> <Gold.PLP.part.repulsive>
0.2337

> <Gold.PLP.ligand.clash>
0.0000

> <Gold.PLP.ligand.torsion>
0.6483

> <Gold.PLP.Chemscore.Hbond>
4.0000

> <Gold.PLP.Chemscore.CHOScore>
0.0000

> <Gold.PLP.Chemscore.Metal>
0.0000

> <Gold.Chemscore.Hbonds>
donor molecule, donor type, donor heavy atom, donor atom, acceptor molecule, acceptor atom, score
      L1  H     8    42       P1  8028  2.00
      P1  H  6896  6908       L1    20  1.00
      P1  H  7997  8008       L1     1  1.00

> <Gold.PLP.Chemscore.Internal.Correction>
0.1791

> <Gold.Rescore>
     Score         DG    S(hbond)    S(metal)    S(lipo)     H(rot)  DE(clash)    DE(int)     intcor
     19.85     -21.81       2.92        0.00      83.55       1.25       0.15       1.81       ----

> <Gold.Chemscore.Fitness>
19.8483

> <Gold.Chemscore.DG>
-21.8092

> <Gold.Chemscore.ZeroCoef>
-5.4800

> <Gold.Chemscore.Hbond>
2.9188

> <Gold.Chemscore.Metal>
0.0000

> <Gold.Chemscore.Lipo>
83.5497

> <Gold.Chemscore.Internal_Hbond>
0.0000

> <Gold.Chemscore.DEClash>
0.1493

> <Gold.Chemscore.DEInternal>
1.8115

> <Gold.Chemscore.Rot>
1.2480

> <Gold.Chemscore.Internal.Correction>
   9.000000E+99

> <Gold.Chemscore.Hbonds>
donor molecule, donor type, donor heavy atom, donor atom, acceptor molecule, acceptor atom, score
      L1  H     8    42       P1  8028  0.99
      P1  H  6896  6908       L1    20  0.87
      P1  H  7997  8008       L1     1  1.00

> <Gold.Chemscore.Hbond.Weighted>
-9.7487

> <Gold.Chemscore.Metal.Weighted>
-0.0000

> <Gold.Chemscore.Lipo.Weighted>
-9.7753

> <Gold.Chemscore.Internal_Hbond.Weighted>
0.0000

> <Gold.Chemscore.DEClash.Weighted>
0.1493

> <Gold.Chemscore.DEInternal.Weighted>
1.8115

> <Gold.Chemscore.Rot.Weighted>
3.1948

> <Gold.Chemscore.Internal.Correction.Weighted>
   9.000000E+99

> <Gold.Protein.RotatedTorsions>
[ 6907 6896 6895 6894 ] final  115.02 input  -60.11 | X-H torsion
[ 7974 7965 7964 7962 ] final  -47.49 input  175.53 | X-H torsion
[ 8008 7997 7996 7995 ] final -102.90 input   59.86 | X-H torsion
[ 10167 10162 10161 10158 ] final  103.70 input  -65.29 | X-H torsion
[ 10718 10713 10712 10709 ] final  -98.21 input   66.30 | X-H torsion
[ 10763 10752 10751 10750 ] final -150.85 input  -60.55 | X-H torsion
[ 11005 11000 10999 10996 ] final  -88.87 input  -57.11 | X-H torsion

> <Gold.Protein.ActiveResidues>
 VAL166  LYS551  ARG553  GLY616  TRP617  ASP618  TYR619  PRO620  LYS621  CYS622 
 ASP623  PHE694  ASN695  SER759  ASP760  ASP761  ALA762  ILE779  LEU786  VAL792 
 PHE793  MET794  SER795  GLU796  ALA797  LYS798  CYS799  TRP800  GLU811  SER814 

> <Gold.Protein.RotatedAtoms>
  152.4767  133.8155  159.7025 H   0  0  0  0  0  0  0  0  0  0  0  0  # atno 6907 bound_to 6896
  150.8789  133.7391  159.2945 H   0  0  0  0  0  0  0  0  0  0  0  0  # atno 6908 bound_to 6896
  151.4902  135.1060  159.9853 H   0  0  0  0  0  0  0  0  0  0  0  0  # atno 6909 bound_to 6896
  145.9610  140.7479  142.9457 H   0  0  0  0  0  0  0  0  0  0  0  0  # atno 7974 bound_to 7965
  154.8632  140.0426  157.1678 H   0  0  0  0  0  0  0  0  0  0  0  0  # atno 8008 bound_to 7997
  154.8818  140.2973  155.5400 H   0  0  0  0  0  0  0  0  0  0  0  0  # atno 8009 bound_to 7997
  156.2998  140.2410  156.3821 H   0  0  0  0  0  0  0  0  0  0  0  0  # atno 8010 bound_to 7997
  139.7240  144.7052  151.0827 H   0  0  0  0  0  0  0  0  0  0  0  0  # atno 10167 bound_to 10162
  156.0102  130.5228  150.6489 H   0  0  0  0  0  0  0  0  0  0  0  0  # atno 10718 bound_to 10713
  154.8094  135.3274  154.7346 H   0  0  0  0  0  0  0  0  0  0  0  0  # atno 10763 bound_to 10752
  153.7998  135.6904  153.4862 H   0  0  0  0  0  0  0  0  0  0  0  0  # atno 10764 bound_to 10752
  153.1861  135.4568  155.0036 H   0  0  0  0  0  0  0  0  0  0  0  0  # atno 10765 bound_to 10752
  141.1594  133.7595  156.9513 H   0  0  0  0  0  0  0  0  0  0  0  0  # atno 11005 bound_to 11000
  144.6815  140.2592  143.7321 LP  0  0  0  0  0  0  0  0  0  0  0  0  # atno 17320 bound_to 7965
  145.8039  139.1975  143.2032 LP  0  0  0  0  0  0  0  0  0  0  0  0  # atno 17321 bound_to 7965
  140.7759  143.5129  150.9630 LP  0  0  0  0  0  0  0  0  0  0  0  0  # atno 17342 bound_to 10162
  139.8816  143.7064  152.3156 LP  0  0  0  0  0  0  0  0  0  0  0  0  # atno 17343 bound_to 10162
  157.4254  131.0842  151.1090 LP  0  0  0  0  0  0  0  0  0  0  0  0  # atno 17370 bound_to 10713
  157.1679  130.6254  149.5631 LP  0  0  0  0  0  0  0  0  0  0  0  0  # atno 17371 bound_to 10713
  140.1255  134.9389  157.2264 LP  0  0  0  0  0  0  0  0  0  0  0  0  # atno 17394 bound_to 11000
  140.3018  134.3123  155.7288 LP  0  0  0  0  0  0  0  0  0  0  0  0  # atno 17395 bound_to 11000

$$$$
