#       Name:                AV-unprocessed.smi:1080
#       Creating user name   scv26
#       Creation time:       Fri Mar 27 03:23:22 2020


#       File generated by GOLD software.
#

@<TRIPOS>MOLECULE
AV-unprocessed.smi:1080
    53    55     1
SMALL
NO_CHARGES


@<TRIPOS>ATOM
      1 ****        -1.9759   3.4534  -0.0812 O.2            1 S1                 0.0000
      2 ****        -2.4641   2.3237  -0.1023 C.2            1 S1                 0.0000
      3 ****        -3.7793   2.0437  -0.0783 N.am           1 S1                 0.0000
      4 ****        -4.8834   2.9394  -0.0874 C.ar           1 S1                 0.0000
      5 ****        -6.1358   2.4401   0.3266 C.ar           1 S1                 0.0000
      6 ****        -7.2507   3.3018   0.3085 C.ar           1 S1                 0.0000
      7 ****        -7.1880   4.5879  -0.0954 N.ar           1 S1                 0.0000
      8 ****        -5.9917   5.0605  -0.5043 C.ar           1 S1                 0.0000
      9 ****        -4.8154   4.2844  -0.5248 C.ar           1 S1                 0.0000
     10 ****        -1.7345   1.1987  -0.1338 N.am           1 S1                 0.0000
     11 ****        -0.2765   1.1206  -0.1738 C.3            1 S1                 0.0000
     12 ****         0.1632   0.3557  -1.4345 C.3            1 S1                 0.0000
     13 ****         1.6878   0.1232  -1.4690 C.3            1 S1                 0.0000
     14 ****         2.2700  -0.5045  -0.1762 C.3            1 S1                 0.0000
     15 ****         2.0146  -2.0275  -0.0500 C.2            1 S1                 0.0000
     16 ****         0.9911  -2.4988  -0.5467 O.2            1 S1                 0.0000
     17 ****         2.9288  -2.8186   0.5689 N.am           1 S1                 0.0000
     18 ****         2.8332  -4.2842   0.5544 C.3            1 S1                 0.0000
     19 ****         3.8026  -4.8369  -0.5044 C.3            1 S1                 0.0000
     20 ****         5.5274  -4.4176  -0.0979 S.3            1 S1                 0.0000
     21 ****         5.3442  -2.6346   0.2209 C.3            1 S1                 0.0000
     22 ****         4.1810  -2.3691   1.1904 C.3            1 S1                 0.0000
     23 ****         1.7714   0.2710   1.0648 C.3            1 S1                 0.0000
     24 ****         0.2417   0.4286   1.0990 C.3            1 S1                 0.0000
     25 ****        -4.0205   1.0658  -0.0122 H              1 S1                 0.0000
     26 ****        -6.2447   1.4175   0.6571 H              1 S1                 0.0000
     27 ****        -8.2203   2.9465   0.6248 H              1 S1                 0.0000
     28 ****        -5.9714   6.0892  -0.8325 H              1 S1                 0.0000
     29 ****        -3.9006   4.7291  -0.8840 H              1 S1                 0.0000
     30 ****        -2.2288   0.3185  -0.1411 H              1 S1                 0.0000
     31 ****         0.1585   2.1208  -0.2170 H              1 S1                 0.0000
     32 ****        -0.3651  -0.5956  -1.4912 H              1 S1                 0.0000
     33 ****        -0.1356   0.9114  -2.3240 H              1 S1                 0.0000
     34 ****         1.9443  -0.4893  -2.3343 H              1 S1                 0.0000
     35 ****         2.1771   1.0837  -1.6357 H              1 S1                 0.0000
     36 ****         3.3456  -0.3591  -0.2636 H              1 S1                 0.0000
     37 ****         3.0783  -4.6897   1.5370 H              1 S1                 0.0000
     38 ****         1.8209  -4.6331   0.3456 H              1 S1                 0.0000
     39 ****         3.7133  -5.9210  -0.5741 H              1 S1                 0.0000
     40 ****         3.5608  -4.4326  -1.4881 H              1 S1                 0.0000
     41 ****         6.2789  -2.2557   0.6345 H              1 S1                 0.0000
     42 ****         5.1801  -2.1181  -0.7255 H              1 S1                 0.0000
     43 ****         4.1586  -1.3212   1.4844 H              1 S1                 0.0000
     44 ****         4.3476  -2.9102   2.1229 H              1 S1                 0.0000
     45 ****         2.1035  -0.2177   1.9813 H              1 S1                 0.0000
     46 ****         2.2310   1.2601   1.0736 H              1 S1                 0.0000
     47 ****        -0.0435   1.0088   1.9775 H              1 S1                 0.0000
     48 ****        -0.2285  -0.5492   1.2122 H              1 S1                 0.0000
     49 ****        -2.5723   4.2552  -0.0432 LP             1 S1                 0.0000
     50 ****        -0.9829   3.5694  -0.1021 LP             1 S1                 0.0000
     51 ****        -8.0004   5.1710  -0.0919 LP             1 S1                 0.0000
     52 ****         0.3440  -1.9011  -1.0201 LP             1 S1                 0.0000
     53 ****         0.8070  -3.4792  -0.4767 LP             1 S1                 0.0000
@<TRIPOS>BOND
    1    1    2 2     
    2    2    3 am    
    3    2   10 am    
    4    3    4 1     
    5    3   25 1     
    6    4    9 ar    
    7    4    5 ar    
    8    5    6 ar    
    9    5   26 1     
   10    6    7 ar    
   11    6   27 1     
   12    7    8 ar    
   13    8    9 ar    
   14    8   28 1     
   15    9   29 1     
   16   10   11 1     
   17   10   30 1     
   18   11   24 1     
   19   11   12 1     
   20   11   31 1     
   21   12   13 1     
   22   12   32 1     
   23   12   33 1     
   24   13   14 1     
   25   13   34 1     
   26   13   35 1     
   27   14   15 1     
   28   14   23 1     
   29   14   36 1     
   30   15   16 2     
   31   15   17 am    
   32   17   22 1     
   33   17   18 1     
   34   18   19 1     
   35   18   37 1     
   36   18   38 1     
   37   19   20 1     
   38   19   39 1     
   39   19   40 1     
   40   20   21 1     
   41   21   22 1     
   42   21   41 1     
   43   21   42 1     
   44   22   43 1     
   45   22   44 1     
   46   23   24 1     
   47   23   45 1     
   48   23   46 1     
   49   24   47 1     
   50   24   48 1     
   51    1   49 1     
   52    1   50 1     
   53    7   51 1     
   54   16   52 1     
   55   16   53 1     
@<TRIPOS>SUBSTRUCTURE
      1 S1             1
@<TRIPOS>SET
LONE_PAIRS      STATIC     ATOMS    <user>   **** ""
5 49 50 51 52 53
DONOR_HYDROGENS      STATIC     ATOMS    <user>   **** ""
2 25 30
ATOM$BLUE        STATIC     ATOMS    COLORGROUP SYSTEM
5 49 50 51 52 53
ATOM$RED        STATIC     ATOMS    COLORGROUP SYSTEM
2 25 30
