AV-unprocessed.smi:1041|AV-procd|sdf|4530|dock2
  -GOLD-   22720 2553D 1   1.00000     0.00000
 Structure written by MMmdl.
 53 54  0  0  0  0  0  0  0  0  2 V2000
  143.9161  132.3651  150.8449 C   0  0  0  0  0  0  0  0  0  0  0  0
  145.1832  131.9936  151.3593 O   0  0  0  0  0  0  0  0  0  0  0  0
  145.8058  133.0442  152.0797 C   0  0  0  0  0  0  0  0  0  0  0  0
  147.2356  132.6187  152.4482 C   0  0  0  0  0  0  0  0  0  0  0  0
  147.9168  133.6059  153.3242 N   0  3  2  0  0  0  0  0  0  0  0  0
  149.3085  133.2004  153.6484 C   0  0  0  0  0  0  0  0  0  0  0  0
  150.0414  134.2992  154.4354 C   0  0  0  0  0  0  0  0  0  0  0  0
  149.2807  134.6718  155.7238 C   0  0  1  0  0  0  0  0  0  0  0  0
  149.9700  135.8001  156.5141 C   0  0  0  0  0  0  0  0  0  0  0  0
  149.9545  137.0476  155.7627 N   0  0  0  0  0  0  0  0  0  0  0  0
  150.9571  137.5034  154.9989 C   0  0  0  0  0  0  0  0  0  0  0  0
  151.9977  136.8786  154.7968 O   0  0  0  0  0  0  0  0  0  0  0  0
  150.7536  138.8856  154.3779 C   0  0  0  0  0  0  0  0  0  0  0  0
  150.9323  140.0585  155.3407 C   0  0  0  0  0  0  0  0  0  0  0  0
  150.0146  141.0500  155.4716 C   0  0  0  0  0  0  0  0  0  0  0  0
  148.7111  141.1186  154.6956 C   0  0  0  0  0  0  0  0  0  0  0  0
  150.2167  142.1017  156.3474 N   0  0  0  0  0  0  0  0  0  0  0  0
  151.3871  142.1141  157.0873 C   0  0  0  0  0  0  0  0  0  0  0  0
  151.5077  143.3056  158.0121 C   0  0  0  0  0  0  0  0  0  0  0  0
  152.3248  141.2178  157.0295 N   0  0  0  0  0  0  0  0  0  0  0  0
  152.1694  140.1304  156.1546 C   0  0  0  0  0  0  0  0  0  0  0  0
  153.0482  139.2738  156.0668 O   0  0  0  0  0  0  0  0  0  0  0  0
  147.8356  135.0503  155.3570 C   0  0  0  0  0  0  0  0  0  0  0  0
  147.1473  133.9342  154.5534 C   0  0  0  0  0  0  0  0  0  0  0  0
  149.5065  142.8168  156.4155 H   0  0  0  0  0  0  0  0  0  0  0  0
  143.4807  131.5272  150.3008 H   0  0  0  0  0  0  0  0  0  0  0  0
  144.0010  133.2062  150.1555 H   0  0  0  0  0  0  0  0  0  0  0  0
  143.2292  132.6382  151.6469 H   0  0  0  0  0  0  0  0  0  0  0  0
  145.7975  133.9669  151.4996 H   0  0  0  0  0  0  0  0  0  0  0  0
  145.2426  133.2392  152.9937 H   0  0  0  0  0  0  0  0  0  0  0  0
  147.2293  131.6418  152.9334 H   0  0  0  0  0  0  0  0  0  0  0  0
  147.7986  132.4964  151.5217 H   0  0  0  0  0  0  0  0  0  0  0  0
  149.2951  132.2718  154.2214 H   0  0  0  0  0  0  0  0  0  0  0  0
  149.8577  132.9975  152.7283 H   0  0  0  0  0  0  0  0  0  0  0  0
  151.0493  133.9559  154.6713 H   0  0  0  0  0  0  0  0  0  0  0  0
  150.1574  135.1826  153.8062 H   0  0  0  0  0  0  0  0  0  0  0  0
  149.2435  133.7885  156.3640 H   0  0  0  0  0  0  0  0  0  0  0  0
  149.4743  135.9317  157.4779 H   0  0  0  0  0  0  0  0  0  0  0  0
  151.0074  135.5360  156.7235 H   0  0  0  0  0  0  0  0  0  0  0  0
  149.1342  137.6285  155.8594 H   0  0  0  0  0  0  0  0  0  0  0  0
  151.4548  138.9972  153.5503 H   0  0  0  0  0  0  0  0  0  0  0  0
  149.7696  138.9194  153.9087 H   0  0  0  0  0  0  0  0  0  0  0  0
  148.0847  140.2565  154.9249 H   0  0  0  0  0  0  0  0  0  0  0  0
  148.9057  141.1287  153.6230 H   0  0  0  0  0  0  0  0  0  0  0  0
  148.1442  142.0178  154.9402 H   0  0  0  0  0  0  0  0  0  0  0  0
  152.4141  143.2414  158.6154 H   0  0  0  0  0  0  0  0  0  0  0  0
  150.6526  143.3521  158.6872 H   0  0  0  0  0  0  0  0  0  0  0  0
  151.5458  144.2303  157.4357 H   0  0  0  0  0  0  0  0  0  0  0  0
  147.2629  135.2541  156.2626 H   0  0  0  0  0  0  0  0  0  0  0  0
  147.8306  135.9733  154.7752 H   0  0  0  0  0  0  0  0  0  0  0  0
  146.1398  134.2588  154.2967 H   0  0  0  0  0  0  0  0  0  0  0  0
  147.0422  133.0395  155.1693 H   0  0  0  0  0  0  0  0  0  0  0  0
  147.9916  134.4573  152.7854 H   0  0  0  0  0  0  0  0  0  0  0  0
  1  2  1  0  0  0  0
  1 26  1  0  0  0  0
  1 27  1  0  0  0  0
  1 28  1  0  0  0  0
  2  3  1  0  0  0  0
  3  4  1  0  0  0  0
  3 29  1  0  0  0  0
  3 30  1  0  0  0  0
  4  5  1  0  0  0  0
  4 31  1  0  0  0  0
  4 32  1  0  0  0  0
  5 24  1  0  0  0  0
  5  6  1  0  0  0  0
  5 53  1  0  0  0  0
  6  7  1  0  0  0  0
  6 33  1  0  0  0  0
  6 34  1  0  0  0  0
  7  8  1  0  0  0  0
  7 35  1  0  0  0  0
  7 36  1  0  0  0  0
  8  9  1  0  0  0  0
  8 23  1  0  0  0  0
  8 37  1  0  0  0  0
  9 10  1  0  0  0  0
  9 38  1  0  0  0  0
  9 39  1  0  0  0  0
 10 11  1  0  0  0  0
 10 40  1  0  0  0  0
 11 12  2  0  0  0  0
 11 13  1  0  0  0  0
 13 41  1  0  0  0  0
 13 42  1  0  0  0  0
 13 14  1  0  0  0  0
 14 21  1  0  0  0  0
 14 15  2  0  0  0  0
 15 16  1  0  0  0  0
 15 17  1  0  0  0  0
 16 43  1  0  0  0  0
 16 44  1  0  0  0  0
 16 45  1  0  0  0  0
 17 25  1  0  0  0  0
 17 18  1  0  0  0  0
 18 19  1  0  0  0  0
 18 20  2  0  0  0  0
 19 46  1  0  0  0  0
 19 47  1  0  0  0  0
 19 48  1  0  0  0  0
 20 21  1  0  0  0  0
 21 22  2  0  0  0  0
 23 24  1  0  0  0  0
 23 49  1  0  0  0  0
 23 50  1  0  0  0  0
 24 51  1  0  0  0  0
 24 52  1  0  0  0  0
M  CHG  1   5   1
M  END
> <s_m_source_file>
AV-unprocessed.smi

> <i_m_source_file_index>
1041

> <i_lp_mmshare_version>
43012

> <i_f3d_flags>
0

> <s_epik_input>
W0NIM11PW0NIMl1bQ0gyXU4xW0NIMl1bQ0gyXVtDSF0oW0NIMl1bQ0gyXTEpW0NIMl1bTkhdQyg9TylbQ0gyXWMyYyhbQ0gzXSluYyhbQ0gzXSlbbkhdYzI9Tw==

> <s_epik_cmdline>
J2VwaWtfcHl0aG9uJywgJy1waCcsICc3LjAnLCAnLXRuJywgJzgnLCAnLW1hJywgJzIwMCcsICctbWV0YWxfYmluZGluZycsICctaW1hZScsICc8aW5maWxlLm1hZT4nLCAnLW9tYWUnLCAnPG91dGZpbGUubWFlPic=

> <r_lp_tautomer_probability>
0.156392

> <r_epik_Ionization_Penalty>
0.0240251

> <r_epik_Ionization_Penalty_Charging>
0.0239146

> <r_epik_Ionization_Penalty_Neutral>
0.000110474

> <r_epik_State_Penalty>
1.15942

> <r_epik_Charging_Adjusted_Penalty>
1.18333

> <i_epik_Tot_Q>
1

> <i_epik_Tot_abs_Q>
1

> <r_epik_Metal_State_Penalty>
1.33297

> <b_epik_Metal_Only>
0

> <s_lp_Force_Field>
OPLS_2005

> <r_lp_Energy>
24.2188

> <b_lp_Chiralities_Consistent>
1

> <s_lp_Variant>
AV-unprocessed.smi:1041-3

> <Gold.Version>
5.8.1

> <Gold.Id.Protein>
6NUR|6NUR_protein|mol2

> <Gold.PLP.Fitness>
54.7697

> <Gold.PLP.PLP>
-40.6700

> <Gold.PLP.part.hbond>
-4.0000

> <Gold.PLP.part.metal>
0.0000

> <Gold.PLP.part.buried>
-2.2049

> <Gold.PLP.part.nonpolar>
-33.6028

> <Gold.PLP.part.repulsive>
0.3294

> <Gold.PLP.ligand.clash>
0.0000

> <Gold.PLP.ligand.torsion>
0.4962

> <Gold.PLP.Chemscore.Hbond>
5.0000

> <Gold.PLP.Chemscore.CHOScore>
0.0000

> <Gold.PLP.Chemscore.Metal>
0.0000

> <Gold.Chemscore.Hbonds>
donor molecule, donor type, donor heavy atom, donor atom, acceptor molecule, acceptor atom, score
      L1  H     5    53       P1  7948  1.27
      L1  H    17    25       P1  8028  0.64
      P1  H  7997  8010       L1    22  1.00
      P1  H 10752 10763       L1    12  1.00

> <Gold.PLP.Chemscore.Internal.Correction>
0.0921

> <Gold.Rescore>
     Score         DG    S(hbond)    S(metal)    S(lipo)     H(rot)  DE(clash)    DE(int)     intcor
     19.85     -20.57       3.60        0.00      79.23       2.43       0.21       0.52       ----

> <Gold.Chemscore.Fitness>
19.8451

> <Gold.Chemscore.DG>
-20.5670

> <Gold.Chemscore.ZeroCoef>
-5.4800

> <Gold.Chemscore.Hbond>
3.6034

> <Gold.Chemscore.Metal>
0.0000

> <Gold.Chemscore.Lipo>
79.2339

> <Gold.Chemscore.Internal_Hbond>
0.0000

> <Gold.Chemscore.DEClash>
0.2064

> <Gold.Chemscore.DEInternal>
0.5156

> <Gold.Chemscore.Rot>
2.4291

> <Gold.Chemscore.Internal.Correction>
   9.000000E+99

> <Gold.Chemscore.Hbonds>
donor molecule, donor type, donor heavy atom, donor atom, acceptor molecule, acceptor atom, score
      L1  H     5    53       P1  7948  0.37
      L1  H    17    25       P1  8028  0.63
      P1  H  7997  8010       L1    22  0.38
      P1  H 10752 10763       L1    12  0.93

> <Gold.Chemscore.Hbond.Weighted>
-12.0353

> <Gold.Chemscore.Metal.Weighted>
-0.0000

> <Gold.Chemscore.Lipo.Weighted>
-9.2704

> <Gold.Chemscore.Internal_Hbond.Weighted>
0.0000

> <Gold.Chemscore.DEClash.Weighted>
0.2064

> <Gold.Chemscore.DEInternal.Weighted>
0.5156

> <Gold.Chemscore.Rot.Weighted>
6.2186

> <Gold.Chemscore.Internal.Correction.Weighted>
   9.000000E+99

> <Gold.Protein.RotatedTorsions>
[ 6907 6896 6895 6894 ] final -151.95 input  -60.11 | X-H torsion
[ 7974 7965 7964 7962 ] final    6.35 input  175.53 | X-H torsion
[ 8008 7997 7996 7995 ] final   62.24 input   59.86 | X-H torsion
[ 10167 10162 10161 10158 ] final  -26.44 input  -65.29 | X-H torsion
[ 10718 10713 10712 10709 ] final  -43.36 input   66.30 | X-H torsion
[ 10763 10752 10751 10750 ] final   60.00 input  -60.55 | X-H torsion
[ 11005 11000 10999 10996 ] final  -51.56 input  -57.11 | X-H torsion

> <Gold.Protein.ActiveResidues>
 VAL166  LYS551  ARG553  GLY616  TRP617  ASP618  TYR619  PRO620  LYS621  CYS622 
 ASP623  PHE694  ASN695  SER759  ASP760  ASP761  ALA762  ILE779  LEU786  VAL792 
 PHE793  MET794  SER795  GLU796  ALA797  LYS798  CYS799  TRP800  GLU811  SER814 

> <Gold.Protein.RotatedAtoms>
  151.2206  133.4505  159.2600 H   0  0  0  0  0  0  0  0  0  0  0  0  # atno 6907 bound_to 6896
  151.0889  134.9904  159.8403 H   0  0  0  0  0  0  0  0  0  0  0  0  # atno 6908 bound_to 6896
  152.5432  134.2140  159.8814 H   0  0  0  0  0  0  0  0  0  0  0  0  # atno 6909 bound_to 6896
  146.2435  140.0246  142.8395 H   0  0  0  0  0  0  0  0  0  0  0  0  # atno 7974 bound_to 7965
  155.6112  140.3495  155.4623 H   0  0  0  0  0  0  0  0  0  0  0  0  # atno 8008 bound_to 7997
  156.0152  140.1242  157.0437 H   0  0  0  0  0  0  0  0  0  0  0  0  # atno 8009 bound_to 7997
  154.4295  140.1073  156.5872 H   0  0  0  0  0  0  0  0  0  0  0  0  # atno 8010 bound_to 7997
  140.7283  143.4178  151.1000 H   0  0  0  0  0  0  0  0  0  0  0  0  # atno 10167 bound_to 10162
  156.2498  130.4187  149.8663 H   0  0  0  0  0  0  0  0  0  0  0  0  # atno 10718 bound_to 10713
  152.9909  135.5552  154.5804 H   0  0  0  0  0  0  0  0  0  0  0  0  # atno 10763 bound_to 10752
  154.5186  135.2806  155.1284 H   0  0  0  0  0  0  0  0  0  0  0  0  # atno 10764 bound_to 10752
  154.2646  135.6374  153.5340 H   0  0  0  0  0  0  0  0  0  0  0  0  # atno 10765 bound_to 10752
  141.0878  133.6639  156.3896 H   0  0  0  0  0  0  0  0  0  0  0  0  # atno 11005 bound_to 11000
  145.1210  140.9462  143.4601 LP  0  0  0  0  0  0  0  0  0  0  0  0  # atno 17320 bound_to 7965
  145.0482  139.3204  143.5942 LP  0  0  0  0  0  0  0  0  0  0  0  0  # atno 17321 bound_to 7965
  139.7820  143.8341  152.3139 LP  0  0  0  0  0  0  0  0  0  0  0  0  # atno 17342 bound_to 10162
  139.8296  144.7260  150.9468 LP  0  0  0  0  0  0  0  0  0  0  0  0  # atno 17343 bound_to 10162
  156.6215  130.8628  151.3476 LP  0  0  0  0  0  0  0  0  0  0  0  0  # atno 17370 bound_to 10713
  157.7210  130.9558  150.1438 LP  0  0  0  0  0  0  0  0  0  0  0  0  # atno 17371 bound_to 10713
  140.5323  134.6200  157.5354 LP  0  0  0  0  0  0  0  0  0  0  0  0  # atno 17394 bound_to 11000
  139.9698  134.7311  156.0064 LP  0  0  0  0  0  0  0  0  0  0  0  0  # atno 17395 bound_to 11000

$$$$
