AV-unprocessed.smi:555|AV-procd|sdf|2910|dock7
  -GOLD-   2262023403D 1   1.00000     0.00000
 Structure written by MMmdl.
 50 51  0  0  0  0  0  0  0  0  2 V2000
  153.9793  139.8582  159.4473 C   0  0  0  0  0  0  0  0  0  0  0  0
  154.1426  139.0642  158.2856 O   0  0  0  0  0  0  0  0  0  0  0  0
  152.9105  138.7829  157.6404 C   0  0  0  0  0  0  0  0  0  0  0  0
  153.1613  137.8548  156.4404 C   0  0  0  0  0  0  0  0  0  0  0  0
  151.9390  137.6333  155.6597 N   0  0  0  0  0  0  0  0  0  0  0  0
  151.4390  136.3451  155.7514 N   0  0  0  0  0  0  0  0  0  0  0  0
  150.3445  136.0270  155.1393 C   0  0  0  0  0  0  0  0  0  0  0  0
  149.7676  134.6566  155.2254 C   0  0  0  0  0  0  0  0  0  0  0  0
  150.0373  133.8939  156.1547 O   0  0  0  0  0  0  0  0  0  0  0  0
  148.9417  134.3156  154.2197 N   0  0  0  0  0  0  0  0  0  0  0  0
  148.2654  133.0300  154.0802 C   0  0  2  0  0  0  0  0  0  0  0  0
  149.2869  131.8781  154.0669 C   0  0  0  0  0  0  0  0  0  0  0  0
  148.6036  130.5259  153.8017 C   0  0  0  0  0  0  0  0  0  0  0  0
  147.8244  130.5613  152.5359 N   0  3  1  0  0  0  0  0  0  0  0  0
  147.3365  129.2199  152.1007 C   0  0  0  0  0  0  0  0  0  0  0  0
  146.1548  128.7485  152.9646 C   0  0  0  0  0  0  0  0  0  0  0  0
  148.4478  128.1546  152.0267 C   0  0  0  0  0  0  0  0  0  0  0  0
  146.7949  131.6361  152.5568 C   0  0  0  0  0  0  0  0  0  0  0  0
  147.4465  133.0105  152.7795 C   0  0  0  0  0  0  0  0  0  0  0  0
  149.6283  137.0055  154.3388 C   0  0  0  0  0  0  0  0  0  0  0  0
  150.1322  138.2562  154.2525 C   0  0  0  0  0  0  0  0  0  0  0  0
  151.3641  138.6445  154.9415 C   0  0  0  0  0  0  0  0  0  0  0  0
  151.8375  139.7791  154.8862 O   0  0  0  0  0  0  0  0  0  0  0  0
  154.9519  140.0450  159.9024 H   0  0  0  0  0  0  0  0  0  0  0  0
  153.3544  139.3534  160.1852 H   0  0  0  0  0  0  0  0  0  0  0  0
  153.5289  140.8220  159.2068 H   0  0  0  0  0  0  0  0  0  0  0  0
  152.2079  138.3266  158.3396 H   0  0  0  0  0  0  0  0  0  0  0  0
  152.4610  139.7142  157.2928 H   0  0  0  0  0  0  0  0  0  0  0  0
  153.9394  138.2791  155.8036 H   0  0  0  0  0  0  0  0  0  0  0  0
  153.5648  136.9037  156.7923 H   0  0  0  0  0  0  0  0  0  0  0  0
  148.7748  135.0020  153.4974 H   0  0  0  0  0  0  0  0  0  0  0  0
  147.5786  132.8893  154.9174 H   0  0  0  0  0  0  0  0  0  0  0  0
  150.0392  132.0599  153.2978 H   0  0  0  0  0  0  0  0  0  0  0  0
  149.8213  131.8381  155.0169 H   0  0  0  0  0  0  0  0  0  0  0  0
  149.3658  129.7477  153.7488 H   0  0  0  0  0  0  0  0  0  0  0  0
  147.9481  130.2720  154.6354 H   0  0  0  0  0  0  0  0  0  0  0  0
  146.9364  129.3406  151.0931 H   0  0  0  0  0  0  0  0  0  0  0  0
  145.7104  127.8426  152.5509 H   0  0  0  0  0  0  0  0  0  0  0  0
  145.3713  129.5056  153.0082 H   0  0  0  0  0  0  0  0  0  0  0  0
  146.4576  128.5199  153.9863 H   0  0  0  0  0  0  0  0  0  0  0  0
  148.0595  127.2239  151.6118 H   0  0  0  0  0  0  0  0  0  0  0  0
  148.8566  127.9207  153.0100 H   0  0  0  0  0  0  0  0  0  0  0  0
  149.2706  128.4714  151.3863 H   0  0  0  0  0  0  0  0  0  0  0  0
  146.2420  131.6551  151.6184 H   0  0  0  0  0  0  0  0  0  0  0  0
  146.0701  131.4446  153.3493 H   0  0  0  0  0  0  0  0  0  0  0  0
  146.6758  133.7818  152.8114 H   0  0  0  0  0  0  0  0  0  0  0  0
  148.0889  133.2486  151.9299 H   0  0  0  0  0  0  0  0  0  0  0  0
  148.7166  136.7469  153.8201 H   0  0  0  0  0  0  0  0  0  0  0  0
  149.6110  138.9934  153.6596 H   0  0  0  0  0  0  0  0  0  0  0  0
  148.4907  130.8346  151.8274 H   0  0  0  0  0  0  0  0  0  0  0  0
  1  2  1  0  0  0  0
  1 24  1  0  0  0  0
  1 25  1  0  0  0  0
  1 26  1  0  0  0  0
  2  3  1  0  0  0  0
  3  4  1  0  0  0  0
  3 27  1  0  0  0  0
  3 28  1  0  0  0  0
  4  5  1  0  0  0  0
  4 29  1  0  0  0  0
  4 30  1  0  0  0  0
  5 22  1  0  0  0  0
  5  6  1  0  0  0  0
  6  7  2  0  0  0  0
  7  8  1  0  0  0  0
  7 20  1  0  0  0  0
  8  9  2  0  0  0  0
  8 10  1  0  0  0  0
 10 11  1  0  0  0  0
 10 31  1  0  0  0  0
 11 19  1  0  0  0  0
 11 12  1  0  0  0  0
 11 32  1  0  0  0  0
 12 13  1  0  0  0  0
 12 33  1  0  0  0  0
 12 34  1  0  0  0  0
 13 14  1  0  0  0  0
 13 35  1  0  0  0  0
 13 36  1  0  0  0  0
 14 15  1  0  0  0  0
 14 18  1  0  0  0  0
 14 50  1  0  0  0  0
 15 16  1  0  0  0  0
 15 17  1  0  0  0  0
 15 37  1  0  0  0  0
 16 38  1  0  0  0  0
 16 39  1  0  0  0  0
 16 40  1  0  0  0  0
 17 41  1  0  0  0  0
 17 42  1  0  0  0  0
 17 43  1  0  0  0  0
 18 19  1  0  0  0  0
 18 44  1  0  0  0  0
 18 45  1  0  0  0  0
 19 46  1  0  0  0  0
 19 47  1  0  0  0  0
 20 21  2  0  0  0  0
 20 48  1  0  0  0  0
 21 22  1  0  0  0  0
 21 49  1  0  0  0  0
 22 23  2  0  0  0  0
M  CHG  1  14   1
M  END
> <s_m_source_file>
AV-unprocessed.smi

> <i_m_source_file_index>
555

> <i_lp_mmshare_version>
43012

> <i_f3d_flags>
0

> <s_epik_input>
W0NIM11PW0NIMl1bQ0gyXW4xbmMoW2NIXVtjSF1jMT1PKUMoPU8pW05IXVtDSF0yW0NIMl1bQ0gyXU4oW0NIXShbQ0gzXSlbQ0gzXSlbQ0gyXVtDSDJdMg==

> <s_epik_cmdline>
J2VwaWtfcHl0aG9uJywgJy1waCcsICc3LjAnLCAnLXRuJywgJzgnLCAnLW1hJywgJzIwMCcsICctbWV0YWxfYmluZGluZycsICctaW1hZScsICc8aW5maWxlLm1hZT4nLCAnLW9tYWUnLCAnPG91dGZpbGUubWFlPic=

> <r_lp_tautomer_probability>
1

> <r_epik_Ionization_Penalty>
0.00560205

> <r_epik_Ionization_Penalty_Charging>
0.00559911

> <r_epik_Ionization_Penalty_Neutral>
2.94673e-06

> <r_epik_State_Penalty>
0.00410202

> <r_epik_Charging_Adjusted_Penalty>
0.00970113

> <i_epik_Tot_Q>
1

> <i_epik_Tot_abs_Q>
1

> <r_epik_Metal_State_Penalty>
-0

> <b_epik_Metal_Only>
0

> <s_lp_Force_Field>
OPLS_2005

> <r_lp_Energy>
40.4253

> <b_lp_Chiralities_Consistent>
1

> <s_lp_Variant>
AV-unprocessed.smi:555-1

> <Gold.Version>
5.8.1

> <Gold.Id.Protein>
6NUR|6NUR_protein|mol2

> <Gold.PLP.Fitness>
46.8055

> <Gold.PLP.PLP>
-33.5061

> <Gold.PLP.part.hbond>
-4.9873

> <Gold.PLP.part.metal>
0.0000

> <Gold.PLP.part.buried>
0.7914

> <Gold.PLP.part.nonpolar>
-30.6274

> <Gold.PLP.part.repulsive>
0.1121

> <Gold.PLP.ligand.clash>
0.0000

> <Gold.PLP.ligand.torsion>
0.3806

> <Gold.PLP.Chemscore.Hbond>
4.6420

> <Gold.PLP.Chemscore.CHOScore>
0.0000

> <Gold.PLP.Chemscore.Metal>
0.0000

> <Gold.Chemscore.Hbonds>
donor molecule, donor type, donor heavy atom, donor atom, acceptor molecule, acceptor atom, score
      L1  H    10    31       P1  7948  1.00
      L1  H    14    50       P1 10747  1.00
      P1  H  7989  7998       L1    23  0.99
      P1  H  7997  8008       L1     2  1.00
      P1  H 10752 10764       L1     6  0.70

> <Gold.PLP.Chemscore.Internal.Correction>
0.1345

> <Gold.Rescore>
     Score         DG    S(hbond)    S(metal)    S(lipo)     H(rot)  DE(clash)    DE(int)     intcor
     19.28     -22.50       3.37        0.00      87.35       1.74       1.78       1.45       ----

> <Gold.Chemscore.Fitness>
19.2757

> <Gold.Chemscore.DG>
-22.5041

> <Gold.Chemscore.ZeroCoef>
-5.4800

> <Gold.Chemscore.Hbond>
3.3738

> <Gold.Chemscore.Metal>
0.0000

> <Gold.Chemscore.Lipo>
87.3499

> <Gold.Chemscore.Internal_Hbond>
0.0000

> <Gold.Chemscore.DEClash>
1.7772

> <Gold.Chemscore.DEInternal>
1.4513

> <Gold.Chemscore.Rot>
1.7438

> <Gold.Chemscore.Internal.Correction>
   9.000000E+99

> <Gold.Chemscore.Hbonds>
donor molecule, donor type, donor heavy atom, donor atom, acceptor molecule, acceptor atom, score
      L1  H    10    31       P1  7948  0.57
      L1  H    14    50       P1 10747  0.91
      P1  H  7989  7998       L1    23  0.93
      P1  H  7997  8008       L1     2  0.24
      P1  H 10752 10764       L1     6  0.05

> <Gold.Chemscore.Hbond.Weighted>
-11.2684

> <Gold.Chemscore.Metal.Weighted>
-0.0000

> <Gold.Chemscore.Lipo.Weighted>
-10.2199

> <Gold.Chemscore.Internal_Hbond.Weighted>
0.0000

> <Gold.Chemscore.DEClash.Weighted>
1.7772

> <Gold.Chemscore.DEInternal.Weighted>
1.4513

> <Gold.Chemscore.Rot.Weighted>
4.4642

> <Gold.Chemscore.Internal.Correction.Weighted>
   9.000000E+99

> <Gold.Protein.RotatedTorsions>
[ 6907 6896 6895 6894 ] final   42.14 input  -60.11 | X-H torsion
[ 7974 7965 7964 7962 ] final   -0.25 input  175.53 | X-H torsion
[ 8008 7997 7996 7995 ] final -111.55 input   59.86 | X-H torsion
[ 10167 10162 10161 10158 ] final  -56.32 input  -65.29 | X-H torsion
[ 10718 10713 10712 10709 ] final  -46.52 input   66.30 | X-H torsion
[ 10763 10752 10751 10750 ] final  -46.42 input  -60.55 | X-H torsion
[ 11005 11000 10999 10996 ] final  151.57 input  -57.11 | X-H torsion

> <Gold.Protein.ActiveResidues>
 VAL166  LYS551  ARG553  GLY616  TRP617  ASP618  TYR619  PRO620  LYS621  CYS622 
 ASP623  PHE694  ASN695  SER759  ASP760  ASP761  ALA762  ILE779  LEU786  VAL792 
 PHE793  MET794  SER795  GLU796  ALA797  LYS798  CYS799  TRP800  GLU811  SER814 

> <Gold.Protein.RotatedAtoms>
  152.2041  134.8561  160.0504 H   0  0  0  0  0  0  0  0  0  0  0  0  # atno 6907 bound_to 6896
  151.9404  133.3631  159.3971 H   0  0  0  0  0  0  0  0  0  0  0  0  # atno 6908 bound_to 6896
  150.6961  134.4369  159.5318 H   0  0  0  0  0  0  0  0  0  0  0  0  # atno 6909 bound_to 6896
  146.2429  140.1241  142.8339 H   0  0  0  0  0  0  0  0  0  0  0  0  # atno 7974 bound_to 7965
  154.9916  140.0395  157.2322 H   0  0  0  0  0  0  0  0  0  0  0  0  # atno 8008 bound_to 7997
  154.7623  140.2787  155.6181 H   0  0  0  0  0  0  0  0  0  0  0  0  # atno 8009 bound_to 7997
  156.2906  140.2626  156.2405 H   0  0  0  0  0  0  0  0  0  0  0  0  # atno 8010 bound_to 7997
  140.6324  143.2466  151.5206 H   0  0  0  0  0  0  0  0  0  0  0  0  # atno 10167 bound_to 10162
  156.2175  130.4164  149.9036 H   0  0  0  0  0  0  0  0  0  0  0  0  # atno 10718 bound_to 10713
  154.0447  135.6639  153.4794 H   0  0  0  0  0  0  0  0  0  0  0  0  # atno 10763 bound_to 10752
  153.0487  135.5098  154.7808 H   0  0  0  0  0  0  0  0  0  0  0  0  # atno 10764 bound_to 10752
  154.6796  135.3042  154.9598 H   0  0  0  0  0  0  0  0  0  0  0  0  # atno 10765 bound_to 10752
  140.1231  134.8851  157.2099 H   0  0  0  0  0  0  0  0  0  0  0  0  # atno 11005 bound_to 11000
  145.0381  140.8924  143.5069 LP  0  0  0  0  0  0  0  0  0  0  0  0  # atno 17320 bound_to 7965
  145.1317  139.2628  143.5536 LP  0  0  0  0  0  0  0  0  0  0  0  0  # atno 17321 bound_to 7965
  139.5537  144.2330  152.1575 LP  0  0  0  0  0  0  0  0  0  0  0  0  # atno 17342 bound_to 10162
  140.1577  144.5055  150.6650 LP  0  0  0  0  0  0  0  0  0  0  0  0  # atno 17343 bound_to 10162
  156.6693  130.8814  151.3560 LP  0  0  0  0  0  0  0  0  0  0  0  0  # atno 17370 bound_to 10713
  157.7070  130.9397  150.0964 LP  0  0  0  0  0  0  0  0  0  0  0  0  # atno 17371 bound_to 10713
  140.2940  134.3208  155.7307 LP  0  0  0  0  0  0  0  0  0  0  0  0  # atno 17394 bound_to 11000
  141.2155  133.7551  156.9544 LP  0  0  0  0  0  0  0  0  0  0  0  0  # atno 17395 bound_to 11000

$$$$
