AV-unprocessed.smi:992|AV-procd|sdf|4332|dock3
  -GOLD-   22720 2233D 1   1.00000     0.00000
 Structure written by MMmdl.
 33 34  0  0  0  0  0  0  0  0  2 V2000
  149.3867  129.8310  154.8266 C   0  0  0  0  0  0  0  0  0  0  0  0
  148.6246  129.3409  153.5911 C   0  0  2  0  0  0  0  0  0  0  0  0
  147.6561  130.4084  153.0514 C   0  0  0  0  0  0  0  0  0  0  0  0
  146.8813  129.8639  151.9457 N   0  0  0  0  0  0  0  0  0  0  0  0
  146.0808  130.8201  151.3074 C   0  0  0  0  0  0  0  0  0  0  0  0
  144.6692  130.8441  151.4003 C   0  0  0  0  0  0  0  0  0  0  0  0
  143.9490  131.8505  150.7238 C   0  0  0  0  0  0  0  0  0  0  0  0
  144.6510  132.8126  149.9675 C   0  0  0  0  0  0  0  0  0  0  0  0
  143.9654  133.8196  149.2909 N   0  0  0  0  0  0  0  0  0  0  0  0
  146.0579  132.7410  149.9067 C   0  0  0  0  0  0  0  0  0  0  0  0
  146.7106  131.7613  150.5694 N   0  3  0  0  0  0  0  0  0  0  0  0
  146.1495  128.6607  152.3200 C   0  0  0  0  0  0  0  0  0  0  0  0
  147.1030  127.6016  152.9086 C   0  0  1  0  0  0  0  0  0  0  0  0
  147.9760  126.9015  151.8519 C   0  0  0  0  0  0  0  0  0  0  0  0
  147.8857  128.1758  153.9591 O   0  0  0  0  0  0  0  0  0  0  0  0
  149.9753  130.7197  154.5975 H   0  0  0  0  0  0  0  0  0  0  0  0
  150.0710  129.0644  155.1913 H   0  0  0  0  0  0  0  0  0  0  0  0
  148.7038  130.0814  155.6390 H   0  0  0  0  0  0  0  0  0  0  0  0
  149.3549  129.0863  152.8227 H   0  0  0  0  0  0  0  0  0  0  0  0
  146.9842  130.7370  153.8455 H   0  0  0  0  0  0  0  0  0  0  0  0
  148.2126  131.2845  152.7157 H   0  0  0  0  0  0  0  0  0  0  0  0
  144.1402  130.1036  151.9821 H   0  0  0  0  0  0  0  0  0  0  0  0
  142.8709  131.8809  150.7876 H   0  0  0  0  0  0  0  0  0  0  0  0
  142.9579  133.8872  149.3233 H   0  0  0  0  0  0  0  0  0  0  0  0
  144.4475  134.4886  148.7074 H   0  0  0  0  0  0  0  0  0  0  0  0
  146.6790  133.4313  149.3540 H   0  0  0  0  0  0  0  0  0  0  0  0
  145.3931  128.9181  153.0628 H   0  0  0  0  0  0  0  0  0  0  0  0
  145.6214  128.2573  151.4547 H   0  0  0  0  0  0  0  0  0  0  0  0
  146.4916  126.8276  153.3733 H   0  0  0  0  0  0  0  0  0  0  0  0
  147.3562  126.3672  151.1315 H   0  0  0  0  0  0  0  0  0  0  0  0
  148.6397  126.1730  152.3182 H   0  0  0  0  0  0  0  0  0  0  0  0
  148.5919  127.6033  151.2904 H   0  0  0  0  0  0  0  0  0  0  0  0
  147.7287  131.7318  150.5107 H   0  0  0  0  0  0  0  0  0  0  0  0
  1  2  1  0  0  0  0
  1 16  1  0  0  0  0
  1 17  1  0  0  0  0
  1 18  1  0  0  0  0
  2 15  1  0  0  0  0
  2  3  1  0  0  0  0
  2 19  1  0  0  0  0
  3  4  1  0  0  0  0
  3 20  1  0  0  0  0
  3 21  1  0  0  0  0
  4  5  1  0  0  0  0
  4 12  1  0  0  0  0
  5 11  1  0  0  0  0
  5  6  2  0  0  0  0
  6  7  1  0  0  0  0
  6 22  1  0  0  0  0
  7  8  2  0  0  0  0
  7 23  1  0  0  0  0
  8  9  1  0  0  0  0
  8 10  1  0  0  0  0
  9 24  1  0  0  0  0
  9 25  1  0  0  0  0
 10 11  2  0  0  0  0
 10 26  1  0  0  0  0
 11 33  1  0  0  0  0
 12 13  1  0  0  0  0
 12 27  1  0  0  0  0
 12 28  1  0  0  0  0
 13 14  1  0  0  0  0
 13 15  1  0  0  0  0
 13 29  1  0  0  0  0
 14 30  1  0  0  0  0
 14 31  1  0  0  0  0
 14 32  1  0  0  0  0
M  CHG  1  11   1
M  END
> <s_m_source_file>
AV-unprocessed.smi

> <i_m_source_file_index>
992

> <i_lp_mmshare_version>
43012

> <i_f3d_flags>
0

> <s_epik_input>
W0NIM11bQ0BASF0xW0NIMl1OKFtDSDJdW0NASF0oTzEpW0NIM10pYzJbY0hdW2NIXWMoW05IMl0pW2NIXW4y

> <s_epik_cmdline>
J2VwaWtfcHl0aG9uJywgJy1waCcsICc3LjAnLCAnLXRuJywgJzgnLCAnLW1hJywgJzIwMCcsICctbWV0YWxfYmluZGluZycsICctaW1hZScsICc8aW5maWxlLm1hZT4nLCAnLW9tYWUnLCAnPG91dGZpbGUubWFlPic=

> <r_lp_tautomer_probability>
0.999846

> <r_epik_Ionization_Penalty>
2.28753

> <r_epik_Ionization_Penalty_Charging>
2.28753

> <r_epik_Ionization_Penalty_Neutral>
1.09395e-07

> <r_epik_State_Penalty>
2.43729

> <r_epik_Charging_Adjusted_Penalty>
4.72482

> <i_epik_Tot_Q>
1

> <i_epik_Tot_abs_Q>
1

> <r_epik_Metal_State_Penalty>
6.52028

> <b_epik_Metal_Only>
0

> <s_lp_Force_Field>
OPLS_2005

> <r_lp_Energy>
28.0969

> <b_lp_Chiralities_Consistent>
1

> <s_lp_Variant>
AV-unprocessed.smi:992-4

> <Gold.Version>
5.8.1

> <Gold.Id.Protein>
6NUR|6NUR_protein|mol2

> <Gold.PLP.Fitness>
35.1054

> <Gold.PLP.PLP>
-27.2497

> <Gold.PLP.part.hbond>
-2.7366

> <Gold.PLP.part.metal>
0.0000

> <Gold.PLP.part.buried>
-2.1666

> <Gold.PLP.part.nonpolar>
-23.4798

> <Gold.PLP.part.repulsive>
2.1682

> <Gold.PLP.ligand.clash>
0.0000

> <Gold.PLP.ligand.torsion>
0.3770

> <Gold.PLP.Chemscore.Hbond>
2.8400

> <Gold.PLP.Chemscore.CHOScore>
0.0000

> <Gold.PLP.Chemscore.Metal>
0.0000

> <Gold.Chemscore.Hbonds>
donor molecule, donor type, donor heavy atom, donor atom, acceptor molecule, acceptor atom, score
      L1  H     9    24       P1 10186  1.00
      L1  H     9    25       P1  7921  0.90
      L1  H    11    33       P1 10747  0.93

> <Gold.PLP.Chemscore.Internal.Correction>
0.0897

> <Gold.Rescore>
     Score         DG    S(hbond)    S(metal)    S(lipo)     H(rot)  DE(clash)    DE(int)     intcor
     20.61     -21.16       2.73        0.00      78.12       1.00       0.16       0.39       ----

> <Gold.Chemscore.Fitness>
20.6123

> <Gold.Chemscore.DG>
-21.1626

> <Gold.Chemscore.ZeroCoef>
-5.4800

> <Gold.Chemscore.Hbond>
2.7252

> <Gold.Chemscore.Metal>
0.0000

> <Gold.Chemscore.Lipo>
78.1229

> <Gold.Chemscore.Internal_Hbond>
0.0000

> <Gold.Chemscore.DEClash>
0.1561

> <Gold.Chemscore.DEInternal>
0.3942

> <Gold.Chemscore.Rot>
1.0000

> <Gold.Chemscore.Internal.Correction>
   9.000000E+99

> <Gold.Chemscore.Hbonds>
donor molecule, donor type, donor heavy atom, donor atom, acceptor molecule, acceptor atom, score
      L1  H     9    24       P1 10186  0.93
      L1  H     9    25       P1  7921  0.82
      L1  H    11    33       P1 10747  0.85

> <Gold.Chemscore.Hbond.Weighted>
-9.1022

> <Gold.Chemscore.Metal.Weighted>
-0.0000

> <Gold.Chemscore.Lipo.Weighted>
-9.1404

> <Gold.Chemscore.Internal_Hbond.Weighted>
0.0000

> <Gold.Chemscore.DEClash.Weighted>
0.1561

> <Gold.Chemscore.DEInternal.Weighted>
0.3942

> <Gold.Chemscore.Rot.Weighted>
2.5600

> <Gold.Chemscore.Internal.Correction.Weighted>
   9.000000E+99

> <Gold.Protein.RotatedTorsions>
[ 6907 6896 6895 6894 ] final   86.99 input  -60.11 | X-H torsion
[ 7974 7965 7964 7962 ] final  -11.06 input  175.53 | X-H torsion
[ 8008 7997 7996 7995 ] final   19.42 input   59.86 | X-H torsion
[ 10167 10162 10161 10158 ] final -156.02 input  -65.29 | X-H torsion
[ 10718 10713 10712 10709 ] final  178.16 input   66.30 | X-H torsion
[ 10763 10752 10751 10750 ] final  -28.23 input  -60.55 | X-H torsion
[ 11005 11000 10999 10996 ] final  -76.88 input  -57.11 | X-H torsion

> <Gold.Protein.ActiveResidues>
 VAL166  LYS551  ARG553  GLY616  TRP617  ASP618  TYR619  PRO620  LYS621  CYS622 
 ASP623  PHE694  ASN695  SER759  ASP760  ASP761  ALA762  ILE779  LEU786  VAL792 
 PHE793  MET794  SER795  GLU796  ALA797  LYS798  CYS799  TRP800  GLU811  SER814 

> <Gold.Protein.RotatedAtoms>
  152.5404  134.2346  159.8837 H   0  0  0  0  0  0  0  0  0  0  0  0  # atno 6907 bound_to 6896
  151.2316  133.4440  159.2611 H   0  0  0  0  0  0  0  0  0  0  0  0  # atno 6908 bound_to 6896
  151.0710  134.9812  159.8364 H   0  0  0  0  0  0  0  0  0  0  0  0  # atno 6909 bound_to 6896
  146.2200  140.2856  142.8365 H   0  0  0  0  0  0  0  0  0  0  0  0  # atno 7974 bound_to 7965
  154.9205  140.3026  155.5219 H   0  0  0  0  0  0  0  0  0  0  0  0  # atno 8008 bound_to 7997
  156.3010  140.2372  156.4191 H   0  0  0  0  0  0  0  0  0  0  0  0  # atno 8009 bound_to 7997
  154.8335  140.0417  157.1482 H   0  0  0  0  0  0  0  0  0  0  0  0  # atno 8010 bound_to 7997
  139.6884  143.9462  152.2372 H   0  0  0  0  0  0  0  0  0  0  0  0  # atno 10167 bound_to 10162
  156.8947  130.9859  151.3044 H   0  0  0  0  0  0  0  0  0  0  0  0  # atno 10718 bound_to 10713
  153.7450  135.6930  153.4958 H   0  0  0  0  0  0  0  0  0  0  0  0  # atno 10763 bound_to 10752
  153.2043  135.4425  155.0302 H   0  0  0  0  0  0  0  0  0  0  0  0  # atno 10764 bound_to 10752
  154.8207  135.3421  154.6974 H   0  0  0  0  0  0  0  0  0  0  0  0  # atno 10765 bound_to 10752
  141.1657  133.7000  156.7736 H   0  0  0  0  0  0  0  0  0  0  0  0  # atno 11005 bound_to 11000
  144.9165  140.7818  143.5775 LP  0  0  0  0  0  0  0  0  0  0  0  0  # atno 17320 bound_to 7965
  145.2790  139.1925  143.4801 LP  0  0  0  0  0  0  0  0  0  0  0  0  # atno 17321 bound_to 7965
  139.9272  144.6764  150.8400 LP  0  0  0  0  0  0  0  0  0  0  0  0  # atno 17342 bound_to 10162
  140.7675  143.3334  151.2361 LP  0  0  0  0  0  0  0  0  0  0  0  0  # atno 17343 bound_to 10162
  157.6062  130.8549  149.8879 LP  0  0  0  0  0  0  0  0  0  0  0  0  # atno 17370 bound_to 10713
  156.0611  130.3699  150.0980 LP  0  0  0  0  0  0  0  0  0  0  0  0  # atno 17371 bound_to 10713
  140.2446  134.8587  157.3607 LP  0  0  0  0  0  0  0  0  0  0  0  0  # atno 17394 bound_to 11000
  140.1762  134.4547  155.7800 LP  0  0  0  0  0  0  0  0  0  0  0  0  # atno 17395 bound_to 11000

$$$$
