AV-unprocessed.smi:49|AV-procd|sdf|481|dock5
  -GOLD-   2262016343D 1   1.00000     0.00000
 Structure written by MMmdl.
 28 29  0  0  0  0  0  0  0  0  2 V2000
  152.1188  145.2963  159.9656 C   0  0  0  0  0  0  0  0  0  0  0  0
  151.2591  145.0897  158.7140 C   0  0  0  0  0  0  0  0  0  0  0  0
  150.8659  143.6623  158.5167 C   0  0  0  0  0  0  0  0  0  0  0  0
  150.1331  143.2656  157.4664 N   0  0  0  0  0  0  0  0  0  0  0  0
  149.9918  141.9485  157.6762 C   0  0  0  0  0  0  0  0  0  0  0  0
  149.2148  141.0841  156.7283 C   0  0  2  0  0  0  0  0  0  0  0  0
  150.0550  140.0931  155.9195 C   0  0  0  0  0  0  0  0  0  0  0  0
  149.2683  139.9925  154.6161 C   0  0  2  0  0  0  0  0  0  0  0  0
  150.0707  139.5458  153.5438 O   0  0  0  0  0  0  0  0  0  0  0  0
  148.7597  141.4229  154.4018 C   0  0  0  0  0  0  0  0  0  0  0  0
  148.6146  142.0136  155.7477 N   0  3  0  0  0  0  0  0  0  0  0  0
  150.5922  141.5337  158.7989 N   0  0  0  0  0  0  0  0  0  0  0  0
  151.1679  142.6640  159.3519 N   0  0  0  0  0  0  0  0  0  0  0  0
  148.4114  140.5657  157.2539 H   0  0  0  0  0  0  0  0  0  0  0  0
  148.4234  139.3147  154.7468 H   0  0  0  0  0  0  0  0  0  0  0  0
  149.7730  143.8262  156.7074 H   0  0  0  0  0  0  0  0  0  0  0  0
  152.3896  146.3458  160.0819 H   0  0  0  0  0  0  0  0  0  0  0  0
  153.0419  144.7188  159.9082 H   0  0  0  0  0  0  0  0  0  0  0  0
  151.5855  144.9877  160.8649 H   0  0  0  0  0  0  0  0  0  0  0  0
  150.3592  145.7026  158.7760 H   0  0  0  0  0  0  0  0  0  0  0  0
  151.8040  145.4267  157.8314 H   0  0  0  0  0  0  0  0  0  0  0  0
  151.0410  140.5158  155.7175 H   0  0  0  0  0  0  0  0  0  0  0  0
  150.1962  139.1370  156.4244 H   0  0  0  0  0  0  0  0  0  0  0  0
  149.6075  139.6966  152.7334 H   0  0  0  0  0  0  0  0  0  0  0  0
  149.4953  142.0165  153.8569 H   0  0  0  0  0  0  0  0  0  0  0  0
  147.8228  141.4541  153.8449 H   0  0  0  0  0  0  0  0  0  0  0  0
  147.6411  142.1648  155.9699 H   0  0  0  0  0  0  0  0  0  0  0  0
  149.1118  142.8931  155.7740 H   0  0  0  0  0  0  0  0  0  0  0  0
  1  2  1  0  0  0  0
  1 17  1  0  0  0  0
  1 18  1  0  0  0  0
  1 19  1  0  0  0  0
  2 20  1  0  0  0  0
  2 21  1  0  0  0  0
  2  3  1  0  0  0  0
  3  4  1  0  0  0  0
  3 13  2  0  0  0  0
  4 16  1  0  0  0  0
  4  5  1  0  0  0  0
  5 12  2  0  0  0  0
  5  6  1  0  0  0  0
  6 14  1  0  0  0  0
  6 11  1  0  0  0  0
  6  7  1  0  0  0  0
  7  8  1  0  0  0  0
  7 22  1  0  0  0  0
  7 23  1  0  0  0  0
  8 15  1  0  0  0  0
  8  9  1  0  0  0  0
  8 10  1  0  0  0  0
  9 24  1  0  0  0  0
 10 11  1  0  0  0  0
 10 25  1  0  0  0  0
 10 26  1  0  0  0  0
 11 27  1  0  0  0  0
 11 28  1  0  0  0  0
 12 13  1  0  0  0  0
M  CHG  1  11   1
M  END
> <s_m_source_file>
AV-unprocessed.smi

> <i_m_source_file_index>
49

> <i_lp_mmshare_version>
43012

> <i_f3d_flags>
0

> <s_epik_input>
W0NIM11bQ0gyXWMxbmMobltuSF0xKVtDQEBIXTJbQ0gyXVtDQEBIXShbT0hdKVtDSDJdW05IXTI=

> <s_epik_cmdline>
J2VwaWtfcHl0aG9uJywgJy1waCcsICc3LjAnLCAnLXRuJywgJzgnLCAnLW1hJywgJzIwMCcsICctbWV0YWxfYmluZGluZycsICctaW1hZScsICc8aW5maWxlLm1hZT4nLCAnLW9tYWUnLCAnPG91dGZpbGUubWFlPic=

> <r_lp_tautomer_probability>
0.0517155

> <r_epik_Ionization_Penalty>
0.939819

> <r_epik_Ionization_Penalty_Charging>
0.0688988

> <r_epik_Ionization_Penalty_Neutral>
0.87092

> <r_epik_State_Penalty>
2.1224

> <r_epik_Charging_Adjusted_Penalty>
2.1913

> <i_epik_Tot_Q>
1

> <i_epik_Tot_abs_Q>
1

> <r_epik_Metal_State_Penalty>
2.39725

> <b_epik_Metal_Only>
0

> <s_lp_Force_Field>
OPLS_2005

> <r_lp_Energy>
21.0752

> <b_lp_Chiralities_Consistent>
1

> <s_lp_Variant>
AV-unprocessed.smi:49-19

> <Gold.Version>
5.8.1

> <Gold.Id.Protein>
6NUR|6NUR_protein|mol2

> <Gold.PLP.Fitness>
39.5704

> <Gold.PLP.PLP>
-25.5603

> <Gold.PLP.part.hbond>
-4.5666

> <Gold.PLP.part.metal>
0.0000

> <Gold.PLP.part.buried>
-3.9801

> <Gold.PLP.part.nonpolar>
-17.3858

> <Gold.PLP.part.repulsive>
0.1152

> <Gold.PLP.ligand.clash>
0.0000

> <Gold.PLP.ligand.torsion>
0.1295

> <Gold.PLP.Chemscore.Hbond>
4.7520

> <Gold.PLP.Chemscore.CHOScore>
0.0000

> <Gold.PLP.Chemscore.Metal>
0.0000

> <Gold.Chemscore.Hbonds>
donor molecule, donor type, donor heavy atom, donor atom, acceptor molecule, acceptor atom, score
      L1  H     4    16       P1  8028  1.00
      L1  H     9    24       P1  7957  1.00
      L1  H    11    28       P1  8028  1.70
      P1  H  7989  7998       L1     9  0.80

> <Gold.PLP.Chemscore.Internal.Correction>
0.0131

> <Gold.Rescore>
     Score         DG    S(hbond)    S(metal)    S(lipo)     H(rot)  DE(clash)    DE(int)     intcor
     16.16     -16.43       3.08        0.00      46.96       1.89       0.05       0.23       ----

> <Gold.Chemscore.Fitness>
16.1561

> <Gold.Chemscore.DG>
-16.4346

> <Gold.Chemscore.ZeroCoef>
-5.4800

> <Gold.Chemscore.Hbond>
3.0822

> <Gold.Chemscore.Metal>
0.0000

> <Gold.Chemscore.Lipo>
46.9573

> <Gold.Chemscore.Internal_Hbond>
0.0000

> <Gold.Chemscore.DEClash>
0.0494

> <Gold.Chemscore.DEInternal>
0.2291

> <Gold.Chemscore.Rot>
1.8883

> <Gold.Chemscore.Internal.Correction>
   9.000000E+99

> <Gold.Chemscore.Hbonds>
donor molecule, donor type, donor heavy atom, donor atom, acceptor molecule, acceptor atom, score
      L1  H     4    16       P1  8028  0.99
      L1  H     9    24       P1  7957  0.93
      L1  H    11    28       P1  8028  0.85
      P1  H  7989  7998       L1     9  0.15

> <Gold.Chemscore.Hbond.Weighted>
-10.2946

> <Gold.Chemscore.Metal.Weighted>
-0.0000

> <Gold.Chemscore.Lipo.Weighted>
-5.4940

> <Gold.Chemscore.Internal_Hbond.Weighted>
0.0000

> <Gold.Chemscore.DEClash.Weighted>
0.0494

> <Gold.Chemscore.DEInternal.Weighted>
0.2291

> <Gold.Chemscore.Rot.Weighted>
4.8340

> <Gold.Chemscore.Internal.Correction.Weighted>
   9.000000E+99

> <Gold.Protein.RotatedTorsions>
[ 6907 6896 6895 6894 ] final   73.79 input  -60.11 | X-H torsion
[ 7974 7965 7964 7962 ] final   -0.89 input  175.53 | X-H torsion
[ 8008 7997 7996 7995 ] final -108.37 input   59.86 | X-H torsion
[ 10167 10162 10161 10158 ] final   -9.63 input  -65.29 | X-H torsion
[ 10718 10713 10712 10709 ] final  117.54 input   66.30 | X-H torsion
[ 10763 10752 10751 10750 ] final  170.98 input  -60.55 | X-H torsion
[ 11005 11000 10999 10996 ] final  111.96 input  -57.11 | X-H torsion

> <Gold.Protein.ActiveResidues>
 VAL166  LYS551  ARG553  GLY616  TRP617  ASP618  TYR619  PRO620  LYS621  CYS622 
 ASP623  PHE694  ASN695  SER759  ASP760  ASP761  ALA762  ILE779  LEU786  VAL792 
 PHE793  MET794  SER795  GLU796  ALA797  LYS798  CYS799  TRP800  GLU811  SER814 

> <Gold.Protein.RotatedAtoms>
  152.4942  134.4369  159.9530 H   0  0  0  0  0  0  0  0  0  0  0  0  # atno 6907 bound_to 6896
  151.4350  133.3653  159.2782 H   0  0  0  0  0  0  0  0  0  0  0  0  # atno 6908 bound_to 6896
  150.9127  134.8568  159.7496 H   0  0  0  0  0  0  0  0  0  0  0  0  # atno 6909 bound_to 6896
  146.2423  140.1338  142.8337 H   0  0  0  0  0  0  0  0  0  0  0  0  # atno 7974 bound_to 7965
  154.9433  140.0402  157.2108 H   0  0  0  0  0  0  0  0  0  0  0  0  # atno 8008 bound_to 7997
  154.8048  140.2858  155.5874 H   0  0  0  0  0  0  0  0  0  0  0  0  # atno 8009 bound_to 7997
  156.2965  140.2548  156.2923 H   0  0  0  0  0  0  0  0  0  0  0  0  # atno 8010 bound_to 7997
  140.7092  143.5836  150.8966 H   0  0  0  0  0  0  0  0  0  0  0  0  # atno 10167 bound_to 10162
  157.6090  131.1038  150.7629 H   0  0  0  0  0  0  0  0  0  0  0  0  # atno 10718 bound_to 10713
  154.4054  135.2755  155.2070 H   0  0  0  0  0  0  0  0  0  0  0  0  # atno 10763 bound_to 10752
  154.4079  135.6029  153.5939 H   0  0  0  0  0  0  0  0  0  0  0  0  # atno 10764 bound_to 10752
  152.9831  135.5942  154.4327 H   0  0  0  0  0  0  0  0  0  0  0  0  # atno 10765 bound_to 10752
  139.8916  134.9519  156.6513 H   0  0  0  0  0  0  0  0  0  0  0  0  # atno 11005 bound_to 11000
  145.0304  140.8866  143.5113 LP  0  0  0  0  0  0  0  0  0  0  0  0  # atno 17320 bound_to 7965
  145.1401  139.2577  143.5494 LP  0  0  0  0  0  0  0  0  0  0  0  0  # atno 17321 bound_to 7965
  139.9562  143.6216  152.3015 LP  0  0  0  0  0  0  0  0  0  0  0  0  # atno 17342 bound_to 10162
  139.6752  144.7659  151.1709 LP  0  0  0  0  0  0  0  0  0  0  0  0  # atno 17343 bound_to 10162
  156.8011  130.4921  149.5369 LP  0  0  0  0  0  0  0  0  0  0  0  0  # atno 17370 bound_to 10713
  156.1185  130.6093  151.0158 LP  0  0  0  0  0  0  0  0  0  0  0  0  # atno 17371 bound_to 10713
  140.7518  133.8890  155.8353 LP  0  0  0  0  0  0  0  0  0  0  0  0  # atno 17394 bound_to 11000
  140.9994  134.1171  157.4332 LP  0  0  0  0  0  0  0  0  0  0  0  0  # atno 17395 bound_to 11000

$$$$
