AV-unprocessed.smi:160|AV-procd|sdf|1348|dock4
  -GOLD-   2262019 53D 1   1.00000     0.00000
 Structure written by MMmdl.
 29 30  0  0  0  0  0  0  0  0  1 V2000
  149.4070  135.1325  154.8048 N   0  0  0  0  0  0  0  0  0  0  0  0
  150.3735  135.0878  155.7275 C   0  0  0  0  0  0  0  0  0  0  0  0
  150.6246  134.0696  156.3703 O   0  0  0  0  0  0  0  0  0  0  0  0
  151.1523  136.3576  155.9339 C   0  0  0  0  0  0  0  0  0  0  0  0
  152.3302  136.3596  156.6257 N   0  0  0  0  0  0  0  0  0  0  0  0
  152.6207  137.6512  156.5385 C   0  0  0  0  0  0  0  0  0  0  0  0
  151.7153  138.3731  155.8703 N   0  0  0  0  0  0  0  0  0  0  0  0
  151.6952  139.8425  155.5692 C   0  0  1  0  0  0  0  0  0  0  0  0
  150.6333  140.1014  154.6998 O   0  0  0  0  0  0  0  0  0  0  0  0
  149.5503  140.6767  155.4231 C   0  0  2  0  0  0  0  0  0  0  0  0
  148.5745  141.4073  154.4842 C   0  0  0  0  0  0  0  0  0  0  0  0
  147.9164  140.4760  153.6520 O   0  0  0  0  0  0  0  0  0  0  0  0
  150.2712  141.5586  156.4520 C   0  0  2  0  0  0  0  0  0  0  0  0
  150.6701  142.7898  155.8761 O   0  0  0  0  0  0  0  0  0  0  0  0
  151.4943  140.7270  156.8245 C   0  0  1  0  0  0  0  0  0  0  0  0
  151.2483  140.0038  158.0184 O   0  0  0  0  0  0  0  0  0  0  0  0
  150.7315  137.5321  155.4620 N   0  0  0  0  0  0  0  0  0  0  0  0
  152.6420  140.0266  155.0601 H   0  0  0  0  0  0  0  0  0  0  0  0
  149.0212  139.8905  155.9647 H   0  0  0  0  0  0  0  0  0  0  0  0
  149.6360  141.7803  157.3111 H   0  0  0  0  0  0  0  0  0  0  0  0
  152.3793  141.3463  156.9785 H   0  0  0  0  0  0  0  0  0  0  0  0
  148.8505  134.3114  154.6175 H   0  0  0  0  0  0  0  0  0  0  0  0
  149.2427  135.9904  154.2980 H   0  0  0  0  0  0  0  0  0  0  0  0
  153.5110  138.0812  156.9734 H   0  0  0  0  0  0  0  0  0  0  0  0
  147.8087  141.9218  155.0656 H   0  0  0  0  0  0  0  0  0  0  0  0
  149.0862  142.1576  153.8808 H   0  0  0  0  0  0  0  0  0  0  0  0
  148.5549  140.0798  153.0790 H   0  0  0  0  0  0  0  0  0  0  0  0
  149.9946  143.4305  156.0379 H   0  0  0  0  0  0  0  0  0  0  0  0
  151.5740  140.5075  158.7485 H   0  0  0  0  0  0  0  0  0  0  0  0
  1  2  1  0  0  0  0
  1 22  1  0  0  0  0
  1 23  1  0  0  0  0
  2  3  2  0  0  0  0
  2  4  1  0  0  0  0
  4 17  2  0  0  0  0
  4  5  1  0  0  0  0
  5  6  2  0  0  0  0
  6  7  1  0  0  0  0
  6 24  1  0  0  0  0
  7  8  1  0  0  0  0
  7 17  1  0  0  0  0
  8 18  1  0  0  0  0
  8 15  1  0  0  0  0
  8  9  1  0  0  0  0
  9 10  1  0  0  0  0
 10 19  1  0  0  0  0
 10 11  1  0  0  0  0
 10 13  1  0  0  0  0
 11 12  1  0  0  0  0
 11 25  1  0  0  0  0
 11 26  1  0  0  0  0
 12 27  1  0  0  0  0
 13 20  1  0  0  0  0
 13 14  1  0  0  0  0
 13 15  1  0  0  0  0
 14 28  1  0  0  0  0
 15 21  1  0  0  0  0
 15 16  1  0  0  0  0
 16 29  1  0  0  0  0
M  END
> <s_m_source_file>
AV-unprocessed.smi

> <i_m_source_file_index>
160

> <i_lp_mmshare_version>
43012

> <i_f3d_flags>
0

> <s_epik_input>
W05IMl1DKD1PKWMxbltjSF1uKG4xKVtDQEBIXTJPW0NASF0oW0NIMl1bT0hdKVtDQEBIXShbT0hdKVtDQEhdMltPSF0=

> <s_epik_cmdline>
J2VwaWtfcHl0aG9uJywgJy1waCcsICc3LjAnLCAnLXRuJywgJzgnLCAnLW1hJywgJzIwMCcsICctbWV0YWxfYmluZGluZycsICctaW1hZScsICc8aW5maWxlLm1hZT4nLCAnLW9tYWUnLCAnPG91dGZpbGUubWFlPic=

> <r_lp_tautomer_probability>
1

> <r_epik_Ionization_Penalty>
1.06932e-05

> <r_epik_Ionization_Penalty_Charging>
0

> <r_epik_Ionization_Penalty_Neutral>
1.06932e-05

> <r_epik_State_Penalty>
-0

> <r_epik_Charging_Adjusted_Penalty>
0

> <i_epik_Tot_Q>
0

> <i_epik_Tot_abs_Q>
0

> <r_epik_Metal_State_Penalty>
0.0142097

> <b_epik_Metal_Only>
0

> <s_epik_Chemistry_Notes>
This compound contains an acetal/aminal-like group ( X-CH(R)-Y where X, Y are N, S, or O) that may be acid/base labile, releasing an aldehyde.

> <s_lp_Force_Field>
OPLS_2005

> <r_lp_Energy>
42.6819

> <b_lp_Chiralities_Consistent>
1

> <s_lp_Variant>
AV-unprocessed.smi:160-6

> <Gold.Version>
5.8.1

> <Gold.Id.Protein>
6NUR|6NUR_protein|mol2

> <Gold.PLP.Fitness>
37.6538

> <Gold.PLP.PLP>
-24.9599

> <Gold.PLP.part.hbond>
-5.0000

> <Gold.PLP.part.metal>
0.0000

> <Gold.PLP.part.buried>
-3.1222

> <Gold.PLP.part.nonpolar>
-16.5708

> <Gold.PLP.part.repulsive>
0.2117

> <Gold.PLP.ligand.clash>
0.0000

> <Gold.PLP.ligand.torsion>
0.2216

> <Gold.PLP.Chemscore.Hbond>
4.3770

> <Gold.PLP.Chemscore.CHOScore>
0.0000

> <Gold.PLP.Chemscore.Metal>
0.0000

> <Gold.Chemscore.Hbonds>
donor molecule, donor type, donor heavy atom, donor atom, acceptor molecule, acceptor atom, score
      L1  H    12    27       P1  7957  0.61
      L1  H    14    28       P1  8028  1.00
      P1  H  7989  7998       L1     9  0.75
      P1  H 10752 10763       L1     5  0.90

> <Gold.PLP.Chemscore.Internal.Correction>
0.0061

> <Gold.Rescore>
     Score         DG    S(hbond)    S(metal)    S(lipo)     H(rot)  DE(clash)    DE(int)     intcor
      7.64      -8.18       2.97        0.00      27.06       4.06       0.30       0.24       ----

> <Gold.Chemscore.Fitness>
7.6406

> <Gold.Chemscore.DG>
-8.1781

> <Gold.Chemscore.ZeroCoef>
-5.4800

> <Gold.Chemscore.Hbond>
2.9719

> <Gold.Chemscore.Metal>
0.0000

> <Gold.Chemscore.Lipo>
27.0573

> <Gold.Chemscore.Internal_Hbond>
0.0000

> <Gold.Chemscore.DEClash>
0.2969

> <Gold.Chemscore.DEInternal>
0.2406

> <Gold.Chemscore.Rot>
4.0600

> <Gold.Chemscore.Internal.Correction>
   9.000000E+99

> <Gold.Chemscore.Hbonds>
donor molecule, donor type, donor heavy atom, donor atom, acceptor molecule, acceptor atom, score
      L1  H     1    23       P1  7948  0.03
      L1  H    12    27       P1  7957  0.56
      L1  H    14    28       P1  8028  0.99
      P1  H  7989  7998       L1     9  0.09
      P1  H 10752 10763       L1     5  0.11

> <Gold.Chemscore.Hbond.Weighted>
-9.9260

> <Gold.Chemscore.Metal.Weighted>
-0.0000

> <Gold.Chemscore.Lipo.Weighted>
-3.1657

> <Gold.Chemscore.Internal_Hbond.Weighted>
0.0000

> <Gold.Chemscore.DEClash.Weighted>
0.2969

> <Gold.Chemscore.DEInternal.Weighted>
0.2406

> <Gold.Chemscore.Rot.Weighted>
10.3936

> <Gold.Chemscore.Internal.Correction.Weighted>
   9.000000E+99

> <Gold.Protein.RotatedTorsions>
[ 6907 6896 6895 6894 ] final  145.20 input  -60.11 | X-H torsion
[ 7974 7965 7964 7962 ] final  137.93 input  175.53 | X-H torsion
[ 8008 7997 7996 7995 ] final  154.48 input   59.86 | X-H torsion
[ 10167 10162 10161 10158 ] final -176.13 input  -65.29 | X-H torsion
[ 10718 10713 10712 10709 ] final  -72.76 input   66.30 | X-H torsion
[ 10763 10752 10751 10750 ] final  112.39 input  -60.55 | X-H torsion
[ 11005 11000 10999 10996 ] final  147.84 input  -57.11 | X-H torsion

> <Gold.Protein.ActiveResidues>
 VAL166  LYS551  ARG553  GLY616  TRP617  ASP618  TYR619  PRO620  LYS621  CYS622 
 ASP623  PHE694  ASN695  SER759  ASP760  ASP761  ALA762  ILE779  LEU786  VAL792 
 PHE793  MET794  SER795  GLU796  ALA797  LYS798  CYS799  TRP800  GLU811  SER814 

> <Gold.Protein.RotatedAtoms>
  152.1839  133.4726  159.4972 H   0  0  0  0  0  0  0  0  0  0  0  0  # atno 6907 bound_to 6896
  150.6939  134.1799  159.4253 H   0  0  0  0  0  0  0  0  0  0  0  0  # atno 6908 bound_to 6896
  151.9711  135.0076  160.0603 H   0  0  0  0  0  0  0  0  0  0  0  0  # atno 6909 bound_to 6896
  144.9421  139.4919  143.5567 H   0  0  0  0  0  0  0  0  0  0  0  0  # atno 7974 bound_to 7965
  156.2529  140.1965  156.6652 H   0  0  0  0  0  0  0  0  0  0  0  0  # atno 8008 bound_to 7997
  154.6434  140.0581  156.9898 H   0  0  0  0  0  0  0  0  0  0  0  0  # atno 8009 bound_to 7997
  155.1528  140.3253  155.4430 H   0  0  0  0  0  0  0  0  0  0  0  0  # atno 8010 bound_to 7997
  139.5545  144.2024  152.1136 H   0  0  0  0  0  0  0  0  0  0  0  0  # atno 10167 bound_to 10162
  156.0307  130.4379  150.2641 H   0  0  0  0  0  0  0  0  0  0  0  0  # atno 10718 bound_to 10713
  153.4771  135.3688  155.2422 H   0  0  0  0  0  0  0  0  0  0  0  0  # atno 10763 bound_to 10752
  154.8756  135.3945  154.3744 H   0  0  0  0  0  0  0  0  0  0  0  0  # atno 10764 bound_to 10752
  153.4341  135.7083  153.6276 H   0  0  0  0  0  0  0  0  0  0  0  0  # atno 10765 bound_to 10752
  140.0909  134.9041  157.1649 H   0  0  0  0  0  0  0  0  0  0  0  0  # atno 11005 bound_to 11000
  146.3289  139.8447  142.8884 LP  0  0  0  0  0  0  0  0  0  0  0  0  # atno 17320 bound_to 7965
  145.2975  141.0185  143.3628 LP  0  0  0  0  0  0  0  0  0  0  0  0  # atno 17321 bound_to 7965
  140.1525  144.5101  150.6679 LP  0  0  0  0  0  0  0  0  0  0  0  0  # atno 17342 bound_to 10162
  140.6815  143.2329  151.5371 LP  0  0  0  0  0  0  0  0  0  0  0  0  # atno 17343 bound_to 10162
  157.0743  131.0125  151.3179 LP  0  0  0  0  0  0  0  0  0  0  0  0  # atno 17370 bound_to 10713
  157.4975  130.7860  149.7570 LP  0  0  0  0  0  0  0  0  0  0  0  0  # atno 17371 bound_to 10713
  140.3353  134.2764  155.7221 LP  0  0  0  0  0  0  0  0  0  0  0  0  # atno 17394 bound_to 11000
  141.2077  133.7797  157.0100 LP  0  0  0  0  0  0  0  0  0  0  0  0  # atno 17395 bound_to 11000

$$$$
