#       Name:                AV-unprocessed.smi:1987
#       Creating user name   scv26
#       Creation time:       Fri Mar 27 10:26:01 2020


#       File generated by GOLD software.
#

@<TRIPOS>MOLECULE
AV-unprocessed.smi:1987
    42    44     1
SMALL
NO_CHARGES


@<TRIPOS>ATOM
      1 ****        -1.6420   2.1936  -2.1716 O.2            1 S1                 0.0000
      2 ****        -2.3339   1.2016  -1.9450 C.2            1 S1                 0.0000
      3 ****        -3.8250   1.3579  -1.6501 C.3            1 S1                 0.0000
      4 ****        -4.0736   1.2298  -0.2264 N.pl3          1 S1                 0.0000
      5 ****        -4.0214   2.1305   0.7573 C.2            1 S1                 0.0000
      6 ****        -4.2882   1.5844   1.9340 N.2            1 S1                 0.0000
      7 ****        -4.5186   0.2552   1.6198 N.2            1 S1                 0.0000
      8 ****        -4.3917   0.0384   0.3396 N.2            1 S1                 0.0000
      9 ****        -1.8472  -0.0484  -1.9066 N.am           1 S1                 0.0000
     10 ****        -0.4385  -0.4043  -2.0250 C.3            1 S1                 0.0000
     11 ****         0.3324  -0.1114  -0.7228 C.3            1 S1                 0.0000
     12 ****        -0.2080  -0.8190   0.5188 C.3            1 S1                 0.0000
     13 ****         0.9750  -0.7453   1.4799 C.3            1 S1                 0.0000
     14 ****         2.1819  -0.8838   0.6356 N.4            1 S1                 1.0000
     15 ****         3.3547  -0.1407   1.1440 C.3            1 S1                 0.0000
     16 ****         4.6756  -0.7724   0.7743 C.3            1 S1                 0.0000
     17 ****         4.1442  -0.8966   2.1859 C.3            1 S1                 0.0000
     18 ****         1.8052  -0.5398  -0.7563 C.3            1 S1                 0.0000
     19 ****        -4.1744   2.3364  -1.9821 H              1 S1                 0.0000
     20 ****        -4.4010   0.6053  -2.1911 H              1 S1                 0.0000
     21 ****        -3.7795   3.1733   0.6141 H              1 S1                 0.0000
     22 ****        -2.4941  -0.8018  -1.7211 H              1 S1                 0.0000
     23 ****        -0.3802  -1.4662  -2.2655 H              1 S1                 0.0000
     24 ****         0.0125   0.1289  -2.8636 H              1 S1                 0.0000
     25 ****         0.3066   0.9624  -0.5290 H              1 S1                 0.0000
     26 ****        -1.1062  -0.3483   0.9207 H              1 S1                 0.0000
     27 ****        -0.4425  -1.8602   0.2924 H              1 S1                 0.0000
     28 ****         0.9776   0.2276   1.9747 H              1 S1                 0.0000
     29 ****         0.9367  -1.5133   2.2528 H              1 S1                 0.0000
     30 ****         3.2569   0.9422   1.2009 H              1 S1                 0.0000
     31 ****         4.6634  -1.6652   0.1515 H              1 S1                 0.0000
     32 ****         5.5233  -0.1083   0.6179 H              1 S1                 0.0000
     33 ****         4.6421  -0.3142   2.9587 H              1 S1                 0.0000
     34 ****         3.7793  -1.8723   2.5019 H              1 S1                 0.0000
     35 ****         1.9364  -1.4341  -1.3665 H              1 S1                 0.0000
     36 ****         2.4370   0.2413  -1.1821 H              1 S1                 0.0000
     37 ****         2.4252  -1.8641   0.6298 H              1 S1                 0.0000
     38 ****        -2.0554   3.1041  -2.1630 LP             1 S1                 0.0000
     39 ****        -0.6663   2.0893  -2.3644 LP             1 S1                 0.0000
     40 ****        -4.3165   2.0248   2.8314 LP             1 S1                 0.0000
     41 ****        -4.7527  -0.4493   2.2897 LP             1 S1                 0.0000
     42 ****        -4.5065  -0.8356  -0.1326 LP             1 S1                 0.0000
@<TRIPOS>BOND
    1    1    2 2     
    2    2    3 1     
    3    2    9 am    
    4    3    4 1     
    5    3   19 1     
    6    3   20 1     
    7    4    8 1     
    8    4    5 1     
    9    5    6 2     
   10    5   21 1     
   11    6    7 1     
   12    7    8 2     
   13    9   10 1     
   14    9   22 1     
   15   10   11 1     
   16   10   23 1     
   17   10   24 1     
   18   11   18 1     
   19   11   12 1     
   20   11   25 1     
   21   12   13 1     
   22   12   26 1     
   23   12   27 1     
   24   13   14 1     
   25   13   28 1     
   26   13   29 1     
   27   14   15 1     
   28   14   18 1     
   29   14   37 1     
   30   15   17 1     
   31   15   16 1     
   32   15   30 1     
   33   16   17 1     
   34   16   31 1     
   35   16   32 1     
   36   17   33 1     
   37   17   34 1     
   38   18   35 1     
   39   18   36 1     
   40    1   38 1     
   41    1   39 1     
   42    6   40 1     
   43    7   41 1     
   44    8   42 1     
@<TRIPOS>SUBSTRUCTURE
      1 S1             1
@<TRIPOS>SET
LONE_PAIRS      STATIC     ATOMS    <user>   **** ""
5 38 39 40 41 42
DONOR_HYDROGENS      STATIC     ATOMS    <user>   **** ""
2 22 37
ATOM$BLUE        STATIC     ATOMS    COLORGROUP SYSTEM
5 38 39 40 41 42
ATOM$RED        STATIC     ATOMS    COLORGROUP SYSTEM
2 22 37
