#       Name:                AV-unprocessed.smi:69
#       Creating user name   scv26
#       Creation time:       Thu Mar 26 16:53:47 2020


#       File generated by GOLD software.
#

@<TRIPOS>MOLECULE
AV-unprocessed.smi:69
    43    45     1
SMALL
NO_CHARGES


@<TRIPOS>ATOM
      1 ****        -5.1246   0.3886  -0.1328 N.pl3          1 S1                 0.0000
      2 ****        -3.8030   0.5705  -0.0038 C.ar           1 S1                 0.0000
      3 ****        -3.3514   1.8077   0.3088 N.ar           1 S1                 0.0000
      4 ****        -2.0372   2.0148   0.4409 C.ar           1 S1                 0.0000
      5 ****        -1.0357   1.1418   0.3031 N.ar           1 S1                 0.0000
      6 ****        -1.4929  -0.1057  -0.0118 C.ar           1 S1                 0.0000
      7 ****        -2.8573  -0.4711  -0.1806 C.ar           1 S1                 0.0000
      8 ****        -2.9508  -1.8203  -0.4936 N.2            1 S1                 0.0000
      9 ****        -1.7092  -2.2255  -0.5090 C.2            1 S1                 0.0000
     10 ****        -0.7666  -1.2583  -0.2350 N.pl3          1 S1                 0.0000
     11 ****         0.7190  -1.4199  -0.1879 C.3            1 S1                 0.0000
     12 ****         1.1875  -0.7882   0.9635 O.3            1 S1                 0.0000
     13 ****         2.3813  -0.0738   0.6662 C.3            1 S1                 0.0000
     14 ****         2.5792   1.0563   1.6879 C.3            1 S1                 0.0000
     15 ****         3.2000   0.5542   2.8522 O.3            1 S1                 0.0000
     16 ****         2.1208   0.4251  -0.7561 C.3            1 S1                 0.0000
     17 ****         3.3081   0.7867  -1.4377 O.3            1 S1                 0.0000
     18 ****         1.3819  -0.7456  -1.4017 C.3            1 S1                 0.0000
     19 ****         2.2636  -1.6390  -2.0584 O.3            1 S1                 0.0000
     20 ****         0.8839  -2.4974  -0.1331 H              1 S1                 0.0000
     21 ****         3.2266  -0.7653   0.6658 H              1 S1                 0.0000
     22 ****         1.4615   1.2928  -0.7259 H              1 S1                 0.0000
     23 ****         0.6353  -0.4028  -2.1197 H              1 S1                 0.0000
     24 ****        -5.4853  -0.5253  -0.3665 H              1 S1                 0.0000
     25 ****        -5.7561   1.1647   0.0023 H              1 S1                 0.0000
     26 ****        -1.7460   3.0239   0.6923 H              1 S1                 0.0000
     27 ****        -1.4448  -3.2500  -0.7277 H              1 S1                 0.0000
     28 ****         3.2333   1.8253   1.2760 H              1 S1                 0.0000
     29 ****         1.6322   1.5363   1.9368 H              1 S1                 0.0000
     30 ****         3.3172   1.2670   3.4615 H              1 S1                 0.0000
     31 ****         3.0837   1.0194  -2.3258 H              1 S1                 0.0000
     32 ****         2.9444  -1.8858  -1.4511 H              1 S1                 0.0000
     33 ****        -3.9958   2.5610   0.4400 LP             1 S1                 0.0000
     34 ****        -0.0695   1.3734   0.4167 LP             1 S1                 0.0000
     35 ****        -3.7765  -2.3571  -0.6669 LP             1 S1                 0.0000
     36 ****         1.3770  -1.4746   1.6656 LP             1 S1                 0.0000
     37 ****         0.4936  -0.1511   1.2989 LP             1 S1                 0.0000
     38 ****         4.0893   0.1615   2.6176 LP             1 S1                 0.0000
     39 ****         2.6229  -0.1506   3.2648 LP             1 S1                 0.0000
     40 ****         3.9438   0.0147  -1.4413 LP             1 S1                 0.0000
     41 ****         3.7348   1.5676  -0.9816 LP             1 S1                 0.0000
     42 ****         2.6681  -1.1900  -2.8551 LP             1 S1                 0.0000
     43 ****         1.7625  -2.4527  -2.3531 LP             1 S1                 0.0000
@<TRIPOS>BOND
    1    1    2 1     
    2    1   24 1     
    3    1   25 1     
    4    2    7 ar    
    5    2    3 ar    
    6    3    4 ar    
    7    4    5 ar    
    8    4   26 1     
    9    5    6 ar    
   10    6   10 1     
   11    6    7 ar    
   12    7    8 1     
   13    8    9 2     
   14    9   10 1     
   15    9   27 1     
   16   10   11 1     
   17   11   20 1     
   18   11   18 1     
   19   11   12 1     
   20   12   13 1     
   21   13   21 1     
   22   13   14 1     
   23   13   16 1     
   24   14   15 1     
   25   14   28 1     
   26   14   29 1     
   27   15   30 1     
   28   16   22 1     
   29   16   17 1     
   30   16   18 1     
   31   17   31 1     
   32   18   23 1     
   33   18   19 1     
   34   19   32 1     
   35    3   33 1     
   36    5   34 1     
   37    8   35 1     
   38   12   36 1     
   39   12   37 1     
   40   15   38 1     
   41   15   39 1     
   42   17   40 1     
   43   17   41 1     
   44   19   42 1     
   45   19   43 1     
@<TRIPOS>SUBSTRUCTURE
      1 S1             1
@<TRIPOS>SET
LONE_PAIRS      STATIC     ATOMS    <user>   **** ""
11 33 34 35 36 37 38 39 40 41 42 43
DONOR_HYDROGENS      STATIC     ATOMS    <user>   **** ""
5 24 25 30 31 32
ATOM$BLUE        STATIC     ATOMS    COLORGROUP SYSTEM
11 33 34 35 36 37 38 39 40 41 42 43
ATOM$RED        STATIC     ATOMS    COLORGROUP SYSTEM
5 24 25 30 31 32
