#       Name:                AV-unprocessed.smi:1600
#       Creating user name   scv26
#       Creation time:       Fri Mar 27 07:07:05 2020


#       File generated by GOLD software.
#

@<TRIPOS>MOLECULE
AV-unprocessed.smi:1600
    49    50     1
SMALL
NO_CHARGES


@<TRIPOS>ATOM
      1 ****        -4.1939   4.5309   1.2084 C.3            1 S1                 0.0000
      2 ****        -3.5656   3.2260   1.5996 C.2            1 S1                 0.0000
      3 ****        -2.1923   2.8542   1.5174 C.2            1 S1                 0.0000
      4 ****        -2.1974   1.5740   2.0006 C.2            1 S1                 0.0000
      5 ****        -1.1545   0.7159   2.1582 N.am           1 S1                 0.0000
      6 ****         0.1266   0.8766   1.7831 C.2            1 S1                 0.0000
      7 ****         0.5888   1.8725   1.2260 O.2            1 S1                 0.0000
      8 ****         0.8581  -0.2084   2.0771 N.am           1 S1                 0.0000
      9 ****         2.2856  -0.3665   1.8058 C.3            1 S1                 0.0000
     10 ****         2.5883  -1.1072   0.4846 C.3            1 S1                 0.0000
     11 ****         1.9930  -2.5093   0.3587 C.3            1 S1                 0.0000
     12 ****         1.9632  -2.7785  -1.1527 C.3            1 S1                 0.0000
     13 ****         2.1841  -1.4785  -1.8376 N.4            1 S1                 1.0000
     14 ****         1.3481  -1.2516  -3.0506 C.3            1 S1                 0.0000
     15 ****         1.6236  -2.3243  -4.1210 C.3            1 S1                 0.0000
     16 ****         1.5812   0.1469  -3.6537 C.3            1 S1                 0.0000
     17 ****         2.0986  -0.4308  -0.7970 C.3            1 S1                 0.0000
     18 ****        -3.4868   1.2329   2.3431 N.pl3          1 S1                 0.0000
     19 ****        -3.9953  -0.0061   2.8985 C.3            1 S1                 0.0000
     20 ****        -4.3302   2.2568   2.0901 N.2            1 S1                 0.0000
     21 ****        -3.4358   5.2747   0.9625 H              1 S1                 0.0000
     22 ****        -4.8023   4.9342   2.0184 H              1 S1                 0.0000
     23 ****        -4.8355   4.4104   0.3354 H              1 S1                 0.0000
     24 ****        -1.3611   3.4445   1.1629 H              1 S1                 0.0000
     25 ****        -1.3851  -0.1650   2.5938 H              1 S1                 0.0000
     26 ****         0.3965  -0.9806   2.5360 H              1 S1                 0.0000
     27 ****         2.7869   0.6028   1.8114 H              1 S1                 0.0000
     28 ****         2.7159  -0.9269   2.6360 H              1 S1                 0.0000
     29 ****         3.6725  -1.2036   0.4054 H              1 S1                 0.0000
     30 ****         2.5692  -3.2565   0.9055 H              1 S1                 0.0000
     31 ****         0.9736  -2.5326   0.7455 H              1 S1                 0.0000
     32 ****         2.7524  -3.4712  -1.4464 H              1 S1                 0.0000
     33 ****         1.0077  -3.2282  -1.4268 H              1 S1                 0.0000
     34 ****         0.2993  -1.3199  -2.7570 H              1 S1                 0.0000
     35 ****         1.0199  -2.1502  -5.0123 H              1 S1                 0.0000
     36 ****         1.3866  -3.3283  -3.7696 H              1 S1                 0.0000
     37 ****         2.6705  -2.3177  -4.4263 H              1 S1                 0.0000
     38 ****         0.9982   0.2798  -4.5657 H              1 S1                 0.0000
     39 ****         2.6304   0.2999  -3.9084 H              1 S1                 0.0000
     40 ****         1.2813   0.9427  -2.9720 H              1 S1                 0.0000
     41 ****         1.0588  -0.1184  -0.6992 H              1 S1                 0.0000
     42 ****         2.6961   0.4453  -1.0505 H              1 S1                 0.0000
     43 ****        -3.7623  -0.8320   2.2260 H              1 S1                 0.0000
     44 ****        -5.0767   0.0473   3.0316 H              1 S1                 0.0000
     45 ****        -3.5294  -0.1913   3.8664 H              1 S1                 0.0000
     46 ****         3.1476  -1.4839  -2.1405 H              1 S1                 0.0000
     47 ****        -0.0051   2.6494   1.0170 LP             1 S1                 0.0000
     48 ****         1.5582   1.9045   0.9824 LP             1 S1                 0.0000
     49 ****        -5.3186   2.2803   2.2399 LP             1 S1                 0.0000
@<TRIPOS>BOND
    1    1    2 1     
    2    1   21 1     
    3    1   22 1     
    4    1   23 1     
    5    2   20 2     
    6    2    3 1     
    7    3    4 2     
    8    3   24 1     
    9    4    5 1     
   10    4   18 1     
   11    5    6 am    
   12    5   25 1     
   13    6    7 2     
   14    6    8 am    
   15    8    9 1     
   16    8   26 1     
   17    9   10 1     
   18    9   27 1     
   19    9   28 1     
   20   10   17 1     
   21   10   11 1     
   22   10   29 1     
   23   11   12 1     
   24   11   30 1     
   25   11   31 1     
   26   12   13 1     
   27   12   32 1     
   28   12   33 1     
   29   13   14 1     
   30   13   17 1     
   31   13   46 1     
   32   14   15 1     
   33   14   16 1     
   34   14   34 1     
   35   15   35 1     
   36   15   36 1     
   37   15   37 1     
   38   16   38 1     
   39   16   39 1     
   40   16   40 1     
   41   17   41 1     
   42   17   42 1     
   43   18   19 1     
   44   18   20 1     
   45   19   43 1     
   46   19   44 1     
   47   19   45 1     
   48    7   47 1     
   49    7   48 1     
   50   20   49 1     
@<TRIPOS>SUBSTRUCTURE
      1 S1             1
@<TRIPOS>SET
LONE_PAIRS      STATIC     ATOMS    <user>   **** ""
3 47 48 49
DONOR_HYDROGENS      STATIC     ATOMS    <user>   **** ""
3 25 26 46
ATOM$BLUE        STATIC     ATOMS    COLORGROUP SYSTEM
3 47 48 49
ATOM$RED        STATIC     ATOMS    COLORGROUP SYSTEM
3 25 26 46
