AV-unprocessed.smi:79|AV-procd|sdf|778|dock6
  -GOLD-   2262017133D 1   1.00000     0.00000
 Structure written by MMmdl.
 56 59  0  0  0  0  0  0  0  0  2 V2000
  145.4097  132.4190  149.4305 C   0  0  0  0  0  0  0  0  0  0  0  0
  144.0484  133.0593  149.7302 C   0  0  1  0  0  0  0  0  0  0  0  0
  143.0463  132.2728  149.1181 O   0  0  0  0  0  0  0  0  0  0  0  0
  143.7679  133.1457  151.2432 C   0  0  0  0  0  0  0  0  0  0  0  0
  143.8971  134.5305  151.7638 N   0  3  2  0  0  0  0  0  0  0  0  0
  145.2598  135.1012  151.5952 C   0  0  0  0  0  0  0  0  0  0  0  0
  145.3061  136.5678  152.0560 C   0  0  0  0  0  0  0  0  0  0  0  0
  144.8027  136.6946  153.4218 N   0  0  0  0  0  0  0  0  0  0  0  0
  145.7478  136.6101  154.3942 C   0  0  0  0  0  0  0  0  0  0  0  0
  145.6617  135.6444  155.3474 N   0  0  0  0  0  0  0  0  0  0  0  0
  146.5977  135.5467  156.2956 C   0  0  0  0  0  0  0  0  0  0  0  0
  147.6833  136.3006  156.4760 N   0  0  0  0  0  0  0  0  0  0  0  0
  147.7713  137.2791  155.5303 C   0  0  0  0  0  0  0  0  0  0  0  0
  146.8573  137.4990  154.4616 C   0  0  0  0  0  0  0  0  0  0  0  0
  147.2726  138.5840  153.6998 N   0  0  0  0  0  0  0  0  0  0  0  0
  148.3721  138.9791  154.2810 C   0  0  0  0  0  0  0  0  0  0  0  0
  148.7378  138.2627  155.3987 N   0  0  0  0  0  0  0  0  0  0  0  0
  149.9087  138.4881  156.2347 C   0  0  0  0  0  0  0  0  0  0  0  0
  151.2573  138.2758  155.5125 C   0  0  0  0  0  0  0  0  0  0  0  0
  151.1425  137.1503  154.4708 C   0  0  0  0  0  0  0  0  0  0  0  0
  152.1063  137.2991  153.4485 O   0  0  0  0  0  0  0  0  0  0  0  0
  151.9342  139.5621  155.0193 C   0  0  0  0  0  0  0  0  0  0  0  0
  152.9419  139.5101  156.0507 O   0  0  0  0  0  0  0  0  0  0  0  0
  152.4917  138.1907  156.4229 C   0  0  0  0  0  0  0  0  0  0  0  0
  143.4749  136.1197  153.6628 C   0  0  1  0  0  0  0  0  0  0  0  0
  142.3689  136.9860  153.0356 C   0  0  0  0  0  0  0  0  0  0  0  0
  143.4102  134.6583  153.1626 C   0  0  0  0  0  0  0  0  0  0  0  0
  146.2206  133.0034  149.8664 H   0  0  0  0  0  0  0  0  0  0  0  0
  145.5893  132.3610  148.3563 H   0  0  0  0  0  0  0  0  0  0  0  0
  145.4747  131.4082  149.8348 H   0  0  0  0  0  0  0  0  0  0  0  0
  144.0289  134.0497  149.2767 H   0  0  0  0  0  0  0  0  0  0  0  0
  142.2411  132.7676  149.0976 H   0  0  0  0  0  0  0  0  0  0  0  0
  142.7597  132.7717  151.4298 H   0  0  0  0  0  0  0  0  0  0  0  0
  144.4406  132.4895  151.7978 H   0  0  0  0  0  0  0  0  0  0  0  0
  145.9733  134.5092  152.1708 H   0  0  0  0  0  0  0  0  0  0  0  0
  145.5738  135.0471  150.5539 H   0  0  0  0  0  0  0  0  0  0  0  0
  146.3253  136.9432  151.9651 H   0  0  0  0  0  0  0  0  0  0  0  0
  144.6979  137.1870  151.3965 H   0  0  0  0  0  0  0  0  0  0  0  0
  146.4571  134.7514  157.0129 H   0  0  0  0  0  0  0  0  0  0  0  0
  148.9490  139.8106  153.9034 H   0  0  0  0  0  0  0  0  0  0  0  0
  149.8467  139.4948  156.6494 H   0  0  0  0  0  0  0  0  0  0  0  0
  149.8321  137.8184  157.0925 H   0  0  0  0  0  0  0  0  0  0  0  0
  151.3029  136.1774  154.9362 H   0  0  0  0  0  0  0  0  0  0  0  0
  150.1482  137.1097  154.0264 H   0  0  0  0  0  0  0  0  0  0  0  0
  151.6928  137.1220  152.6174 H   0  0  0  0  0  0  0  0  0  0  0  0
  152.3700  139.4808  154.0224 H   0  0  0  0  0  0  0  0  0  0  0  0
  151.3061  140.4503  155.0957 H   0  0  0  0  0  0  0  0  0  0  0  0
  152.2687  138.1207  157.4866 H   0  0  0  0  0  0  0  0  0  0  0  0
  153.2077  137.4215  156.1294 H   0  0  0  0  0  0  0  0  0  0  0  0
  143.2796  136.1190  154.7362 H   0  0  0  0  0  0  0  0  0  0  0  0
  141.3813  136.5991  153.2877 H   0  0  0  0  0  0  0  0  0  0  0  0
  142.4397  137.0199  151.9482 H   0  0  0  0  0  0  0  0  0  0  0  0
  142.4212  138.0111  153.4037 H   0  0  0  0  0  0  0  0  0  0  0  0
  142.3861  134.2902  153.2373 H   0  0  0  0  0  0  0  0  0  0  0  0
  144.0162  134.0160  153.8029 H   0  0  0  0  0  0  0  0  0  0  0  0
  143.2750  135.0969  151.2046 H   0  0  0  0  0  0  0  0  0  0  0  0
  1  2  1  0  0  0  0
  1 28  1  0  0  0  0
  1 29  1  0  0  0  0
  1 30  1  0  0  0  0
  2  3  1  0  0  0  0
  2  4  1  0  0  0  0
  2 31  1  0  0  0  0
  3 32  1  0  0  0  0
  4  5  1  0  0  0  0
  4 33  1  0  0  0  0
  4 34  1  0  0  0  0
  5 27  1  0  0  0  0
  5  6  1  0  0  0  0
  5 56  1  0  0  0  0
  6  7  1  0  0  0  0
  6 35  1  0  0  0  0
  6 36  1  0  0  0  0
  7  8  1  0  0  0  0
  7 37  1  0  0  0  0
  7 38  1  0  0  0  0
  8  9  1  0  0  0  0
  8 25  1  0  0  0  0
  9 14  1  0  0  0  0
  9 10  2  0  0  0  0
 10 11  1  0  0  0  0
 11 12  2  0  0  0  0
 11 39  1  0  0  0  0
 12 13  1  0  0  0  0
 13 17  1  0  0  0  0
 13 14  2  0  0  0  0
 14 15  1  0  0  0  0
 15 16  2  0  0  0  0
 16 17  1  0  0  0  0
 16 40  1  0  0  0  0
 17 18  1  0  0  0  0
 18 19  1  0  0  0  0
 18 41  1  0  0  0  0
 18 42  1  0  0  0  0
 19 24  1  0  0  0  0
 19 20  1  0  0  0  0
 19 22  1  0  0  0  0
 20 21  1  0  0  0  0
 20 43  1  0  0  0  0
 20 44  1  0  0  0  0
 21 45  1  0  0  0  0
 22 23  1  0  0  0  0
 22 46  1  0  0  0  0
 22 47  1  0  0  0  0
 23 24  1  0  0  0  0
 24 48  1  0  0  0  0
 24 49  1  0  0  0  0
 25 26  1  0  0  0  0
 25 27  1  0  0  0  0
 25 50  1  0  0  0  0
 26 51  1  0  0  0  0
 26 52  1  0  0  0  0
 26 53  1  0  0  0  0
 27 54  1  0  0  0  0
 27 55  1  0  0  0  0
M  CHG  1   5   1
M  END
> <s_m_source_file>
AV-unprocessed.smi

> <i_m_source_file_index>
79

> <i_lp_mmshare_version>
43012

> <i_f3d_flags>
0

> <s_epik_input>
W0NIM11bQ0BIXShbT0hdKVtDSDJdTjFbQ0gyXVtDSDJdTihbQ0BASF0oW0NIM10pW0NIMl0xKWMobltjSF1uMiljKGMyMyluW2NIXW4zW0NIMl1DNChbQ0gyXVtPSF0pW0NIMl1PW0NIMl00

> <s_epik_cmdline>
J2VwaWtfcHl0aG9uJywgJy1waCcsICc3LjAnLCAnLXRuJywgJzgnLCAnLW1hJywgJzIwMCcsICctbWV0YWxfYmluZGluZycsICctaW1hZScsICc8aW5maWxlLm1hZT4nLCAnLW9tYWUnLCAnPG91dGZpbGUubWFlPic=

> <r_lp_tautomer_probability>
1

> <r_epik_Ionization_Penalty>
0.00515943

> <r_epik_Ionization_Penalty_Charging>
0.00509693

> <r_epik_Ionization_Penalty_Neutral>
6.25007e-05

> <r_epik_State_Penalty>
-0

> <r_epik_Charging_Adjusted_Penalty>
0.00509693

> <i_epik_Tot_Q>
1

> <i_epik_Tot_abs_Q>
1

> <r_epik_Metal_State_Penalty>
-0

> <b_epik_Metal_Only>
0

> <s_lp_Force_Field>
OPLS_2005

> <r_lp_Energy>
48.7837

> <b_lp_Chiralities_Consistent>
1

> <s_lp_Variant>
AV-unprocessed.smi:79-2

> <Gold.Version>
5.8.1

> <Gold.Id.Protein>
6NUR|6NUR_protein|mol2

> <Gold.PLP.Fitness>
49.5286

> <Gold.PLP.PLP>
-35.5584

> <Gold.PLP.part.hbond>
-5.9039

> <Gold.PLP.part.metal>
0.0000

> <Gold.PLP.part.buried>
-7.5463

> <Gold.PLP.part.nonpolar>
-24.2318

> <Gold.PLP.part.repulsive>
0.3617

> <Gold.PLP.ligand.clash>
0.0000

> <Gold.PLP.ligand.torsion>
1.9135

> <Gold.PLP.Chemscore.Hbond>
4.6900

> <Gold.PLP.Chemscore.CHOScore>
0.9292

> <Gold.PLP.Chemscore.Metal>
0.0000

> <Gold.Chemscore.Hbonds>
donor molecule, donor type, donor heavy atom, donor atom, acceptor molecule, acceptor atom, score
      L1  H     3    32       P1 10186  0.83
      L1  H    21    45       P1  7949  0.98
      P1  H  7997  8010       L1    23  1.00
      P1  H 10752 10763       L1    21  0.25
      P1  H 10785 10796       L1     3  0.65
      L1  C    16    40       P1  7957  0.21

> <Gold.PLP.Chemscore.Internal.Correction>
0.9395

> <Gold.Rescore>
     Score         DG    S(hbond)    S(metal)    S(lipo)     H(rot)  DE(clash)    DE(int)     intcor
     13.79     -15.94       3.30        0.00      76.66       3.72       0.19       1.96       ----

> <Gold.Chemscore.Fitness>
13.7888

> <Gold.Chemscore.DG>
-15.9379

> <Gold.Chemscore.ZeroCoef>
-5.4800

> <Gold.Chemscore.Hbond>
3.2991

> <Gold.Chemscore.Metal>
0.0000

> <Gold.Chemscore.Lipo>
76.6557

> <Gold.Chemscore.Internal_Hbond>
0.0000

> <Gold.Chemscore.DEClash>
0.1934

> <Gold.Chemscore.DEInternal>
1.9556

> <Gold.Chemscore.Rot>
3.7226

> <Gold.Chemscore.Internal.Correction>
   9.000000E+99

> <Gold.Chemscore.Hbonds>
donor molecule, donor type, donor heavy atom, donor atom, acceptor molecule, acceptor atom, score
      L1  H     3    32       P1 10186  0.81
      L1  H    21    45       P1  7949  0.93
      P1  H  7997  8010       L1    23  0.97
      P1  H 10785 10796       L1     3  0.63

> <Gold.Chemscore.Hbond.Weighted>
-11.0190

> <Gold.Chemscore.Metal.Weighted>
-0.0000

> <Gold.Chemscore.Lipo.Weighted>
-8.9687

> <Gold.Chemscore.Internal_Hbond.Weighted>
0.0000

> <Gold.Chemscore.DEClash.Weighted>
0.1934

> <Gold.Chemscore.DEInternal.Weighted>
1.9556

> <Gold.Chemscore.Rot.Weighted>
9.5298

> <Gold.Chemscore.Internal.Correction.Weighted>
   9.000000E+99

> <Gold.Protein.RotatedTorsions>
[ 6907 6896 6895 6894 ] final  148.44 input  -60.11 | X-H torsion
[ 7974 7965 7964 7962 ] final  -63.42 input  175.53 | X-H torsion
[ 8008 7997 7996 7995 ] final   95.81 input   59.86 | X-H torsion
[ 10167 10162 10161 10158 ] final  -41.33 input  -65.29 | X-H torsion
[ 10718 10713 10712 10709 ] final -112.25 input   66.30 | X-H torsion
[ 10763 10752 10751 10750 ] final   39.43 input  -60.55 | X-H torsion
[ 11005 11000 10999 10996 ] final  145.56 input  -57.11 | X-H torsion

> <Gold.Protein.ActiveResidues>
 VAL166  LYS551  ARG553  GLY616  TRP617  ASP618  TYR619  PRO620  LYS621  CYS622 
 ASP623  PHE694  ASN695  SER759  ASP760  ASP761  ALA762  ILE779  LEU786  VAL792 
 PHE793  MET794  SER795  GLU796  ALA797  LYS798  CYS799  TRP800  GLU811  SER814 

> <Gold.Protein.RotatedAtoms>
  152.1415  133.4466  159.4768 H   0  0  0  0  0  0  0  0  0  0  0  0  # atno 6907 bound_to 6896
  150.6886  134.2300  159.4440 H   0  0  0  0  0  0  0  0  0  0  0  0  # atno 6908 bound_to 6896
  152.0191  134.9832  160.0621 H   0  0  0  0  0  0  0  0  0  0  0  0  # atno 6909 bound_to 6896
  145.7792  140.8771  143.0339 H   0  0  0  0  0  0  0  0  0  0  0  0  # atno 7974 bound_to 7965
  156.0729  140.3281  155.7598 H   0  0  0  0  0  0  0  0  0  0  0  0  # atno 8008 bound_to 7997
  155.5276  140.0590  157.2912 H   0  0  0  0  0  0  0  0  0  0  0  0  # atno 8009 bound_to 7997
  154.4540  140.1933  156.0452 H   0  0  0  0  0  0  0  0  0  0  0  0  # atno 8010 bound_to 7997
  140.7006  143.3101  151.3051 H   0  0  0  0  0  0  0  0  0  0  0  0  # atno 10167 bound_to 10162
  156.0694  130.5910  150.8483 H   0  0  0  0  0  0  0  0  0  0  0  0  # atno 10718 bound_to 10713
  152.9967  135.6221  154.2464 H   0  0  0  0  0  0  0  0  0  0  0  0  # atno 10763 bound_to 10752
  154.2204  135.2796  155.2928 H   0  0  0  0  0  0  0  0  0  0  0  0  # atno 10764 bound_to 10752
  154.5533  135.5727  153.7000 H   0  0  0  0  0  0  0  0  0  0  0  0  # atno 10765 bound_to 10752
  140.0722  134.9145  157.1363 H   0  0  0  0  0  0  0  0  0  0  0  0  # atno 11005 bound_to 11000
  144.6799  139.9965  143.7484 LP  0  0  0  0  0  0  0  0  0  0  0  0  # atno 17320 bound_to 7965
  146.0091  139.3155  143.0881 LP  0  0  0  0  0  0  0  0  0  0  0  0  # atno 17321 bound_to 7965
  139.6520  144.0344  152.2633 LP  0  0  0  0  0  0  0  0  0  0  0  0  # atno 17342 bound_to 10162
  139.9884  144.6379  150.7837 LP  0  0  0  0  0  0  0  0  0  0  0  0  # atno 17343 bound_to 10162
  157.5756  131.0946  150.9350 LP  0  0  0  0  0  0  0  0  0  0  0  0  # atno 17370 bound_to 10713
  156.9557  130.5436  149.5284 LP  0  0  0  0  0  0  0  0  0  0  0  0  # atno 17371 bound_to 10713
  140.3611  134.2493  155.7187 LP  0  0  0  0  0  0  0  0  0  0  0  0  # atno 17394 bound_to 11000
  141.2016  133.7959  157.0433 LP  0  0  0  0  0  0  0  0  0  0  0  0  # atno 17395 bound_to 11000

$$$$
