AV-unprocessed.smi:2848|AV-procd|sdf|10956|dock3
  -GOLD-   2272015413D 1   1.00000     0.00000
 Structure written by MMmdl.
 26 27  0  0  0  0  0  0  0  0  1 V2000
  153.4234  141.6310  160.2490 Cl  0  0  0  0  0  0  0  0  0  0  0  0
  152.3797  142.8424  159.5907 C   0  0  0  0  0  0  0  0  0  0  0  0
  152.2030  144.0606  160.2783 C   0  0  0  0  0  0  0  0  0  0  0  0
  151.4084  145.0572  159.8348 N   0  0  0  0  0  0  0  0  0  0  0  0
  150.7527  144.8662  158.6712 C   0  0  0  0  0  0  0  0  0  0  0  0
  150.8580  143.6882  157.9050 C   0  0  0  0  0  0  0  0  0  0  0  0
  151.6923  142.6444  158.3708 C   0  0  0  0  0  0  0  0  0  0  0  0
  151.8548  141.4379  157.6730 N   0  0  0  0  0  0  0  0  0  0  0  0
  151.3009  141.2699  156.3377 C   0  0  0  0  0  0  0  0  0  0  0  0
  151.4670  139.8622  155.7992 C   0  0  0  0  0  0  0  0  0  0  0  0
  152.1885  138.8990  156.4087 C   0  0  0  0  0  0  0  0  0  0  0  0
  152.2629  137.6066  155.9545 O   0  0  0  0  0  0  0  0  0  0  0  0
  151.2908  137.2748  154.9692 C   0  0  0  0  0  0  0  0  0  0  0  0
  151.1386  138.4205  153.9555 C   0  0  0  0  0  0  0  0  0  0  0  0
  150.8080  139.6406  154.6125 O   0  0  0  0  0  0  0  0  0  0  0  0
  152.7149  144.2407  161.2122 H   0  0  0  0  0  0  0  0  0  0  0  0
  150.1224  145.6779  158.3397 H   0  0  0  0  0  0  0  0  0  0  0  0
  150.3008  143.6064  156.9841 H   0  0  0  0  0  0  0  0  0  0  0  0
  152.5929  140.8111  157.9609 H   0  0  0  0  0  0  0  0  0  0  0  0
  150.2358  141.5018  156.3544 H   0  0  0  0  0  0  0  0  0  0  0  0
  151.7810  141.9731  155.6561 H   0  0  0  0  0  0  0  0  0  0  0  0
  152.7259  139.0354  157.3355 H   0  0  0  0  0  0  0  0  0  0  0  0
  151.5911  136.3562  154.4650 H   0  0  0  0  0  0  0  0  0  0  0  0
  150.3376  137.0740  155.4604 H   0  0  0  0  0  0  0  0  0  0  0  0
  152.0660  138.5580  153.3980 H   0  0  0  0  0  0  0  0  0  0  0  0
  150.3611  138.1855  153.2286 H   0  0  0  0  0  0  0  0  0  0  0  0
  1  2  1  0  0  0  0
  2  7  1  0  0  0  0
  2  3  2  0  0  0  0
  3  4  1  0  0  0  0
  3 16  1  0  0  0  0
  4  5  2  0  0  0  0
  5  6  1  0  0  0  0
  5 17  1  0  0  0  0
  6  7  2  0  0  0  0
  6 18  1  0  0  0  0
  7  8  1  0  0  0  0
  8  9  1  0  0  0  0
  8 19  1  0  0  0  0
  9 10  1  0  0  0  0
  9 20  1  0  0  0  0
  9 21  1  0  0  0  0
 10 15  1  0  0  0  0
 10 11  2  0  0  0  0
 11 12  1  0  0  0  0
 11 22  1  0  0  0  0
 12 13  1  0  0  0  0
 13 14  1  0  0  0  0
 13 23  1  0  0  0  0
 13 24  1  0  0  0  0
 14 15  1  0  0  0  0
 14 25  1  0  0  0  0
 14 26  1  0  0  0  0
M  END
> <s_m_source_file>
AV-unprocessed.smi

> <i_m_source_file_index>
2848

> <i_lp_mmshare_version>
43012

> <i_f3d_flags>
0

> <s_epik_input>
Q2xjMVtjSF1uW2NIXVtjSF1jMVtOSF1bQ0gyXUMyPVtDSF1PW0NIMl1bQ0gyXU8y

> <s_epik_cmdline>
J2VwaWtfcHl0aG9uJywgJy1waCcsICc3LjAnLCAnLXRuJywgJzgnLCAnLW1hJywgJzIwMCcsICctbWV0YWxfYmluZGluZycsICctaW1hZScsICc8aW5maWxlLm1hZT4nLCAnLW9tYWUnLCAnPG91dGZpbGUubWFlPic=

> <r_lp_tautomer_probability>
0.999999

> <r_epik_Ionization_Penalty>
1.20444

> <r_epik_Ionization_Penalty_Charging>
0

> <r_epik_Ionization_Penalty_Neutral>
1.20444

> <r_epik_State_Penalty>
1.27033

> <r_epik_Charging_Adjusted_Penalty>
1.27033

> <i_epik_Tot_Q>
0

> <i_epik_Tot_abs_Q>
0

> <r_epik_Metal_State_Penalty>
0.00444713

> <b_epik_Metal_Only>
0

> <s_lp_Force_Field>
OPLS_2005

> <r_lp_Energy>
2.57385

> <b_lp_Chiralities_Consistent>
1

> <s_lp_Variant>
AV-unprocessed.smi:2848-2

> <Gold.Version>
5.8.1

> <Gold.Id.Protein>
6NUR|6NUR_protein|mol2

> <Gold.PLP.Fitness>
37.5208

> <Gold.PLP.PLP>
-31.6976

> <Gold.PLP.part.hbond>
-1.0642

> <Gold.PLP.part.metal>
0.0000

> <Gold.PLP.part.buried>
-3.9655

> <Gold.PLP.part.nonpolar>
-26.6247

> <Gold.PLP.part.repulsive>
0.2814

> <Gold.PLP.ligand.clash>
0.0000

> <Gold.PLP.ligand.torsion>
0.0850

> <Gold.PLP.Chemscore.Hbond>
1.0000

> <Gold.PLP.Chemscore.CHOScore>
0.9978

> <Gold.PLP.Chemscore.Metal>
0.0000

> <Gold.Chemscore.Hbonds>
donor molecule, donor type, donor heavy atom, donor atom, acceptor molecule, acceptor atom, score
      P1  H  7989  7998       L1    15  1.00
      L1  C     5    17       P1  8029  1.00

> <Gold.PLP.Chemscore.Internal.Correction>
0.0000

> <Gold.Rescore>
     Score         DG    S(hbond)    S(metal)    S(lipo)     H(rot)  DE(clash)    DE(int)     intcor
     16.97     -17.15       0.89        0.00     100.59       1.19       0.09       0.09       ----

> <Gold.Chemscore.Fitness>
16.9742

> <Gold.Chemscore.DG>
-17.1520

> <Gold.Chemscore.ZeroCoef>
-5.4800

> <Gold.Chemscore.Hbond>
0.8857

> <Gold.Chemscore.Metal>
0.0000

> <Gold.Chemscore.Lipo>
100.5927

> <Gold.Chemscore.Internal_Hbond>
0.0000

> <Gold.Chemscore.DEClash>
0.0914

> <Gold.Chemscore.DEInternal>
0.0863

> <Gold.Chemscore.Rot>
1.1937

> <Gold.Chemscore.Internal.Correction>
   9.000000E+99

> <Gold.Chemscore.Hbonds>
donor molecule, donor type, donor heavy atom, donor atom, acceptor molecule, acceptor atom, score
      P1  H  7989  7998       L1    15  0.09

> <Gold.Chemscore.Hbond.Weighted>
-2.9584

> <Gold.Chemscore.Metal.Weighted>
-0.0000

> <Gold.Chemscore.Lipo.Weighted>
-11.7693

> <Gold.Chemscore.Internal_Hbond.Weighted>
0.0000

> <Gold.Chemscore.DEClash.Weighted>
0.0914

> <Gold.Chemscore.DEInternal.Weighted>
0.0863

> <Gold.Chemscore.Rot.Weighted>
3.0558

> <Gold.Chemscore.Internal.Correction.Weighted>
   9.000000E+99

> <Gold.Protein.RotatedTorsions>
[ 6907 6896 6895 6894 ] final  -22.46 input  -60.11 | X-H torsion
[ 7974 7965 7964 7962 ] final  -65.35 input  175.53 | X-H torsion
[ 8008 7997 7996 7995 ] final  -88.60 input   59.86 | X-H torsion
[ 10167 10162 10161 10158 ] final  172.81 input  -65.29 | X-H torsion
[ 10718 10713 10712 10709 ] final  112.03 input   66.30 | X-H torsion
[ 10763 10752 10751 10750 ] final -145.53 input  -60.55 | X-H torsion
[ 11005 11000 10999 10996 ] final  110.75 input  -57.11 | X-H torsion

> <Gold.Protein.ActiveResidues>
 VAL166  LYS551  ARG553  GLY616  TRP617  ASP618  TYR619  PRO620  LYS621  CYS622 
 ASP623  PHE694  ASN695  SER759  ASP760  ASP761  ALA762  ILE779  LEU786  VAL792 
 PHE793  MET794  SER795  GLU796  ALA797  LYS798  CYS799  TRP800  GLU811  SER814 

> <Gold.Protein.RotatedAtoms>
  151.2183  135.0508  159.8939 H   0  0  0  0  0  0  0  0  0  0  0  0  # atno 6907 bound_to 6896
  152.5418  134.0668  159.8186 H   0  0  0  0  0  0  0  0  0  0  0  0  # atno 6908 bound_to 6896
  151.0831  133.5326  159.2651 H   0  0  0  0  0  0  0  0  0  0  0  0  # atno 6909 bound_to 6896
  145.7553  140.8888  143.0458 H   0  0  0  0  0  0  0  0  0  0  0  0  # atno 7974 bound_to 7965
  154.6768  140.0551  157.0224 H   0  0  0  0  0  0  0  0  0  0  0  0  # atno 8008 bound_to 7997
  155.1009  140.3229  155.4528 H   0  0  0  0  0  0  0  0  0  0  0  0  # atno 8009 bound_to 7997
  156.2679  140.2031  156.6135 H   0  0  0  0  0  0  0  0  0  0  0  0  # atno 8010 bound_to 7997
  139.5088  144.3332  152.0091 H   0  0  0  0  0  0  0  0  0  0  0  0  # atno 10167 bound_to 10162
  157.6414  131.0961  150.6836 H   0  0  0  0  0  0  0  0  0  0  0  0  # atno 10718 bound_to 10713
  154.8379  135.3410  154.6519 H   0  0  0  0  0  0  0  0  0  0  0  0  # atno 10763 bound_to 10752
  153.7133  135.6962  153.5036 H   0  0  0  0  0  0  0  0  0  0  0  0  # atno 10764 bound_to 10752
  153.2436  135.4376  155.0677 H   0  0  0  0  0  0  0  0  0  0  0  0  # atno 10765 bound_to 10752
  139.8888  134.9491  156.6327 H   0  0  0  0  0  0  0  0  0  0  0  0  # atno 11005 bound_to 11000
  144.6841  139.9648  143.7481 LP  0  0  0  0  0  0  0  0  0  0  0  0  # atno 17320 bound_to 7965
  146.0316  139.3340  143.0751 LP  0  0  0  0  0  0  0  0  0  0  0  0  # atno 17321 bound_to 7965
  140.2771  144.3900  150.6131 LP  0  0  0  0  0  0  0  0  0  0  0  0  # atno 17342 bound_to 10162
  140.6045  143.2167  151.7007 LP  0  0  0  0  0  0  0  0  0  0  0  0  # atno 17343 bound_to 10162
  156.7159  130.4666  149.5535 LP  0  0  0  0  0  0  0  0  0  0  0  0  # atno 17370 bound_to 10713
  156.1698  130.6429  151.0823 LP  0  0  0  0  0  0  0  0  0  0  0  0  # atno 17371 bound_to 10713
  140.7654  133.8782  155.8450 LP  0  0  0  0  0  0  0  0  0  0  0  0  # atno 17394 bound_to 11000
  140.9887  134.1308  157.4428 LP  0  0  0  0  0  0  0  0  0  0  0  0  # atno 17395 bound_to 11000

$$$$
