AV-unprocessed.smi:2588|AV-procd|sdf|10150|dock9
  -GOLD-   2272014163D 1   1.00000     0.00000
 Structure written by MMmdl.
 39 40  0  0  0  0  0  0  0  0  1 V2000
  151.8758  143.7278  160.8269 C   0  0  0  0  0  0  0  0  0  0  0  0
  152.6242  143.8968  159.4856 C   0  0  0  0  0  0  0  0  0  0  0  0
  152.2287  145.2637  158.8829 C   0  0  0  0  0  0  0  0  0  0  0  0
  152.3460  142.7836  158.5533 N   0  0  0  0  0  0  0  0  0  0  0  0
  150.9287  142.7565  158.1554 C   0  0  0  0  0  0  0  0  0  0  0  0
  150.6498  141.6513  157.1221 C   0  0  0  0  0  0  0  0  0  0  0  0
  151.0241  140.2701  157.6748 C   0  0  0  0  0  0  0  0  0  0  0  0
  150.8830  139.2396  156.6507 N   0  0  0  0  0  0  0  0  0  0  0  0
  151.6678  139.1112  155.5700 C   0  0  0  0  0  0  0  0  0  0  0  0
  152.5961  139.8800  155.3154 O   0  0  0  0  0  0  0  0  0  0  0  0
  151.3343  137.9458  154.6294 C   0  0  0  0  0  0  0  0  0  0  0  0
  150.9464  136.7281  155.3429 N   0  0  0  0  0  0  0  0  0  0  0  0
  151.9223  135.9953  155.9444 N   0  0  0  0  0  0  0  0  0  0  0  0
  151.4385  134.9686  156.5393 C   0  0  0  0  0  0  0  0  0  0  0  0
  149.6857  134.7585  156.4325 S   0  0  0  0  0  0  0  0  0  0  0  0
  149.6420  136.2564  155.4620 C   0  0  0  0  0  0  0  0  0  0  0  0
  148.6077  136.7400  155.0051 O   0  0  0  0  0  0  0  0  0  0  0  0
  152.4729  140.3262  158.1676 C   0  0  0  0  0  0  0  0  0  0  0  0
  152.6765  141.4838  159.1604 C   0  0  0  0  0  0  0  0  0  0  0  0
  151.9586  144.6270  161.4381 H   0  0  0  0  0  0  0  0  0  0  0  0
  152.2849  142.9211  161.4342 H   0  0  0  0  0  0  0  0  0  0  0  0
  150.8135  143.5362  160.6705 H   0  0  0  0  0  0  0  0  0  0  0  0
  153.6945  143.9167  159.6967 H   0  0  0  0  0  0  0  0  0  0  0  0
  152.2847  146.0535  159.6326 H   0  0  0  0  0  0  0  0  0  0  0  0
  151.2077  145.2505  158.4992 H   0  0  0  0  0  0  0  0  0  0  0  0
  152.8938  145.5746  158.0782 H   0  0  0  0  0  0  0  0  0  0  0  0
  150.2952  142.6226  159.0339 H   0  0  0  0  0  0  0  0  0  0  0  0
  150.6364  143.6959  157.6908 H   0  0  0  0  0  0  0  0  0  0  0  0
  149.5959  141.6720  156.8426 H   0  0  0  0  0  0  0  0  0  0  0  0
  151.2149  141.8565  156.2116 H   0  0  0  0  0  0  0  0  0  0  0  0
  150.3776  140.0316  158.5218 H   0  0  0  0  0  0  0  0  0  0  0  0
  150.1399  138.5683  156.7799 H   0  0  0  0  0  0  0  0  0  0  0  0
  150.5231  138.2359  153.9595 H   0  0  0  0  0  0  0  0  0  0  0  0
  152.2021  137.7528  153.9967 H   0  0  0  0  0  0  0  0  0  0  0  0
  152.0040  134.2230  157.0982 H   0  0  0  0  0  0  0  0  0  0  0  0
  152.7406  139.3827  158.6443 H   0  0  0  0  0  0  0  0  0  0  0  0
  153.1529  140.4509  157.3233 H   0  0  0  0  0  0  0  0  0  0  0  0
  153.7198  141.4515  159.4669 H   0  0  0  0  0  0  0  0  0  0  0  0
  152.0743  141.3261  160.0565 H   0  0  0  0  0  0  0  0  0  0  0  0
  1  2  1  0  0  0  0
  1 20  1  0  0  0  0
  1 21  1  0  0  0  0
  1 22  1  0  0  0  0
  2  3  1  0  0  0  0
  2  4  1  0  0  0  0
  2 23  1  0  0  0  0
  3 24  1  0  0  0  0
  3 25  1  0  0  0  0
  3 26  1  0  0  0  0
  4 19  1  0  0  0  0
  4  5  1  0  0  0  0
  5  6  1  0  0  0  0
  5 27  1  0  0  0  0
  5 28  1  0  0  0  0
  6  7  1  0  0  0  0
  6 29  1  0  0  0  0
  6 30  1  0  0  0  0
  7  8  1  0  0  0  0
  7 18  1  0  0  0  0
  7 31  1  0  0  0  0
  8  9  1  0  0  0  0
  8 32  1  0  0  0  0
  9 10  2  0  0  0  0
  9 11  1  0  0  0  0
 11 12  1  0  0  0  0
 11 33  1  0  0  0  0
 11 34  1  0  0  0  0
 12 16  1  0  0  0  0
 12 13  1  0  0  0  0
 13 14  2  0  0  0  0
 14 15  1  0  0  0  0
 14 35  1  0  0  0  0
 15 16  1  0  0  0  0
 16 17  2  0  0  0  0
 18 19  1  0  0  0  0
 18 36  1  0  0  0  0
 18 37  1  0  0  0  0
 19 38  1  0  0  0  0
 19 39  1  0  0  0  0
M  END
> <s_m_source_file>
AV-unprocessed.smi

> <i_m_source_file_index>
2588

> <i_lp_mmshare_version>
43012

> <i_f3d_flags>
0

> <s_epik_input>
W0NIM11bQ0hdKFtDSDNdKU4xW0NIMl1bQ0gyXVtDSF0oW0NIMl1bQ0gyXTEpW05IXUMoPU8pW0NIMl1uMm5bY0hdc2MyPU8=

> <s_epik_cmdline>
J2VwaWtfcHl0aG9uJywgJy1waCcsICc3LjAnLCAnLXRuJywgJzgnLCAnLW1hJywgJzIwMCcsICctbWV0YWxfYmluZGluZycsICctaW1hZScsICc8aW5maWxlLm1hZT4nLCAnLW9tYWUnLCAnPG91dGZpbGUubWFlPic=

> <r_lp_tautomer_probability>
1

> <r_epik_Ionization_Penalty>
2.47038

> <r_epik_Ionization_Penalty_Charging>
1.38606e-08

> <r_epik_Ionization_Penalty_Neutral>
2.47038

> <r_epik_State_Penalty>
2.63325

> <r_epik_Charging_Adjusted_Penalty>
2.63325

> <i_epik_Tot_Q>
0

> <i_epik_Tot_abs_Q>
0

> <r_epik_Metal_State_Penalty>
2.63325

> <b_epik_Metal_Only>
0

> <s_lp_Force_Field>
OPLS_2005

> <r_lp_Energy>
19.6439

> <b_lp_Chiralities_Consistent>
1

> <s_lp_Variant>
AV-unprocessed.smi:2588-3

> <Gold.Version>
5.8.1

> <Gold.Id.Protein>
6NUR|6NUR_protein|mol2

> <Gold.PLP.Fitness>
41.3192

> <Gold.PLP.PLP>
-35.8262

> <Gold.PLP.part.hbond>
-3.0000

> <Gold.PLP.part.metal>
0.0000

> <Gold.PLP.part.buried>
-3.6076

> <Gold.PLP.part.nonpolar>
-29.1191

> <Gold.PLP.part.repulsive>
0.1980

> <Gold.PLP.ligand.clash>
0.0000

> <Gold.PLP.ligand.torsion>
0.5977

> <Gold.PLP.Chemscore.Hbond>
2.2274

> <Gold.PLP.Chemscore.CHOScore>
0.0000

> <Gold.PLP.Chemscore.Metal>
0.0000

> <Gold.Chemscore.Hbonds>
donor molecule, donor type, donor heavy atom, donor atom, acceptor molecule, acceptor atom, score
      P1  H  7989  7998       L1    10  0.23
      P1  H  7997  8008       L1    10  0.99
      P1  H 10752 10765       L1    13  1.00

> <Gold.PLP.Chemscore.Internal.Correction>
0.0062

> <Gold.Rescore>
     Score         DG    S(hbond)    S(metal)    S(lipo)     H(rot)  DE(clash)    DE(int)     intcor
     15.93     -18.00       1.98        0.00      90.59       1.83       0.01       2.06       ----

> <Gold.Chemscore.Fitness>
15.9300

> <Gold.Chemscore.DG>
-18.0030

> <Gold.Chemscore.ZeroCoef>
-5.4800

> <Gold.Chemscore.Hbond>
1.9810

> <Gold.Chemscore.Metal>
0.0000

> <Gold.Chemscore.Lipo>
90.5947

> <Gold.Chemscore.Internal_Hbond>
0.0000

> <Gold.Chemscore.DEClash>
0.0111

> <Gold.Chemscore.DEInternal>
2.0619

> <Gold.Chemscore.Rot>
1.8332

> <Gold.Chemscore.Internal.Correction>
   9.000000E+99

> <Gold.Chemscore.Hbonds>
donor molecule, donor type, donor heavy atom, donor atom, acceptor molecule, acceptor atom, score
      P1  H  7989  7998       L1    10  0.05
      P1  H  7997  8008       L1    10  0.87
      P1  H 10752 10765       L1    13  0.39

> <Gold.Chemscore.Hbond.Weighted>
-6.6164

> <Gold.Chemscore.Metal.Weighted>
-0.0000

> <Gold.Chemscore.Lipo.Weighted>
-10.5996

> <Gold.Chemscore.Internal_Hbond.Weighted>
0.0000

> <Gold.Chemscore.DEClash.Weighted>
0.0111

> <Gold.Chemscore.DEInternal.Weighted>
2.0619

> <Gold.Chemscore.Rot.Weighted>
4.6930

> <Gold.Chemscore.Internal.Correction.Weighted>
   9.000000E+99

> <Gold.Protein.RotatedTorsions>
[ 6907 6896 6895 6894 ] final   42.11 input  -60.11 | X-H torsion
[ 7974 7965 7964 7962 ] final  -47.59 input  175.53 | X-H torsion
[ 8008 7997 7996 7995 ] final  -43.96 input   59.86 | X-H torsion
[ 10167 10162 10161 10158 ] final  -40.35 input  -65.29 | X-H torsion
[ 10718 10713 10712 10709 ] final  153.34 input   66.30 | X-H torsion
[ 10763 10752 10751 10750 ] final -174.89 input  -60.55 | X-H torsion
[ 11005 11000 10999 10996 ] final   55.08 input  -57.11 | X-H torsion

> <Gold.Protein.ActiveResidues>
 VAL166  LYS551  ARG553  GLY616  TRP617  ASP618  TYR619  PRO620  LYS621  CYS622 
 ASP623  PHE694  ASN695  SER759  ASP760  ASP761  ALA762  ILE779  LEU786  VAL792 
 PHE793  MET794  SER795  GLU796  ALA797  LYS798  CYS799  TRP800  GLU811  SER814 

> <Gold.Protein.RotatedAtoms>
  152.2037  134.8564  160.0504 H   0  0  0  0  0  0  0  0  0  0  0  0  # atno 6907 bound_to 6896
  151.9408  133.3632  159.3972 H   0  0  0  0  0  0  0  0  0  0  0  0  # atno 6908 bound_to 6896
  150.6960  134.4365  159.5316 H   0  0  0  0  0  0  0  0  0  0  0  0  # atno 6909 bound_to 6896
  145.9600  140.7488  142.9462 H   0  0  0  0  0  0  0  0  0  0  0  0  # atno 7974 bound_to 7965
  154.3997  140.1434  156.3605 H   0  0  0  0  0  0  0  0  0  0  0  0  # atno 8008 bound_to 7997
  155.8186  140.3470  155.5479 H   0  0  0  0  0  0  0  0  0  0  0  0  # atno 8009 bound_to 7997
  155.8312  140.0912  157.1782 H   0  0  0  0  0  0  0  0  0  0  0  0  # atno 8010 bound_to 7997
  140.7037  143.3159  151.2912 H   0  0  0  0  0  0  0  0  0  0  0  0  # atno 10167 bound_to 10162
  157.2460  131.0769  151.1761 H   0  0  0  0  0  0  0  0  0  0  0  0  # atno 10718 bound_to 10713
  154.5909  135.2845  155.0636 H   0  0  0  0  0  0  0  0  0  0  0  0  # atno 10763 bound_to 10752
  154.1937  135.6436  153.5071 H   0  0  0  0  0  0  0  0  0  0  0  0  # atno 10764 bound_to 10752
  153.0121  135.5452  154.6594 H   0  0  0  0  0  0  0  0  0  0  0  0  # atno 10765 bound_to 10752
  140.0635  134.5569  155.9125 H   0  0  0  0  0  0  0  0  0  0  0  0  # atno 11005 bound_to 11000
  144.6813  140.2575  143.7323 LP  0  0  0  0  0  0  0  0  0  0  0  0  # atno 17320 bound_to 7965
  145.8053  139.1981  143.2024 LP  0  0  0  0  0  0  0  0  0  0  0  0  # atno 17321 bound_to 7965
  139.6597  144.0212  152.2684 LP  0  0  0  0  0  0  0  0  0  0  0  0  # atno 17342 bound_to 10162
  139.9775  144.6451  150.7931 LP  0  0  0  0  0  0  0  0  0  0  0  0  # atno 17343 bound_to 10162
  157.3328  130.6994  149.6335 LP  0  0  0  0  0  0  0  0  0  0  0  0  # atno 17370 bound_to 10713
  155.9668  130.4302  150.4867 LP  0  0  0  0  0  0  0  0  0  0  0  0  # atno 17371 bound_to 10713
  141.1983  133.6601  156.5786 LP  0  0  0  0  0  0  0  0  0  0  0  0  # atno 17394 bound_to 11000
  140.3734  134.7586  157.4613 LP  0  0  0  0  0  0  0  0  0  0  0  0  # atno 17395 bound_to 11000

$$$$
