AV-unprocessed.smi:1835|AV-procd|sdf|7473|dock1
  -GOLD-   22720 9163D 1   1.00000     0.00000
 Structure written by MMmdl.
 41 42  0  0  0  0  0  0  0  0  1 V2000
  151.9763  138.7447  155.0453 C   0  0  0  0  0  0  0  0  0  0  0  0
  151.2182  140.0769  155.2792 C   0  0  2  0  0  0  0  0  0  0  0  0
  150.8808  140.2048  156.7905 C   0  0  0  0  0  0  0  0  0  0  0  0
  151.5814  141.3169  157.4230 N   0  0  0  0  0  0  0  0  0  0  0  0
  150.9848  142.4038  157.9321 C   0  0  0  0  0  0  0  0  0  0  0  0
  149.7650  142.5748  157.9074 O   0  0  0  0  0  0  0  0  0  0  0  0
  151.9230  143.4541  158.5445 C   0  0  0  0  0  0  0  0  0  0  0  0
  152.3756  143.1209  159.9053 N   0  0  0  0  0  0  0  0  0  0  0  0
  152.0222  144.0167  160.9341 C   0  0  0  0  0  0  0  0  0  0  0  0
  152.3847  143.8113  162.2101 C   0  0  0  0  0  0  0  0  0  0  0  0
  153.1606  142.6333  162.5179 C   0  0  0  0  0  0  0  0  0  0  0  0
  153.4992  141.7670  161.5424 C   0  0  0  0  0  0  0  0  0  0  0  0
  153.1008  141.9850  160.1466 C   0  0  0  0  0  0  0  0  0  0  0  0
  153.4017  141.1962  159.2504 O   0  0  0  0  0  0  0  0  0  0  0  0
  150.0382  140.2213  154.3944 N   0  0  0  0  0  0  0  0  0  0  0  0
  149.3215  141.4823  154.6209 C   0  0  0  0  0  0  0  0  0  0  0  0
  148.0779  141.6342  153.7282 C   0  0  0  0  0  0  0  0  0  0  0  0
  147.2034  140.5344  153.9369 O   0  0  0  0  0  0  0  0  0  0  0  0
  147.8322  139.2934  153.6497 C   0  0  0  0  0  0  0  0  0  0  0  0
  149.0763  139.1222  154.5392 C   0  0  0  0  0  0  0  0  0  0  0  0
  152.8143  138.6131  155.7288 H   0  0  0  0  0  0  0  0  0  0  0  0
  152.4134  138.6863  154.0495 H   0  0  0  0  0  0  0  0  0  0  0  0
  151.3136  137.8880  155.1732 H   0  0  0  0  0  0  0  0  0  0  0  0
  151.9131  140.8844  155.0432 H   0  0  0  0  0  0  0  0  0  0  0  0
  149.8189  140.3912  156.9450 H   0  0  0  0  0  0  0  0  0  0  0  0
  151.1250  139.2774  157.3114 H   0  0  0  0  0  0  0  0  0  0  0  0
  152.5873  141.2516  157.4803 H   0  0  0  0  0  0  0  0  0  0  0  0
  152.7820  143.5929  157.8852 H   0  0  0  0  0  0  0  0  0  0  0  0
  151.4061  144.4150  158.5428 H   0  0  0  0  0  0  0  0  0  0  0  0
  151.4365  144.8689  160.6213 H   0  0  0  0  0  0  0  0  0  0  0  0
  152.1005  144.5070  162.9860 H   0  0  0  0  0  0  0  0  0  0  0  0
  153.4703  142.4455  163.5352 H   0  0  0  0  0  0  0  0  0  0  0  0
  154.0789  140.8905  161.7919 H   0  0  0  0  0  0  0  0  0  0  0  0
  149.0240  141.5555  155.6682 H   0  0  0  0  0  0  0  0  0  0  0  0
  149.9664  142.3344  154.4154 H   0  0  0  0  0  0  0  0  0  0  0  0
  147.5506  142.5574  153.9686 H   0  0  0  0  0  0  0  0  0  0  0  0
  148.3616  141.6916  152.6761 H   0  0  0  0  0  0  0  0  0  0  0  0
  147.1234  138.4856  153.8323 H   0  0  0  0  0  0  0  0  0  0  0  0
  148.1026  139.2494  152.5935 H   0  0  0  0  0  0  0  0  0  0  0  0
  149.5312  138.1739  154.2605 H   0  0  0  0  0  0  0  0  0  0  0  0
  148.7675  139.0344  155.5818 H   0  0  0  0  0  0  0  0  0  0  0  0
  1  2  1  0  0  0  0
  1 21  1  0  0  0  0
  1 22  1  0  0  0  0
  1 23  1  0  0  0  0
  2  3  1  0  0  0  0
  2 15  1  0  0  0  0
  2 24  1  0  0  0  0
  3  4  1  0  0  0  0
  3 25  1  0  0  0  0
  3 26  1  0  0  0  0
  4  5  1  0  0  0  0
  4 27  1  0  0  0  0
  5  6  2  0  0  0  0
  5  7  1  0  0  0  0
  7  8  1  0  0  0  0
  7 28  1  0  0  0  0
  7 29  1  0  0  0  0
  8 13  1  0  0  0  0
  8  9  1  0  0  0  0
  9 10  2  0  0  0  0
  9 30  1  0  0  0  0
 10 11  1  0  0  0  0
 10 31  1  0  0  0  0
 11 12  2  0  0  0  0
 11 32  1  0  0  0  0
 12 13  1  0  0  0  0
 12 33  1  0  0  0  0
 13 14  2  0  0  0  0
 15 20  1  0  0  0  0
 15 16  1  0  0  0  0
 16 17  1  0  0  0  0
 16 34  1  0  0  0  0
 16 35  1  0  0  0  0
 17 18  1  0  0  0  0
 17 36  1  0  0  0  0
 17 37  1  0  0  0  0
 18 19  1  0  0  0  0
 19 20  1  0  0  0  0
 19 38  1  0  0  0  0
 19 39  1  0  0  0  0
 20 40  1  0  0  0  0
 20 41  1  0  0  0  0
M  END
> <s_m_source_file>
AV-unprocessed.smi

> <i_m_source_file_index>
1835

> <i_lp_mmshare_version>
43012

> <i_f3d_flags>
0

> <s_epik_input>
W0NIMl0xW0NIMl1PW0NIMl1bQ0gyXU4xW0NASF0oW0NIM10pW0NIMl1bTkhdQyg9TylbQ0gyXW4yW2NIXVtjSF1bY0hdW2NIXWMyPU8=

> <s_epik_cmdline>
J2VwaWtfcHl0aG9uJywgJy1waCcsICc3LjAnLCAnLXRuJywgJzgnLCAnLW1hJywgJzIwMCcsICctbWV0YWxfYmluZGluZycsICctaW1hZScsICc8aW5maWxlLm1hZT4nLCAnLW9tYWUnLCAnPG91dGZpbGUubWFlPic=

> <r_lp_tautomer_probability>
1

> <r_epik_Ionization_Penalty>
0.237383

> <r_epik_Ionization_Penalty_Charging>
3.58805e-07

> <r_epik_Ionization_Penalty_Neutral>
0.237382

> <r_epik_State_Penalty>
0.228245

> <r_epik_Charging_Adjusted_Penalty>
0.228245

> <i_epik_Tot_Q>
0

> <i_epik_Tot_abs_Q>
0

> <r_epik_Metal_State_Penalty>
0.22822

> <b_epik_Metal_Only>
0

> <s_lp_Force_Field>
OPLS_2005

> <r_lp_Energy>
38.378

> <b_lp_Chiralities_Consistent>
1

> <s_lp_Variant>
AV-unprocessed.smi:1835-1

> <Gold.Version>
5.8.1

> <Gold.Id.Protein>
6NUR|6NUR_protein|mol2

> <Gold.PLP.Fitness>
45.7313

> <Gold.PLP.PLP>
-47.7608

> <Gold.PLP.part.hbond>
-1.0074

> <Gold.PLP.part.metal>
0.0000

> <Gold.PLP.part.buried>
-2.1337

> <Gold.PLP.part.nonpolar>
-44.0659

> <Gold.PLP.part.repulsive>
0.4545

> <Gold.PLP.ligand.clash>
0.0000

> <Gold.PLP.ligand.torsion>
1.0529

> <Gold.PLP.Chemscore.Hbond>
0.0000

> <Gold.PLP.Chemscore.CHOScore>
0.0000

> <Gold.PLP.Chemscore.Metal>
0.0000

> <Gold.PLP.Chemscore.Internal.Correction>
0.0764

> <Gold.Rescore>
     Score         DG    S(hbond)    S(metal)    S(lipo)     H(rot)  DE(clash)    DE(int)     intcor
     10.03     -12.74       0.00        0.00     103.38       1.89       0.07       2.64       ----

> <Gold.Chemscore.Fitness>
10.0270

> <Gold.Chemscore.DG>
-12.7418

> <Gold.Chemscore.ZeroCoef>
-5.4800

> <Gold.Chemscore.Hbond>
0.0000

> <Gold.Chemscore.Metal>
0.0000

> <Gold.Chemscore.Lipo>
103.3816

> <Gold.Chemscore.Internal_Hbond>
0.0000

> <Gold.Chemscore.DEClash>
0.0709

> <Gold.Chemscore.DEInternal>
2.6439

> <Gold.Chemscore.Rot>
1.8882

> <Gold.Chemscore.Internal.Correction>
   9.000000E+99

> <Gold.Chemscore.Hbond.Weighted>
-0.0000

> <Gold.Chemscore.Metal.Weighted>
-0.0000

> <Gold.Chemscore.Lipo.Weighted>
-12.0956

> <Gold.Chemscore.Internal_Hbond.Weighted>
0.0000

> <Gold.Chemscore.DEClash.Weighted>
0.0709

> <Gold.Chemscore.DEInternal.Weighted>
2.6439

> <Gold.Chemscore.Rot.Weighted>
4.8338

> <Gold.Chemscore.Internal.Correction.Weighted>
   9.000000E+99

> <Gold.Protein.RotatedTorsions>
[ 6907 6896 6895 6894 ] final  -15.75 input  -60.11 | X-H torsion
[ 7974 7965 7964 7962 ] final  150.30 input  175.53 | X-H torsion
[ 8008 7997 7996 7995 ] final   56.05 input   59.86 | X-H torsion
[ 10167 10162 10161 10158 ] final  -66.87 input  -65.29 | X-H torsion
[ 10718 10713 10712 10709 ] final  173.85 input   66.30 | X-H torsion
[ 10763 10752 10751 10750 ] final -155.39 input  -60.55 | X-H torsion
[ 11005 11000 10999 10996 ] final   55.44 input  -57.11 | X-H torsion

> <Gold.Protein.ActiveResidues>
 VAL166  LYS551  ARG553  GLY616  TRP617  ASP618  TYR619  PRO620  LYS621  CYS622 
 ASP623  PHE694  ASN695  SER759  ASP760  ASP761  ALA762  ILE779  LEU786  VAL792 
 PHE793  MET794  SER795  GLU796  ALA797  LYS798  CYS799  TRP800  GLU811  SER814 

> <Gold.Protein.RotatedAtoms>
  151.3192  135.0814  159.9299 H   0  0  0  0  0  0  0  0  0  0  0  0  # atno 6907 bound_to 6896
  152.5260  133.9656  159.7748 H   0  0  0  0  0  0  0  0  0  0  0  0  # atno 6908 bound_to 6896
  150.9974  133.6037  159.2730 H   0  0  0  0  0  0  0  0  0  0  0  0  # atno 6909 bound_to 6896
  144.8375  139.6390  143.6031 H   0  0  0  0  0  0  0  0  0  0  0  0  # atno 7974 bound_to 7965
  155.5112  140.3477  155.4389 H   0  0  0  0  0  0  0  0  0  0  0  0  # atno 8008 bound_to 7997
  156.0848  140.1395  156.9694 H   0  0  0  0  0  0  0  0  0  0  0  0  # atno 8009 bound_to 7997
  154.4600  140.0938  156.6843 H   0  0  0  0  0  0  0  0  0  0  0  0  # atno 8010 bound_to 7997
  140.5625  143.2313  151.6700 H   0  0  0  0  0  0  0  0  0  0  0  0  # atno 10167 bound_to 10162
  156.9583  131.0052  151.2933 H   0  0  0  0  0  0  0  0  0  0  0  0  # atno 10718 bound_to 10713
  154.7790  135.3169  154.8029 H   0  0  0  0  0  0  0  0  0  0  0  0  # atno 10763 bound_to 10752
  153.8745  135.6841  153.4776 H   0  0  0  0  0  0  0  0  0  0  0  0  # atno 10764 bound_to 10752
  153.1422  135.4734  154.9449 H   0  0  0  0  0  0  0  0  0  0  0  0  # atno 10765 bound_to 10752
  140.0607  134.5606  155.9155 H   0  0  0  0  0  0  0  0  0  0  0  0  # atno 11005 bound_to 11000
  146.2671  139.6547  142.9321 LP  0  0  0  0  0  0  0  0  0  0  0  0  # atno 17320 bound_to 7965
  145.4765  141.0437  143.2670 LP  0  0  0  0  0  0  0  0  0  0  0  0  # atno 17321 bound_to 7965
  139.5077  144.3638  152.0536 LP  0  0  0  0  0  0  0  0  0  0  0  0  # atno 17342 bound_to 10162
  140.2766  144.3906  150.6133 LP  0  0  0  0  0  0  0  0  0  0  0  0  # atno 17343 bound_to 10162
  157.5675  130.8288  149.8347 LP  0  0  0  0  0  0  0  0  0  0  0  0  # atno 17370 bound_to 10713
  156.0333  130.3758  150.1628 LP  0  0  0  0  0  0  0  0  0  0  0  0  # atno 17371 bound_to 10713
  141.1972  133.6595  156.5728 LP  0  0  0  0  0  0  0  0  0  0  0  0  # atno 17394 bound_to 11000
  140.3774  134.7553  157.4639 LP  0  0  0  0  0  0  0  0  0  0  0  0  # atno 17395 bound_to 11000

$$$$
