AV-unprocessed.smi:1799|AV-procd|sdf|7262|dock7
  -GOLD-   22720 8513D 1   1.00000     0.00000
 Structure written by MMmdl.
 40 41  0  0  0  0  0  0  0  0  3 V2000
  149.9070  140.3562  157.6057 C   0  0  0  0  0  0  0  0  0  0  0  0
  149.7354  141.7115  156.8842 C   0  0  0  0  0  0  0  0  0  0  0  0
  150.6562  142.7128  157.6084 C   0  0  0  0  0  0  0  0  0  0  0  0
  150.1745  141.6511  155.3972 C   0  0  0  0  0  0  0  0  0  0  0  0
  149.1435  141.0398  154.4354 C   0  0  0  0  0  0  0  0  0  0  0  0
  149.0980  139.5836  154.5427 N   0  0  0  0  0  0  0  0  0  0  0  0
  150.1466  138.7489  154.5476 C   0  0  0  0  0  0  0  0  0  0  0  0
  151.2936  139.1978  154.4966 O   0  0  0  0  0  0  0  0  0  0  0  0
  149.7959  137.4443  154.5965 N   0  5  0  0  0  0  0  0  0  0  0  0
  150.5194  136.5830  155.3306 C   0  0  0  0  0  0  0  0  0  0  0  0
  151.7369  136.8883  155.8072 N   0  0  0  0  0  0  0  0  0  0  0  0
  152.3090  135.8588  156.5422 N   0  0  0  0  0  0  0  0  0  0  0  0
  151.5005  134.8012  156.6081 C   0  0  0  0  0  0  0  0  0  0  0  0
  149.9663  134.9677  155.7809 S   0  0  0  0  0  0  0  0  0  0  0  0
  147.7737  141.7162  154.6373 C   0  0  0  0  0  0  0  0  0  0  0  0
  147.2737  141.7591  156.1025 C   0  0  0  0  0  0  0  0  0  0  0  0
  146.1319  142.7911  156.1818 C   0  0  0  0  0  0  0  0  0  0  0  0
  146.6784  140.4106  156.5653 C   0  0  0  0  0  0  0  0  0  0  0  0
  148.3453  142.2320  157.0237 N   0  3  0  0  0  0  0  0  0  0  0  0
  150.9572  140.0633  157.6349 H   0  0  0  0  0  0  0  0  0  0  0  0
  149.3800  139.5354  157.1306 H   0  0  0  0  0  0  0  0  0  0  0  0
  149.5594  140.4107  158.6379 H   0  0  0  0  0  0  0  0  0  0  0  0
  151.7035  142.4165  157.5364 H   0  0  0  0  0  0  0  0  0  0  0  0
  150.4097  142.7875  158.6685 H   0  0  0  0  0  0  0  0  0  0  0  0
  150.5713  143.7145  157.1849 H   0  0  0  0  0  0  0  0  0  0  0  0
  150.3646  142.6679  155.0501 H   0  0  0  0  0  0  0  0  0  0  0  0
  151.1304  141.1329  155.3036 H   0  0  0  0  0  0  0  0  0  0  0  0
  149.4806  141.2600  153.4209 H   0  0  0  0  0  0  0  0  0  0  0  0
  148.1825  139.1617  154.5995 H   0  0  0  0  0  0  0  0  0  0  0  0
  151.8077  133.9191  157.1495 H   0  0  0  0  0  0  0  0  0  0  0  0
  147.8734  142.7406  154.2752 H   0  0  0  0  0  0  0  0  0  0  0  0
  147.0181  141.2627  153.9948 H   0  0  0  0  0  0  0  0  0  0  0  0
  145.3124  142.5298  155.5107 H   0  0  0  0  0  0  0  0  0  0  0  0
  146.4727  143.7899  155.9061 H   0  0  0  0  0  0  0  0  0  0  0  0
  145.7202  142.8557  157.1899 H   0  0  0  0  0  0  0  0  0  0  0  0
  145.8093  140.1441  155.9624 H   0  0  0  0  0  0  0  0  0  0  0  0
  146.3484  140.4590  157.6035 H   0  0  0  0  0  0  0  0  0  0  0  0
  147.3654  139.5751  156.4854 H   0  0  0  0  0  0  0  0  0  0  0  0
  148.0395  142.1003  157.9771 H   0  0  0  0  0  0  0  0  0  0  0  0
  148.4159  143.2257  156.8593 H   0  0  0  0  0  0  0  0  0  0  0  0
  1  2  1  0  0  0  0
  1 20  1  0  0  0  0
  1 21  1  0  0  0  0
  1 22  1  0  0  0  0
  2 19  1  0  0  0  0
  2  3  1  0  0  0  0
  2  4  1  0  0  0  0
  3 23  1  0  0  0  0
  3 24  1  0  0  0  0
  3 25  1  0  0  0  0
  4  5  1  0  0  0  0
  4 26  1  0  0  0  0
  4 27  1  0  0  0  0
  5  6  1  0  0  0  0
  5 15  1  0  0  0  0
  5 28  1  0  0  0  0
  6  7  1  0  0  0  0
  6 29  1  0  0  0  0
  7  8  2  0  0  0  0
  7  9  1  0  0  0  0
  9 10  1  0  0  0  0
 10 14  1  0  0  0  0
 10 11  2  0  0  0  0
 11 12  1  0  0  0  0
 12 13  2  0  0  0  0
 13 14  1  0  0  0  0
 13 30  1  0  0  0  0
 15 16  1  0  0  0  0
 15 31  1  0  0  0  0
 15 32  1  0  0  0  0
 16 17  1  0  0  0  0
 16 18  1  0  0  0  0
 16 19  1  0  0  0  0
 17 33  1  0  0  0  0
 17 34  1  0  0  0  0
 17 35  1  0  0  0  0
 18 36  1  0  0  0  0
 18 37  1  0  0  0  0
 18 38  1  0  0  0  0
 19 39  1  0  0  0  0
 19 40  1  0  0  0  0
M  CHG  1   9  -1
M  CHG  1  19   1
M  END
> <s_m_source_file>
AV-unprocessed.smi

> <i_m_source_file_index>
1799

> <i_lp_mmshare_version>
43012

> <i_f3d_flags>
0

> <s_epik_input>
W0NIM11DMShbQ0gzXSlbQ0gyXVtDSF0oW0NIMl1DKFtDSDNdKShbQ0gzXSlbTkhdMSlbTkhdQyg9TylbTkhdYzJubltjSF1zMg==

> <s_epik_cmdline>
J2VwaWtfcHl0aG9uJywgJy1waCcsICc3LjAnLCAnLXRuJywgJzgnLCAnLW1hJywgJzIwMCcsICctbWV0YWxfYmluZGluZycsICctaW1hZScsICc8aW5maWxlLm1hZT4nLCAnLW9tYWUnLCAnPG91dGZpbGUubWFlPic=

> <r_lp_tautomer_probability>
1

> <r_epik_Ionization_Penalty>
4.14205

> <r_epik_Ionization_Penalty_Charging>
4.10837

> <r_epik_Ionization_Penalty_Neutral>
0.0336815

> <r_epik_State_Penalty>
4.10769

> <r_epik_Charging_Adjusted_Penalty>
8.21606

> <i_epik_Tot_Q>
0

> <i_epik_Tot_abs_Q>
2

> <r_epik_Metal_State_Penalty>
0.655549

> <b_epik_Metal_Only>
1

> <s_lp_Force_Field>
OPLS_2005

> <r_lp_Energy>
17.9013

> <b_lp_Chiralities_Consistent>
1

> <s_lp_Variant>
AV-unprocessed.smi:1799-2

> <Gold.Version>
5.8.1

> <Gold.Id.Protein>
6NUR|6NUR_protein|mol2

> <Gold.PLP.Fitness>
36.6745

> <Gold.PLP.PLP>
-25.5205

> <Gold.PLP.part.hbond>
-4.0000

> <Gold.PLP.part.metal>
0.0000

> <Gold.PLP.part.buried>
-2.9216

> <Gold.PLP.part.nonpolar>
-19.3043

> <Gold.PLP.part.repulsive>
1.1350

> <Gold.PLP.ligand.clash>
0.0000

> <Gold.PLP.ligand.torsion>
0.4316

> <Gold.PLP.Chemscore.Hbond>
4.0000

> <Gold.PLP.Chemscore.CHOScore>
0.0000

> <Gold.PLP.Chemscore.Metal>
0.0000

> <Gold.Chemscore.Hbonds>
donor molecule, donor type, donor heavy atom, donor atom, acceptor molecule, acceptor atom, score
      L1  H    19    40       P1  8028  2.00
      P1  H  7989  7998       L1     8  1.00
      P1  H 10752 10764       L1    12  0.85

> <Gold.PLP.Chemscore.Internal.Correction>
0.0172

> <Gold.Rescore>
     Score         DG    S(hbond)    S(metal)    S(lipo)     H(rot)  DE(clash)    DE(int)     intcor
     11.52     -15.15       1.74        0.00      54.84       1.00       0.37       3.26       ----

> <Gold.Chemscore.Fitness>
11.5190

> <Gold.Chemscore.DG>
-15.1503

> <Gold.Chemscore.ZeroCoef>
-5.4800

> <Gold.Chemscore.Hbond>
1.7406

> <Gold.Chemscore.Metal>
0.0000

> <Gold.Chemscore.Lipo>
54.8442

> <Gold.Chemscore.Internal_Hbond>
0.0000

> <Gold.Chemscore.DEClash>
0.3666

> <Gold.Chemscore.DEInternal>
3.2646

> <Gold.Chemscore.Rot>
1.0000

> <Gold.Chemscore.Internal.Correction>
   9.000000E+99

> <Gold.Chemscore.Hbonds>
donor molecule, donor type, donor heavy atom, donor atom, acceptor molecule, acceptor atom, score
      L1  H    19    40       P1  8028  0.32
      P1  H  7989  7998       L1     8  0.96
      P1  H 10752 10764       L1    12  0.06

> <Gold.Chemscore.Hbond.Weighted>
-5.8135

> <Gold.Chemscore.Metal.Weighted>
-0.0000

> <Gold.Chemscore.Lipo.Weighted>
-6.4168

> <Gold.Chemscore.Internal_Hbond.Weighted>
0.0000

> <Gold.Chemscore.DEClash.Weighted>
0.3666

> <Gold.Chemscore.DEInternal.Weighted>
3.2646

> <Gold.Chemscore.Rot.Weighted>
2.5600

> <Gold.Chemscore.Internal.Correction.Weighted>
   9.000000E+99

> <Gold.Protein.RotatedTorsions>
[ 6907 6896 6895 6894 ] final   89.76 input  -60.11 | X-H torsion
[ 7974 7965 7964 7962 ] final -132.55 input  175.53 | X-H torsion
[ 8008 7997 7996 7995 ] final -108.97 input   59.86 | X-H torsion
[ 10167 10162 10161 10158 ] final -134.42 input  -65.29 | X-H torsion
[ 10718 10713 10712 10709 ] final  -46.83 input   66.30 | X-H torsion
[ 10763 10752 10751 10750 ] final   -1.01 input  -60.55 | X-H torsion
[ 11005 11000 10999 10996 ] final   10.15 input  -57.11 | X-H torsion

> <Gold.Protein.ActiveResidues>
 VAL166  LYS551  ARG553  GLY616  TRP617  ASP618  TYR619  PRO620  LYS621  CYS622 
 ASP623  PHE694  ASN695  SER759  ASP760  ASP761  ALA762  ILE779  LEU786  VAL792 
 PHE793  MET794  SER795  GLU796  ALA797  LYS798  CYS799  TRP800  GLU811  SER814 

> <Gold.Protein.RotatedAtoms>
  152.5439  134.1916  159.8675 H   0  0  0  0  0  0  0  0  0  0  0  0  # atno 6907 bound_to 6896
  151.1911  133.4660  159.2602 H   0  0  0  0  0  0  0  0  0  0  0  0  # atno 6908 bound_to 6896
  151.1082  135.0023  159.8537 H   0  0  0  0  0  0  0  0  0  0  0  0  # atno 6909 bound_to 6896
  144.9275  140.7089  143.4926 H   0  0  0  0  0  0  0  0  0  0  0  0  # atno 7974 bound_to 7965
  154.9522  140.0400  157.2149 H   0  0  0  0  0  0  0  0  0  0  0  0  # atno 8008 bound_to 7997
  154.7967  140.2845  155.5929 H   0  0  0  0  0  0  0  0  0  0  0  0  # atno 8009 bound_to 7997
  156.2956  140.2563  156.2827 H   0  0  0  0  0  0  0  0  0  0  0  0  # atno 8010 bound_to 7997
  139.8882  143.6755  152.2616 H   0  0  0  0  0  0  0  0  0  0  0  0  # atno 10167 bound_to 10162
  156.2144  130.4162  149.9073 H   0  0  0  0  0  0  0  0  0  0  0  0  # atno 10718 bound_to 10713
  153.3393  135.6979  153.6880 H   0  0  0  0  0  0  0  0  0  0  0  0  # atno 10763 bound_to 10752
  153.5651  135.3527  155.2816 H   0  0  0  0  0  0  0  0  0  0  0  0  # atno 10764 bound_to 10752
  154.8633  135.4259  154.2602 H   0  0  0  0  0  0  0  0  0  0  0  0  # atno 10765 bound_to 10752
  140.5178  134.0589  155.7836 H   0  0  0  0  0  0  0  0  0  0  0  0  # atno 11005 bound_to 11000
  145.3195  139.1793  143.4595 LP  0  0  0  0  0  0  0  0  0  0  0  0  # atno 17320 bound_to 7965
  146.3232  140.3210  142.8633 LP  0  0  0  0  0  0  0  0  0  0  0  0  # atno 17321 bound_to 7965
  139.7133  144.7616  151.1075 LP  0  0  0  0  0  0  0  0  0  0  0  0  # atno 17342 bound_to 10162
  140.7731  143.5302  150.9433 LP  0  0  0  0  0  0  0  0  0  0  0  0  # atno 17343 bound_to 10162
  156.6741  130.8832  151.3566 LP  0  0  0  0  0  0  0  0  0  0  0  0  # atno 17370 bound_to 10713
  157.7055  130.9380  150.0918 LP  0  0  0  0  0  0  0  0  0  0  0  0  # atno 17371 bound_to 10713
  141.1351  133.9236  157.2452 LP  0  0  0  0  0  0  0  0  0  0  0  0  # atno 17394 bound_to 11000
  139.9623  135.0151  156.9293 LP  0  0  0  0  0  0  0  0  0  0  0  0  # atno 17395 bound_to 11000

$$$$
