AV-unprocessed.smi:1046|AV-procd|sdf|4558|dock9
  -GOLD-   22720 2593D 1   1.00000     0.00000
 Structure written by MMmdl.
 54 56  0  0  0  0  0  0  0  0  3 V2000
  152.3950  143.7903  161.6403 C   0  0  0  0  0  0  0  0  0  0  0  0
  152.2324  142.9996  160.3531 C   0  0  0  0  0  0  0  0  0  0  0  0
  151.4149  143.5341  159.3320 C   0  0  0  0  0  0  0  0  0  0  0  0
  151.2834  142.7865  158.1678 C   0  0  0  0  0  0  0  0  0  0  0  0
  150.5589  143.0336  157.0000 N   0  3  0  0  0  0  0  0  0  0  0  0
  150.7377  142.0036  156.1275 C   0  0  0  0  0  0  0  0  0  0  0  0
  151.5650  141.1010  156.7212 N   0  0  0  0  0  0  0  0  0  0  0  0
  152.0781  139.8217  156.2091 C   0  0  0  0  0  0  0  0  0  0  0  0
  151.9303  138.6654  157.2198 C   0  0  2  0  0  0  0  0  0  0  0  0
  153.1019  137.8757  157.2128 O   0  0  0  0  0  0  0  0  0  0  0  0
  150.7449  137.7374  156.8882 C   0  0  0  0  0  0  0  0  0  0  0  0
  150.8044  137.0805  155.5771 N   0  0  0  0  0  0  0  0  0  0  0  0
  149.9226  135.9169  155.4869 C   0  0  0  0  0  0  0  0  0  0  0  0
  148.4270  136.2883  155.4199 C   0  0  0  0  0  0  0  0  0  0  0  0
  148.1687  137.1940  154.2709 N   0  3  0  0  0  0  0  0  0  0  0  0
  146.7281  137.5214  154.1203 C   0  0  0  0  0  0  0  0  0  0  0  0
  146.4270  138.2966  152.8262 C   0  0  0  0  0  0  0  0  0  0  0  0
  145.0687  138.1410  152.4722 O   0  0  0  0  0  0  0  0  0  0  0  0
  149.0505  138.3899  154.3378 C   0  0  0  0  0  0  0  0  0  0  0  0
  150.5289  137.9605  154.4383 C   0  0  0  0  0  0  0  0  0  0  0  0
  151.9327  141.5484  157.9962 C   0  0  0  0  0  0  0  0  0  0  0  0
  152.7430  141.0081  158.9928 C   0  0  0  0  0  0  0  0  0  0  0  0
  152.8888  141.7529  160.1849 C   0  0  0  0  0  0  0  0  0  0  0  0
  153.7656  141.1871  161.2892 C   0  0  0  0  0  0  0  0  0  0  0  0
  151.7822  144.6922  161.6345 H   0  0  0  0  0  0  0  0  0  0  0  0
  153.4339  144.0930  161.7738 H   0  0  0  0  0  0  0  0  0  0  0  0
  152.0947  143.1910  162.5001 H   0  0  0  0  0  0  0  0  0  0  0  0
  150.9127  144.4830  159.4527 H   0  0  0  0  0  0  0  0  0  0  0  0
  150.3026  141.9196  155.1420 H   0  0  0  0  0  0  0  0  0  0  0  0
  151.5164  139.5965  155.3019 H   0  0  0  0  0  0  0  0  0  0  0  0
  153.1156  139.9469  155.8983 H   0  0  0  0  0  0  0  0  0  0  0  0
  151.8299  139.0679  158.2273 H   0  0  0  0  0  0  0  0  0  0  0  0
  153.7503  138.2969  157.7561 H   0  0  0  0  0  0  0  0  0  0  0  0
  150.6991  136.9702  157.6628 H   0  0  0  0  0  0  0  0  0  0  0  0
  149.8165  138.3002  156.9822 H   0  0  0  0  0  0  0  0  0  0  0  0
  150.1830  135.3428  154.5966 H   0  0  0  0  0  0  0  0  0  0  0  0
  150.1011  135.2496  156.3310 H   0  0  0  0  0  0  0  0  0  0  0  0
  147.8376  135.3777  155.3057 H   0  0  0  0  0  0  0  0  0  0  0  0
  148.0995  136.7595  156.3476 H   0  0  0  0  0  0  0  0  0  0  0  0
  146.1413  136.6014  154.1133 H   0  0  0  0  0  0  0  0  0  0  0  0
  146.3925  138.0895  154.9892 H   0  0  0  0  0  0  0  0  0  0  0  0
  146.6178  139.3587  152.9820 H   0  0  0  0  0  0  0  0  0  0  0  0
  147.0625  137.9825  151.9988 H   0  0  0  0  0  0  0  0  0  0  0  0
  144.7363  138.9748  152.1742 H   0  0  0  0  0  0  0  0  0  0  0  0
  148.9239  138.9995  153.4441 H   0  0  0  0  0  0  0  0  0  0  0  0
  148.7685  139.0165  155.1845 H   0  0  0  0  0  0  0  0  0  0  0  0
  151.1709  138.8398  154.4680 H   0  0  0  0  0  0  0  0  0  0  0  0
  150.8007  137.4386  153.5199 H   0  0  0  0  0  0  0  0  0  0  0  0
  153.2390  140.0567  158.8694 H   0  0  0  0  0  0  0  0  0  0  0  0
  154.2420  140.2554  160.9827 H   0  0  0  0  0  0  0  0  0  0  0  0
  153.1720  140.9812  162.1803 H   0  0  0  0  0  0  0  0  0  0  0  0
  154.5547  141.8916  161.5534 H   0  0  0  0  0  0  0  0  0  0  0  0
  148.4307  136.6784  153.4425 H   0  0  0  0  0  0  0  0  0  0  0  0
  149.9848  143.8450  156.8094 H   0  0  0  0  0  0  0  0  0  0  0  0
  1  2  1  0  0  0  0
  1 25  1  0  0  0  0
  1 26  1  0  0  0  0
  1 27  1  0  0  0  0
  2 23  1  0  0  0  0
  2  3  2  0  0  0  0
  3  4  1  0  0  0  0
  3 28  1  0  0  0  0
  4 21  2  0  0  0  0
  4  5  1  0  0  0  0
  5  6  2  0  0  0  0
  5 54  1  0  0  0  0
  6  7  1  0  0  0  0
  6 29  1  0  0  0  0
  7  8  1  0  0  0  0
  7 21  1  0  0  0  0
  8  9  1  0  0  0  0
  8 30  1  0  0  0  0
  8 31  1  0  0  0  0
  9 10  1  0  0  0  0
  9 11  1  0  0  0  0
  9 32  1  0  0  0  0
 10 33  1  0  0  0  0
 11 12  1  0  0  0  0
 11 34  1  0  0  0  0
 11 35  1  0  0  0  0
 12 20  1  0  0  0  0
 12 13  1  0  0  0  0
 13 14  1  0  0  0  0
 13 36  1  0  0  0  0
 13 37  1  0  0  0  0
 14 15  1  0  0  0  0
 14 38  1  0  0  0  0
 14 39  1  0  0  0  0
 15 16  1  0  0  0  0
 15 19  1  0  0  0  0
 15 53  1  0  0  0  0
 16 17  1  0  0  0  0
 16 40  1  0  0  0  0
 16 41  1  0  0  0  0
 17 18  1  0  0  0  0
 17 42  1  0  0  0  0
 17 43  1  0  0  0  0
 18 44  1  0  0  0  0
 19 20  1  0  0  0  0
 19 45  1  0  0  0  0
 19 46  1  0  0  0  0
 20 47  1  0  0  0  0
 20 48  1  0  0  0  0
 21 22  1  0  0  0  0
 22 23  2  0  0  0  0
 22 49  1  0  0  0  0
 23 24  1  0  0  0  0
 24 50  1  0  0  0  0
 24 51  1  0  0  0  0
 24 52  1  0  0  0  0
M  CHG  1   5   1
M  CHG  1  15   1
M  END
> <s_m_source_file>
AV-unprocessed.smi

> <i_m_source_file_index>
1046

> <i_lp_mmshare_version>
43012

> <i_f3d_flags>
0

> <s_epik_input>
W0NIM11jKFtjSF0xKWMoW0NIM10pW2NIXWMoYzEyKW4oW2NIXW4yKVtDSDJdW0NASF0oW09IXSlbQ0gyXU4zW0NIMl1bQ0gyXU4oW0NIMl1bQ0gyXTMpW0NIMl1bQ0gyXVtPSF0=

> <s_epik_cmdline>
J2VwaWtfcHl0aG9uJywgJy1waCcsICc3LjAnLCAnLXRuJywgJzgnLCAnLW1hJywgJzIwMCcsICctbWV0YWxfYmluZGluZycsICctaW1hZScsICc8aW5maWxlLm1hZT4nLCAnLW9tYWUnLCAnPG91dGZpbGUubWFlPic=

> <r_epik_Ionization_Penalty>
1.37806

> <r_epik_Ionization_Penalty_Charging>
1.32954

> <r_epik_Ionization_Penalty_Neutral>
0.0485178

> <r_epik_State_Penalty>
2.26587

> <r_epik_Charging_Adjusted_Penalty>
3.59541

> <i_epik_Tot_Q>
2

> <i_epik_Tot_abs_Q>
2

> <r_epik_Metal_State_Penalty>
6.27317

> <b_epik_Metal_Only>
0

> <s_lp_Force_Field>
OPLS_2005

> <r_lp_Energy>
41.5641

> <b_lp_Chiralities_Consistent>
1

> <s_lp_Variant>
AV-unprocessed.smi:1046-11

> <Gold.Version>
5.8.1

> <Gold.Id.Protein>
6NUR|6NUR_protein|mol2

> <Gold.PLP.Fitness>
57.1178

> <Gold.PLP.PLP>
-44.0861

> <Gold.PLP.part.hbond>
-4.0000

> <Gold.PLP.part.metal>
0.0000

> <Gold.PLP.part.buried>
-6.3604

> <Gold.PLP.part.nonpolar>
-34.2866

> <Gold.PLP.part.repulsive>
0.0984

> <Gold.PLP.ligand.clash>
0.0006

> <Gold.PLP.ligand.torsion>
0.9816

> <Gold.PLP.Chemscore.Hbond>
4.9840

> <Gold.PLP.Chemscore.CHOScore>
0.0000

> <Gold.PLP.Chemscore.Metal>
0.0000

> <Gold.Chemscore.Hbonds>
donor molecule, donor type, donor heavy atom, donor atom, acceptor molecule, acceptor atom, score
      L1  H     5    54       P1  8028  1.98
      L1  H    15    53       P1  7948  2.00
      L1  H    18    44       P1 10175  1.00

> <Gold.PLP.Chemscore.Internal.Correction>
0.0433

> <Gold.Rescore>
     Score         DG    S(hbond)    S(metal)    S(lipo)     H(rot)  DE(clash)    DE(int)     intcor
     19.24     -21.08       2.94        0.00     121.38       3.29       0.06       1.79       ----

> <Gold.Chemscore.Fitness>
19.2406

> <Gold.Chemscore.DG>
-21.0824

> <Gold.Chemscore.ZeroCoef>
-5.4800

> <Gold.Chemscore.Hbond>
2.9409

> <Gold.Chemscore.Metal>
0.0000

> <Gold.Chemscore.Lipo>
121.3783

> <Gold.Chemscore.Internal_Hbond>
0.0000

> <Gold.Chemscore.DEClash>
0.0551

> <Gold.Chemscore.DEInternal>
1.7867

> <Gold.Chemscore.Rot>
3.2896

> <Gold.Chemscore.Internal.Correction>
   9.000000E+99

> <Gold.Chemscore.Hbonds>
donor molecule, donor type, donor heavy atom, donor atom, acceptor molecule, acceptor atom, score
      L1  H     5    54       P1  8028  0.93
      L1  H    15    53       P1  7948  1.00
      L1  H    18    44       P1 10175  0.94

> <Gold.Chemscore.Hbond.Weighted>
-9.8226

> <Gold.Chemscore.Metal.Weighted>
-0.0000

> <Gold.Chemscore.Lipo.Weighted>
-14.2013

> <Gold.Chemscore.Internal_Hbond.Weighted>
0.0000

> <Gold.Chemscore.DEClash.Weighted>
0.0551

> <Gold.Chemscore.DEInternal.Weighted>
1.7867

> <Gold.Chemscore.Rot.Weighted>
8.4215

> <Gold.Chemscore.Internal.Correction.Weighted>
   9.000000E+99

> <Gold.Protein.RotatedTorsions>
[ 6907 6896 6895 6894 ] final -115.43 input  -60.11 | X-H torsion
[ 7974 7965 7964 7962 ] final  161.35 input  175.53 | X-H torsion
[ 8008 7997 7996 7995 ] final   12.10 input   59.86 | X-H torsion
[ 10167 10162 10161 10158 ] final  -59.65 input  -65.29 | X-H torsion
[ 10718 10713 10712 10709 ] final  -87.36 input   66.30 | X-H torsion
[ 10763 10752 10751 10750 ] final  -87.36 input  -60.55 | X-H torsion
[ 11005 11000 10999 10996 ] final  150.87 input  -57.11 | X-H torsion

> <Gold.Protein.ActiveResidues>
 VAL166  LYS551  ARG553  GLY616  TRP617  ASP618  TYR619  PRO620  LYS621  CYS622 
 ASP623  PHE694  ASN695  SER759  ASP760  ASP761  ALA762  ILE779  LEU786  VAL792 
 PHE793  MET794  SER795  GLU796  ALA797  LYS798  CYS799  TRP800  GLU811  SER814 

> <Gold.Protein.RotatedAtoms>
  150.7977  133.8660  159.3244 H   0  0  0  0  0  0  0  0  0  0  0  0  # atno 6907 bound_to 6896
  151.6480  135.1003  160.0164 H   0  0  0  0  0  0  0  0  0  0  0  0  # atno 6908 bound_to 6896
  152.4061  133.6852  159.6392 H   0  0  0  0  0  0  0  0  0  0  0  0  # atno 6909 bound_to 6896
  144.7690  139.7885  143.6304 H   0  0  0  0  0  0  0  0  0  0  0  0  # atno 7974 bound_to 7965
  154.8160  140.2876  155.5820 H   0  0  0  0  0  0  0  0  0  0  0  0  # atno 8008 bound_to 7997
  156.2993  140.2559  156.2988 H   0  0  0  0  0  0  0  0  0  0  0  0  # atno 8009 bound_to 7997
  154.9393  140.0381  157.2078 H   0  0  0  0  0  0  0  0  0  0  0  0  # atno 8010 bound_to 7997
  140.6121  143.2390  151.5683 H   0  0  0  0  0  0  0  0  0  0  0  0  # atno 10167 bound_to 10162
  155.9986  130.4797  150.4855 H   0  0  0  0  0  0  0  0  0  0  0  0  # atno 10718 bound_to 10713
  154.6328  135.5416  153.7699 H   0  0  0  0  0  0  0  0  0  0  0  0  # atno 10763 bound_to 10752
  153.0293  135.6440  154.1276 H   0  0  0  0  0  0  0  0  0  0  0  0  # atno 10764 bound_to 10752
  154.1205  135.2920  155.3189 H   0  0  0  0  0  0  0  0  0  0  0  0  # atno 10765 bound_to 10752
  140.1169  134.8888  157.2017 H   0  0  0  0  0  0  0  0  0  0  0  0  # atno 11005 bound_to 11000
  146.1822  139.5019  142.9859 LP  0  0  0  0  0  0  0  0  0  0  0  0  # atno 17320 bound_to 7965
  145.6381  141.0290  143.1827 LP  0  0  0  0  0  0  0  0  0  0  0  0  # atno 17321 bound_to 7965
  139.5370  144.2754  152.1271 LP  0  0  0  0  0  0  0  0  0  0  0  0  # atno 17342 bound_to 10162
  140.1956  144.4709  150.6457 LP  0  0  0  0  0  0  0  0  0  0  0  0  # atno 17343 bound_to 10162
  157.2855  131.0615  151.2169 LP  0  0  0  0  0  0  0  0  0  0  0  0  # atno 17370 bound_to 10713
  157.3200  130.6932  149.6263 LP  0  0  0  0  0  0  0  0  0  0  0  0  # atno 17371 bound_to 10713
  140.3016  134.3125  155.7288 LP  0  0  0  0  0  0  0  0  0  0  0  0  # atno 17394 bound_to 11000
  141.2143  133.7595  156.9649 LP  0  0  0  0  0  0  0  0  0  0  0  0  # atno 17395 bound_to 11000

$$$$
