#       Name:                AV-unprocessed.smi:765
#       Creating user name   scv26
#       Creation time:       Fri Mar 27 01:05:08 2020


#       File generated by GOLD software.
#

@<TRIPOS>MOLECULE
AV-unprocessed.smi:765
    43    44     1
SMALL
NO_CHARGES


@<TRIPOS>ATOM
      1 ****        -1.9253  -1.9275  -2.8291 C.3            1 S1                 0.0000
      2 ****        -1.4957  -1.1861  -1.5553 C.3            1 S1                 0.0000
      3 ****        -2.0220  -1.8904  -0.2916 C.3            1 S1                 0.0000
      4 ****        -1.6209  -1.1394   0.9862 C.3            1 S1                 0.0000
      5 ****        -2.0874   0.3258   0.9346 C.3            1 S1                 0.0000
      6 ****        -1.5516   1.0736  -0.3118 C.3            1 S1                 0.0000
      7 ****        -2.1488   2.4205  -0.3849 C.1            1 S1                 0.0000
      8 ****        -2.6182   3.4765  -0.4437 N.1            1 S1                 0.0000
      9 ****        -0.0889   1.1588  -0.2747 N.am           1 S1                 0.0000
     10 ****         0.6663   1.8490   0.5962 C.2            1 S1                 0.0000
     11 ****         0.1971   2.6026   1.4491 O.2            1 S1                 0.0000
     12 ****         2.1827   1.6220   0.4893 C.3            1 S1                 0.0000
     13 ****         3.0078   2.6742   1.2585 C.3            1 S1                 0.0000
     14 ****         2.5105   0.2595   0.8970 N.pl3          1 S1                 0.0000
     15 ****         2.7354  -0.8375   0.0895 C.2            1 S1                 0.0000
     16 ****         2.9489  -1.9117   0.9048 C.2            1 S1                 0.0000
     17 ****         2.8223  -1.3720   2.2145 C.2            1 S1                 0.0000
     18 ****         2.5511  -0.0776   2.2074 N.2            1 S1                 0.0000
     19 ****        -1.9549   0.2885  -1.5808 C.3            1 S1                 0.0000
     20 ****        -3.0113  -1.9575  -2.9239 H              1 S1                 0.0000
     21 ****        -1.5632  -2.9560  -2.8260 H              1 S1                 0.0000
     22 ****        -1.5273  -1.4412  -3.7201 H              1 S1                 0.0000
     23 ****        -0.4056  -1.2080  -1.5225 H              1 S1                 0.0000
     24 ****        -3.1092  -1.9665  -0.3388 H              1 S1                 0.0000
     25 ****        -1.6436  -2.9123  -0.2482 H              1 S1                 0.0000
     26 ****        -2.0535  -1.6344   1.8561 H              1 S1                 0.0000
     27 ****        -0.5390  -1.1832   1.1169 H              1 S1                 0.0000
     28 ****        -3.1782   0.3476   0.9242 H              1 S1                 0.0000
     29 ****        -1.7928   0.8372   1.8513 H              1 S1                 0.0000
     30 ****         0.3994   0.5808  -0.9428 H              1 S1                 0.0000
     31 ****         2.4459   1.7140  -0.5657 H              1 S1                 0.0000
     32 ****         2.8009   3.6804   0.8923 H              1 S1                 0.0000
     33 ****         4.0764   2.4961   1.1337 H              1 S1                 0.0000
     34 ****         2.7943   2.6617   2.3282 H              1 S1                 0.0000
     35 ****         2.7205  -0.7646  -0.9879 H              1 S1                 0.0000
     36 ****         3.1577  -2.9295   0.6107 H              1 S1                 0.0000
     37 ****         2.9123  -1.8795   3.1636 H              1 S1                 0.0000
     38 ****        -1.5516   0.7855  -2.4645 H              1 S1                 0.0000
     39 ****        -3.0404   0.3207  -1.6899 H              1 S1                 0.0000
     40 ****        -3.0239   4.3891  -0.4946 LP             1 S1                 0.0000
     41 ****        -0.7930   2.7248   1.5181 LP             1 S1                 0.0000
     42 ****         0.8061   3.0926   2.0728 LP             1 S1                 0.0000
     43 ****         2.4077   0.5202   2.9960 LP             1 S1                 0.0000
@<TRIPOS>BOND
    1    1    2 1     
    2    1   20 1     
    3    1   21 1     
    4    1   22 1     
    5    2   19 1     
    6    2    3 1     
    7    2   23 1     
    8    3    4 1     
    9    3   24 1     
   10    3   25 1     
   11    4    5 1     
   12    4   26 1     
   13    4   27 1     
   14    5    6 1     
   15    5   28 1     
   16    5   29 1     
   17    6    7 1     
   18    6    9 1     
   19    6   19 1     
   20    7    8 3     
   21    9   10 am    
   22    9   30 1     
   23   10   11 2     
   24   10   12 1     
   25   12   13 1     
   26   12   14 1     
   27   12   31 1     
   28   13   32 1     
   29   13   33 1     
   30   13   34 1     
   31   14   18 1     
   32   14   15 1     
   33   15   16 2     
   34   15   35 1     
   35   16   17 1     
   36   16   36 1     
   37   17   18 2     
   38   17   37 1     
   39   19   38 1     
   40   19   39 1     
   41    8   40 1     
   42   11   41 1     
   43   11   42 1     
   44   18   43 1     
@<TRIPOS>SUBSTRUCTURE
      1 S1             1
@<TRIPOS>SET
LONE_PAIRS      STATIC     ATOMS    <user>   **** ""
4 40 41 42 43
DONOR_HYDROGENS      STATIC     ATOMS    <user>   **** ""
1 30
ATOM$BLUE        STATIC     ATOMS    COLORGROUP SYSTEM
4 40 41 42 43
ATOM$RED        STATIC     ATOMS    COLORGROUP SYSTEM
1 30
