AV-unprocessed.smi:1965|AV-procd|sdf|7946|dock3
  -GOLD-   2272010113D 1   1.00000     0.00000
 Structure written by MMmdl.
 36 38  0  0  0  0  0  0  0  0  3 V2000
  151.7488  139.9409  154.7908 O   0  0  0  0  0  0  0  0  0  0  0  0
  151.6928  139.4880  155.9333 C   0  0  0  0  0  0  0  0  0  0  0  0
  152.4956  139.9094  156.9445 N   0  5  0  0  0  0  0  0  0  0  0  0
  152.2079  140.9868  157.6980 C   0  0  0  0  0  0  0  0  0  0  0  0
  152.8569  141.2817  158.8304 N   0  0  0  0  0  0  0  0  0  0  0  0
  152.3941  142.4448  159.4484 C   0  0  0  0  0  0  0  0  0  0  0  0
  151.3697  143.0497  158.7699 C   0  0  0  0  0  0  0  0  0  0  0  0
  150.9575  142.1749  157.3229 S   0  0  0  0  0  0  0  0  0  0  0  0
  150.7996  138.5165  156.2030 N   0  0  0  0  0  0  0  0  0  0  0  0
  149.8770  137.9170  155.2447 C   0  0  2  0  0  0  0  0  0  0  0  0
  148.4279  137.9332  155.7125 C   0  0  0  0  0  0  0  0  0  0  0  0
  147.7691  136.8676  154.8306 C   0  0  0  0  0  0  0  0  0  0  0  0
  148.8352  135.9119  154.4406 N   0  3  2  0  0  0  0  0  0  0  0  0
  148.5305  134.4944  154.7735 C   0  0  0  0  0  0  0  0  0  0  0  0
  149.8015  133.6333  154.7313 C   0  0  0  0  0  0  0  0  0  0  0  0
  150.8344  134.1043  155.7726 C   0  0  0  0  0  0  0  0  0  0  0  0
  150.6566  135.5876  156.1506 C   0  0  0  0  0  0  0  0  0  0  0  0
  150.1348  136.4261  154.9572 C   0  0  2  0  0  0  0  0  0  0  0  0
  152.8525  142.7695  160.3706 H   0  0  0  0  0  0  0  0  0  0  0  0
  150.8384  143.9531  159.0288 H   0  0  0  0  0  0  0  0  0  0  0  0
  150.7746  138.1597  157.1472 H   0  0  0  0  0  0  0  0  0  0  0  0
  149.9293  138.4732  154.3061 H   0  0  0  0  0  0  0  0  0  0  0  0
  148.3658  137.6361  156.7607 H   0  0  0  0  0  0  0  0  0  0  0  0
  147.9600  138.9133  155.6128 H   0  0  0  0  0  0  0  0  0  0  0  0
  146.9294  136.3919  155.3391 H   0  0  0  0  0  0  0  0  0  0  0  0
  147.3802  137.3238  153.9199 H   0  0  0  0  0  0  0  0  0  0  0  0
  148.0883  134.4277  155.7691 H   0  0  0  0  0  0  0  0  0  0  0  0
  147.7862  134.1176  154.0713 H   0  0  0  0  0  0  0  0  0  0  0  0
  149.5591  132.5830  154.8956 H   0  0  0  0  0  0  0  0  0  0  0  0
  150.2370  133.6928  153.7329 H   0  0  0  0  0  0  0  0  0  0  0  0
  150.7594  133.4983  156.6760 H   0  0  0  0  0  0  0  0  0  0  0  0
  151.8373  133.9368  155.3785 H   0  0  0  0  0  0  0  0  0  0  0  0
  149.9541  135.6675  156.9814 H   0  0  0  0  0  0  0  0  0  0  0  0
  151.6062  135.9742  156.5211 H   0  0  0  0  0  0  0  0  0  0  0  0
  150.8704  136.3466  154.1552 H   0  0  0  0  0  0  0  0  0  0  0  0
  148.9058  135.9647  153.4346 H   0  0  0  0  0  0  0  0  0  0  0  0
  1  2  2  0  0  0  0
  2  3  1  0  0  0  0
  2  9  1  0  0  0  0
  3  4  1  0  0  0  0
  4  8  1  0  0  0  0
  4  5  2  0  0  0  0
  5  6  1  0  0  0  0
  6  7  2  0  0  0  0
  6 19  1  0  0  0  0
  7  8  1  0  0  0  0
  7 20  1  0  0  0  0
  9 10  1  0  0  0  0
  9 21  1  0  0  0  0
 10 18  1  0  0  0  0
 10 11  1  0  0  0  0
 10 22  1  0  0  0  0
 11 12  1  0  0  0  0
 11 23  1  0  0  0  0
 11 24  1  0  0  0  0
 12 13  1  0  0  0  0
 12 25  1  0  0  0  0
 12 26  1  0  0  0  0
 13 18  1  0  0  0  0
 13 14  1  0  0  0  0
 13 36  1  0  0  0  0
 14 15  1  0  0  0  0
 14 27  1  0  0  0  0
 14 28  1  0  0  0  0
 15 16  1  0  0  0  0
 15 29  1  0  0  0  0
 15 30  1  0  0  0  0
 16 17  1  0  0  0  0
 16 31  1  0  0  0  0
 16 32  1  0  0  0  0
 17 18  1  0  0  0  0
 17 33  1  0  0  0  0
 17 34  1  0  0  0  0
 18 35  1  0  0  0  0
M  CHG  1   3  -1
M  CHG  1  13   1
M  END
> <s_m_source_file>
AV-unprocessed.smi

> <i_m_source_file_index>
1965

> <i_lp_mmshare_version>
43012

> <i_f3d_flags>
0

> <s_epik_input>
czFbY0hdW2NIXW5jMVtOSF1DKD1PKVtOSF1bQ0BIXShbQ0gyXVtDSDJdMilbQ0BASF0oTjIzKVtDSDJdW0NIMl1bQ0gyXVtDSDJdMw==

> <s_epik_cmdline>
J2VwaWtfcHl0aG9uJywgJy1waCcsICc3LjAnLCAnLXRuJywgJzgnLCAnLW1hJywgJzIwMCcsICctbWV0YWxfYmluZGluZycsICctaW1hZScsICc8aW5maWxlLm1hZT4nLCAnLW9tYWUnLCAnPG91dGZpbGUubWFlPic=

> <r_lp_tautomer_probability>
1

> <r_epik_Ionization_Penalty>
7.4116

> <r_epik_Ionization_Penalty_Charging>
6.13869

> <r_epik_Ionization_Penalty_Neutral>
1.27291

> <r_epik_State_Penalty>
6.13761

> <r_epik_Charging_Adjusted_Penalty>
12.2763

> <i_epik_Tot_Q>
0

> <i_epik_Tot_abs_Q>
2

> <r_epik_Metal_State_Penalty>
2.08142

> <b_epik_Metal_Only>
1

> <s_lp_Force_Field>
OPLS_2005

> <r_lp_Energy>
32.0333

> <b_lp_Chiralities_Consistent>
1

> <s_lp_Variant>
AV-unprocessed.smi:1965-15

> <Gold.Version>
5.8.1

> <Gold.Id.Protein>
6NUR|6NUR_protein|mol2

> <Gold.PLP.Fitness>
38.7742

> <Gold.PLP.PLP>
-25.4045

> <Gold.PLP.part.hbond>
-3.0000

> <Gold.PLP.part.metal>
0.0000

> <Gold.PLP.part.buried>
-4.5912

> <Gold.PLP.part.nonpolar>
-18.1298

> <Gold.PLP.part.repulsive>
0.0686

> <Gold.PLP.ligand.clash>
0.0000

> <Gold.PLP.ligand.torsion>
0.8169

> <Gold.PLP.Chemscore.Hbond>
5.0000

> <Gold.PLP.Chemscore.CHOScore>
0.0000

> <Gold.PLP.Chemscore.Metal>
0.0000

> <Gold.Chemscore.Hbonds>
donor molecule, donor type, donor heavy atom, donor atom, acceptor molecule, acceptor atom, score
      L1  H    13    36       P1  7948  2.00
      P1  H  7989  7998       L1     1  1.00
      P1  H  7997  8008       L1     3  2.00

> <Gold.PLP.Chemscore.Internal.Correction>
0.0034

> <Gold.Rescore>
     Score         DG    S(hbond)    S(metal)    S(lipo)     H(rot)  DE(clash)    DE(int)     intcor
     16.94     -17.76       2.48        0.00      56.13       1.00       0.00       0.81       ----

> <Gold.Chemscore.Fitness>
16.9450

> <Gold.Chemscore.DG>
-17.7564

> <Gold.Chemscore.ZeroCoef>
-5.4800

> <Gold.Chemscore.Hbond>
2.4759

> <Gold.Chemscore.Metal>
0.0000

> <Gold.Chemscore.Lipo>
56.1273

> <Gold.Chemscore.Internal_Hbond>
0.0000

> <Gold.Chemscore.DEClash>
0.0048

> <Gold.Chemscore.DEInternal>
0.8067

> <Gold.Chemscore.Rot>
1.0000

> <Gold.Chemscore.Internal.Correction>
   9.000000E+99

> <Gold.Chemscore.Hbonds>
donor molecule, donor type, donor heavy atom, donor atom, acceptor molecule, acceptor atom, score
      L1  H    13    36       P1  7948  0.95
      P1  H  7989  7998       L1     1  0.93
      P1  H  7997  8008       L1     3  0.41

> <Gold.Chemscore.Hbond.Weighted>
-8.2695

> <Gold.Chemscore.Metal.Weighted>
-0.0000

> <Gold.Chemscore.Lipo.Weighted>
-6.5669

> <Gold.Chemscore.Internal_Hbond.Weighted>
0.0000

> <Gold.Chemscore.DEClash.Weighted>
0.0048

> <Gold.Chemscore.DEInternal.Weighted>
0.8067

> <Gold.Chemscore.Rot.Weighted>
2.5600

> <Gold.Chemscore.Internal.Correction.Weighted>
   9.000000E+99

> <Gold.Protein.RotatedTorsions>
[ 6907 6896 6895 6894 ] final  155.39 input  -60.11 | X-H torsion
[ 7974 7965 7964 7962 ] final -167.49 input  175.53 | X-H torsion
[ 8008 7997 7996 7995 ] final  -53.56 input   59.86 | X-H torsion
[ 10167 10162 10161 10158 ] final -144.82 input  -65.29 | X-H torsion
[ 10718 10713 10712 10709 ] final  128.94 input   66.30 | X-H torsion
[ 10763 10752 10751 10750 ] final    9.95 input  -60.55 | X-H torsion
[ 11005 11000 10999 10996 ] final -146.62 input  -57.11 | X-H torsion

> <Gold.Protein.ActiveResidues>
 VAL166  LYS551  ARG553  GLY616  TRP617  ASP618  TYR619  PRO620  LYS621  CYS622 
 ASP623  PHE694  ASN695  SER759  ASP760  ASP761  ALA762  ILE779  LEU786  VAL792 
 PHE793  MET794  SER795  GLU796  ALA797  LYS798  CYS799  TRP800  GLU811  SER814 

> <Gold.Protein.RotatedAtoms>
  152.0448  133.3993  159.4351 H   0  0  0  0  0  0  0  0  0  0  0  0  # atno 6907 bound_to 6896
  150.6873  134.3375  159.4862 H   0  0  0  0  0  0  0  0  0  0  0  0  # atno 6908 bound_to 6896
  152.1177  134.9228  160.0615 H   0  0  0  0  0  0  0  0  0  0  0  0  # atno 6909 bound_to 6896
  144.7222  140.2511  143.6278 H   0  0  0  0  0  0  0  0  0  0  0  0  # atno 7974 bound_to 7965
  154.4137  140.1197  156.5174 H   0  0  0  0  0  0  0  0  0  0  0  0  # atno 8008 bound_to 7997
  155.6738  140.3496  155.4809 H   0  0  0  0  0  0  0  0  0  0  0  0  # atno 8009 bound_to 7997
  155.9610  140.1123  157.0885 H   0  0  0  0  0  0  0  0  0  0  0  0  # atno 8010 bound_to 7997
  139.7863  143.8030  152.2645 H   0  0  0  0  0  0  0  0  0  0  0  0  # atno 10167 bound_to 10162
  157.5199  131.1098  150.9169 H   0  0  0  0  0  0  0  0  0  0  0  0  # atno 10718 bound_to 10713
  153.2084  135.6865  153.8144 H   0  0  0  0  0  0  0  0  0  0  0  0  # atno 10763 bound_to 10752
  153.7385  135.3241  155.3300 H   0  0  0  0  0  0  0  0  0  0  0  0  # atno 10764 bound_to 10752
  154.8209  135.4653  154.0881 H   0  0  0  0  0  0  0  0  0  0  0  0  # atno 10765 bound_to 10752
  140.7801  134.3089  157.5048 H   0  0  0  0  0  0  0  0  0  0  0  0  # atno 11005 bound_to 11000
  145.8227  139.2051  143.1928 LP  0  0  0  0  0  0  0  0  0  0  0  0  # atno 17320 bound_to 7965
  146.0500  140.8079  142.9786 LP  0  0  0  0  0  0  0  0  0  0  0  0  # atno 17321 bound_to 7965
  139.8107  144.7337  150.9701 LP  0  0  0  0  0  0  0  0  0  0  0  0  # atno 17342 bound_to 10162
  140.7819  143.4253  151.0777 LP  0  0  0  0  0  0  0  0  0  0  0  0  # atno 17343 bound_to 10162
  156.9782  130.5517  149.5294 LP  0  0  0  0  0  0  0  0  0  0  0  0  # atno 17370 bound_to 10713
  156.0346  130.5435  150.8622 LP  0  0  0  0  0  0  0  0  0  0  0  0  # atno 17371 bound_to 10713
  139.8744  134.9313  156.3525 LP  0  0  0  0  0  0  0  0  0  0  0  0  # atno 17394 bound_to 11000
  140.9491  133.7463  156.0247 LP  0  0  0  0  0  0  0  0  0  0  0  0  # atno 17395 bound_to 11000

$$$$
