#       Name:                AV-unprocessed.smi:114
#       Creating user name   scv26
#       Creation time:       Thu Mar 26 18:23:42 2020


#       File generated by GOLD software.
#

@<TRIPOS>MOLECULE
AV-unprocessed.smi:114
    43    45     1
SMALL
NO_CHARGES


@<TRIPOS>ATOM
      1 ****        -5.1837   0.8383   0.2322 N.pl3          1 S1                 0.0000
      2 ****        -3.9389   1.3232   0.1227 C.ar           1 S1                 0.0000
      3 ****        -3.7801   2.6196  -0.2339 N.ar           1 S1                 0.0000
      4 ****        -2.5534   3.1426  -0.3567 C.ar           1 S1                 0.0000
      5 ****        -2.4891   4.4454  -0.7183 F              1 S1                 0.0000
      6 ****        -1.3836   2.5227  -0.1639 N.ar           1 S1                 0.0000
      7 ****        -1.5429   1.2168   0.1974 C.ar           1 S1                 0.0000
      8 ****        -2.7814   0.5428   0.3607 C.ar           1 S1                 0.0000
      9 ****        -2.5560  -0.7768   0.7289 N.2            1 S1                 0.0000
     10 ****        -1.2534  -0.8720   0.7774 C.2            1 S1                 0.0000
     11 ****        -0.5665   0.2840   0.4672 N.pl3          1 S1                 0.0000
     12 ****         0.9109   0.5333   0.4226 C.3            1 S1                 0.0000
     13 ****         1.5494  -0.4714   1.1533 O.3            1 S1                 0.0000
     14 ****         2.1386  -1.4151   0.2649 C.3            1 S1                 0.0000
     15 ****         3.2564  -2.1821   0.9869 C.3            1 S1                 0.0000
     16 ****         2.7039  -3.2420   1.7379 O.3            1 S1                 0.0000
     17 ****         2.6382  -0.4983  -0.8513 C.3            1 S1                 0.0000
     18 ****         2.9637  -1.1962  -2.0392 O.3            1 S1                 0.0000
     19 ****         1.4798   0.4823  -1.0161 C.3            1 S1                 0.0000
     20 ****         0.5420   0.0486  -1.9911 O.3            1 S1                 0.0000
     21 ****         1.0442   1.4972   0.9154 H              1 S1                 0.0000
     22 ****         1.3781  -2.0944  -0.1256 H              1 S1                 0.0000
     23 ****         3.5201   0.0453  -0.5086 H              1 S1                 0.0000
     24 ****         1.8378   1.4724  -1.2999 H              1 S1                 0.0000
     25 ****        -5.3243  -0.1266   0.4957 H              1 S1                 0.0000
     26 ****        -5.9769   1.4363   0.0508 H              1 S1                 0.0000
     27 ****        -0.7609  -1.7961   1.0427 H              1 S1                 0.0000
     28 ****         3.9424  -2.6189   0.2607 H              1 S1                 0.0000
     29 ****         3.8406  -1.5234   1.6301 H              1 S1                 0.0000
     30 ****         3.4081  -3.7128   2.1565 H              1 S1                 0.0000
     31 ****         3.1333  -0.5641  -2.7209 H              1 S1                 0.0000
     32 ****        -0.1969   0.6379  -1.9772 H              1 S1                 0.0000
     33 ****        -4.5833   3.1898  -0.4066 LP             1 S1                 0.0000
     34 ****        -0.4938   2.9661  -0.2723 LP             1 S1                 0.0000
     35 ****        -3.2331  -1.4890   0.9140 LP             1 S1                 0.0000
     36 ****         0.8805  -0.9352   1.7341 LP             1 S1                 0.0000
     37 ****         2.2618  -0.0642   1.7249 LP             1 S1                 0.0000
     38 ****         2.2001  -3.8576   1.1320 LP             1 S1                 0.0000
     39 ****         2.0838  -2.8760   2.4318 LP             1 S1                 0.0000
     40 ****         2.1993  -1.7832  -2.3060 LP             1 S1                 0.0000
     41 ****         3.7779  -1.7569  -1.8888 LP             1 S1                 0.0000
     42 ****         0.2377  -0.8797  -1.7776 LP             1 S1                 0.0000
     43 ****         0.9663   0.0603  -2.8966 LP             1 S1                 0.0000
@<TRIPOS>BOND
    1    1    2 1     
    2    1   25 1     
    3    1   26 1     
    4    2    8 ar    
    5    2    3 ar    
    6    3    4 ar    
    7    4    5 1     
    8    4    6 ar    
    9    6    7 ar    
   10    7   11 1     
   11    7    8 ar    
   12    8    9 1     
   13    9   10 2     
   14   10   11 1     
   15   10   27 1     
   16   11   12 1     
   17   12   21 1     
   18   12   19 1     
   19   12   13 1     
   20   13   14 1     
   21   14   22 1     
   22   14   15 1     
   23   14   17 1     
   24   15   16 1     
   25   15   28 1     
   26   15   29 1     
   27   16   30 1     
   28   17   23 1     
   29   17   18 1     
   30   17   19 1     
   31   18   31 1     
   32   19   24 1     
   33   19   20 1     
   34   20   32 1     
   35    3   33 1     
   36    6   34 1     
   37    9   35 1     
   38   13   36 1     
   39   13   37 1     
   40   16   38 1     
   41   16   39 1     
   42   18   40 1     
   43   18   41 1     
   44   20   42 1     
   45   20   43 1     
@<TRIPOS>SUBSTRUCTURE
      1 S1             1
@<TRIPOS>SET
LONE_PAIRS      STATIC     ATOMS    <user>   **** ""
11 33 34 35 36 37 38 39 40 41 42 43
DONOR_HYDROGENS      STATIC     ATOMS    <user>   **** ""
5 25 26 30 31 32
ATOM$BLUE        STATIC     ATOMS    COLORGROUP SYSTEM
11 33 34 35 36 37 38 39 40 41 42 43
ATOM$RED        STATIC     ATOMS    COLORGROUP SYSTEM
5 25 26 30 31 32
