AV-unprocessed.smi:2309|AV-procd|sdf|9254|dock7
  -GOLD-   2272012473D 1   1.00000     0.00000
 Structure written by MMmdl.
 34 35  0  0  0  0  0  0  0  0  1 V2000
  152.5333  143.4070  161.3728 C   0  0  0  0  0  0  0  0  0  0  0  0
  152.2478  142.4498  160.2292 C   0  0  0  0  0  0  0  0  0  0  0  0
  151.0278  142.6383  159.5734 N   0  0  0  0  0  0  0  0  0  0  0  0
  150.6988  141.8672  158.5891 C   0  0  0  0  0  0  0  0  0  0  0  0
  151.5403  140.8323  158.1488 N   0  0  0  0  0  0  0  0  0  0  0  0
  151.0440  140.0224  157.0228 C   0  0  0  0  0  0  0  0  0  0  0  0
  151.0504  140.8029  155.6891 C   0  0  1  0  0  0  0  0  0  0  0  0
  152.1986  140.4236  154.9538 O   0  0  0  0  0  0  0  0  0  0  0  0
  149.7664  140.5421  154.9035 C   0  0  0  0  0  0  0  0  0  0  0  0
  148.8191  141.5812  154.7493 C   0  0  0  0  0  0  0  0  0  0  0  0
  147.6318  141.3700  154.0231 C   0  0  0  0  0  0  0  0  0  0  0  0
  146.4878  142.6495  153.8499 Cl  0  0  0  0  0  0  0  0  0  0  0  0
  147.3804  140.1164  153.4372 C   0  0  0  0  0  0  0  0  0  0  0  0
  148.3200  139.0788  153.5742 C   0  0  0  0  0  0  0  0  0  0  0  0
  149.5112  139.2843  154.2990 C   0  0  0  0  0  0  0  0  0  0  0  0
  150.6345  137.9746  154.4122 Cl  0  0  0  0  0  0  0  0  0  0  0  0
  152.7470  140.5792  158.7335 C   0  0  0  0  0  0  0  0  0  0  0  0
  153.4763  139.6657  158.3434 O   0  0  0  0  0  0  0  0  0  0  0  0
  153.1079  141.4646  159.8525 C   0  0  0  0  0  0  0  0  0  0  0  0
  154.4481  141.2096  160.5308 C   0  0  0  0  0  0  0  0  0  0  0  0
  153.4419  143.9767  161.1765 H   0  0  0  0  0  0  0  0  0  0  0  0
  152.6594  142.8590  162.3070 H   0  0  0  0  0  0  0  0  0  0  0  0
  151.7171  144.1175  161.5097 H   0  0  0  0  0  0  0  0  0  0  0  0
  149.7561  141.9684  158.0487 H   0  0  0  0  0  0  0  0  0  0  0  0
  151.5873  139.0810  156.9173 H   0  0  0  0  0  0  0  0  0  0  0  0
  150.0215  139.7161  157.2528 H   0  0  0  0  0  0  0  0  0  0  0  0
  151.1504  141.8712  155.8759 H   0  0  0  0  0  0  0  0  0  0  0  0
  151.9410  140.2601  154.0593 H   0  0  0  0  0  0  0  0  0  0  0  0
  149.0009  142.5522  155.1862 H   0  0  0  0  0  0  0  0  0  0  0  0
  146.4708  139.9503  152.8788 H   0  0  0  0  0  0  0  0  0  0  0  0
  148.1266  138.1198  153.1163 H   0  0  0  0  0  0  0  0  0  0  0  0
  154.4717  140.2025  160.9484 H   0  0  0  0  0  0  0  0  0  0  0  0
  154.6592  141.9054  161.3411 H   0  0  0  0  0  0  0  0  0  0  0  0
  155.2588  141.2952  159.8067 H   0  0  0  0  0  0  0  0  0  0  0  0
  1  2  1  0  0  0  0
  1 21  1  0  0  0  0
  1 22  1  0  0  0  0
  1 23  1  0  0  0  0
  2 19  2  0  0  0  0
  2  3  1  0  0  0  0
  3  4  2  0  0  0  0
  4  5  1  0  0  0  0
  4 24  1  0  0  0  0
  5  6  1  0  0  0  0
  5 17  1  0  0  0  0
  6  7  1  0  0  0  0
  6 25  1  0  0  0  0
  6 26  1  0  0  0  0
  7  8  1  0  0  0  0
  7  9  1  0  0  0  0
  7 27  1  0  0  0  0
  8 28  1  0  0  0  0
  9 15  1  0  0  0  0
  9 10  2  0  0  0  0
 10 11  1  0  0  0  0
 10 29  1  0  0  0  0
 11 12  1  0  0  0  0
 11 13  2  0  0  0  0
 13 14  1  0  0  0  0
 13 30  1  0  0  0  0
 14 15  2  0  0  0  0
 14 31  1  0  0  0  0
 15 16  1  0  0  0  0
 17 18  2  0  0  0  0
 17 19  1  0  0  0  0
 19 20  1  0  0  0  0
 20 32  1  0  0  0  0
 20 33  1  0  0  0  0
 20 34  1  0  0  0  0
M  END
> <s_m_source_file>
AV-unprocessed.smi

> <i_m_source_file_index>
2309

> <i_lp_mmshare_version>
43012

> <i_f3d_flags>
0

> <s_epik_input>
W0NIM11jMW5bY0hdbihjKD1PKWMxW0NIM10pW0NIMl1bQ0BIXShbT0hdKWMyW2NIXWMoQ2wpW2NIXVtjSF1jMkNs

> <s_epik_cmdline>
J2VwaWtfcHl0aG9uJywgJy1waCcsICc3LjAnLCAnLXRuJywgJzgnLCAnLW1hJywgJzIwMCcsICctbWV0YWxfYmluZGluZycsICctaW1hZScsICc8aW5maWxlLm1hZT4nLCAnLW9tYWUnLCAnPG91dGZpbGUubWFlPic=

> <r_lp_tautomer_probability>
1

> <r_epik_Ionization_Penalty>
5.09224e-05

> <r_epik_Ionization_Penalty_Charging>
7.56727e-08

> <r_epik_Ionization_Penalty_Neutral>
5.08468e-05

> <r_epik_State_Penalty>
-0

> <r_epik_Charging_Adjusted_Penalty>
7.56727e-08

> <i_epik_Tot_Q>
0

> <i_epik_Tot_abs_Q>
0

> <r_epik_Metal_State_Penalty>
-0

> <b_epik_Metal_Only>
0

> <s_lp_Force_Field>
OPLS_2005

> <r_lp_Energy>
18.7705

> <b_lp_Chiralities_Consistent>
1

> <s_lp_Variant>
AV-unprocessed.smi:2309-2

> <Gold.Version>
5.8.1

> <Gold.Id.Protein>
6NUR|6NUR_protein|mol2

> <Gold.PLP.Fitness>
47.2393

> <Gold.PLP.PLP>
-45.9605

> <Gold.PLP.part.hbond>
-2.5600

> <Gold.PLP.part.metal>
0.0000

> <Gold.PLP.part.buried>
-3.7431

> <Gold.PLP.part.nonpolar>
-39.3332

> <Gold.PLP.part.repulsive>
0.0051

> <Gold.PLP.ligand.clash>
0.0000

> <Gold.PLP.ligand.torsion>
0.8650

> <Gold.PLP.Chemscore.Hbond>
1.0000

> <Gold.PLP.Chemscore.CHOScore>
0.0000

> <Gold.PLP.Chemscore.Metal>
0.0000

> <Gold.Chemscore.Hbonds>
donor molecule, donor type, donor heavy atom, donor atom, acceptor molecule, acceptor atom, score
      P1  H  7997  8009       L1    18  1.00

> <Gold.PLP.Chemscore.Internal.Correction>
0.0088

> <Gold.Rescore>
     Score         DG    S(hbond)    S(metal)    S(lipo)     H(rot)  DE(clash)    DE(int)     intcor
     14.41     -16.43       0.99        0.00     107.59       1.93       1.33       0.69       ----

> <Gold.Chemscore.Fitness>
14.4055

> <Gold.Chemscore.DG>
-16.4328

> <Gold.Chemscore.ZeroCoef>
-5.4800

> <Gold.Chemscore.Hbond>
0.9869

> <Gold.Chemscore.Metal>
0.0000

> <Gold.Chemscore.Lipo>
107.5912

> <Gold.Chemscore.Internal_Hbond>
0.0000

> <Gold.Chemscore.DEClash>
1.3326

> <Gold.Chemscore.DEInternal>
0.6948

> <Gold.Chemscore.Rot>
1.9265

> <Gold.Chemscore.Internal.Correction>
   9.000000E+99

> <Gold.Chemscore.Hbonds>
donor molecule, donor type, donor heavy atom, donor atom, acceptor molecule, acceptor atom, score
      P1  H  7997  8009       L1    18  0.92

> <Gold.Chemscore.Hbond.Weighted>
-3.2963

> <Gold.Chemscore.Metal.Weighted>
-0.0000

> <Gold.Chemscore.Lipo.Weighted>
-12.5882

> <Gold.Chemscore.Internal_Hbond.Weighted>
0.0000

> <Gold.Chemscore.DEClash.Weighted>
1.3326

> <Gold.Chemscore.DEInternal.Weighted>
0.6948

> <Gold.Chemscore.Rot.Weighted>
4.9317

> <Gold.Chemscore.Internal.Correction.Weighted>
   9.000000E+99

> <Gold.Protein.RotatedTorsions>
[ 6907 6896 6895 6894 ] final -100.88 input  -60.11 | X-H torsion
[ 7974 7965 7964 7962 ] final -157.64 input  175.53 | X-H torsion
[ 8008 7997 7996 7995 ] final  157.30 input   59.86 | X-H torsion
[ 10167 10162 10161 10158 ] final -110.60 input  -65.29 | X-H torsion
[ 10718 10713 10712 10709 ] final -125.55 input   66.30 | X-H torsion
[ 10763 10752 10751 10750 ] final -138.45 input  -60.55 | X-H torsion
[ 11005 11000 10999 10996 ] final  -19.83 input  -57.11 | X-H torsion

> <Gold.Protein.ActiveResidues>
 VAL166  LYS551  ARG553  GLY616  TRP617  ASP618  TYR619  PRO620  LYS621  CYS622 
 ASP623  PHE694  ASN695  SER759  ASP760  ASP761  ALA762  ILE779  LEU786  VAL792 
 PHE793  MET794  SER795  GLU796  ALA797  LYS798  CYS799  TRP800  GLU811  SER814 

> <Gold.Protein.RotatedAtoms>
  150.7133  134.0819  159.3900 H   0  0  0  0  0  0  0  0  0  0  0  0  # atno 6907 bound_to 6896
  151.8803  135.0454  160.0497 H   0  0  0  0  0  0  0  0  0  0  0  0  # atno 6908 bound_to 6896
  152.2573  133.5231  159.5397 H   0  0  0  0  0  0  0  0  0  0  0  0  # atno 6909 bound_to 6896
  144.7540  140.3941  143.6027 H   0  0  0  0  0  0  0  0  0  0  0  0  # atno 7974 bound_to 7965
  156.2372  140.1889  156.7087 H   0  0  0  0  0  0  0  0  0  0  0  0  # atno 8008 bound_to 7997
  154.6128  140.0619  156.9543 H   0  0  0  0  0  0  0  0  0  0  0  0  # atno 8009 bound_to 7997
  155.1988  140.3290  155.4349 H   0  0  0  0  0  0  0  0  0  0  0  0  # atno 8010 bound_to 7997
  140.1427  143.4265  152.1551 H   0  0  0  0  0  0  0  0  0  0  0  0  # atno 10167 bound_to 10162
  156.1685  130.6651  151.0148 H   0  0  0  0  0  0  0  0  0  0  0  0  # atno 10718 bound_to 10713
  154.8636  135.3612  154.5387 H   0  0  0  0  0  0  0  0  0  0  0  0  # atno 10763 bound_to 10752
  153.6009  135.7012  153.5389 H   0  0  0  0  0  0  0  0  0  0  0  0  # atno 10764 bound_to 10752
  153.3291  135.4129  155.1442 H   0  0  0  0  0  0  0  0  0  0  0  0  # atno 10765 bound_to 10752
  140.8405  133.7930  155.9855 H   0  0  0  0  0  0  0  0  0  0  0  0  # atno 11005 bound_to 11000
  145.6845  139.1625  143.2682 LP  0  0  0  0  0  0  0  0  0  0  0  0  # atno 17320 bound_to 7965
  146.1526  140.6903  142.9315 LP  0  0  0  0  0  0  0  0  0  0  0  0  # atno 17321 bound_to 7965
  139.5464  144.7302  151.4570 LP  0  0  0  0  0  0  0  0  0  0  0  0  # atno 17342 bound_to 10162
  140.6751  143.8208  150.7048 LP  0  0  0  0  0  0  0  0  0  0  0  0  # atno 17343 bound_to 10162
  157.6786  131.0844  150.7430 LP  0  0  0  0  0  0  0  0  0  0  0  0  # atno 17370 bound_to 10713
  156.7490  130.4762  149.5461 LP  0  0  0  0  0  0  0  0  0  0  0  0  # atno 17371 bound_to 10713
  140.8900  134.2507  157.5099 LP  0  0  0  0  0  0  0  0  0  0  0  0  # atno 17394 bound_to 11000
  139.8703  134.9657  156.4537 LP  0  0  0  0  0  0  0  0  0  0  0  0  # atno 17395 bound_to 11000

$$$$
