AV-unprocessed.smi:3176|AV-procd|sdf|12125|dock2
  -GOLD-   2272017563D 1   1.00000     0.00000
 Structure written by MMmdl.
 32 33  0  0  0  0  0  0  0  0  1 V2000
  153.3894  138.8807  155.7903 O   0  0  0  0  0  0  0  0  0  0  0  0
  152.2239  139.2357  155.9676 C   0  0  0  0  0  0  0  0  0  0  0  0
  151.8225  139.8903  157.0684 N   0  0  0  0  0  0  0  0  0  0  0  0
  152.6574  140.1832  158.2291 C   0  0  0  0  0  0  0  0  0  0  0  0
  151.8781  140.8939  159.3543 C   0  0  0  0  0  0  0  0  0  0  0  0
  151.8148  142.4033  159.1867 C   0  0  0  0  0  0  0  0  0  0  0  0
  152.1202  143.2608  160.2657 C   0  0  0  0  0  0  0  0  0  0  0  0
  152.0192  144.6511  160.0682 C   0  0  0  0  0  0  0  0  0  0  0  0
  151.6234  145.1287  158.8042 C   0  0  0  0  0  0  0  0  0  0  0  0
  151.3448  144.1905  157.7902 C   0  0  0  0  0  0  0  0  0  0  0  0
  151.4356  142.8550  157.9700 N   0  0  0  0  0  0  0  0  0  0  0  0
  151.1499  138.9360  154.9085 C   0  0  1  0  0  0  0  0  0  0  0  0
  149.9190  138.1909  155.4581 C   0  0  0  0  0  0  0  0  0  0  0  0
  148.8657  139.2746  155.5517 C   0  0  0  0  0  0  0  0  0  0  0  0
  149.2301  140.1530  154.3647 C   0  0  0  0  0  0  0  0  0  0  0  0
  150.6501  140.1675  154.3766 O   0  0  0  0  0  0  0  0  0  0  0  0
  150.8490  140.1532  157.1283 H   0  0  0  0  0  0  0  0  0  0  0  0
  153.1250  139.2713  158.6031 H   0  0  0  0  0  0  0  0  0  0  0  0
  153.4678  140.8281  157.8890 H   0  0  0  0  0  0  0  0  0  0  0  0
  150.8611  140.5023  159.3981 H   0  0  0  0  0  0  0  0  0  0  0  0
  152.3296  140.6599  160.3191 H   0  0  0  0  0  0  0  0  0  0  0  0
  152.4135  142.8629  161.2261 H   0  0  0  0  0  0  0  0  0  0  0  0
  152.2388  145.3376  160.8724 H   0  0  0  0  0  0  0  0  0  0  0  0
  151.5354  146.1883  158.6160 H   0  0  0  0  0  0  0  0  0  0  0  0
  151.0388  144.5215  156.8089 H   0  0  0  0  0  0  0  0  0  0  0  0
  151.6091  138.3572  154.1066 H   0  0  0  0  0  0  0  0  0  0  0  0
  149.6037  137.4298  154.7431 H   0  0  0  0  0  0  0  0  0  0  0  0
  150.0766  137.6909  156.4145 H   0  0  0  0  0  0  0  0  0  0  0  0
  147.8473  138.8892  155.5019 H   0  0  0  0  0  0  0  0  0  0  0  0
  148.9782  139.8322  156.4820 H   0  0  0  0  0  0  0  0  0  0  0  0
  148.8818  139.7060  153.4325 H   0  0  0  0  0  0  0  0  0  0  0  0
  148.8183  141.1592  154.4408 H   0  0  0  0  0  0  0  0  0  0  0  0
  1  2  2  0  0  0  0
  2  3  1  0  0  0  0
  2 12  1  0  0  0  0
  3  4  1  0  0  0  0
  3 17  1  0  0  0  0
  4  5  1  0  0  0  0
  4 18  1  0  0  0  0
  4 19  1  0  0  0  0
  5  6  1  0  0  0  0
  5 20  1  0  0  0  0
  5 21  1  0  0  0  0
  6 11  1  0  0  0  0
  6  7  2  0  0  0  0
  7  8  1  0  0  0  0
  7 22  1  0  0  0  0
  8  9  2  0  0  0  0
  8 23  1  0  0  0  0
  9 10  1  0  0  0  0
  9 24  1  0  0  0  0
 10 11  2  0  0  0  0
 10 25  1  0  0  0  0
 12 16  1  0  0  0  0
 12 13  1  0  0  0  0
 12 26  1  0  0  0  0
 13 14  1  0  0  0  0
 13 27  1  0  0  0  0
 13 28  1  0  0  0  0
 14 15  1  0  0  0  0
 14 29  1  0  0  0  0
 14 30  1  0  0  0  0
 15 16  1  0  0  0  0
 15 31  1  0  0  0  0
 15 32  1  0  0  0  0
M  END
> <s_m_source_file>
AV-unprocessed.smi

> <i_m_source_file_index>
3176

> <i_lp_mmshare_version>
43012

> <i_f3d_flags>
0

> <s_epik_input>
TzFbQ0gyXVtDSDJdW0NIMl1bQ0BIXTFDKD1PKVtOSF1bQ0gyXVtDSDJdYzJbY0hdW2NIXVtjSF1bY0hdbjI=

> <s_epik_cmdline>
J2VwaWtfcHl0aG9uJywgJy1waCcsICc3LjAnLCAnLXRuJywgJzgnLCAnLW1hJywgJzIwMCcsICctbWV0YWxfYmluZGluZycsICctaW1hZScsICc8aW5maWxlLm1hZT4nLCAnLW9tYWUnLCAnPG91dGZpbGUubWFlPic=

> <r_epik_Ionization_Penalty>
0.0282744

> <r_epik_Ionization_Penalty_Charging>
0

> <r_epik_Ionization_Penalty_Neutral>
0.0282744

> <r_epik_State_Penalty>
0.0231919

> <r_epik_Charging_Adjusted_Penalty>
0.0231919

> <i_epik_Tot_Q>
0

> <i_epik_Tot_abs_Q>
0

> <r_epik_Metal_State_Penalty>
0.02213

> <b_epik_Metal_Only>
0

> <s_lp_Force_Field>
OPLS_2005

> <r_lp_Energy>
16.341

> <b_lp_Chiralities_Consistent>
1

> <s_lp_Variant>
AV-unprocessed.smi:3176-2

> <Gold.Version>
5.8.1

> <Gold.Id.Protein>
6NUR|6NUR_protein|mol2

> <Gold.PLP.Fitness>
42.7600

> <Gold.PLP.PLP>
-34.3775

> <Gold.PLP.part.hbond>
-1.9170

> <Gold.PLP.part.metal>
0.0000

> <Gold.PLP.part.buried>
-4.9131

> <Gold.PLP.part.nonpolar>
-28.4943

> <Gold.PLP.part.repulsive>
0.2632

> <Gold.PLP.ligand.clash>
0.0000

> <Gold.PLP.ligand.torsion>
0.3154

> <Gold.PLP.Chemscore.Hbond>
2.0000

> <Gold.PLP.Chemscore.CHOScore>
1.0000

> <Gold.PLP.Chemscore.Metal>
0.0000

> <Gold.Chemscore.Hbonds>
donor molecule, donor type, donor heavy atom, donor atom, acceptor molecule, acceptor atom, score
      P1  H  7989  7998       L1    16  0.89
      P1  H  7997  8009       L1     1  0.99
      L1  C    10    25       P1  8028  1.00

> <Gold.PLP.Chemscore.Internal.Correction>
0.0134

> <Gold.Rescore>
     Score         DG    S(hbond)    S(metal)    S(lipo)     H(rot)  DE(clash)    DE(int)     intcor
     18.03     -18.50       1.83        0.00      92.35       1.52       0.01       0.47       ----

> <Gold.Chemscore.Fitness>
18.0254

> <Gold.Chemscore.DG>
-18.5002

> <Gold.Chemscore.ZeroCoef>
-5.4800

> <Gold.Chemscore.Hbond>
1.8252

> <Gold.Chemscore.Metal>
0.0000

> <Gold.Chemscore.Lipo>
92.3471

> <Gold.Chemscore.Internal_Hbond>
0.0000

> <Gold.Chemscore.DEClash>
0.0098

> <Gold.Chemscore.DEInternal>
0.4650

> <Gold.Chemscore.Rot>
1.5159

> <Gold.Chemscore.Internal.Correction>
   9.000000E+99

> <Gold.Chemscore.Hbonds>
donor molecule, donor type, donor heavy atom, donor atom, acceptor molecule, acceptor atom, score
      P1  H  7989  7998       L1    16  0.77
      P1  H  7997  8009       L1     1  0.61

> <Gold.Chemscore.Hbond.Weighted>
-6.0963

> <Gold.Chemscore.Metal.Weighted>
-0.0000

> <Gold.Chemscore.Lipo.Weighted>
-10.8046

> <Gold.Chemscore.Internal_Hbond.Weighted>
0.0000

> <Gold.Chemscore.DEClash.Weighted>
0.0098

> <Gold.Chemscore.DEInternal.Weighted>
0.4650

> <Gold.Chemscore.Rot.Weighted>
3.8807

> <Gold.Chemscore.Internal.Correction.Weighted>
   9.000000E+99

> <Gold.Protein.RotatedTorsions>
[ 6907 6896 6895 6894 ] final  111.58 input  -60.11 | X-H torsion
[ 7974 7965 7964 7962 ] final  125.03 input  175.53 | X-H torsion
[ 8008 7997 7996 7995 ] final -156.94 input   59.86 | X-H torsion
[ 10167 10162 10161 10158 ] final  174.56 input  -65.29 | X-H torsion
[ 10718 10713 10712 10709 ] final  -20.10 input   66.30 | X-H torsion
[ 10763 10752 10751 10750 ] final -140.51 input  -60.55 | X-H torsion
[ 11005 11000 10999 10996 ] final  -80.17 input  -57.11 | X-H torsion

> <Gold.Protein.ActiveResidues>
 VAL166  LYS551  ARG553  GLY616  TRP617  ASP618  TYR619  PRO620  LYS621  CYS622 
 ASP623  PHE694  ASN695  SER759  ASP760  ASP761  ALA762  ILE779  LEU786  VAL792 
 PHE793  MET794  SER795  GLU796  ALA797  LYS798  CYS799  TRP800  GLU811  SER814 

> <Gold.Protein.RotatedAtoms>
  152.4962  133.8638  159.7263 H   0  0  0  0  0  0  0  0  0  0  0  0  # atno 6907 bound_to 6896
  150.9142  133.6950  159.2854 H   0  0  0  0  0  0  0  0  0  0  0  0  # atno 6908 bound_to 6896
  151.4349  135.1018  159.9705 H   0  0  0  0  0  0  0  0  0  0  0  0  # atno 6909 bound_to 6896
  145.0777  139.3681  143.4925 H   0  0  0  0  0  0  0  0  0  0  0  0  # atno 7974 bound_to 7965
  155.7248  140.0794  157.2315 H   0  0  0  0  0  0  0  0  0  0  0  0  # atno 8008 bound_to 7997
  154.4040  140.1606  156.2497 H   0  0  0  0  0  0  0  0  0  0  0  0  # atno 8009 bound_to 7997
  155.9163  140.3400  155.6140 H   0  0  0  0  0  0  0  0  0  0  0  0  # atno 8010 bound_to 7997
  139.5146  144.3132  152.0272 H   0  0  0  0  0  0  0  0  0  0  0  0  # atno 10167 bound_to 10162
  156.5365  130.4668  149.6520 H   0  0  0  0  0  0  0  0  0  0  0  0  # atno 10718 bound_to 10713
  154.8576  135.3551  154.5718 H   0  0  0  0  0  0  0  0  0  0  0  0  # atno 10763 bound_to 10752
  153.6331  135.7001  153.5273 H   0  0  0  0  0  0  0  0  0  0  0  0  # atno 10764 bound_to 10752
  153.3033  135.4200  155.1231 H   0  0  0  0  0  0  0  0  0  0  0  0  # atno 10765 bound_to 10752
  141.1668  133.7138  156.8233 H   0  0  0  0  0  0  0  0  0  0  0  0  # atno 11005 bound_to 11000
  146.3530  140.0552  142.8633 LP  0  0  0  0  0  0  0  0  0  0  0  0  # atno 17320 bound_to 7965
  145.1216  140.9465  143.4597 LP  0  0  0  0  0  0  0  0  0  0  0  0  # atno 17321 bound_to 7965
  140.2576  144.4102  150.6198 LP  0  0  0  0  0  0  0  0  0  0  0  0  # atno 17342 bound_to 10162
  140.6180  143.2174  151.6752 LP  0  0  0  0  0  0  0  0  0  0  0  0  # atno 17343 bound_to 10162
  156.3011  130.7177  151.2049 LP  0  0  0  0  0  0  0  0  0  0  0  0  # atno 17370 bound_to 10713
  157.7413  131.0506  150.5108 LP  0  0  0  0  0  0  0  0  0  0  0  0  # atno 17371 bound_to 10713
  140.2103  134.8832  157.3267 LP  0  0  0  0  0  0  0  0  0  0  0  0  # atno 17394 bound_to 11000
  140.2093  134.4158  155.7621 LP  0  0  0  0  0  0  0  0  0  0  0  0  # atno 17395 bound_to 11000

$$$$
