AV-unprocessed.smi:1410|AV-procd|sdf|5732|dock2
  -GOLD-   22720 5363D 1   1.00000     0.00000
 Structure written by MMmdl.
 40 41  0  0  0  0  0  0  0  0  2 V2000
  154.7132  132.0437  157.4395 N   0  0  0  0  0  0  0  0  0  0  0  0
  153.3904  132.2259  157.4321 C   0  0  0  0  0  0  0  0  0  0  0  0
  152.8778  133.3261  157.6266 O   0  0  0  0  0  0  0  0  0  0  0  0
  152.5148  130.9964  157.1609 C   0  0  0  0  0  0  0  0  0  0  0  0
  151.6797  131.0938  155.9417 N   0  0  0  0  0  0  0  0  0  0  0  0
  150.6754  132.1459  156.1290 C   0  0  0  0  0  0  0  0  0  0  0  0
  149.8760  132.3690  154.8338 C   0  0  0  0  0  0  0  0  0  0  0  0
  149.1830  131.0760  154.3829 C   0  0  0  0  0  0  0  0  0  0  0  0
  148.5253  131.2869  153.0968 N   0  0  0  0  0  0  0  0  0  0  0  0
  147.3498  131.9078  152.9237 C   0  0  0  0  0  0  0  0  0  0  0  0
  146.6817  132.3673  153.8497 O   0  0  0  0  0  0  0  0  0  0  0  0
  147.0021  131.9379  151.6252 N   0  0  0  0  0  0  0  0  0  0  0  0
  145.8475  132.5147  151.0290 C   0  0  0  0  0  0  0  0  0  0  0  0
  145.1359  133.4763  151.7806 C   0  0  0  0  0  0  0  0  0  0  0  0
  143.9751  134.0644  151.2379 C   0  0  0  0  0  0  0  0  0  0  0  0
  143.5469  133.6986  150.0107 N   0  3  0  0  0  0  0  0  0  0  0  0
  144.1846  132.7746  149.2607 C   0  0  0  0  0  0  0  0  0  0  0  0
  145.3510  132.1521  149.7505 C   0  0  0  0  0  0  0  0  0  0  0  0
  150.2320  129.9559  154.2887 C   0  0  0  0  0  0  0  0  0  0  0  0
  151.0260  129.8216  155.6001 C   0  0  0  0  0  0  0  0  0  0  0  0
  155.3248  132.8283  157.6118 H   0  0  0  0  0  0  0  0  0  0  0  0
  155.0979  131.1256  157.2710 H   0  0  0  0  0  0  0  0  0  0  0  0
  153.1392  130.1021  157.1083 H   0  0  0  0  0  0  0  0  0  0  0  0
  151.8690  130.8703  158.0312 H   0  0  0  0  0  0  0  0  0  0  0  0
  150.0024  131.8884  156.9492 H   0  0  0  0  0  0  0  0  0  0  0  0
  151.1658  133.0810  156.4036 H   0  0  0  0  0  0  0  0  0  0  0  0
  149.1360  133.1551  154.9890 H   0  0  0  0  0  0  0  0  0  0  0  0
  150.5479  132.7264  154.0514 H   0  0  0  0  0  0  0  0  0  0  0  0
  148.4360  130.8064  155.1322 H   0  0  0  0  0  0  0  0  0  0  0  0
  149.0040  130.9332  152.2812 H   0  0  0  0  0  0  0  0  0  0  0  0
  147.6147  131.4434  150.9933 H   0  0  0  0  0  0  0  0  0  0  0  0
  145.4770  133.7680  152.7635 H   0  0  0  0  0  0  0  0  0  0  0  0
  143.3800  134.8090  151.7462 H   0  0  0  0  0  0  0  0  0  0  0  0
  143.7430  132.5568  148.2991 H   0  0  0  0  0  0  0  0  0  0  0  0
  145.8317  131.4020  149.1414 H   0  0  0  0  0  0  0  0  0  0  0  0
  149.7490  129.0062  154.0561 H   0  0  0  0  0  0  0  0  0  0  0  0
  150.9225  130.1594  153.4684 H   0  0  0  0  0  0  0  0  0  0  0  0
  151.7612  129.0279  155.4672 H   0  0  0  0  0  0  0  0  0  0  0  0
  150.3666  129.5077  156.4113 H   0  0  0  0  0  0  0  0  0  0  0  0
  142.7039  134.1352  149.6365 H   0  0  0  0  0  0  0  0  0  0  0  0
  1  2  1  0  0  0  0
  1 21  1  0  0  0  0
  1 22  1  0  0  0  0
  2  3  2  0  0  0  0
  2  4  1  0  0  0  0
  4  5  1  0  0  0  0
  4 23  1  0  0  0  0
  4 24  1  0  0  0  0
  5 20  1  0  0  0  0
  5  6  1  0  0  0  0
  6  7  1  0  0  0  0
  6 25  1  0  0  0  0
  6 26  1  0  0  0  0
  7  8  1  0  0  0  0
  7 27  1  0  0  0  0
  7 28  1  0  0  0  0
  8  9  1  0  0  0  0
  8 19  1  0  0  0  0
  8 29  1  0  0  0  0
  9 10  1  0  0  0  0
  9 30  1  0  0  0  0
 10 11  2  0  0  0  0
 10 12  1  0  0  0  0
 12 13  1  0  0  0  0
 12 31  1  0  0  0  0
 13 18  1  0  0  0  0
 13 14  2  0  0  0  0
 14 15  1  0  0  0  0
 14 32  1  0  0  0  0
 15 16  2  0  0  0  0
 15 33  1  0  0  0  0
 16 17  1  0  0  0  0
 16 40  1  0  0  0  0
 17 18  2  0  0  0  0
 17 34  1  0  0  0  0
 18 35  1  0  0  0  0
 19 20  1  0  0  0  0
 19 36  1  0  0  0  0
 19 37  1  0  0  0  0
 20 38  1  0  0  0  0
 20 39  1  0  0  0  0
M  CHG  1  16   1
M  END
> <s_m_source_file>
AV-unprocessed.smi

> <i_m_source_file_index>
1410

> <i_lp_mmshare_version>
43012

> <i_f3d_flags>
0

> <s_epik_input>
W05IMl1DKD1PKVtDSDJdTjFbQ0gyXVtDSDJdW0NIXShbQ0gyXVtDSDJdMSlbTkhdQyg9TylbTkhdYzJbY0hdW2NIXW5bY0hdW2NIXTI=

> <s_epik_cmdline>
J2VwaWtfcHl0aG9uJywgJy1waCcsICc3LjAnLCAnLXRuJywgJzgnLCAnLW1hJywgJzIwMCcsICctbWV0YWxfYmluZGluZycsICctaW1hZScsICc8aW5maWxlLm1hZT4nLCAnLW9tYWUnLCAnPG91dGZpbGUubWFlPic=

> <r_epik_Ionization_Penalty>
1.15133

> <r_epik_Ionization_Penalty_Charging>
0.995513

> <r_epik_Ionization_Penalty_Neutral>
0.155816

> <r_epik_State_Penalty>
1.22158

> <r_epik_Charging_Adjusted_Penalty>
2.2171

> <i_epik_Tot_Q>
1

> <i_epik_Tot_abs_Q>
1

> <r_epik_Metal_State_Penalty>
1.3359

> <b_epik_Metal_Only>
0

> <s_lp_Force_Field>
OPLS_2005

> <r_lp_Energy>
21.9587

> <b_lp_Chiralities_Consistent>
1

> <s_lp_Variant>
AV-unprocessed.smi:1410-4

> <Gold.Version>
5.8.1

> <Gold.Id.Protein>
6NUR|6NUR_protein|mol2

> <Gold.PLP.Fitness>
47.3352

> <Gold.PLP.PLP>
-34.5410

> <Gold.PLP.part.hbond>
-4.0000

> <Gold.PLP.part.metal>
0.0000

> <Gold.PLP.part.buried>
-6.5690

> <Gold.PLP.part.nonpolar>
-25.0292

> <Gold.PLP.part.repulsive>
0.2301

> <Gold.PLP.ligand.clash>
0.0000

> <Gold.PLP.ligand.torsion>
0.3807

> <Gold.PLP.Chemscore.Hbond>
4.5148

> <Gold.PLP.Chemscore.CHOScore>
0.0000

> <Gold.PLP.Chemscore.Metal>
0.0000

> <Gold.Chemscore.Hbonds>
donor molecule, donor type, donor heavy atom, donor atom, acceptor molecule, acceptor atom, score
      L1  H     9    30       P1 10747  0.93
      L1  H    12    31       P1 10747  1.00
      L1  H    16    40       P1 10186  2.00
      P1  H  6896  6907       L1     3  0.70

> <Gold.PLP.Chemscore.Internal.Correction>
0.0110

> <Gold.Rescore>
     Score         DG    S(hbond)    S(metal)    S(lipo)     H(rot)  DE(clash)    DE(int)     intcor
     18.14     -20.33       3.49        0.00      70.42       1.96       0.04       2.16       ----

> <Gold.Chemscore.Fitness>
18.1366

> <Gold.Chemscore.DG>
-20.3346

> <Gold.Chemscore.ZeroCoef>
-5.4800

> <Gold.Chemscore.Hbond>
3.4869

> <Gold.Chemscore.Metal>
0.0000

> <Gold.Chemscore.Lipo>
70.4158

> <Gold.Chemscore.Internal_Hbond>
0.0000

> <Gold.Chemscore.DEClash>
0.0370

> <Gold.Chemscore.DEInternal>
2.1610

> <Gold.Chemscore.Rot>
1.9650

> <Gold.Chemscore.Internal.Correction>
   9.000000E+99

> <Gold.Chemscore.Hbonds>
donor molecule, donor type, donor heavy atom, donor atom, acceptor molecule, acceptor atom, score
      L1  H     9    30       P1 10747  0.39
      L1  H    12    31       P1 10747  0.99
      L1  H    16    40       P1 10186  0.98
      P1  H  6896  6907       L1     3  0.55

> <Gold.Chemscore.Hbond.Weighted>
-11.6462

> <Gold.Chemscore.Metal.Weighted>
-0.0000

> <Gold.Chemscore.Lipo.Weighted>
-8.2386

> <Gold.Chemscore.Internal_Hbond.Weighted>
0.0000

> <Gold.Chemscore.DEClash.Weighted>
0.0370

> <Gold.Chemscore.DEInternal.Weighted>
2.1610

> <Gold.Chemscore.Rot.Weighted>
5.0303

> <Gold.Chemscore.Internal.Correction.Weighted>
   9.000000E+99

> <Gold.Protein.RotatedTorsions>
[ 6907 6896 6895 6894 ] final  148.50 input  -60.11 | X-H torsion
[ 7974 7965 7964 7962 ] final  168.66 input  175.53 | X-H torsion
[ 8008 7997 7996 7995 ] final   20.69 input   59.86 | X-H torsion
[ 10167 10162 10161 10158 ] final   48.84 input  -65.29 | X-H torsion
[ 10718 10713 10712 10709 ] final -151.14 input   66.30 | X-H torsion
[ 10763 10752 10751 10750 ] final    0.75 input  -60.55 | X-H torsion
[ 11005 11000 10999 10996 ] final  -33.20 input  -57.11 | X-H torsion

> <Gold.Protein.ActiveResidues>
 VAL166  LYS551  ARG553  GLY616  TRP617  ASP618  TYR619  PRO620  LYS621  CYS622 
 ASP623  PHE694  ASN695  SER759  ASP760  ASP761  ALA762  ILE779  LEU786  VAL792 
 PHE793  MET794  SER795  GLU796  ALA797  LYS798  CYS799  TRP800  GLU811  SER814 

> <Gold.Protein.RotatedAtoms>
  152.1406  133.4461  159.4764 H   0  0  0  0  0  0  0  0  0  0  0  0  # atno 6907 bound_to 6896
  150.6886  134.2310  159.4443 H   0  0  0  0  0  0  0  0  0  0  0  0  # atno 6908 bound_to 6896
  152.0200  134.9827  160.0621 H   0  0  0  0  0  0  0  0  0  0  0  0  # atno 6909 bound_to 6896
  144.7381  139.8940  143.6405 H   0  0  0  0  0  0  0  0  0  0  0  0  # atno 7974 bound_to 7965
  154.9394  140.3051  155.5128 H   0  0  0  0  0  0  0  0  0  0  0  0  # atno 8008 bound_to 7997
  156.2997  140.2339  156.4398 H   0  0  0  0  0  0  0  0  0  0  0  0  # atno 8009 bound_to 7997
  154.8160  140.0426  157.1366 H   0  0  0  0  0  0  0  0  0  0  0  0  # atno 8010 bound_to 7997
  140.2891  144.3067  150.6245 H   0  0  0  0  0  0  0  0  0  0  0  0  # atno 10167 bound_to 10162
  156.4554  130.8187  151.2418 H   0  0  0  0  0  0  0  0  0  0  0  0  # atno 10718 bound_to 10713
  153.3167  135.6966  153.7067 H   0  0  0  0  0  0  0  0  0  0  0  0  # atno 10763 bound_to 10752
  153.5923  135.3477  155.2916 H   0  0  0  0  0  0  0  0  0  0  0  0  # atno 10764 bound_to 10752
  154.8588  135.4321  154.2320 H   0  0  0  0  0  0  0  0  0  0  0  0  # atno 10765 bound_to 10752
  140.9615  133.7161  156.1377 H   0  0  0  0  0  0  0  0  0  0  0  0  # atno 11005 bound_to 11000
  146.1121  139.4127  143.0281 LP  0  0  0  0  0  0  0  0  0  0  0  0  # atno 17320 bound_to 7965
  145.7428  141.0002  143.1292 LP  0  0  0  0  0  0  0  0  0  0  0  0  # atno 17321 bound_to 7965
  140.5747  143.2177  151.7536 LP  0  0  0  0  0  0  0  0  0  0  0  0  # atno 17342 bound_to 10162
  139.4942  144.4166  152.0023 LP  0  0  0  0  0  0  0  0  0  0  0  0  # atno 17343 bound_to 10162
  157.7501  131.0124  150.3385 LP  0  0  0  0  0  0  0  0  0  0  0  0  # atno 17370 bound_to 10713
  156.3773  130.3874  149.7129 LP  0  0  0  0  0  0  0  0  0  0  0  0  # atno 17371 bound_to 10713
  140.7460  134.4097  157.5548 LP  0  0  0  0  0  0  0  0  0  0  0  0  # atno 17394 bound_to 11000
  139.8880  134.8868  156.2499 LP  0  0  0  0  0  0  0  0  0  0  0  0  # atno 17395 bound_to 11000

$$$$
