AV-unprocessed.smi:1687|AV-procd|sdf|6767|dock1
  -GOLD-   22720 7523D 1   1.00000     0.00000
 Structure written by MMmdl.
 45 46  0  0  0  0  0  0  0  0  2 V2000
  144.9003  145.4897  152.5156 C   0  0  0  0  0  0  0  0  0  0  0  0
  145.8212  144.3024  152.8296 C   0  0  2  0  0  0  0  0  0  0  0  0
  146.6345  143.8698  151.6012 C   0  0  0  0  0  0  0  0  0  0  0  0
  147.5359  142.6696  151.9317 C   0  0  0  0  0  0  0  0  0  0  0  0
  146.7460  141.5074  152.4311 N   0  3  1  0  0  0  0  0  0  0  0  0
  147.5897  140.2745  152.5625 C   0  0  1  0  0  0  0  0  0  0  0  0
  148.9175  140.4946  153.3275 C   0  0  0  0  0  0  0  0  0  0  0  0
  146.7678  139.1455  153.2377 C   0  0  0  0  0  0  0  0  0  0  0  0
  147.0144  137.8303  152.6538 N   0  0  0  0  0  0  0  0  0  0  0  0
  146.0590  137.0208  152.1739 C   0  0  0  0  0  0  0  0  0  0  0  0
  144.8644  137.3202  152.1661 O   0  0  0  0  0  0  0  0  0  0  0  0
  146.5776  135.8687  151.7138 N   0  0  0  0  0  0  0  0  0  0  0  0
  145.8894  134.7618  151.1485 C   0  0  0  0  0  0  0  0  0  0  0  0
  146.6578  133.5831  151.0154 C   0  0  0  0  0  0  0  0  0  0  0  0
  146.0667  132.4289  150.4657 C   0  0  0  0  0  0  0  0  0  0  0  0
  144.7207  132.4832  150.0624 C   0  0  0  0  0  0  0  0  0  0  0  0
  144.0270  133.6959  150.2293 C   0  0  0  0  0  0  0  0  0  0  0  0
  144.5916  134.8033  150.7559 N   0  0  0  0  0  0  0  0  0  0  0  0
  145.9562  141.8929  153.6372 C   0  0  0  0  0  0  0  0  0  0  0  0
  145.0345  143.0925  153.3540 C   0  0  0  0  0  0  0  0  0  0  0  0
  144.1727  145.2367  151.7438 H   0  0  0  0  0  0  0  0  0  0  0  0
  145.4733  146.3484  152.1643 H   0  0  0  0  0  0  0  0  0  0  0  0
  144.3493  145.8037  153.4026 H   0  0  0  0  0  0  0  0  0  0  0  0
  146.5186  144.6194  153.6066 H   0  0  0  0  0  0  0  0  0  0  0  0
  145.9647  143.6102  150.7802 H   0  0  0  0  0  0  0  0  0  0  0  0
  147.2474  144.7007  151.2494 H   0  0  0  0  0  0  0  0  0  0  0  0
  148.0991  142.4053  151.0382 H   0  0  0  0  0  0  0  0  0  0  0  0
  148.2727  142.9566  152.6840 H   0  0  0  0  0  0  0  0  0  0  0  0
  147.8645  139.9598  151.5545 H   0  0  0  0  0  0  0  0  0  0  0  0
  149.4882  139.5702  153.4151 H   0  0  0  0  0  0  0  0  0  0  0  0
  148.7405  140.8626  154.3385 H   0  0  0  0  0  0  0  0  0  0  0  0
  149.5727  141.1991  152.8146 H   0  0  0  0  0  0  0  0  0  0  0  0
  147.0202  139.0928  154.2973 H   0  0  0  0  0  0  0  0  0  0  0  0
  145.6964  139.3397  153.1982 H   0  0  0  0  0  0  0  0  0  0  0  0
  147.9723  137.5124  152.6255 H   0  0  0  0  0  0  0  0  0  0  0  0
  147.5791  135.7659  151.7838 H   0  0  0  0  0  0  0  0  0  0  0  0
  147.6910  133.5580  151.3302 H   0  0  0  0  0  0  0  0  0  0  0  0
  146.6371  131.5184  150.3554 H   0  0  0  0  0  0  0  0  0  0  0  0
  144.2328  131.6193  149.6358 H   0  0  0  0  0  0  0  0  0  0  0  0
  142.9922  133.7793  149.9322 H   0  0  0  0  0  0  0  0  0  0  0  0
  145.3157  141.0735  153.9615 H   0  0  0  0  0  0  0  0  0  0  0  0
  146.6333  142.1227  154.4612 H   0  0  0  0  0  0  0  0  0  0  0  0
  144.4991  143.3636  154.2647 H   0  0  0  0  0  0  0  0  0  0  0  0
  144.2753  142.8020  152.6260 H   0  0  0  0  0  0  0  0  0  0  0  0
  146.0615  141.2948  151.7196 H   0  0  0  0  0  0  0  0  0  0  0  0
  1  2  1  0  0  0  0
  1 21  1  0  0  0  0
  1 22  1  0  0  0  0
  1 23  1  0  0  0  0
  2 20  1  0  0  0  0
  2  3  1  0  0  0  0
  2 24  1  0  0  0  0
  3  4  1  0  0  0  0
  3 25  1  0  0  0  0
  3 26  1  0  0  0  0
  4  5  1  0  0  0  0
  4 27  1  0  0  0  0
  4 28  1  0  0  0  0
  5  6  1  0  0  0  0
  5 19  1  0  0  0  0
  5 45  1  0  0  0  0
  6  7  1  0  0  0  0
  6  8  1  0  0  0  0
  6 29  1  0  0  0  0
  7 30  1  0  0  0  0
  7 31  1  0  0  0  0
  7 32  1  0  0  0  0
  8  9  1  0  0  0  0
  8 33  1  0  0  0  0
  8 34  1  0  0  0  0
  9 10  1  0  0  0  0
  9 35  1  0  0  0  0
 10 11  2  0  0  0  0
 10 12  1  0  0  0  0
 12 13  1  0  0  0  0
 12 36  1  0  0  0  0
 13 18  1  0  0  0  0
 13 14  2  0  0  0  0
 14 15  1  0  0  0  0
 14 37  1  0  0  0  0
 15 16  2  0  0  0  0
 15 38  1  0  0  0  0
 16 17  1  0  0  0  0
 16 39  1  0  0  0  0
 17 18  2  0  0  0  0
 17 40  1  0  0  0  0
 19 20  1  0  0  0  0
 19 41  1  0  0  0  0
 19 42  1  0  0  0  0
 20 43  1  0  0  0  0
 20 44  1  0  0  0  0
M  CHG  1   5   1
M  END
> <s_m_source_file>
AV-unprocessed.smi

> <i_m_source_file_index>
1687

> <i_lp_mmshare_version>
43012

> <i_f3d_flags>
0

> <s_epik_input>
W0NIM11bQ0hdMVtDSDJdW0NIMl1OKFtDSDJdW0NIMl0xKVtDQEhdKFtDSDNdKVtDSDJdW05IXUMoPU8pW05IXWMyW2NIXVtjSF1bY0hdW2NIXW4y

> <s_epik_cmdline>
J2VwaWtfcHl0aG9uJywgJy1waCcsICc3LjAnLCAnLXRuJywgJzgnLCAnLW1hJywgJzIwMCcsICctbWV0YWxfYmluZGluZycsICctaW1hZScsICc8aW5maWxlLm1hZT4nLCAnLW9tYWUnLCAnPG91dGZpbGUubWFlPic=

> <r_epik_Ionization_Penalty>
0.00142891

> <r_epik_Ionization_Penalty_Charging>
0.00139388

> <r_epik_Ionization_Penalty_Neutral>
3.50347e-05

> <r_epik_State_Penalty>
0.000929204

> <r_epik_Charging_Adjusted_Penalty>
0.00232308

> <i_epik_Tot_Q>
1

> <i_epik_Tot_abs_Q>
1

> <r_epik_Metal_State_Penalty>
-0

> <b_epik_Metal_Only>
0

> <s_lp_Force_Field>
OPLS_2005

> <r_lp_Energy>
22.8653

> <b_lp_Chiralities_Consistent>
1

> <s_lp_Variant>
AV-unprocessed.smi:1687-2

> <Gold.Version>
5.8.1

> <Gold.Id.Protein>
6NUR|6NUR_protein|mol2

> <Gold.PLP.Fitness>
47.0214

> <Gold.PLP.PLP>
-33.6021

> <Gold.PLP.part.hbond>
-3.0000

> <Gold.PLP.part.metal>
0.0000

> <Gold.PLP.part.buried>
-5.8248

> <Gold.PLP.part.nonpolar>
-25.2457

> <Gold.PLP.part.repulsive>
0.3044

> <Gold.PLP.ligand.clash>
0.0000

> <Gold.PLP.ligand.torsion>
0.7195

> <Gold.PLP.Chemscore.Hbond>
3.9120

> <Gold.PLP.Chemscore.CHOScore>
0.9943

> <Gold.PLP.Chemscore.Metal>
0.0000

> <Gold.Chemscore.Hbonds>
donor molecule, donor type, donor heavy atom, donor atom, acceptor molecule, acceptor atom, score
      L1  H     9    35       P1  7948  0.78
      L1  H    12    36       P1  7948  0.71
      L1  C    17    40       P1 10186  1.00

> <Gold.PLP.Chemscore.Internal.Correction>
0.1396

> <Gold.Rescore>
     Score         DG    S(hbond)    S(metal)    S(lipo)     H(rot)  DE(clash)    DE(int)     intcor
     16.80     -19.56       2.74        0.00      74.93       1.50       0.72       2.04       ----

> <Gold.Chemscore.Fitness>
16.7997

> <Gold.Chemscore.DG>
-19.5590

> <Gold.Chemscore.ZeroCoef>
-5.4800

> <Gold.Chemscore.Hbond>
2.7369

> <Gold.Chemscore.Metal>
0.0000

> <Gold.Chemscore.Lipo>
74.9282

> <Gold.Chemscore.Internal_Hbond>
0.0000

> <Gold.Chemscore.DEClash>
0.7156

> <Gold.Chemscore.DEInternal>
2.0437

> <Gold.Chemscore.Rot>
1.4956

> <Gold.Chemscore.Internal.Correction>
   9.000000E+99

> <Gold.Chemscore.Hbonds>
donor molecule, donor type, donor heavy atom, donor atom, acceptor molecule, acceptor atom, score
      L1  H     9    35       P1  7948  0.80
      L1  H    12    36       P1  7948  0.70

> <Gold.Chemscore.Hbond.Weighted>
-9.1413

> <Gold.Chemscore.Metal.Weighted>
-0.0000

> <Gold.Chemscore.Lipo.Weighted>
-8.7666

> <Gold.Chemscore.Internal_Hbond.Weighted>
0.0000

> <Gold.Chemscore.DEClash.Weighted>
0.7156

> <Gold.Chemscore.DEInternal.Weighted>
2.0437

> <Gold.Chemscore.Rot.Weighted>
3.8289

> <Gold.Chemscore.Internal.Correction.Weighted>
   9.000000E+99

> <Gold.Protein.RotatedTorsions>
[ 6907 6896 6895 6894 ] final -164.33 input  -60.11 | X-H torsion
[ 7974 7965 7964 7962 ] final -158.35 input  175.53 | X-H torsion
[ 8008 7997 7996 7995 ] final  141.59 input   59.86 | X-H torsion
[ 10167 10162 10161 10158 ] final  -95.85 input  -65.29 | X-H torsion
[ 10718 10713 10712 10709 ] final  -85.70 input   66.30 | X-H torsion
[ 10763 10752 10751 10750 ] final -167.79 input  -60.55 | X-H torsion
[ 11005 11000 10999 10996 ] final  111.33 input  -57.11 | X-H torsion

> <Gold.Protein.ActiveResidues>
 VAL166  LYS551  ARG553  GLY616  TRP617  ASP618  TYR619  PRO620  LYS621  CYS622 
 ASP623  PHE694  ASN695  SER759  ASP760  ASP761  ALA762  ILE779  LEU786  VAL792 
 PHE793  MET794  SER795  GLU796  ALA797  LYS798  CYS799  TRP800  GLU811  SER814 

> <Gold.Protein.RotatedAtoms>
  151.4101  133.3730  159.2742 H   0  0  0  0  0  0  0  0  0  0  0  0  # atno 6907 bound_to 6896
  150.9369  134.8782  159.7598 H   0  0  0  0  0  0  0  0  0  0  0  0  # atno 6908 bound_to 6896
  152.5054  134.4050  159.9481 H   0  0  0  0  0  0  0  0  0  0  0  0  # atno 6909 bound_to 6896
  144.7509  140.3840  143.6048 H   0  0  0  0  0  0  0  0  0  0  0  0  # atno 7974 bound_to 7965
  156.2963  140.2311  156.4590 H   0  0  0  0  0  0  0  0  0  0  0  0  # atno 8008 bound_to 7997
  154.8035  140.0447  157.1311 H   0  0  0  0  0  0  0  0  0  0  0  0  # atno 8009 bound_to 7997
  154.9506  140.3041  155.5080 H   0  0  0  0  0  0  0  0  0  0  0  0  # atno 8010 bound_to 7997
  140.2999  143.3169  152.0259 H   0  0  0  0  0  0  0  0  0  0  0  0  # atno 10167 bound_to 10162
  155.9995  130.4740  150.4602 H   0  0  0  0  0  0  0  0  0  0  0  0  # atno 10718 bound_to 10713
  154.6695  135.2937  154.9760 H   0  0  0  0  0  0  0  0  0  0  0  0  # atno 10763 bound_to 10752
  154.0792  135.6607  153.4839 H   0  0  0  0  0  0  0  0  0  0  0  0  # atno 10764 bound_to 10752
  153.0478  135.5193  154.7685 H   0  0  0  0  0  0  0  0  0  0  0  0  # atno 10765 bound_to 10752
  139.8901  134.9505  156.6415 H   0  0  0  0  0  0  0  0  0  0  0  0  # atno 11005 bound_to 11000
  145.6947  139.1647  143.2627 LP  0  0  0  0  0  0  0  0  0  0  0  0  # atno 17320 bound_to 7965
  146.1458  140.6994  142.9345 LP  0  0  0  0  0  0  0  0  0  0  0  0  # atno 17321 bound_to 7965
  139.4917  144.6463  151.6770 LP  0  0  0  0  0  0  0  0  0  0  0  0  # atno 17342 bound_to 10162
  140.5660  144.0189  150.6193 LP  0  0  0  0  0  0  0  0  0  0  0  0  # atno 17343 bound_to 10162
  157.2627  131.0570  151.2310 LP  0  0  0  0  0  0  0  0  0  0  0  0  # atno 17370 bound_to 10713
  157.3419  130.7038  149.6387 LP  0  0  0  0  0  0  0  0  0  0  0  0  # atno 17371 bound_to 10713
  140.7590  133.8834  155.8403 LP  0  0  0  0  0  0  0  0  0  0  0  0  # atno 17394 bound_to 11000
  140.9938  134.1243  157.4383 LP  0  0  0  0  0  0  0  0  0  0  0  0  # atno 17395 bound_to 11000

$$$$
