#       Name:                AV-unprocessed.smi:109
#       Creating user name   scv26
#       Creation time:       Thu Mar 26 18:09:03 2020


#       File generated by GOLD software.
#

@<TRIPOS>MOLECULE
AV-unprocessed.smi:109
    71    74     1
SMALL
NO_CHARGES


@<TRIPOS>ATOM
      1 ****        -1.9756   2.8245  -4.8797 O.3            1 S1                 0.0000
      2 ****        -1.4496   2.5170  -3.6066 C.3            1 S1                 0.0000
      3 ****        -2.5974   2.2823  -2.6097 C.3            1 S1                 0.0000
      4 ****        -2.1290   2.0005  -1.1611 C.3            1 S1                 0.0000
      5 ****        -1.3169   0.7821  -1.1406 N.pl3          1 S1                 0.0000
      6 ****         0.0243   0.8172  -0.9746 C.ar           1 S1                 0.0000
      7 ****         0.7225   1.9796  -1.0582 N.ar           1 S1                 0.0000
      8 ****         2.0482   1.9787  -0.8888 C.ar           1 S1                 0.0000
      9 ****         2.8563   0.9474  -0.6310 N.ar           1 S1                 0.0000
     10 ****         2.1585  -0.2224  -0.5499 C.ar           1 S1                 0.0000
     11 ****         0.7530  -0.3701  -0.7087 C.ar           1 S1                 0.0000
     12 ****         0.3999  -1.7040  -0.5528 N.2            1 S1                 0.0000
     13 ****         1.5341  -2.3042  -0.3096 C.2            1 S1                 0.0000
     14 ****         2.6436  -1.4856  -0.2893 N.pl3          1 S1                 0.0000
     15 ****         4.0777  -1.8401  -0.0345 C.3            1 S1                 0.0000
     16 ****         4.2818  -3.1263  -0.5372 O.3            1 S1                 0.0000
     17 ****         4.6081  -4.0364   0.5100 C.3            1 S1                 0.0000
     18 ****         3.9429  -5.3967   0.2425 C.3            1 S1                 0.0000
     19 ****         4.4594  -6.3821   1.1108 O.3            1 S1                 0.0000
     20 ****         4.1694  -3.3427   1.8052 C.3            1 S1                 0.0000
     21 ****         4.9911  -3.7303   2.8882 O.3            1 S1                 0.0000
     22 ****         4.3926  -1.8768   1.4734 C.3            1 S1                 0.0000
     23 ****         3.5604  -1.0468   2.2643 O.3            1 S1                 0.0000
     24 ****        -3.2986   1.8552  -0.1451 C.3            1 S1                 0.0000
     25 ****        -4.2295   3.0931  -0.1053 C.3            1 S1                 0.0000
     26 ****        -5.3561   2.9479   0.9310 C.3            1 S1                 0.0000
     27 ****        -4.7985   2.6688   2.3319 C.3            1 S1                 0.0000
     28 ****        -3.8981   1.4282   2.3154 C.3            1 S1                 0.0000
     29 ****        -2.7677   1.5772   1.2856 C.3            1 S1                 0.0000
     30 ****         4.6535  -1.0988  -0.5895 H              1 S1                 0.0000
     31 ****         5.6947  -4.1401   0.4921 H              1 S1                 0.0000
     32 ****         3.1185  -3.5440   2.0192 H              1 S1                 0.0000
     33 ****         5.4406  -1.6018   1.6029 H              1 S1                 0.0000
     34 ****        -2.4831   2.0865  -5.1809 H              1 S1                 0.0000
     35 ****        -0.8169   1.6341  -3.6980 H              1 S1                 0.0000
     36 ****        -0.8169   3.3413  -3.2766 H              1 S1                 0.0000
     37 ****        -3.2180   3.1765  -2.6313 H              1 S1                 0.0000
     38 ****        -3.2268   1.4621  -2.9583 H              1 S1                 0.0000
     39 ****        -1.5418   2.8580  -0.8329 H              1 S1                 0.0000
     40 ****        -1.8402  -0.0808  -1.1018 H              1 S1                 0.0000
     41 ****         2.5293   2.9422  -0.9698 H              1 S1                 0.0000
     42 ****         1.5876  -3.3678  -0.1351 H              1 S1                 0.0000
     43 ****         2.8607  -5.3396   0.3571 H              1 S1                 0.0000
     44 ****         4.1415  -5.7134  -0.7816 H              1 S1                 0.0000
     45 ****         4.0461  -7.2077   0.9094 H              1 S1                 0.0000
     46 ****         4.7249  -3.2427   3.6529 H              1 S1                 0.0000
     47 ****         3.6567  -0.1551   1.9659 H              1 S1                 0.0000
     48 ****        -3.9030   0.9988  -0.4492 H              1 S1                 0.0000
     49 ****        -3.6441   3.9868   0.1146 H              1 S1                 0.0000
     50 ****        -4.6987   3.2586  -1.0737 H              1 S1                 0.0000
     51 ****        -5.9633   3.8535   0.9478 H              1 S1                 0.0000
     52 ****        -6.0215   2.1360   0.6343 H              1 S1                 0.0000
     53 ****        -4.2301   3.5318   2.6808 H              1 S1                 0.0000
     54 ****        -5.6163   2.5281   3.0393 H              1 S1                 0.0000
     55 ****        -3.4769   1.2627   3.3074 H              1 S1                 0.0000
     56 ****        -4.4934   0.5448   2.0809 H              1 S1                 0.0000
     57 ****        -2.1681   0.6671   1.3072 H              1 S1                 0.0000
     58 ****        -2.1032   2.3860   1.5923 H              1 S1                 0.0000
     59 ****        -1.2280   3.0033  -5.5193 LP             1 S1                 0.0000
     60 ****        -2.5607   3.6330  -4.8166 LP             1 S1                 0.0000
     61 ****         0.2438   2.8371  -1.2468 LP             1 S1                 0.0000
     62 ****         3.8464   1.0228  -0.5125 LP             1 S1                 0.0000
     63 ****        -0.5116  -2.1108  -0.6129 LP             1 S1                 0.0000
     64 ****         5.0325  -3.1043  -1.1975 LP             1 S1                 0.0000
     65 ****         3.4469  -3.4363  -0.9920 LP             1 S1                 0.0000
     66 ****         4.2656  -6.1307   2.0591 LP             1 S1                 0.0000
     67 ****         5.4480  -6.4599   0.9820 LP             1 S1                 0.0000
     68 ****         5.9475  -3.5298   2.6755 LP             1 S1                 0.0000
     69 ****         4.8859  -4.7100   3.0585 LP             1 S1                 0.0000
     70 ****         3.8326  -1.1127   3.2243 LP             1 S1                 0.0000
     71 ****         2.6075  -1.3340   2.1675 LP             1 S1                 0.0000
@<TRIPOS>BOND
    1    1    2 1     
    2    1   34 1     
    3    2    3 1     
    4    2   35 1     
    5    2   36 1     
    6    3    4 1     
    7    3   37 1     
    8    3   38 1     
    9    4    5 1     
   10    4   24 1     
   11    4   39 1     
   12    5    6 1     
   13    5   40 1     
   14    6   11 ar    
   15    6    7 ar    
   16    7    8 ar    
   17    8    9 ar    
   18    8   41 1     
   19    9   10 ar    
   20   10   14 1     
   21   10   11 ar    
   22   11   12 1     
   23   12   13 2     
   24   13   14 1     
   25   13   42 1     
   26   14   15 1     
   27   15   30 1     
   28   15   22 1     
   29   15   16 1     
   30   16   17 1     
   31   17   31 1     
   32   17   18 1     
   33   17   20 1     
   34   18   19 1     
   35   18   43 1     
   36   18   44 1     
   37   19   45 1     
   38   20   32 1     
   39   20   21 1     
   40   20   22 1     
   41   21   46 1     
   42   22   33 1     
   43   22   23 1     
   44   23   47 1     
   45   24   29 1     
   46   24   25 1     
   47   24   48 1     
   48   25   26 1     
   49   25   49 1     
   50   25   50 1     
   51   26   27 1     
   52   26   51 1     
   53   26   52 1     
   54   27   28 1     
   55   27   53 1     
   56   27   54 1     
   57   28   29 1     
   58   28   55 1     
   59   28   56 1     
   60   29   57 1     
   61   29   58 1     
   62    1   59 1     
   63    1   60 1     
   64    7   61 1     
   65    9   62 1     
   66   12   63 1     
   67   16   64 1     
   68   16   65 1     
   69   19   66 1     
   70   19   67 1     
   71   21   68 1     
   72   21   69 1     
   73   23   70 1     
   74   23   71 1     
@<TRIPOS>SUBSTRUCTURE
      1 S1             1
@<TRIPOS>SET
LONE_PAIRS      STATIC     ATOMS    <user>   **** ""
13 59 60 61 62 63 64 65 66 67 68 69 70 71
DONOR_HYDROGENS      STATIC     ATOMS    <user>   **** ""
5 34 40 45 46 47
ATOM$BLUE        STATIC     ATOMS    COLORGROUP SYSTEM
13 59 60 61 62 63 64 65 66 67 68 69 70 71
ATOM$RED        STATIC     ATOMS    COLORGROUP SYSTEM
5 34 40 45 46 47
