#       Name:                AV-unprocessed.smi:2862
#       Creating user name   scv26
#       Creation time:       Fri Mar 27 15:47:21 2020


#       File generated by GOLD software.
#

@<TRIPOS>MOLECULE
AV-unprocessed.smi:2862
    58    60     1
SMALL
NO_CHARGES


@<TRIPOS>ATOM
      1 ****        -4.0701   1.5350  -3.5244 C.3            1 S1                 0.0000
      2 ****        -3.9582   0.7455  -2.2085 C.3            1 S1                 0.0000
      3 ****        -3.0903  -0.4218  -2.3612 N.am           1 S1                 0.0000
      4 ****        -1.7635  -0.4206  -2.5709 C.2            1 S1                 0.0000
      5 ****        -1.0975   0.6052  -2.7174 O.2            1 S1                 0.0000
      6 ****        -1.0921  -1.8005  -2.6312 C.3            1 S1                 0.0000
      7 ****         0.3179  -1.7698  -2.2058 N.am           1 S1                 0.0000
      8 ****         1.2948  -1.8606  -3.2181 C.2            1 S1                 0.0000
      9 ****         2.6092  -1.8251  -2.9482 C.2            1 S1                 0.0000
     10 ****         3.0229  -1.6639  -1.5753 C.2            1 S1                 0.0000
     11 ****         2.0955  -1.5524  -0.6014 C.2            1 S1                 0.0000
     12 ****         2.4971  -1.3899   0.7985 C.2            1 S1                 0.0000
     13 ****         3.2286  -2.2094   1.3552 O.2            1 S1                 0.0000
     14 ****         2.0228  -0.2854   1.4466 N.am           1 S1                 0.0000
     15 ****         1.5399   0.9211   0.7524 C.3            1 S1                 0.0000
     16 ****         2.0846  -0.1300   2.9159 C.3            1 S1                 0.0000
     17 ****         1.3400  -1.2689   3.6414 C.3            1 S1                 0.0000
     18 ****         3.4869   0.0609   3.4787 C.3            1 S1                 0.0000
     19 ****         3.7087   0.8016   4.7760 C.3            1 S1                 0.0000
     20 ****         4.1557   1.4144   3.4676 C.3            1 S1                 0.0000
     21 ****         0.6442  -1.6625  -0.8798 C.2            1 S1                 0.0000
     22 ****        -0.2293  -1.6630  -0.0071 O.2            1 S1                 0.0000
     23 ****        -3.6015   1.6507  -1.0385 C.3            1 S1                 0.0000
     24 ****        -4.0146   1.3023   0.3710 C.3            1 S1                 0.0000
     25 ****        -4.6580   2.4726  -0.3403 C.3            1 S1                 0.0000
     26 ****        -4.8238   2.3185  -3.4438 H              1 S1                 0.0000
     27 ****        -4.3607   0.8853  -4.3504 H              1 S1                 0.0000
     28 ****        -3.1284   2.0148  -3.7916 H              1 S1                 0.0000
     29 ****        -4.9473   0.3338  -2.0032 H              1 S1                 0.0000
     30 ****        -3.5391  -1.3212  -2.2651 H              1 S1                 0.0000
     31 ****        -1.6471  -2.5078  -2.0115 H              1 S1                 0.0000
     32 ****        -1.1874  -2.1763  -3.6507 H              1 S1                 0.0000
     33 ****         0.9102  -1.9630  -4.2224 H              1 S1                 0.0000
     34 ****         3.3393  -1.8992  -3.7406 H              1 S1                 0.0000
     35 ****         4.0765  -1.6079  -1.3411 H              1 S1                 0.0000
     36 ****         1.9201   1.0119  -0.2657 H              1 S1                 0.0000
     37 ****         1.8567   1.8292   1.2662 H              1 S1                 0.0000
     38 ****         0.4503   0.9261   0.7128 H              1 S1                 0.0000
     39 ****         1.5249   0.7698   3.1775 H              1 S1                 0.0000
     40 ****         1.2394  -1.0490   4.7046 H              1 S1                 0.0000
     41 ****         1.8589  -2.2237   3.5592 H              1 S1                 0.0000
     42 ****         0.3346  -1.3989   3.2390 H              1 S1                 0.0000
     43 ****         4.1459  -0.7904   3.3229 H              1 S1                 0.0000
     44 ****         2.8416   1.2407   5.2656 H              1 S1                 0.0000
     45 ****         4.4795   0.4228   5.4441 H              1 S1                 0.0000
     46 ****         5.2237   1.4430   3.2620 H              1 S1                 0.0000
     47 ****         3.5854   2.2610   3.0906 H              1 S1                 0.0000
     48 ****        -2.6325   2.1362  -1.1380 H              1 S1                 0.0000
     49 ****        -4.6181   0.4083   0.5160 H              1 S1                 0.0000
     50 ****        -3.3072   1.5219   1.1681 H              1 S1                 0.0000
     51 ****        -4.3813   3.4733  -0.0145 H              1 S1                 0.0000
     52 ****        -5.6897   2.3562  -0.6668 H              1 S1                 0.0000
     53 ****        -1.5430   1.4998  -2.6830 LP             1 S1                 0.0000
     54 ****        -0.1112   0.5434  -2.8707 LP             1 S1                 0.0000
     55 ****         3.5615  -3.0063   0.8510 LP             1 S1                 0.0000
     56 ****         3.4898  -2.0780   2.3115 LP             1 S1                 0.0000
     57 ****        -1.1925  -1.7426  -0.2638 LP             1 S1                 0.0000
     58 ****         0.0265  -1.5838   0.9564 LP             1 S1                 0.0000
@<TRIPOS>BOND
    1    1    2 1     
    2    1   26 1     
    3    1   27 1     
    4    1   28 1     
    5    2    3 1     
    6    2   23 1     
    7    2   29 1     
    8    3    4 am    
    9    3   30 1     
   10    4    5 2     
   11    4    6 1     
   12    6    7 1     
   13    6   31 1     
   14    6   32 1     
   15    7   21 am    
   16    7    8 1     
   17    8    9 2     
   18    8   33 1     
   19    9   10 1     
   20    9   34 1     
   21   10   11 2     
   22   10   35 1     
   23   11   12 1     
   24   11   21 1     
   25   12   13 2     
   26   12   14 am    
   27   14   15 1     
   28   14   16 1     
   29   15   36 1     
   30   15   37 1     
   31   15   38 1     
   32   16   17 1     
   33   16   18 1     
   34   16   39 1     
   35   17   40 1     
   36   17   41 1     
   37   17   42 1     
   38   18   20 1     
   39   18   19 1     
   40   18   43 1     
   41   19   20 1     
   42   19   44 1     
   43   19   45 1     
   44   20   46 1     
   45   20   47 1     
   46   21   22 2     
   47   23   25 1     
   48   23   24 1     
   49   23   48 1     
   50   24   25 1     
   51   24   49 1     
   52   24   50 1     
   53   25   51 1     
   54   25   52 1     
   55    5   53 1     
   56    5   54 1     
   57   13   55 1     
   58   13   56 1     
   59   22   57 1     
   60   22   58 1     
@<TRIPOS>SUBSTRUCTURE
      1 S1             1
@<TRIPOS>SET
LONE_PAIRS      STATIC     ATOMS    <user>   **** ""
6 53 54 55 56 57 58
DONOR_HYDROGENS      STATIC     ATOMS    <user>   **** ""
1 30
ATOM$BLUE        STATIC     ATOMS    COLORGROUP SYSTEM
6 53 54 55 56 57 58
ATOM$RED        STATIC     ATOMS    COLORGROUP SYSTEM
1 30
