AV-unprocessed.smi:2489|AV-procd|sdf|9800|dock5
  -GOLD-   2272013433D 1   1.00000     0.00000
 Structure written by MMmdl.
 33 34  0  0  0  0  0  0  0  0  1 V2000
  151.6490  145.3505  160.0886 C   0  0  0  0  0  0  0  0  0  0  0  0
  150.9447  144.1226  159.9689 O   0  0  0  0  0  0  0  0  0  0  0  0
  151.6715  143.0041  159.6316 C   0  0  0  0  0  0  0  0  0  0  0  0
  152.7806  142.4941  160.4341 C   0  0  0  0  0  0  0  0  0  0  0  0
  153.4207  141.3953  160.0075 C   0  0  0  0  0  0  0  0  0  0  0  0
  153.0643  140.7377  158.8392 N   0  0  0  0  0  0  0  0  0  0  0  0
  152.0075  141.1723  158.0196 C   0  0  0  0  0  0  0  0  0  0  0  0
  151.6248  140.6010  156.9146 N   0  0  0  0  0  0  0  0  0  0  0  0
  152.2446  139.4643  156.4018 C   0  0  0  0  0  0  0  0  0  0  0  0
  153.1747  138.8018  156.8707 O   0  0  0  0  0  0  0  0  0  0  0  0
  151.6322  139.0423  155.0594 C   0  0  1  0  0  0  0  0  0  0  0  0
  150.8560  137.7158  155.1396 C   0  0  0  0  0  0  0  0  0  0  0  0
  149.4098  138.1366  154.9702 C   0  0  0  0  0  0  0  0  0  0  0  0
  149.5444  139.3780  154.0962 C   0  0  1  0  0  0  0  0  0  0  0  0
  148.3260  140.3064  154.1350 C   0  0  0  0  0  0  0  0  0  0  0  0
  150.6829  140.0253  154.6431 O   0  0  0  0  0  0  0  0  0  0  0  0
  151.3178  142.3651  158.4917 C   0  0  0  0  0  0  0  0  0  0  0  0
  150.9475  146.1410  160.3549 H   0  0  0  0  0  0  0  0  0  0  0  0
  152.1209  145.6351  159.1470 H   0  0  0  0  0  0  0  0  0  0  0  0
  152.4044  145.3044  160.8743 H   0  0  0  0  0  0  0  0  0  0  0  0
  153.0988  142.9656  161.3514 H   0  0  0  0  0  0  0  0  0  0  0  0
  154.2490  140.9496  160.5380 H   0  0  0  0  0  0  0  0  0  0  0  0
  152.4157  138.9722  154.3029 H   0  0  0  0  0  0  0  0  0  0  0  0
  151.1556  137.0644  154.3176 H   0  0  0  0  0  0  0  0  0  0  0  0
  151.0119  137.1643  156.0681 H   0  0  0  0  0  0  0  0  0  0  0  0
  148.7891  137.3617  154.5200 H   0  0  0  0  0  0  0  0  0  0  0  0
  148.9838  138.3974  155.9400 H   0  0  0  0  0  0  0  0  0  0  0  0
  149.7668  139.0878  153.0678 H   0  0  0  0  0  0  0  0  0  0  0  0
  147.4397  139.8043  153.7464 H   0  0  0  0  0  0  0  0  0  0  0  0
  148.4971  141.1975  153.5308 H   0  0  0  0  0  0  0  0  0  0  0  0
  148.1086  140.6310  155.1531 H   0  0  0  0  0  0  0  0  0  0  0  0
  150.4915  142.7782  157.9307 H   0  0  0  0  0  0  0  0  0  0  0  0
  153.6049  139.9179  158.6016 H   0  0  0  0  0  0  0  0  0  0  0  0
  1  2  1  0  0  0  0
  1 18  1  0  0  0  0
  1 19  1  0  0  0  0
  1 20  1  0  0  0  0
  2  3  1  0  0  0  0
  3 17  2  0  0  0  0
  3  4  1  0  0  0  0
  4  5  2  0  0  0  0
  4 21  1  0  0  0  0
  5  6  1  0  0  0  0
  5 22  1  0  0  0  0
  6  7  1  0  0  0  0
  6 33  1  0  0  0  0
  7  8  2  0  0  0  0
  7 17  1  0  0  0  0
  8  9  1  0  0  0  0
  9 10  2  0  0  0  0
  9 11  1  0  0  0  0
 11 16  1  0  0  0  0
 11 12  1  0  0  0  0
 11 23  1  0  0  0  0
 12 13  1  0  0  0  0
 12 24  1  0  0  0  0
 12 25  1  0  0  0  0
 13 14  1  0  0  0  0
 13 26  1  0  0  0  0
 13 27  1  0  0  0  0
 14 15  1  0  0  0  0
 14 16  1  0  0  0  0
 14 28  1  0  0  0  0
 15 29  1  0  0  0  0
 15 30  1  0  0  0  0
 15 31  1  0  0  0  0
 17 32  1  0  0  0  0
M  END
> <s_m_source_file>
AV-unprocessed.smi

> <i_m_source_file_index>
2489

> <i_lp_mmshare_version>
43012

> <i_f3d_flags>
0

> <s_epik_input>
W0NIM11PYzFbY0hdW2NIXW5jKFtjSF0xKVtOSF1DKD1PKVtDQEBIXTJbQ0gyXVtDSDJdW0NASF0oTzIpW0NIM10=

> <s_epik_cmdline>
J2VwaWtfcHl0aG9uJywgJy1waCcsICc3LjAnLCAnLXRuJywgJzgnLCAnLW1hJywgJzIwMCcsICctbWV0YWxfYmluZGluZycsICctaW1hZScsICc8aW5maWxlLm1hZT4nLCAnLW9tYWUnLCAnPG91dGZpbGUubWFlPic=

> <r_epik_Ionization_Penalty>
0.410206

> <r_epik_Ionization_Penalty_Charging>
0.410206

> <r_epik_Ionization_Penalty_Neutral>
6.57528e-13

> <r_epik_State_Penalty>
1.30987

> <r_epik_Charging_Adjusted_Penalty>
1.72007

> <i_epik_Tot_Q>
0

> <i_epik_Tot_abs_Q>
0

> <r_epik_Metal_State_Penalty>
1.32171

> <b_epik_Metal_Only>
0

> <s_lp_Force_Field>
OPLS_2005

> <r_lp_Energy>
35.4329

> <b_lp_Chiralities_Consistent>
1

> <s_lp_Variant>
AV-unprocessed.smi:2489-6

> <Gold.Version>
5.8.1

> <Gold.Id.Protein>
6NUR|6NUR_protein|mol2

> <Gold.PLP.Fitness>
40.0592

> <Gold.PLP.PLP>
-34.2694

> <Gold.PLP.part.hbond>
-2.0000

> <Gold.PLP.part.metal>
0.0000

> <Gold.PLP.part.buried>
-3.1993

> <Gold.PLP.part.nonpolar>
-29.6501

> <Gold.PLP.part.repulsive>
0.2752

> <Gold.PLP.ligand.clash>
0.0000

> <Gold.PLP.ligand.torsion>
0.1085

> <Gold.PLP.Chemscore.Hbond>
2.0000

> <Gold.PLP.Chemscore.CHOScore>
0.0000

> <Gold.PLP.Chemscore.Metal>
0.0000

> <Gold.Chemscore.Hbonds>
donor molecule, donor type, donor heavy atom, donor atom, acceptor molecule, acceptor atom, score
      P1  H  7989  7998       L1    16  1.00
      P1  H  7997  8008       L1    10  1.00

> <Gold.PLP.Chemscore.Internal.Correction>
0.0068

> <Gold.Rescore>
     Score         DG    S(hbond)    S(metal)    S(lipo)     H(rot)  DE(clash)    DE(int)     intcor
     14.31     -16.39       1.41        0.00      79.98       1.23       0.25       1.83       ----

> <Gold.Chemscore.Fitness>
14.3097

> <Gold.Chemscore.DG>
-16.3929

> <Gold.Chemscore.ZeroCoef>
-5.4800

> <Gold.Chemscore.Hbond>
1.4056

> <Gold.Chemscore.Metal>
0.0000

> <Gold.Chemscore.Lipo>
79.9818

> <Gold.Chemscore.Internal_Hbond>
0.0000

> <Gold.Chemscore.DEClash>
0.2489

> <Gold.Chemscore.DEInternal>
1.8344

> <Gold.Chemscore.Rot>
1.2264

> <Gold.Chemscore.Internal.Correction>
   9.000000E+99

> <Gold.Chemscore.Hbonds>
donor molecule, donor type, donor heavy atom, donor atom, acceptor molecule, acceptor atom, score
      P1  H  7989  7998       L1    16  0.23
      P1  H  7997  8008       L1    10  0.25

> <Gold.Chemscore.Hbond.Weighted>
-4.6946

> <Gold.Chemscore.Metal.Weighted>
-0.0000

> <Gold.Chemscore.Lipo.Weighted>
-9.3579

> <Gold.Chemscore.Internal_Hbond.Weighted>
0.0000

> <Gold.Chemscore.DEClash.Weighted>
0.2489

> <Gold.Chemscore.DEInternal.Weighted>
1.8344

> <Gold.Chemscore.Rot.Weighted>
3.1396

> <Gold.Chemscore.Internal.Correction.Weighted>
   9.000000E+99

> <Gold.Protein.RotatedTorsions>
[ 6907 6896 6895 6894 ] final  -99.94 input  -60.11 | X-H torsion
[ 7974 7965 7964 7962 ] final  -15.61 input  175.53 | X-H torsion
[ 8008 7997 7996 7995 ] final  -73.86 input   59.86 | X-H torsion
[ 10167 10162 10161 10158 ] final  -58.24 input  -65.29 | X-H torsion
[ 10718 10713 10712 10709 ] final  178.84 input   66.30 | X-H torsion
[ 10763 10752 10751 10750 ] final  162.39 input  -60.55 | X-H torsion
[ 11005 11000 10999 10996 ] final -151.38 input  -57.11 | X-H torsion

> <Gold.Protein.ActiveResidues>
 VAL166  LYS551  ARG553  GLY616  TRP617  ASP618  TYR619  PRO620  LYS621  CYS622 
 ASP623  PHE694  ASN695  SER759  ASP760  ASP761  ALA762  ILE779  LEU786  VAL792 
 PHE793  MET794  SER795  GLU796  ALA797  LYS798  CYS799  TRP800  GLU811  SER814 

> <Gold.Protein.RotatedAtoms>
  150.7097  134.0964  159.3949 H   0  0  0  0  0  0  0  0  0  0  0  0  # atno 6907 bound_to 6896
  151.8950  135.0399  160.0510 H   0  0  0  0  0  0  0  0  0  0  0  0  # atno 6908 bound_to 6896
  152.2461  133.5140  159.5334 H   0  0  0  0  0  0  0  0  0  0  0  0  # atno 6909 bound_to 6896
  146.2024  140.3517  142.8418 H   0  0  0  0  0  0  0  0  0  0  0  0  # atno 7974 bound_to 7965
  154.5282  140.0771  156.8297 H   0  0  0  0  0  0  0  0  0  0  0  0  # atno 8008 bound_to 7997
  155.3430  140.3408  155.4221 H   0  0  0  0  0  0  0  0  0  0  0  0  # atno 8009 bound_to 7997
  156.1754  140.1634  156.8359 H   0  0  0  0  0  0  0  0  0  0  0  0  # atno 8010 bound_to 7997
  140.6209  143.2419  151.5483 H   0  0  0  0  0  0  0  0  0  0  0  0  # atno 10167 bound_to 10162
  156.8845  130.9827  151.3057 H   0  0  0  0  0  0  0  0  0  0  0  0  # atno 10718 bound_to 10713
  154.2776  135.2764  155.2711 H   0  0  0  0  0  0  0  0  0  0  0  0  # atno 10763 bound_to 10752
  154.5246  135.5746  153.6712 H   0  0  0  0  0  0  0  0  0  0  0  0  # atno 10764 bound_to 10752
  152.9934  135.6213  154.2934 H   0  0  0  0  0  0  0  0  0  0  0  0  # atno 10765 bound_to 10752
  140.7302  134.3629  157.5168 H   0  0  0  0  0  0  0  0  0  0  0  0  # atno 11005 bound_to 11000
  144.8715  140.7278  143.6044 LP  0  0  0  0  0  0  0  0  0  0  0  0  # atno 17320 bound_to 7965
  145.3436  139.1725  143.4472 LP  0  0  0  0  0  0  0  0  0  0  0  0  # atno 17321 bound_to 7965
  139.5438  144.2576  152.1402 LP  0  0  0  0  0  0  0  0  0  0  0  0  # atno 17342 bound_to 10162
  140.1796  144.4857  150.6535 LP  0  0  0  0  0  0  0  0  0  0  0  0  # atno 17343 bound_to 10162
  157.6120  130.8590  149.8967 LP  0  0  0  0  0  0  0  0  0  0  0  0  # atno 17370 bound_to 10713
  156.0660  130.3692  150.0878 LP  0  0  0  0  0  0  0  0  0  0  0  0  # atno 17371 bound_to 10713
  139.8828  134.9013  156.2808 LP  0  0  0  0  0  0  0  0  0  0  0  0  # atno 17394 bound_to 11000
  140.9927  133.7199  156.0839 LP  0  0  0  0  0  0  0  0  0  0  0  0  # atno 17395 bound_to 11000

$$$$
