AV-unprocessed.smi:256|AV-procd|sdf|1962|dock1
  -GOLD-   2262021113D 1   1.00000     0.00000
 Structure written by MMmdl.
 61 64  0  0  0  0  0  0  0  0  1 V2000
  154.4703  141.3292  160.8546 C   0  0  0  0  0  0  0  0  0  0  0  0
  152.9899  141.6243  160.5676 C   0  0  0  0  0  0  0  0  0  0  0  0
  152.6433  141.8568  159.0714 C   0  0  1  0  0  0  0  0  0  0  0  0
  152.2641  140.4993  158.4221 C   0  0  0  0  0  0  0  0  0  0  0  0
  151.9461  140.6520  157.0042 N   0  0  0  0  0  0  0  0  0  0  0  0
  151.8447  139.5303  156.2466 C   0  0  0  0  0  0  0  0  0  0  0  0
  151.9362  139.6120  154.8918 N   0  0  0  0  0  0  0  0  0  0  0  0
  151.8429  138.5110  154.1402 C   0  0  0  0  0  0  0  0  0  0  0  0
  151.6560  137.2486  154.5293 N   0  0  0  0  0  0  0  0  0  0  0  0
  151.5545  137.1601  155.8864 C   0  0  0  0  0  0  0  0  0  0  0  0
  151.6383  138.2395  156.8107 C   0  0  0  0  0  0  0  0  0  0  0  0
  151.4785  137.7639  158.1072 N   0  0  0  0  0  0  0  0  0  0  0  0
  151.3157  136.4778  157.9581 C   0  0  0  0  0  0  0  0  0  0  0  0
  151.3396  136.0304  156.6565 N   0  0  0  0  0  0  0  0  0  0  0  0
  151.1745  134.6574  156.2046 C   0  0  0  0  0  0  0  0  0  0  0  0
  149.9941  134.4602  155.2213 C   0  0  0  0  0  0  0  0  0  0  0  0
  150.3070  135.1610  154.0293 O   0  0  0  0  0  0  0  0  0  0  0  0
  149.7544  132.9755  154.8684 C   0  0  0  0  0  0  0  0  0  0  0  0
  148.4622  132.7749  154.0569 C   0  0  0  0  0  0  0  0  0  0  0  0
  147.3538  133.3303  154.7544 O   0  0  0  0  0  0  0  0  0  0  0  0
  147.4685  134.7360  154.9393 C   0  0  0  0  0  0  0  0  0  0  0  0
  148.6984  135.0549  155.8080 C   0  0  0  0  0  0  0  0  0  0  0  0
  150.9099  141.6462  156.7649 C   0  0  0  0  0  0  0  0  0  0  0  0
  151.3212  142.9768  157.4040 C   0  0  0  0  0  0  0  0  0  0  0  0
  151.5783  142.8641  158.8456 N   0  0  0  0  0  0  0  0  0  0  0  0
  151.9015  144.1825  159.4141 C   0  0  0  0  0  0  0  0  0  0  0  0
  150.8699  145.2961  159.1612 C   0  0  0  0  0  0  0  0  0  0  0  0
  150.0082  145.4076  160.2826 O   0  0  0  0  0  0  0  0  0  0  0  0
  149.1652  144.2794  160.4344 C   0  0  0  0  0  0  0  0  0  0  0  0
  154.6579  141.3278  161.9285 H   0  0  0  0  0  0  0  0  0  0  0  0
  155.1177  142.0844  160.4080 H   0  0  0  0  0  0  0  0  0  0  0  0
  154.7735  140.3526  160.4784 H   0  0  0  0  0  0  0  0  0  0  0  0
  152.3754  140.8183  160.9702 H   0  0  0  0  0  0  0  0  0  0  0  0
  152.7529  142.5113  161.1516 H   0  0  0  0  0  0  0  0  0  0  0  0
  153.5519  142.2097  158.5806 H   0  0  0  0  0  0  0  0  0  0  0  0
  153.0939  139.7980  158.5066 H   0  0  0  0  0  0  0  0  0  0  0  0
  151.4107  140.0602  158.9412 H   0  0  0  0  0  0  0  0  0  0  0  0
  151.9297  138.6638  153.0746 H   0  0  0  0  0  0  0  0  0  0  0  0
  151.1632  135.8159  158.7983 H   0  0  0  0  0  0  0  0  0  0  0  0
  152.1076  134.3411  155.7366 H   0  0  0  0  0  0  0  0  0  0  0  0
  151.0469  134.0226  157.0828 H   0  0  0  0  0  0  0  0  0  0  0  0
  150.8356  134.6008  153.4817 H   0  0  0  0  0  0  0  0  0  0  0  0
  150.6002  132.5634  154.3168 H   0  0  0  0  0  0  0  0  0  0  0  0
  149.6778  132.3964  155.7897 H   0  0  0  0  0  0  0  0  0  0  0  0
  148.5458  133.2249  153.0665 H   0  0  0  0  0  0  0  0  0  0  0  0
  148.2820  131.7106  153.9035 H   0  0  0  0  0  0  0  0  0  0  0  0
  147.5274  135.2384  153.9726 H   0  0  0  0  0  0  0  0  0  0  0  0
  146.5641  135.0992  155.4278 H   0  0  0  0  0  0  0  0  0  0  0  0
  148.5313  134.6429  156.8041 H   0  0  0  0  0  0  0  0  0  0  0  0
  148.7963  136.1337  155.9372 H   0  0  0  0  0  0  0  0  0  0  0  0
  150.7359  141.7952  155.6999 H   0  0  0  0  0  0  0  0  0  0  0  0
  149.9698  141.2964  157.1941 H   0  0  0  0  0  0  0  0  0  0  0  0
  152.2050  143.3685  156.8979 H   0  0  0  0  0  0  0  0  0  0  0  0
  150.5153  143.6843  157.2159 H   0  0  0  0  0  0  0  0  0  0  0  0
  151.9745  144.1087  160.4963 H   0  0  0  0  0  0  0  0  0  0  0  0
  152.8812  144.5081  159.0619 H   0  0  0  0  0  0  0  0  0  0  0  0
  151.3925  146.2411  159.0073 H   0  0  0  0  0  0  0  0  0  0  0  0
  150.2980  145.1071  158.2523 H   0  0  0  0  0  0  0  0  0  0  0  0
  148.5206  144.4180  161.3023 H   0  0  0  0  0  0  0  0  0  0  0  0
  149.7485  143.3710  160.5902 H   0  0  0  0  0  0  0  0  0  0  0  0
  148.5280  144.1417  159.5598 H   0  0  0  0  0  0  0  0  0  0  0  0
  1  2  1  0  0  0  0
  1 30  1  0  0  0  0
  1 31  1  0  0  0  0
  1 32  1  0  0  0  0
  2  3  1  0  0  0  0
  2 33  1  0  0  0  0
  2 34  1  0  0  0  0
  3 25  1  0  0  0  0
  3  4  1  0  0  0  0
  3 35  1  0  0  0  0
  4  5  1  0  0  0  0
  4 36  1  0  0  0  0
  4 37  1  0  0  0  0
  5  6  1  0  0  0  0
  5 23  1  0  0  0  0
  6 11  1  0  0  0  0
  6  7  2  0  0  0  0
  7  8  1  0  0  0  0
  8  9  2  0  0  0  0
  8 38  1  0  0  0  0
  9 10  1  0  0  0  0
 10 14  1  0  0  0  0
 10 11  2  0  0  0  0
 11 12  1  0  0  0  0
 12 13  2  0  0  0  0
 13 14  1  0  0  0  0
 13 39  1  0  0  0  0
 14 15  1  0  0  0  0
 15 16  1  0  0  0  0
 15 40  1  0  0  0  0
 15 41  1  0  0  0  0
 16 22  1  0  0  0  0
 16 17  1  0  0  0  0
 16 18  1  0  0  0  0
 17 42  1  0  0  0  0
 18 19  1  0  0  0  0
 18 43  1  0  0  0  0
 18 44  1  0  0  0  0
 19 20  1  0  0  0  0
 19 45  1  0  0  0  0
 19 46  1  0  0  0  0
 20 21  1  0  0  0  0
 21 22  1  0  0  0  0
 21 47  1  0  0  0  0
 21 48  1  0  0  0  0
 22 49  1  0  0  0  0
 22 50  1  0  0  0  0
 23 24  1  0  0  0  0
 23 51  1  0  0  0  0
 23 52  1  0  0  0  0
 24 25  1  0  0  0  0
 24 53  1  0  0  0  0
 24 54  1  0  0  0  0
 25 26  1  0  0  0  0
 26 27  1  0  0  0  0
 26 55  1  0  0  0  0
 26 56  1  0  0  0  0
 27 28  1  0  0  0  0
 27 57  1  0  0  0  0
 27 58  1  0  0  0  0
 28 29  1  0  0  0  0
 29 59  1  0  0  0  0
 29 60  1  0  0  0  0
 29 61  1  0  0  0  0
M  END
> <s_m_source_file>
AV-unprocessed.smi

> <i_m_source_file_index>
256

> <i_lp_mmshare_version>
43012

> <i_f3d_flags>
0

> <s_epik_input>
W0NIM11PW0NIMl1bQ0gyXU4xW0NIMl1bQ0gyXU4oW0NIMl1bQ0BIXTFbQ0gyXVtDSDNdKWMobltjSF1uMiljKGMyMyluW2NIXW4zW0NIMl1DNChbT0hdKVtDSDJdW0NIMl1PW0NIMl1bQ0gyXTQ=

> <s_epik_cmdline>
J2VwaWtfcHl0aG9uJywgJy1waCcsICc3LjAnLCAnLXRuJywgJzgnLCAnLW1hJywgJzIwMCcsICctbWV0YWxfYmluZGluZycsICctaW1hZScsICc8aW5maWxlLm1hZT4nLCAnLW9tYWUnLCAnPG91dGZpbGUubWFlPic=

> <r_lp_tautomer_probability>
1

> <r_epik_Ionization_Penalty>
0.676279

> <r_epik_Ionization_Penalty_Charging>
0

> <r_epik_Ionization_Penalty_Neutral>
0.676279

> <r_epik_State_Penalty>
0.6855

> <r_epik_Charging_Adjusted_Penalty>
0.6855

> <i_epik_Tot_Q>
0

> <i_epik_Tot_abs_Q>
0

> <r_epik_Metal_State_Penalty>
0.678557

> <b_epik_Metal_Only>
0

> <s_lp_Force_Field>
OPLS_2005

> <r_lp_Energy>
58.0034

> <b_lp_Chiralities_Consistent>
1

> <s_lp_Variant>
AV-unprocessed.smi:256-6

> <Gold.Version>
5.8.1

> <Gold.Id.Protein>
6NUR|6NUR_protein|mol2

> <Gold.PLP.Fitness>
47.8420

> <Gold.PLP.PLP>
-43.6182

> <Gold.PLP.part.hbond>
-5.0000

> <Gold.PLP.part.metal>
0.0000

> <Gold.PLP.part.buried>
-1.9450

> <Gold.PLP.part.nonpolar>
-36.5546

> <Gold.PLP.part.repulsive>
0.4887

> <Gold.PLP.ligand.clash>
0.0000

> <Gold.PLP.ligand.torsion>
1.0106

> <Gold.PLP.Chemscore.Hbond>
1.9120

> <Gold.PLP.Chemscore.CHOScore>
0.0000

> <Gold.PLP.Chemscore.Metal>
0.0000

> <Gold.Chemscore.Hbonds>
donor molecule, donor type, donor heavy atom, donor atom, acceptor molecule, acceptor atom, score
      P1  H  7989  7998       L1     7  0.82
      P1  H 10752 10765       L1     9  0.89

> <Gold.PLP.Chemscore.Internal.Correction>
0.5089

> <Gold.Rescore>
     Score         DG    S(hbond)    S(metal)    S(lipo)     H(rot)  DE(clash)    DE(int)     intcor
      8.83     -13.72       0.76        0.00     111.56       2.87       2.50       2.39       ----

> <Gold.Chemscore.Fitness>
8.8297

> <Gold.Chemscore.DG>
-13.7185

> <Gold.Chemscore.ZeroCoef>
-5.4800

> <Gold.Chemscore.Hbond>
0.7584

> <Gold.Chemscore.Metal>
0.0000

> <Gold.Chemscore.Lipo>
111.5606

> <Gold.Chemscore.Internal_Hbond>
0.0000

> <Gold.Chemscore.DEClash>
2.5012

> <Gold.Chemscore.DEInternal>
2.3876

> <Gold.Chemscore.Rot>
2.8700

> <Gold.Chemscore.Internal.Correction>
   9.000000E+99

> <Gold.Chemscore.Hbonds>
donor molecule, donor type, donor heavy atom, donor atom, acceptor molecule, acceptor atom, score
      P1  H  7989  7998       L1     7  0.13
      P1  H 10752 10765       L1     9  0.21

> <Gold.Chemscore.Hbond.Weighted>
-2.5331

> <Gold.Chemscore.Metal.Weighted>
-0.0000

> <Gold.Chemscore.Lipo.Weighted>
-13.0526

> <Gold.Chemscore.Internal_Hbond.Weighted>
0.0000

> <Gold.Chemscore.DEClash.Weighted>
2.5012

> <Gold.Chemscore.DEInternal.Weighted>
2.3876

> <Gold.Chemscore.Rot.Weighted>
7.3472

> <Gold.Chemscore.Internal.Correction.Weighted>
   9.000000E+99

> <Gold.Protein.RotatedTorsions>
[ 6907 6896 6895 6894 ] final   87.74 input  -60.11 | X-H torsion
[ 7974 7965 7964 7962 ] final  -41.00 input  175.53 | X-H torsion
[ 8008 7997 7996 7995 ] final -164.07 input   59.86 | X-H torsion
[ 10167 10162 10161 10158 ] final  170.42 input  -65.29 | X-H torsion
[ 10718 10713 10712 10709 ] final  -63.93 input   66.30 | X-H torsion
[ 10763 10752 10751 10750 ] final  153.86 input  -60.55 | X-H torsion
[ 11005 11000 10999 10996 ] final   14.88 input  -57.11 | X-H torsion

> <Gold.Protein.ActiveResidues>
 VAL166  LYS551  ARG553  GLY616  TRP617  ASP618  TYR619  PRO620  LYS621  CYS622 
 ASP623  PHE694  ASN695  SER759  ASP760  ASP761  ALA762  ILE779  LEU786  VAL792 
 PHE793  MET794  SER795  GLU796  ALA797  LYS798  CYS799  TRP800  GLU811  SER814 

> <Gold.Protein.RotatedAtoms>
  152.5415  134.2229  159.8794 H   0  0  0  0  0  0  0  0  0  0  0  0  # atno 6907 bound_to 6896
  151.2205  133.4498  159.2608 H   0  0  0  0  0  0  0  0  0  0  0  0  # atno 6908 bound_to 6896
  151.0810  134.9871  159.8411 H   0  0  0  0  0  0  0  0  0  0  0  0  # atno 6909 bound_to 6896
  146.0252  140.6801  142.9159 H   0  0  0  0  0  0  0  0  0  0  0  0  # atno 7974 bound_to 7965
  155.8303  140.0933  157.1796 H   0  0  0  0  0  0  0  0  0  0  0  0  # atno 8008 bound_to 7997
  154.3980  140.1420  156.3667 H   0  0  0  0  0  0  0  0  0  0  0  0  # atno 8009 bound_to 7997
  155.8172  140.3447  155.5495 H   0  0  0  0  0  0  0  0  0  0  0  0  # atno 8010 bound_to 7997
  139.5018  144.3599  151.9836 H   0  0  0  0  0  0  0  0  0  0  0  0  # atno 10167 bound_to 10162
  156.0760  130.4227  150.1347 H   0  0  0  0  0  0  0  0  0  0  0  0  # atno 10718 bound_to 10713
  154.1431  135.2819  155.3155 H   0  0  0  0  0  0  0  0  0  0  0  0  # atno 10763 bound_to 10752
  154.6272  135.5447  153.7644 H   0  0  0  0  0  0  0  0  0  0  0  0  # atno 10764 bound_to 10752
  153.0244  135.6454  154.1577 H   0  0  0  0  0  0  0  0  0  0  0  0  # atno 10765 bound_to 10752
  140.4645  134.1093  155.7722 H   0  0  0  0  0  0  0  0  0  0  0  0  # atno 11005 bound_to 11000
  144.7006  140.3636  143.7159 LP  0  0  0  0  0  0  0  0  0  0  0  0  # atno 17320 bound_to 7965
  145.7130  139.1689  143.2528 LP  0  0  0  0  0  0  0  0  0  0  0  0  # atno 17321 bound_to 7965
  140.3035  144.3620  150.6053 LP  0  0  0  0  0  0  0  0  0  0  0  0  # atno 17342 bound_to 10162
  140.5855  143.2170  151.7350 LP  0  0  0  0  0  0  0  0  0  0  0  0  # atno 17343 bound_to 10162
  156.9388  130.9737  151.3520 LP  0  0  0  0  0  0  0  0  0  0  0  0  # atno 17370 bound_to 10713
  157.5856  130.8407  149.8585 LP  0  0  0  0  0  0  0  0  0  0  0  0  # atno 17371 bound_to 10713
  141.1606  133.8801  157.1859 LP  0  0  0  0  0  0  0  0  0  0  0  0  # atno 17394 bound_to 11000
  139.9924  135.0059  157.0005 LP  0  0  0  0  0  0  0  0  0  0  0  0  # atno 17395 bound_to 11000

$$$$
