AV-unprocessed.smi:3303|AV-procd|sdf|12662|dock4
  -GOLD-   2272018593D 1   1.00000     0.00000
 Structure written by MMmdl.
 45 46  0  0  0  0  0  0  0  0  3 V2000
  145.5560  136.0974  150.7855 C   0  0  0  0  0  0  0  0  0  0  0  0
  145.0082  134.8801  151.5602 C   0  0  1  0  0  0  0  0  0  0  0  0
  144.0281  134.0658  150.6895 C   0  0  0  0  0  0  0  0  0  0  0  0
  144.7398  133.3334  149.6097 N   0  3  2  0  0  0  0  0  0  0  0  0
  143.8181  132.7244  148.6237 C   0  0  0  0  0  0  0  0  0  0  0  0
  145.7977  132.4092  150.1125 C   0  0  2  0  0  0  0  0  0  0  0  0
  145.2375  131.1522  150.8135 C   0  0  0  0  0  0  0  0  0  0  0  0
  146.8032  133.1743  151.0009 C   0  0  0  0  0  0  0  0  0  0  0  0
  146.1022  133.9506  152.1377 C   0  0  1  0  0  0  0  0  0  0  0  0
  147.0550  134.7077  152.9844 N   0  3  0  0  0  0  0  0  0  0  0  0
  147.8400  133.8980  153.9401 C   0  0  0  0  0  0  0  0  0  0  0  0
  148.8313  132.9866  153.2037 C   0  0  0  0  0  0  0  0  0  0  0  0
  149.6572  132.1494  154.1617 C   0  0  0  0  0  0  0  0  0  0  0  0
  149.6279  130.7398  154.0993 C   0  0  0  0  0  0  0  0  0  0  0  0
  150.4116  130.0120  155.0161 C   0  0  0  0  0  0  0  0  0  0  0  0
  151.1876  130.7180  155.9553 C   0  0  0  0  0  0  0  0  0  0  0  0
  151.1461  132.1264  155.9365 C   0  0  0  0  0  0  0  0  0  0  0  0
  150.3985  132.8338  155.0616 N   0  0  0  0  0  0  0  0  0  0  0  0
  146.1391  135.8012  149.9136 H   0  0  0  0  0  0  0  0  0  0  0  0
  146.1908  136.7232  151.4127 H   0  0  0  0  0  0  0  0  0  0  0  0
  144.7409  136.7287  150.4302 H   0  0  0  0  0  0  0  0  0  0  0  0
  144.4376  135.2792  152.4002 H   0  0  0  0  0  0  0  0  0  0  0  0
  143.4690  133.3619  151.3069 H   0  0  0  0  0  0  0  0  0  0  0  0
  143.2876  134.7348  150.2487 H   0  0  0  0  0  0  0  0  0  0  0  0
  143.1454  132.0060  149.0930 H   0  0  0  0  0  0  0  0  0  0  0  0
  144.3740  132.2154  147.8356 H   0  0  0  0  0  0  0  0  0  0  0  0
  143.2071  133.4945  148.1515 H   0  0  0  0  0  0  0  0  0  0  0  0
  146.3511  132.0601  149.2393 H   0  0  0  0  0  0  0  0  0  0  0  0
  146.0490  130.5142  151.1643 H   0  0  0  0  0  0  0  0  0  0  0  0
  144.6346  130.5468  150.1367 H   0  0  0  0  0  0  0  0  0  0  0  0
  144.6213  131.3950  151.6784 H   0  0  0  0  0  0  0  0  0  0  0  0
  147.5282  132.4677  151.4050 H   0  0  0  0  0  0  0  0  0  0  0  0
  147.3777  133.8655  150.3835 H   0  0  0  0  0  0  0  0  0  0  0  0
  145.6048  133.2334  152.7921 H   0  0  0  0  0  0  0  0  0  0  0  0
  147.6884  135.2230  152.3897 H   0  0  0  0  0  0  0  0  0  0  0  0
  148.3800  134.5623  154.6163 H   0  0  0  0  0  0  0  0  0  0  0  0
  147.1707  133.2899  154.5485 H   0  0  0  0  0  0  0  0  0  0  0  0
  148.2954  132.3265  152.5200 H   0  0  0  0  0  0  0  0  0  0  0  0
  149.5050  133.5844  152.5881 H   0  0  0  0  0  0  0  0  0  0  0  0
  149.0223  130.2250  153.3678 H   0  0  0  0  0  0  0  0  0  0  0  0
  150.4170  128.9322  154.9996 H   0  0  0  0  0  0  0  0  0  0  0  0
  151.7999  130.1929  156.6734 H   0  0  0  0  0  0  0  0  0  0  0  0
  151.7282  132.6996  156.6428 H   0  0  0  0  0  0  0  0  0  0  0  0
  146.5189  135.3701  153.5270 H   0  0  0  0  0  0  0  0  0  0  0  0
  145.2379  134.0439  149.0924 H   0  0  0  0  0  0  0  0  0  0  0  0
  1  2  1  0  0  0  0
  1 19  1  0  0  0  0
  1 20  1  0  0  0  0
  1 21  1  0  0  0  0
  2  9  1  0  0  0  0
  2  3  1  0  0  0  0
  2 22  1  0  0  0  0
  3  4  1  0  0  0  0
  3 23  1  0  0  0  0
  3 24  1  0  0  0  0
  4  5  1  0  0  0  0
  4  6  1  0  0  0  0
  4 45  1  0  0  0  0
  5 25  1  0  0  0  0
  5 26  1  0  0  0  0
  5 27  1  0  0  0  0
  6  7  1  0  0  0  0
  6  8  1  0  0  0  0
  6 28  1  0  0  0  0
  7 29  1  0  0  0  0
  7 30  1  0  0  0  0
  7 31  1  0  0  0  0
  8  9  1  0  0  0  0
  8 32  1  0  0  0  0
  8 33  1  0  0  0  0
  9 10  1  0  0  0  0
  9 34  1  0  0  0  0
 10 11  1  0  0  0  0
 10 35  1  0  0  0  0
 10 44  1  0  0  0  0
 11 12  1  0  0  0  0
 11 36  1  0  0  0  0
 11 37  1  0  0  0  0
 12 13  1  0  0  0  0
 12 38  1  0  0  0  0
 12 39  1  0  0  0  0
 13 18  1  0  0  0  0
 13 14  2  0  0  0  0
 14 15  1  0  0  0  0
 14 40  1  0  0  0  0
 15 16  2  0  0  0  0
 15 41  1  0  0  0  0
 16 17  1  0  0  0  0
 16 42  1  0  0  0  0
 17 18  2  0  0  0  0
 17 43  1  0  0  0  0
M  CHG  1   4   1
M  CHG  1  10   1
M  END
> <s_m_source_file>
AV-unprocessed.smi

> <i_m_source_file_index>
3303

> <i_lp_mmshare_version>
43012

> <i_f3d_flags>
0

> <s_epik_input>
W0NIM11bQ0BASF0xW0NIMl1OKFtDSDNdKVtDQEBIXShbQ0gzXSlbQ0gyXVtDQEhdMVtOSF1bQ0gyXVtDSDJdYzJbY0hdW2NIXVtjSF1bY0hdbjI=

> <s_epik_cmdline>
J2VwaWtfcHl0aG9uJywgJy1waCcsICc3LjAnLCAnLXRuJywgJzgnLCAnLW1hJywgJzIwMCcsICctbWV0YWxfYmluZGluZycsICctaW1hZScsICc8aW5maWxlLm1hZT4nLCAnLW9tYWUnLCAnPG91dGZpbGUubWFlPic=

> <r_epik_Ionization_Penalty>
0.0769462

> <r_epik_Ionization_Penalty_Charging>
0.0759813

> <r_epik_Ionization_Penalty_Neutral>
0.000964829

> <r_epik_State_Penalty>
0.0654373

> <r_epik_Charging_Adjusted_Penalty>
0.141419

> <i_epik_Tot_Q>
2

> <i_epik_Tot_abs_Q>
2

> <r_epik_Metal_State_Penalty>
0.0656439

> <b_epik_Metal_Only>
0

> <s_lp_Force_Field>
OPLS_2005

> <r_lp_Energy>
31.8094

> <b_lp_Chiralities_Consistent>
1

> <s_lp_Variant>
AV-unprocessed.smi:3303-6

> <Gold.Version>
5.8.1

> <Gold.Id.Protein>
6NUR|6NUR_protein|mol2

> <Gold.PLP.Fitness>
47.4286

> <Gold.PLP.PLP>
-38.7568

> <Gold.PLP.part.hbond>
-2.0000

> <Gold.PLP.part.metal>
0.0000

> <Gold.PLP.part.buried>
-3.1216

> <Gold.PLP.part.nonpolar>
-32.9892

> <Gold.PLP.part.repulsive>
0.1381

> <Gold.PLP.ligand.clash>
0.0000

> <Gold.PLP.ligand.torsion>
0.1719

> <Gold.PLP.Chemscore.Hbond>
3.0000

> <Gold.PLP.Chemscore.CHOScore>
0.0000

> <Gold.PLP.Chemscore.Metal>
0.0000

> <Gold.Chemscore.Hbonds>
donor molecule, donor type, donor heavy atom, donor atom, acceptor molecule, acceptor atom, score
      L1  H     4    45       P1  7921  1.00
      L1  H    10    35       P1  7948  2.00

> <Gold.PLP.Chemscore.Internal.Correction>
0.0156

> <Gold.Rescore>
     Score         DG    S(hbond)    S(metal)    S(lipo)     H(rot)  DE(clash)    DE(int)     intcor
     20.33     -20.61       1.94        0.00     103.84       1.37       0.06       0.22       ----

> <Gold.Chemscore.Fitness>
20.3258

> <Gold.Chemscore.DG>
-20.6056

> <Gold.Chemscore.ZeroCoef>
-5.4800

> <Gold.Chemscore.Hbond>
1.9445

> <Gold.Chemscore.Metal>
0.0000

> <Gold.Chemscore.Lipo>
103.8421

> <Gold.Chemscore.Internal_Hbond>
0.0000

> <Gold.Chemscore.DEClash>
0.0576

> <Gold.Chemscore.DEInternal>
0.2223

> <Gold.Chemscore.Rot>
1.3744

> <Gold.Chemscore.Internal.Correction>
   9.000000E+99

> <Gold.Chemscore.Hbonds>
donor molecule, donor type, donor heavy atom, donor atom, acceptor molecule, acceptor atom, score
      L1  H     4    45       P1  7921  0.93
      L1  H    10    35       P1  7948  0.99

> <Gold.Chemscore.Hbond.Weighted>
-6.4946

> <Gold.Chemscore.Metal.Weighted>
-0.0000

> <Gold.Chemscore.Lipo.Weighted>
-12.1495

> <Gold.Chemscore.Internal_Hbond.Weighted>
0.0000

> <Gold.Chemscore.DEClash.Weighted>
0.0576

> <Gold.Chemscore.DEInternal.Weighted>
0.2223

> <Gold.Chemscore.Rot.Weighted>
3.5185

> <Gold.Chemscore.Internal.Correction.Weighted>
   9.000000E+99

> <Gold.Protein.RotatedTorsions>
[ 6907 6896 6895 6894 ] final   29.55 input  -60.11 | X-H torsion
[ 7974 7965 7964 7962 ] final -133.62 input  175.53 | X-H torsion
[ 8008 7997 7996 7995 ] final    1.61 input   59.86 | X-H torsion
[ 10167 10162 10161 10158 ] final  -37.44 input  -65.29 | X-H torsion
[ 10718 10713 10712 10709 ] final  -52.46 input   66.30 | X-H torsion
[ 10763 10752 10751 10750 ] final -169.44 input  -60.55 | X-H torsion
[ 11005 11000 10999 10996 ] final   26.33 input  -57.11 | X-H torsion

> <Gold.Protein.ActiveResidues>
 VAL166  LYS551  ARG553  GLY616  TRP617  ASP618  TYR619  PRO620  LYS621  CYS622 
 ASP623  PHE694  ASN695  SER759  ASP760  ASP761  ALA762  ILE779  LEU786  VAL792 
 PHE793  MET794  SER795  GLU796  ALA797  LYS798  CYS799  TRP800  GLU811  SER814 

> <Gold.Protein.RotatedAtoms>
  152.0332  134.9755  160.0572 H   0  0  0  0  0  0  0  0  0  0  0  0  # atno 6907 bound_to 6896
  152.1223  133.4356  159.4690 H   0  0  0  0  0  0  0  0  0  0  0  0  # atno 6908 bound_to 6896
  150.6850  134.2438  159.4526 H   0  0  0  0  0  0  0  0  0  0  0  0  # atno 6909 bound_to 6896
  144.9177  140.6975  143.4985 H   0  0  0  0  0  0  0  0  0  0  0  0  # atno 7974 bound_to 7965
  154.6818  140.2634  155.6901 H   0  0  0  0  0  0  0  0  0  0  0  0  # atno 8008 bound_to 7997
  156.2699  140.2809  156.1287 H   0  0  0  0  0  0  0  0  0  0  0  0  # atno 8009 bound_to 7997
  155.1021  140.0374  157.2690 H   0  0  0  0  0  0  0  0  0  0  0  0  # atno 8010 bound_to 7997
  140.7118  143.3342  151.2500 H   0  0  0  0  0  0  0  0  0  0  0  0  # atno 10167 bound_to 10162
  156.1619  130.4149  149.9779 H   0  0  0  0  0  0  0  0  0  0  0  0  # atno 10718 bound_to 10713
  154.6522  135.2913  154.9972 H   0  0  0  0  0  0  0  0  0  0  0  0  # atno 10763 bound_to 10752
  154.1061  135.6569  153.4880 H   0  0  0  0  0  0  0  0  0  0  0  0  # atno 10764 bound_to 10752
  153.0383  135.5254  154.7435 H   0  0  0  0  0  0  0  0  0  0  0  0  # atno 10765 bound_to 10752
  140.3382  134.2362  155.7693 H   0  0  0  0  0  0  0  0  0  0  0  0  # atno 11005 bound_to 11000
  145.3348  139.1749  143.4517 LP  0  0  0  0  0  0  0  0  0  0  0  0  # atno 17320 bound_to 7965
  146.3190  140.3382  142.8646 LP  0  0  0  0  0  0  0  0  0  0  0  0  # atno 17321 bound_to 7965
  139.6832  143.9818  152.2820 LP  0  0  0  0  0  0  0  0  0  0  0  0  # atno 17342 bound_to 10162
  139.9455  144.6654  150.8224 LP  0  0  0  0  0  0  0  0  0  0  0  0  # atno 17343 bound_to 10162
  156.7606  130.9149  151.3641 LP  0  0  0  0  0  0  0  0  0  0  0  0  # atno 17370 bound_to 10713
  157.6739  130.9076  150.0104 LP  0  0  0  0  0  0  0  0  0  0  0  0  # atno 17371 bound_to 10713
  141.2045  133.7883  157.0281 LP  0  0  0  0  0  0  0  0  0  0  0  0  # atno 17394 bound_to 11000
  140.0803  134.9652  157.1613 LP  0  0  0  0  0  0  0  0  0  0  0  0  # atno 17395 bound_to 11000

$$$$
