AV-unprocessed.smi:2815|AV-procd|sdf|10841|dock1
  -GOLD-   2272015283D 1   1.00000     0.00000
 Structure written by MMmdl.
 47 48  0  0  0  0  0  0  0  0  1 V2000
  149.3050  130.9345  159.3443 C   0  0  0  0  0  0  0  0  0  0  0  0
  150.2232  131.7904  158.6871 O   0  0  0  0  0  0  0  0  0  0  0  0
  151.0360  131.0986  157.7541 C   0  0  0  0  0  0  0  0  0  0  0  0
  151.9259  132.1103  157.0216 C   0  0  0  0  0  0  0  0  0  0  0  0
  151.1383  133.0441  156.2334 N   0  0  0  0  0  0  0  0  0  0  0  0
  151.3121  134.3722  156.4402 N   0  0  0  0  0  0  0  0  0  0  0  0
  150.4820  134.9703  155.6024 C   0  0  0  0  0  0  0  0  0  0  0  0
  150.4026  136.4696  155.5748 C   0  0  0  0  0  0  0  0  0  0  0  0
  149.7868  134.0156  154.8138 C   0  0  0  0  0  0  0  0  0  0  0  0
  148.8200  134.3418  153.8298 N   0  0  0  0  0  0  0  0  0  0  0  0
  147.7469  133.6121  153.4875 C   0  0  0  0  0  0  0  0  0  0  0  0
  147.4246  132.5456  154.0113 O   0  0  0  0  0  0  0  0  0  0  0  0
  147.0706  134.1804  152.4790 N   0  0  0  0  0  0  0  0  0  0  0  0
  145.8630  133.6380  151.8632 C   0  0  0  0  0  0  0  0  0  0  0  0
  146.1373  132.2462  151.2561 C   0  0  0  0  0  0  0  0  0  0  0  0
  144.8978  131.6929  150.5342 C   0  0  0  0  0  0  0  0  0  0  0  0
  144.3904  132.6714  149.4639 C   0  0  0  0  0  0  0  0  0  0  0  0
  144.1105  134.0562  150.0678 C   0  0  0  0  0  0  0  0  0  0  0  0
  145.3512  134.6122  150.7851 C   0  0  0  0  0  0  0  0  0  0  0  0
  150.1887  132.7822  155.2560 C   0  0  0  0  0  0  0  0  0  0  0  0
  149.7790  131.3916  154.8788 C   0  0  0  0  0  0  0  0  0  0  0  0
  148.7067  131.5114  160.0495 H   0  0  0  0  0  0  0  0  0  0  0  0
  149.8229  130.1535  159.9024 H   0  0  0  0  0  0  0  0  0  0  0  0
  148.6254  130.4644  158.6324 H   0  0  0  0  0  0  0  0  0  0  0  0
  151.6533  130.3619  158.2708 H   0  0  0  0  0  0  0  0  0  0  0  0
  150.4086  130.5616  157.0412 H   0  0  0  0  0  0  0  0  0  0  0  0
  152.5374  132.6693  157.7297 H   0  0  0  0  0  0  0  0  0  0  0  0
  152.6212  131.5856  156.3641 H   0  0  0  0  0  0  0  0  0  0  0  0
  149.4911  136.8105  155.0836 H   0  0  0  0  0  0  0  0  0  0  0  0
  151.2490  136.8946  155.0354 H   0  0  0  0  0  0  0  0  0  0  0  0
  150.4071  136.8847  156.5829 H   0  0  0  0  0  0  0  0  0  0  0  0
  149.0351  135.1344  153.2429 H   0  0  0  0  0  0  0  0  0  0  0  0
  147.4145  135.0543  152.1091 H   0  0  0  0  0  0  0  0  0  0  0  0
  145.0890  133.5433  152.6273 H   0  0  0  0  0  0  0  0  0  0  0  0
  146.9680  132.3079  150.5515 H   0  0  0  0  0  0  0  0  0  0  0  0
  146.4452  131.5480  152.0350 H   0  0  0  0  0  0  0  0  0  0  0  0
  145.1328  130.7315  150.0770 H   0  0  0  0  0  0  0  0  0  0  0  0
  144.1068  131.5045  151.2608 H   0  0  0  0  0  0  0  0  0  0  0  0
  145.1325  132.7617  148.6697 H   0  0  0  0  0  0  0  0  0  0  0  0
  143.4860  132.2778  148.9994 H   0  0  0  0  0  0  0  0  0  0  0  0
  143.7933  134.7457  149.2850 H   0  0  0  0  0  0  0  0  0  0  0  0
  143.2814  133.9867  150.7732 H   0  0  0  0  0  0  0  0  0  0  0  0
  145.1121  135.5764  151.2352 H   0  0  0  0  0  0  0  0  0  0  0  0
  146.1372  134.7996  150.0522 H   0  0  0  0  0  0  0  0  0  0  0  0
  148.7670  131.3778  154.4753 H   0  0  0  0  0  0  0  0  0  0  0  0
  149.7874  130.7221  155.7376 H   0  0  0  0  0  0  0  0  0  0  0  0
  150.4505  130.9823  154.1240 H   0  0  0  0  0  0  0  0  0  0  0  0
  1  2  1  0  0  0  0
  1 22  1  0  0  0  0
  1 23  1  0  0  0  0
  1 24  1  0  0  0  0
  2  3  1  0  0  0  0
  3  4  1  0  0  0  0
  3 25  1  0  0  0  0
  3 26  1  0  0  0  0
  4  5  1  0  0  0  0
  4 27  1  0  0  0  0
  4 28  1  0  0  0  0
  5 20  1  0  0  0  0
  5  6  1  0  0  0  0
  6  7  2  0  0  0  0
  7  8  1  0  0  0  0
  7  9  1  0  0  0  0
  8 29  1  0  0  0  0
  8 30  1  0  0  0  0
  8 31  1  0  0  0  0
  9 10  1  0  0  0  0
  9 20  2  0  0  0  0
 10 11  1  0  0  0  0
 10 32  1  0  0  0  0
 11 12  2  0  0  0  0
 11 13  1  0  0  0  0
 13 14  1  0  0  0  0
 13 33  1  0  0  0  0
 14 19  1  0  0  0  0
 14 15  1  0  0  0  0
 14 34  1  0  0  0  0
 15 16  1  0  0  0  0
 15 35  1  0  0  0  0
 15 36  1  0  0  0  0
 16 17  1  0  0  0  0
 16 37  1  0  0  0  0
 16 38  1  0  0  0  0
 17 18  1  0  0  0  0
 17 39  1  0  0  0  0
 17 40  1  0  0  0  0
 18 19  1  0  0  0  0
 18 41  1  0  0  0  0
 18 42  1  0  0  0  0
 19 43  1  0  0  0  0
 19 44  1  0  0  0  0
 20 21  1  0  0  0  0
 21 45  1  0  0  0  0
 21 46  1  0  0  0  0
 21 47  1  0  0  0  0
M  END
> <s_m_source_file>
AV-unprocessed.smi

> <i_m_source_file_index>
2815

> <i_lp_mmshare_version>
43012

> <i_f3d_flags>
0

> <s_epik_input>
W0NIM11PW0NIMl1bQ0gyXW4xbmMoW0NIM10pYyhjMVtDSDNdKVtOSF1DKD1PKVtOSF1bQ0hdMltDSDJdW0NIMl1bQ0gyXVtDSDJdW0NIMl0y

> <s_epik_cmdline>
J2VwaWtfcHl0aG9uJywgJy1waCcsICc3LjAnLCAnLXRuJywgJzgnLCAnLW1hJywgJzIwMCcsICctbWV0YWxfYmluZGluZycsICctaW1hZScsICc8aW5maWxlLm1hZT4nLCAnLW9tYWUnLCAnPG91dGZpbGUubWFlPic=

> <r_lp_tautomer_probability>
1

> <r_epik_Ionization_Penalty>
0.00692603

> <r_epik_Ionization_Penalty_Charging>
0

> <r_epik_Ionization_Penalty_Neutral>
0.00692603

> <r_epik_State_Penalty>
0.00511675

> <r_epik_Charging_Adjusted_Penalty>
0.00511675

> <i_epik_Tot_Q>
0

> <i_epik_Tot_abs_Q>
0

> <r_epik_Metal_State_Penalty>
-0

> <b_epik_Metal_Only>
0

> <s_lp_Force_Field>
OPLS_2005

> <r_lp_Energy>
15.031

> <b_lp_Chiralities_Consistent>
1

> <s_lp_Variant>
AV-unprocessed.smi:2815-1

> <Gold.Version>
5.8.1

> <Gold.Id.Protein>
6NUR|6NUR_protein|mol2

> <Gold.PLP.Fitness>
43.2823

> <Gold.PLP.PLP>
-34.5659

> <Gold.PLP.part.hbond>
-3.1371

> <Gold.PLP.part.metal>
0.0000

> <Gold.PLP.part.buried>
-2.6815

> <Gold.PLP.part.nonpolar>
-28.2584

> <Gold.PLP.part.repulsive>
0.0729

> <Gold.PLP.ligand.clash>
0.0000

> <Gold.PLP.ligand.torsion>
0.2279

> <Gold.PLP.Chemscore.Hbond>
2.9280

> <Gold.PLP.Chemscore.CHOScore>
0.0000

> <Gold.PLP.Chemscore.Metal>
0.0000

> <Gold.Chemscore.Hbonds>
donor molecule, donor type, donor heavy atom, donor atom, acceptor molecule, acceptor atom, score
      L1  H    10    32       P1  7948  1.00
      L1  H    13    33       P1  7948  0.93
      P1  H  6896  6908       L1     2  0.98

> <Gold.PLP.Chemscore.Internal.Correction>
0.3881

> <Gold.Rescore>
     Score         DG    S(hbond)    S(metal)    S(lipo)     H(rot)  DE(clash)    DE(int)     intcor
     16.09     -18.82       2.27        0.00      82.03       1.50       0.22       2.51       ----

> <Gold.Chemscore.Fitness>
16.0915

> <Gold.Chemscore.DG>
-18.8244

> <Gold.Chemscore.ZeroCoef>
-5.4800

> <Gold.Chemscore.Hbond>
2.2718

> <Gold.Chemscore.Metal>
0.0000

> <Gold.Chemscore.Lipo>
82.0252

> <Gold.Chemscore.Internal_Hbond>
0.0000

> <Gold.Chemscore.DEClash>
0.2226

> <Gold.Chemscore.DEInternal>
2.5103

> <Gold.Chemscore.Rot>
1.5002

> <Gold.Chemscore.Internal.Correction>
   9.000000E+99

> <Gold.Chemscore.Hbonds>
donor molecule, donor type, donor heavy atom, donor atom, acceptor molecule, acceptor atom, score
      L1  H    10    32       P1  7948  0.25
      L1  H    13    33       P1  7948  0.86
      P1  H  6896  6908       L1     2  0.46

> <Gold.Chemscore.Hbond.Weighted>
-7.5879

> <Gold.Chemscore.Metal.Weighted>
-0.0000

> <Gold.Chemscore.Lipo.Weighted>
-9.5969

> <Gold.Chemscore.Internal_Hbond.Weighted>
0.0000

> <Gold.Chemscore.DEClash.Weighted>
0.2226

> <Gold.Chemscore.DEInternal.Weighted>
2.5103

> <Gold.Chemscore.Rot.Weighted>
3.8404

> <Gold.Chemscore.Internal.Correction.Weighted>
   9.000000E+99

> <Gold.Protein.RotatedTorsions>
[ 6907 6896 6895 6894 ] final   80.03 input  -60.11 | X-H torsion
[ 7974 7965 7964 7962 ] final  -25.74 input  175.53 | X-H torsion
[ 8008 7997 7996 7995 ] final  102.97 input   59.86 | X-H torsion
[ 10167 10162 10161 10158 ] final   18.75 input  -65.29 | X-H torsion
[ 10718 10713 10712 10709 ] final -131.87 input   66.30 | X-H torsion
[ 10763 10752 10751 10750 ] final -149.86 input  -60.55 | X-H torsion
[ 11005 11000 10999 10996 ] final  -54.94 input  -57.11 | X-H torsion

> <Gold.Protein.ActiveResidues>
 VAL166  LYS551  ARG553  GLY616  TRP617  ASP618  TYR619  PRO620  LYS621  CYS622 
 ASP623  PHE694  ASN695  SER759  ASP760  ASP761  ALA762  ILE779  LEU786  VAL792 
 PHE793  MET794  SER795  GLU796  ALA797  LYS798  CYS799  TRP800  GLU811  SER814 

> <Gold.Protein.RotatedAtoms>
  152.5220  134.3420  159.9220 H   0  0  0  0  0  0  0  0  0  0  0  0  # atno 6907 bound_to 6896
  151.3370  133.3971  159.2675 H   0  0  0  0  0  0  0  0  0  0  0  0  # atno 6908 bound_to 6896
  150.9834  134.9202  159.7915 H   0  0  0  0  0  0  0  0  0  0  0  0  # atno 6909 bound_to 6896
  146.1471  140.4927  142.8627 H   0  0  0  0  0  0  0  0  0  0  0  0  # atno 7974 bound_to 7965
  156.1442  140.3172  155.8543 H   0  0  0  0  0  0  0  0  0  0  0  0  # atno 8008 bound_to 7997
  155.4096  140.0505  157.3049 H   0  0  0  0  0  0  0  0  0  0  0  0  # atno 8009 bound_to 7997
  154.5002  140.2126  155.9375 H   0  0  0  0  0  0  0  0  0  0  0  0  # atno 8010 bound_to 7997
  140.5630  143.9302  150.6656 H   0  0  0  0  0  0  0  0  0  0  0  0  # atno 10167 bound_to 10162
  156.2288  130.7024  151.0836 H   0  0  0  0  0  0  0  0  0  0  0  0  # atno 10718 bound_to 10713
  154.8152  135.3298  154.7194 H   0  0  0  0  0  0  0  0  0  0  0  0  # atno 10763 bound_to 10752
  153.7836  135.6916  153.4888 H   0  0  0  0  0  0  0  0  0  0  0  0  # atno 10764 bound_to 10752
  153.1963  135.4532  155.0159 H   0  0  0  0  0  0  0  0  0  0  0  0  # atno 10765 bound_to 10752
  141.1050  133.6614  156.4396 H   0  0  0  0  0  0  0  0  0  0  0  0  # atno 11005 bound_to 11000
  144.7859  140.5936  143.6574 LP  0  0  0  0  0  0  0  0  0  0  0  0  # atno 17320 bound_to 7965
  145.4911  139.1488  143.3709 LP  0  0  0  0  0  0  0  0  0  0  0  0  # atno 17321 bound_to 7965
  140.2757  143.3424  152.1197 LP  0  0  0  0  0  0  0  0  0  0  0  0  # atno 17342 bound_to 10162
  139.5079  144.6841  151.5933 LP  0  0  0  0  0  0  0  0  0  0  0  0  # atno 17343 bound_to 10162
  157.7123  131.0728  150.6456 LP  0  0  0  0  0  0  0  0  0  0  0  0  # atno 17370 bound_to 10713
  156.6522  130.4488  149.5715 LP  0  0  0  0  0  0  0  0  0  0  0  0  # atno 17371 bound_to 10713
  140.4925  134.6562  157.5216 LP  0  0  0  0  0  0  0  0  0  0  0  0  # atno 17394 bound_to 11000
  139.9917  134.6975  155.9679 LP  0  0  0  0  0  0  0  0  0  0  0  0  # atno 17395 bound_to 11000

$$$$
