AV-unprocessed.smi:49|AV-procd|sdf|468|dock9
  -GOLD-   2262016333D 1   1.00000     0.00000
 Structure written by MMmdl.
 28 29  0  0  0  0  0  0  0  0  2 V2000
  152.7394  142.2940  159.6835 C   0  0  0  0  0  0  0  0  0  0  0  0
  152.2121  141.0928  158.8907 C   0  0  0  0  0  0  0  0  0  0  0  0
  151.3137  141.5052  157.7721 C   0  0  0  0  0  0  0  0  0  0  0  0
  150.7899  140.6141  156.8773 N   0  0  0  0  0  0  0  0  0  0  0  0
  150.1227  141.4435  156.0775 C   0  0  0  0  0  0  0  0  0  0  0  0
  149.3316  141.0540  154.8645 C   0  0  1  0  0  0  0  0  0  0  0  0
  148.1709  140.0935  155.1332 C   0  0  0  0  0  0  0  0  0  0  0  0
  147.1611  140.5030  154.0655 C   0  0  1  0  0  0  0  0  0  0  0  0
  145.8447  140.1227  154.4051 O   0  0  0  0  0  0  0  0  0  0  0  0
  147.3240  142.0258  153.9929 C   0  0  0  0  0  0  0  0  0  0  0  0
  148.7238  142.3077  154.3700 N   0  3  0  0  0  0  0  0  0  0  0  0
  150.2496  142.7186  156.4526 N   0  0  0  0  0  0  0  0  0  0  0  0
  151.0272  142.7874  157.5533 N   0  0  0  0  0  0  0  0  0  0  0  0
  149.9890  140.6549  154.0903 H   0  0  0  0  0  0  0  0  0  0  0  0
  147.4352  140.0555  153.1088 H   0  0  0  0  0  0  0  0  0  0  0  0
  149.8538  143.5346  156.0078 H   0  0  0  0  0  0  0  0  0  0  0  0
  153.3932  141.9683  160.4925 H   0  0  0  0  0  0  0  0  0  0  0  0
  151.9211  142.8636  160.1252 H   0  0  0  0  0  0  0  0  0  0  0  0
  153.3104  142.9678  159.0439 H   0  0  0  0  0  0  0  0  0  0  0  0
  153.0484  140.5225  158.4846 H   0  0  0  0  0  0  0  0  0  0  0  0
  151.6720  140.4181  159.5562 H   0  0  0  0  0  0  0  0  0  0  0  0
  148.4615  139.0435  155.0857 H   0  0  0  0  0  0  0  0  0  0  0  0
  147.7500  140.2814  156.1230 H   0  0  0  0  0  0  0  0  0  0  0  0
  145.2551  140.4366  153.7360 H   0  0  0  0  0  0  0  0  0  0  0  0
  147.0844  142.4247  153.0070 H   0  0  0  0  0  0  0  0  0  0  0  0
  146.6789  142.5194  154.7214 H   0  0  0  0  0  0  0  0  0  0  0  0
  148.7312  142.9951  155.1108 H   0  0  0  0  0  0  0  0  0  0  0  0
  149.2458  142.6536  153.5778 H   0  0  0  0  0  0  0  0  0  0  0  0
  1  2  1  0  0  0  0
  1 17  1  0  0  0  0
  1 18  1  0  0  0  0
  1 19  1  0  0  0  0
  2 20  1  0  0  0  0
  2 21  1  0  0  0  0
  2  3  1  0  0  0  0
  3  4  1  0  0  0  0
  3 13  2  0  0  0  0
  4  5  2  0  0  0  0
  5  6  1  0  0  0  0
  5 12  1  0  0  0  0
  6 14  1  0  0  0  0
  6 11  1  0  0  0  0
  6  7  1  0  0  0  0
  7  8  1  0  0  0  0
  7 22  1  0  0  0  0
  7 23  1  0  0  0  0
  8 15  1  0  0  0  0
  8  9  1  0  0  0  0
  8 10  1  0  0  0  0
  9 24  1  0  0  0  0
 10 11  1  0  0  0  0
 10 25  1  0  0  0  0
 10 26  1  0  0  0  0
 11 27  1  0  0  0  0
 11 28  1  0  0  0  0
 12 13  1  0  0  0  0
 12 16  1  0  0  0  0
M  CHG  1  11   1
M  END
> <s_m_source_file>
AV-unprocessed.smi

> <i_m_source_file_index>
49

> <i_lp_mmshare_version>
43012

> <i_f3d_flags>
0

> <s_epik_input>
W0NIM11bQ0gyXWMxbmMobltuSF0xKVtDQEBIXTJbQ0gyXVtDQEBIXShbT0hdKVtDSDJdW05IXTI=

> <s_epik_cmdline>
J2VwaWtfcHl0aG9uJywgJy1waCcsICc3LjAnLCAnLXRuJywgJzgnLCAnLW1hJywgJzIwMCcsICctbWV0YWxfYmluZGluZycsICctaW1hZScsICc8aW5maWxlLm1hZT4nLCAnLW9tYWUnLCAnPG91dGZpbGUubWFlPic=

> <r_epik_Ionization_Penalty>
0.372103

> <r_epik_Ionization_Penalty_Charging>
0.0688988

> <r_epik_Ionization_Penalty_Neutral>
0.303204

> <r_epik_State_Penalty>
0.737493

> <r_epik_Charging_Adjusted_Penalty>
0.806392

> <i_epik_Tot_Q>
1

> <i_epik_Tot_abs_Q>
1

> <r_epik_Metal_State_Penalty>
1.01235

> <b_epik_Metal_Only>
0

> <s_lp_Force_Field>
OPLS_2005

> <r_lp_Energy>
17.828

> <b_lp_Chiralities_Consistent>
1

> <s_lp_Variant>
AV-unprocessed.smi:49-6

> <Gold.Version>
5.8.1

> <Gold.Id.Protein>
6NUR|6NUR_protein|mol2

> <Gold.PLP.Fitness>
34.6122

> <Gold.PLP.PLP>
-22.6446

> <Gold.PLP.part.hbond>
-3.0000

> <Gold.PLP.part.metal>
0.0000

> <Gold.PLP.part.buried>
-6.0212

> <Gold.PLP.part.nonpolar>
-16.3648

> <Gold.PLP.part.repulsive>
2.4464

> <Gold.PLP.ligand.clash>
0.0000

> <Gold.PLP.ligand.torsion>
0.0260

> <Gold.PLP.Chemscore.Hbond>
4.0000

> <Gold.PLP.Chemscore.CHOScore>
0.0000

> <Gold.PLP.Chemscore.Metal>
0.0000

> <Gold.Chemscore.Hbonds>
donor molecule, donor type, donor heavy atom, donor atom, acceptor molecule, acceptor atom, score
      L1  H     9    24       P1 10175  1.00
      L1  H    11    27       P1  8028  1.98
      L1  H    12    16       P1  8028  1.00

> <Gold.PLP.Chemscore.Internal.Correction>
0.0195

> <Gold.Rescore>
     Score         DG    S(hbond)    S(metal)    S(lipo)     H(rot)  DE(clash)    DE(int)     intcor
     14.33     -14.97       2.83        0.00      41.66       1.89       0.60       0.04       ----

> <Gold.Chemscore.Fitness>
14.3251

> <Gold.Chemscore.DG>
-14.9691

> <Gold.Chemscore.ZeroCoef>
-5.4800

> <Gold.Chemscore.Hbond>
2.8290

> <Gold.Chemscore.Metal>
0.0000

> <Gold.Chemscore.Lipo>
41.6602

> <Gold.Chemscore.Internal_Hbond>
0.0000

> <Gold.Chemscore.DEClash>
0.6000

> <Gold.Chemscore.DEInternal>
0.0440

> <Gold.Chemscore.Rot>
1.8883

> <Gold.Chemscore.Internal.Correction>
   9.000000E+99

> <Gold.Chemscore.Hbonds>
donor molecule, donor type, donor heavy atom, donor atom, acceptor molecule, acceptor atom, score
      L1  H     9    24       P1 10175  0.95
      L1  H    11    27       P1  8028  0.93
      L1  H    12    16       P1  8028  0.97

> <Gold.Chemscore.Hbond.Weighted>
-9.4488

> <Gold.Chemscore.Metal.Weighted>
-0.0000

> <Gold.Chemscore.Lipo.Weighted>
-4.8742

> <Gold.Chemscore.Internal_Hbond.Weighted>
0.0000

> <Gold.Chemscore.DEClash.Weighted>
0.6000

> <Gold.Chemscore.DEInternal.Weighted>
0.0440

> <Gold.Chemscore.Rot.Weighted>
4.8340

> <Gold.Chemscore.Internal.Correction.Weighted>
   9.000000E+99

> <Gold.Protein.RotatedTorsions>
[ 6907 6896 6895 6894 ] final  -56.84 input  -60.11 | X-H torsion
[ 7974 7965 7964 7962 ] final  -34.05 input  175.53 | X-H torsion
[ 8008 7997 7996 7995 ] final   69.69 input   59.86 | X-H torsion
[ 10167 10162 10161 10158 ] final  -82.39 input  -65.29 | X-H torsion
[ 10718 10713 10712 10709 ] final  132.76 input   66.30 | X-H torsion
[ 10763 10752 10751 10750 ] final -110.19 input  -60.55 | X-H torsion
[ 11005 11000 10999 10996 ] final -148.40 input  -57.11 | X-H torsion

> <Gold.Protein.ActiveResidues>
 VAL166  LYS551  ARG553  GLY616  TRP617  ASP618  TYR619  PRO620  LYS621  CYS622 
 ASP623  PHE694  ASN695  SER759  ASP760  ASP761  ALA762  ILE779  LEU786  VAL792 
 PHE793  MET794  SER795  GLU796  ALA797  LYS798  CYS799  TRP800  GLU811  SER814 

> <Gold.Protein.RotatedAtoms>
  150.8134  134.7303  159.6708 H   0  0  0  0  0  0  0  0  0  0  0  0  # atno 6907 bound_to 6896
  152.4254  134.5875  159.9975 H   0  0  0  0  0  0  0  0  0  0  0  0  # atno 6908 bound_to 6896
  151.6078  133.3313  159.3097 H   0  0  0  0  0  0  0  0  0  0  0  0  # atno 6909 bound_to 6896
  146.0861  140.5991  142.8886 H   0  0  0  0  0  0  0  0  0  0  0  0  # atno 7974 bound_to 7965
  155.7274  140.3492  155.5043 H   0  0  0  0  0  0  0  0  0  0  0  0  # atno 8008 bound_to 7997
  155.9214  140.1068  157.1225 H   0  0  0  0  0  0  0  0  0  0  0  0  # atno 8009 bound_to 7997
  154.4070  140.1249  156.4671 H   0  0  0  0  0  0  0  0  0  0  0  0  # atno 8010 bound_to 7997
  140.4324  143.2544  151.8741 H   0  0  0  0  0  0  0  0  0  0  0  0  # atno 10167 bound_to 10162
  157.4840  131.1087  150.9644 H   0  0  0  0  0  0  0  0  0  0  0  0  # atno 10718 bound_to 10713
  154.8235  135.4573  154.0848 H   0  0  0  0  0  0  0  0  0  0  0  0  # atno 10763 bound_to 10752
  153.2182  135.6890  153.8038 H   0  0  0  0  0  0  0  0  0  0  0  0  # atno 10764 bound_to 10752
  153.7465  135.3304  155.3290 H   0  0  0  0  0  0  0  0  0  0  0  0  # atno 10765 bound_to 10752
  140.7616  134.3292  157.5100 H   0  0  0  0  0  0  0  0  0  0  0  0  # atno 11005 bound_to 11000
  144.7327  140.4718  143.6926 LP  0  0  0  0  0  0  0  0  0  0  0  0  # atno 17320 bound_to 7965
  145.6127  139.1515  143.3067 LP  0  0  0  0  0  0  0  0  0  0  0  0  # atno 17321 bound_to 7965
  139.4785  144.5320  151.8653 LP  0  0  0  0  0  0  0  0  0  0  0  0  # atno 17342 bound_to 10162
  140.4412  144.1984  150.5891 LP  0  0  0  0  0  0  0  0  0  0  0  0  # atno 17343 bound_to 10162
  157.0368  130.5733  149.5350 LP  0  0  0  0  0  0  0  0  0  0  0  0  # atno 17370 bound_to 10713
  156.0137  130.5230  150.8067 LP  0  0  0  0  0  0  0  0  0  0  0  0  # atno 17371 bound_to 10713
  139.8770  134.9205  156.3254 LP  0  0  0  0  0  0  0  0  0  0  0  0  # atno 17394 bound_to 11000
  140.9658  133.7359  156.0464 LP  0  0  0  0  0  0  0  0  0  0  0  0  # atno 17395 bound_to 11000

$$$$
