#       Name:                AV-unprocessed.smi:3039
#       Creating user name   scv26
#       Creation time:       Fri Mar 27 16:56:53 2020


#       File generated by GOLD software.
#

@<TRIPOS>MOLECULE
AV-unprocessed.smi:3039
    45    46     1
SMALL
NO_CHARGES


@<TRIPOS>ATOM
      1 ****        -0.4898   3.0146   0.5779 O.2            1 S1                 0.0000
      2 ****        -1.0235   1.9089   0.4927 C.2            1 S1                 0.0000
      3 ****        -2.5481   1.7907   0.4949 C.3            1 S1                 0.0000
      4 ****        -3.0411   1.3923  -0.8710 C.2            1 S1                 0.0000
      5 ****        -3.3520   2.2318  -1.9768 C.2            1 S1                 0.0000
      6 ****        -3.7412   1.3525  -2.9458 C.2            1 S1                 0.0000
      7 ****        -3.6800   0.0779  -2.4840 O.3            1 S1                 0.0000
      8 ****        -3.2354   0.1130  -1.1576 N.2            1 S1                 0.0000
      9 ****        -0.3388   0.7588   0.3940 N.am           1 S1                 0.0000
     10 ****         1.1171   0.6261   0.3241 C.3            1 S1                 0.0000
     11 ****         1.7438   0.5566   1.7374 C.3            1 S1                 0.0000
     12 ****         1.1566  -0.5303   2.6601 C.3            1 S1                 0.0000
     13 ****         1.7615  -1.9360   2.5031 C.3            1 S1                 0.0000
     14 ****         2.1668  -2.3604   1.0814 C.3            1 S1                 0.0000
     15 ****         1.2049  -1.9378  -0.0425 C.3            1 S1                 0.0000
     16 ****         1.5195  -0.5354  -0.6195 C.3            1 S1                 0.0000
     17 ****         0.8919  -0.3505  -2.0212 C.3            1 S1                 0.0000
     18 ****         1.5325  -1.1690  -2.9781 O.3            1 S1                 0.0000
     19 ****        -2.8516   1.0627   1.2488 H              1 S1                 0.0000
     20 ****        -2.9853   2.7448   0.7918 H              1 S1                 0.0000
     21 ****        -3.2951   3.3080  -2.0476 H              1 S1                 0.0000
     22 ****        -4.0744   1.4723  -3.9660 H              1 S1                 0.0000
     23 ****        -0.8704  -0.0979   0.3352 H              1 S1                 0.0000
     24 ****         1.5105   1.5326  -0.1401 H              1 S1                 0.0000
     25 ****         2.8273   0.4520   1.6702 H              1 S1                 0.0000
     26 ****         1.5782   1.5220   2.2176 H              1 S1                 0.0000
     27 ****         1.3030  -0.2229   3.6961 H              1 S1                 0.0000
     28 ****         0.0751  -0.5886   2.5412 H              1 S1                 0.0000
     29 ****         2.6422  -2.0171   3.1412 H              1 S1                 0.0000
     30 ****         1.0479  -2.6582   2.9015 H              1 S1                 0.0000
     31 ****         3.1696  -1.9919   0.8620 H              1 S1                 0.0000
     32 ****         2.2585  -3.4471   1.0753 H              1 S1                 0.0000
     33 ****         1.3137  -2.6723  -0.8408 H              1 S1                 0.0000
     34 ****         0.1661  -2.0138   0.2805 H              1 S1                 0.0000
     35 ****         2.5998  -0.4647  -0.7564 H              1 S1                 0.0000
     36 ****        -0.1743  -0.5812  -2.0102 H              1 S1                 0.0000
     37 ****         0.9918   0.6842  -2.3509 H              1 S1                 0.0000
     38 ****         1.1241  -1.0251  -3.8182 H              1 S1                 0.0000
     39 ****        -1.0533   3.8376   0.6487 LP             1 S1                 0.0000
     40 ****         0.5073   3.0899   0.5763 LP             1 S1                 0.0000
     41 ****        -3.0416  -0.4534  -3.0409 LP             1 S1                 0.0000
     42 ****        -4.5871  -0.3410  -2.5258 LP             1 S1                 0.0000
     43 ****        -3.0933  -0.6682  -0.5497 LP             1 S1                 0.0000
     44 ****         1.4379  -2.1298  -2.7174 LP             1 S1                 0.0000
     45 ****         2.5025  -0.9316  -3.0297 LP             1 S1                 0.0000
@<TRIPOS>BOND
    1    1    2 2     
    2    2    3 1     
    3    2    9 am    
    4    3    4 1     
    5    3   19 1     
    6    3   20 1     
    7    4    8 2     
    8    4    5 1     
    9    5    6 2     
   10    5   21 1     
   11    6    7 1     
   12    6   22 1     
   13    7    8 1     
   14    9   10 1     
   15    9   23 1     
   16   10   16 1     
   17   10   11 1     
   18   10   24 1     
   19   11   12 1     
   20   11   25 1     
   21   11   26 1     
   22   12   13 1     
   23   12   27 1     
   24   12   28 1     
   25   13   14 1     
   26   13   29 1     
   27   13   30 1     
   28   14   15 1     
   29   14   31 1     
   30   14   32 1     
   31   15   16 1     
   32   15   33 1     
   33   15   34 1     
   34   16   17 1     
   35   16   35 1     
   36   17   18 1     
   37   17   36 1     
   38   17   37 1     
   39   18   38 1     
   40    1   39 1     
   41    1   40 1     
   42    7   41 1     
   43    7   42 1     
   44    8   43 1     
   45   18   44 1     
   46   18   45 1     
@<TRIPOS>SUBSTRUCTURE
      1 S1             1
@<TRIPOS>SET
LONE_PAIRS      STATIC     ATOMS    <user>   **** ""
7 39 40 41 42 43 44 45
DONOR_HYDROGENS      STATIC     ATOMS    <user>   **** ""
2 23 38
ATOM$BLUE        STATIC     ATOMS    COLORGROUP SYSTEM
7 39 40 41 42 43 44 45
ATOM$RED        STATIC     ATOMS    COLORGROUP SYSTEM
2 23 38
