AV-unprocessed.smi:923|AV-procd|sdf|4177|dock1
  -GOLD-   22720 2 83D 1   1.00000     0.00000
 Structure written by MMmdl.
 35 36  0  0  0  0  0  0  0  0  1 V2000
  150.2385  133.8332  155.2335 C   0  0  0  0  0  0  0  0  0  0  0  0
  150.5641  135.2458  155.5803 C   0  0  0  0  0  0  0  0  0  0  0  0
  151.4229  135.9883  154.8711 N   0  0  0  0  0  0  0  0  0  0  0  0
  151.5629  137.2687  155.3882 N   0  0  0  0  0  0  0  0  0  0  0  0
  150.8028  137.4542  156.4761 C   0  0  0  0  0  0  0  0  0  0  0  0
  150.7534  138.6710  157.2066 N   0  0  0  0  0  0  0  0  0  0  0  0
  151.6778  139.6458  157.2656 C   0  0  0  0  0  0  0  0  0  0  0  0
  152.7563  139.6414  156.6715 O   0  0  0  0  0  0  0  0  0  0  0  0
  151.2775  140.6445  158.0668 N   0  0  0  0  0  0  0  0  0  0  0  0
  152.0345  141.8623  158.3498 C   0  0  0  0  0  0  0  0  0  0  0  0
  152.2782  141.9687  159.8696 C   0  0  0  0  0  0  0  0  0  0  0  0
  153.0322  143.2294  160.3269 C   0  0  0  0  0  0  0  0  0  0  0  0
  152.1581  144.4934  160.2885 C   0  0  0  0  0  0  0  0  0  0  0  0
  152.1152  145.2255  158.9359 C   0  0  0  0  0  0  0  0  0  0  0  0
  152.1332  144.3433  157.6753 C   0  0  0  0  0  0  0  0  0  0  0  0
  151.2804  143.0652  157.7455 C   0  0  0  0  0  0  0  0  0  0  0  0
  149.8452  136.0652  156.9613 S   0  0  0  0  0  0  0  0  0  0  0  0
  150.7499  133.5330  154.3183 H   0  0  0  0  0  0  0  0  0  0  0  0
  149.1641  133.7243  155.0846 H   0  0  0  0  0  0  0  0  0  0  0  0
  150.5500  133.1706  156.0410 H   0  0  0  0  0  0  0  0  0  0  0  0
  149.9146  138.8155  157.7489 H   0  0  0  0  0  0  0  0  0  0  0  0
  150.3765  140.5602  158.5140 H   0  0  0  0  0  0  0  0  0  0  0  0
  153.0007  141.7871  157.8471 H   0  0  0  0  0  0  0  0  0  0  0  0
  151.3296  141.8989  160.4041 H   0  0  0  0  0  0  0  0  0  0  0  0
  152.8562  141.0998  160.1876 H   0  0  0  0  0  0  0  0  0  0  0  0
  153.3415  143.0693  161.3604 H   0  0  0  0  0  0  0  0  0  0  0  0
  153.9533  143.3675  159.7595 H   0  0  0  0  0  0  0  0  0  0  0  0
  151.1436  144.2406  160.5987 H   0  0  0  0  0  0  0  0  0  0  0  0
  152.5187  145.1976  161.0392 H   0  0  0  0  0  0  0  0  0  0  0  0
  151.2256  145.8560  158.9192 H   0  0  0  0  0  0  0  0  0  0  0  0
  152.9597  145.9131  158.8768 H   0  0  0  0  0  0  0  0  0  0  0  0
  151.7868  144.9523  156.8394 H   0  0  0  0  0  0  0  0  0  0  0  0
  153.1622  144.0807  157.4266 H   0  0  0  0  0  0  0  0  0  0  0  0
  150.9977  142.8079  156.7235 H   0  0  0  0  0  0  0  0  0  0  0  0
  150.3447  143.2509  158.2745 H   0  0  0  0  0  0  0  0  0  0  0  0
  1  2  1  0  0  0  0
  1 18  1  0  0  0  0
  1 19  1  0  0  0  0
  1 20  1  0  0  0  0
  2 17  1  0  0  0  0
  2  3  2  0  0  0  0
  3  4  1  0  0  0  0
  4  5  2  0  0  0  0
  5  6  1  0  0  0  0
  5 17  1  0  0  0  0
  6  7  1  0  0  0  0
  6 21  1  0  0  0  0
  7  8  2  0  0  0  0
  7  9  1  0  0  0  0
  9 10  1  0  0  0  0
  9 22  1  0  0  0  0
 10 16  1  0  0  0  0
 10 11  1  0  0  0  0
 10 23  1  0  0  0  0
 11 12  1  0  0  0  0
 11 24  1  0  0  0  0
 11 25  1  0  0  0  0
 12 13  1  0  0  0  0
 12 26  1  0  0  0  0
 12 27  1  0  0  0  0
 13 14  1  0  0  0  0
 13 28  1  0  0  0  0
 13 29  1  0  0  0  0
 14 15  1  0  0  0  0
 14 30  1  0  0  0  0
 14 31  1  0  0  0  0
 15 16  1  0  0  0  0
 15 32  1  0  0  0  0
 15 33  1  0  0  0  0
 16 34  1  0  0  0  0
 16 35  1  0  0  0  0
M  END
> <s_m_source_file>
AV-unprocessed.smi

> <i_m_source_file_index>
923

> <i_lp_mmshare_version>
43012

> <i_f3d_flags>
0

> <s_epik_input>
W0NIM11jMW5uYyhzMSlbTkhdQyg9TylbTkhdW0NIXTJbQ0gyXVtDSDJdW0NIMl1bQ0gyXVtDSDJdW0NIMl0y

> <s_epik_cmdline>
J2VwaWtfcHl0aG9uJywgJy1waCcsICc3LjAnLCAnLXRuJywgJzgnLCAnLW1hJywgJzIwMCcsICctbWV0YWxfYmluZGluZycsICctaW1hZScsICc8aW5maWxlLm1hZT4nLCAnLW9tYWUnLCAnPG91dGZpbGUubWFlPic=

> <r_lp_tautomer_probability>
1

> <r_epik_Ionization_Penalty>
0.000365925

> <r_epik_Ionization_Penalty_Charging>
0

> <r_epik_Ionization_Penalty_Neutral>
0.000365925

> <r_epik_State_Penalty>
-0

> <r_epik_Charging_Adjusted_Penalty>
0

> <i_epik_Tot_Q>
0

> <i_epik_Tot_abs_Q>
0

> <r_epik_Metal_State_Penalty>
0.183951

> <b_epik_Metal_Only>
0

> <s_lp_Force_Field>
OPLS_2005

> <r_lp_Energy>
13.7889

> <b_lp_Chiralities_Consistent>
1

> <s_lp_Variant>
AV-unprocessed.smi:923-1

> <Gold.Version>
5.8.1

> <Gold.Id.Protein>
6NUR|6NUR_protein|mol2

> <Gold.PLP.Fitness>
39.5686

> <Gold.PLP.PLP>
-33.8363

> <Gold.PLP.part.hbond>
-2.0000

> <Gold.PLP.part.metal>
0.0000

> <Gold.PLP.part.buried>
-5.5744

> <Gold.PLP.part.nonpolar>
-25.8945

> <Gold.PLP.part.repulsive>
0.3462

> <Gold.PLP.ligand.clash>
0.0000

> <Gold.PLP.ligand.torsion>
0.1407

> <Gold.PLP.Chemscore.Hbond>
2.0000

> <Gold.PLP.Chemscore.CHOScore>
0.0000

> <Gold.PLP.Chemscore.Metal>
0.0000

> <Gold.Chemscore.Hbonds>
donor molecule, donor type, donor heavy atom, donor atom, acceptor molecule, acceptor atom, score
      P1  H  7997  8009       L1     8  1.00
      P1  H 10752 10764       L1     3  1.00

> <Gold.PLP.Chemscore.Internal.Correction>
0.0137

> <Gold.Rescore>
     Score         DG    S(hbond)    S(metal)    S(lipo)     H(rot)  DE(clash)    DE(int)     intcor
     18.98     -20.30       1.94        0.00      93.25       1.00       0.02       1.29       ----

> <Gold.Chemscore.Fitness>
18.9831

> <Gold.Chemscore.DG>
-20.2952

> <Gold.Chemscore.ZeroCoef>
-5.4800

> <Gold.Chemscore.Hbond>
1.9355

> <Gold.Chemscore.Metal>
0.0000

> <Gold.Chemscore.Lipo>
93.2523

> <Gold.Chemscore.Internal_Hbond>
0.0000

> <Gold.Chemscore.DEClash>
0.0174

> <Gold.Chemscore.DEInternal>
1.2947

> <Gold.Chemscore.Rot>
1.0000

> <Gold.Chemscore.Internal.Correction>
   9.000000E+99

> <Gold.Chemscore.Hbonds>
donor molecule, donor type, donor heavy atom, donor atom, acceptor molecule, acceptor atom, score
      P1  H  7997  8009       L1     8  0.99
      P1  H 10752 10764       L1     3  0.34

> <Gold.Chemscore.Hbond.Weighted>
-6.4647

> <Gold.Chemscore.Metal.Weighted>
-0.0000

> <Gold.Chemscore.Lipo.Weighted>
-10.9105

> <Gold.Chemscore.Internal_Hbond.Weighted>
0.0000

> <Gold.Chemscore.DEClash.Weighted>
0.0174

> <Gold.Chemscore.DEInternal.Weighted>
1.2947

> <Gold.Chemscore.Rot.Weighted>
2.5600

> <Gold.Chemscore.Internal.Correction.Weighted>
   9.000000E+99

> <Gold.Protein.RotatedTorsions>
[ 6907 6896 6895 6894 ] final -124.68 input  -60.11 | X-H torsion
[ 7974 7965 7964 7962 ] final -158.12 input  175.53 | X-H torsion
[ 8008 7997 7996 7995 ] final  175.00 input   59.86 | X-H torsion
[ 10167 10162 10161 10158 ] final -149.52 input  -65.29 | X-H torsion
[ 10718 10713 10712 10709 ] final  122.81 input   66.30 | X-H torsion
[ 10763 10752 10751 10750 ] final  -59.72 input  -60.55 | X-H torsion
[ 11005 11000 10999 10996 ] final  -17.20 input  -57.11 | X-H torsion

> <Gold.Protein.ActiveResidues>
 VAL166  LYS551  ARG553  GLY616  TRP617  ASP618  TYR619  PRO620  LYS621  CYS622 
 ASP623  PHE694  ASN695  SER759  ASP760  ASP761  ALA762  ILE779  LEU786  VAL792 
 PHE793  MET794  SER795  GLU796  ALA797  LYS798  CYS799  TRP800  GLU811  SER814 

> <Gold.Protein.RotatedAtoms>
  150.8792  133.7395  159.2936 H   0  0  0  0  0  0  0  0  0  0  0  0  # atno 6907 bound_to 6896
  151.4982  135.1059  159.9831 H   0  0  0  0  0  0  0  0  0  0  0  0  # atno 6908 bound_to 6896
  152.4748  133.8068  159.7038 H   0  0  0  0  0  0  0  0  0  0  0  0  # atno 6909 bound_to 6896
  144.7519  140.3872  143.6041 H   0  0  0  0  0  0  0  0  0  0  0  0  # atno 7974 bound_to 7965
  156.0915  140.1420  156.9585 H   0  0  0  0  0  0  0  0  0  0  0  0  # atno 8008 bound_to 7997
  154.4645  140.0931  156.7030 H   0  0  0  0  0  0  0  0  0  0  0  0  # atno 8009 bound_to 7997
  155.4911  140.3448  155.4357 H   0  0  0  0  0  0  0  0  0  0  0  0  # atno 8010 bound_to 7997
  139.7435  143.8626  152.2568 H   0  0  0  0  0  0  0  0  0  0  0  0  # atno 10167 bound_to 10162
  157.5713  131.1083  150.8361 H   0  0  0  0  0  0  0  0  0  0  0  0  # atno 10718 bound_to 10713
  154.2581  135.6313  153.5264 H   0  0  0  0  0  0  0  0  0  0  0  0  # atno 10763 bound_to 10752
  152.9900  135.5581  154.5735 H   0  0  0  0  0  0  0  0  0  0  0  0  # atno 10764 bound_to 10752
  154.5277  135.2886  155.1182 H   0  0  0  0  0  0  0  0  0  0  0  0  # atno 10765 bound_to 10752
  140.8145  133.8115  155.9596 H   0  0  0  0  0  0  0  0  0  0  0  0  # atno 11005 bound_to 11000
  145.6914  139.1640  143.2644 LP  0  0  0  0  0  0  0  0  0  0  0  0  # atno 17320 bound_to 7965
  146.1480  140.6965  142.9335 LP  0  0  0  0  0  0  0  0  0  0  0  0  # atno 17321 bound_to 7965
  139.8584  144.7130  150.9129 LP  0  0  0  0  0  0  0  0  0  0  0  0  # atno 17342 bound_to 10162
  140.7789  143.3839  151.1428 LP  0  0  0  0  0  0  0  0  0  0  0  0  # atno 17343 bound_to 10162
  156.8832  130.5186  149.5290 LP  0  0  0  0  0  0  0  0  0  0  0  0  # atno 17370 bound_to 10713
  156.0759  130.5781  150.9472 LP  0  0  0  0  0  0  0  0  0  0  0  0  # atno 17371 bound_to 10713
  140.9163  134.2197  157.4954 LP  0  0  0  0  0  0  0  0  0  0  0  0  # atno 17394 bound_to 11000
  139.8712  134.9773  156.4952 LP  0  0  0  0  0  0  0  0  0  0  0  0  # atno 17395 bound_to 11000

$$$$
