AV-unprocessed.smi:1427|AV-procd|sdf|5811|dock7
  -GOLD-   22720 5463D 1   1.00000     0.00000
 Structure written by MMmdl.
 33 34  0  0  0  0  0  0  0  0  1 V2000
  146.0004  134.8106  154.8047 C   0  0  0  0  0  0  0  0  0  0  0  0
  145.9620  135.0566  153.2905 C   0  0  2  0  0  0  0  0  0  0  0  0
  146.6188  133.8956  152.5152 C   0  0  0  0  0  0  0  0  0  0  0  0
  145.8051  133.4361  151.4030 N   0  0  0  0  0  0  0  0  0  0  0  0
  145.9230  132.2658  150.6832 C   0  0  0  0  0  0  0  0  0  0  0  0
  144.9314  132.2646  149.7447 C   0  0  0  0  0  0  0  0  0  0  0  0
  144.2510  133.4937  149.9705 C   0  0  0  0  0  0  0  0  0  0  0  0
  144.7777  134.1943  150.9619 N   0  0  0  0  0  0  0  0  0  0  0  0
  146.6359  136.3208  152.9986 N   0  0  0  0  0  0  0  0  0  0  0  0
  146.3000  137.5280  153.4873 C   0  0  0  0  0  0  0  0  0  0  0  0
  145.3621  137.6958  154.2665 O   0  0  0  0  0  0  0  0  0  0  0  0
  147.1167  138.7495  153.0275 C   0  0  1  0  0  0  0  0  0  0  0  0
  146.7973  140.0029  153.8741 C   0  0  0  0  0  0  0  0  0  0  0  0
  148.1468  140.6069  154.2871 C   0  0  0  0  0  0  0  0  0  0  0  0
  149.1526  139.5565  153.8539 C   0  0  0  0  0  0  0  0  0  0  0  0
  150.3537  139.6246  154.1037 O   0  0  0  0  0  0  0  0  0  0  0  0
  148.5549  138.5775  153.1780 N   0  0  0  0  0  0  0  0  0  0  0  0
  145.4896  133.8828  155.0640 H   0  0  0  0  0  0  0  0  0  0  0  0
  145.5079  135.6186  155.3466 H   0  0  0  0  0  0  0  0  0  0  0  0
  147.0255  134.7395  155.1706 H   0  0  0  0  0  0  0  0  0  0  0  0
  144.9111  135.1182  153.0021 H   0  0  0  0  0  0  0  0  0  0  0  0
  147.6034  134.1881  152.1459 H   0  0  0  0  0  0  0  0  0  0  0  0
  146.7779  133.0461  153.1801 H   0  0  0  0  0  0  0  0  0  0  0  0
  146.6909  131.5379  150.9006 H   0  0  0  0  0  0  0  0  0  0  0  0
  144.7228  131.5010  149.0100 H   0  0  0  0  0  0  0  0  0  0  0  0
  143.3963  133.8955  149.4464 H   0  0  0  0  0  0  0  0  0  0  0  0
  147.4194  136.2777  152.3629 H   0  0  0  0  0  0  0  0  0  0  0  0
  146.9068  138.9404  151.9743 H   0  0  0  0  0  0  0  0  0  0  0  0
  146.2059  140.7184  153.3017 H   0  0  0  0  0  0  0  0  0  0  0  0
  146.2204  139.7581  154.7680 H   0  0  0  0  0  0  0  0  0  0  0  0
  148.3441  141.5430  153.7635 H   0  0  0  0  0  0  0  0  0  0  0  0
  148.2044  140.7859  155.3613 H   0  0  0  0  0  0  0  0  0  0  0  0
  149.0441  137.7829  152.7918 H   0  0  0  0  0  0  0  0  0  0  0  0
  1  2  1  0  0  0  0
  1 18  1  0  0  0  0
  1 19  1  0  0  0  0
  1 20  1  0  0  0  0
  2  3  1  0  0  0  0
  2  9  1  0  0  0  0
  2 21  1  0  0  0  0
  3  4  1  0  0  0  0
  3 22  1  0  0  0  0
  3 23  1  0  0  0  0
  4  8  1  0  0  0  0
  4  5  1  0  0  0  0
  5  6  2  0  0  0  0
  5 24  1  0  0  0  0
  6  7  1  0  0  0  0
  6 25  1  0  0  0  0
  7  8  2  0  0  0  0
  7 26  1  0  0  0  0
  9 10  1  0  0  0  0
  9 27  1  0  0  0  0
 10 11  2  0  0  0  0
 10 12  1  0  0  0  0
 12 17  1  0  0  0  0
 12 13  1  0  0  0  0
 12 28  1  0  0  0  0
 13 14  1  0  0  0  0
 13 29  1  0  0  0  0
 13 30  1  0  0  0  0
 14 15  1  0  0  0  0
 14 31  1  0  0  0  0
 14 32  1  0  0  0  0
 15 16  2  0  0  0  0
 15 17  1  0  0  0  0
 17 33  1  0  0  0  0
M  END
> <s_m_source_file>
AV-unprocessed.smi

> <i_m_source_file_index>
1427

> <i_lp_mmshare_version>
43012

> <i_f3d_flags>
0

> <s_epik_input>
bjFbY0hdW2NIXVtjSF1uMVtDSDJdW0NAQEhdKFtDSDNdKVtOSF1DKD1PKVtDQEBIXTJbQ0gyXVtDSDJdQyg9TylbTkhdMg==

> <s_epik_cmdline>
J2VwaWtfcHl0aG9uJywgJy1waCcsICc3LjAnLCAnLXRuJywgJzgnLCAnLW1hJywgJzIwMCcsICctbWV0YWxfYmluZGluZycsICctaW1hZScsICc8aW5maWxlLm1hZT4nLCAnLW9tYWUnLCAnPG91dGZpbGUubWFlPic=

> <r_lp_tautomer_probability>
1

> <r_epik_Ionization_Penalty>
0.000310707

> <r_epik_Ionization_Penalty_Charging>
0

> <r_epik_Ionization_Penalty_Neutral>
0.000310707

> <r_epik_State_Penalty>
-0

> <r_epik_Charging_Adjusted_Penalty>
0

> <i_epik_Tot_Q>
0

> <i_epik_Tot_abs_Q>
0

> <r_epik_Metal_State_Penalty>
-0

> <b_epik_Metal_Only>
0

> <s_lp_Force_Field>
OPLS_2005

> <r_lp_Energy>
14.9883

> <b_lp_Chiralities_Consistent>
1

> <s_lp_Variant>
AV-unprocessed.smi:1427-3

> <Gold.Version>
5.8.1

> <Gold.Id.Protein>
6NUR|6NUR_protein|mol2

> <Gold.PLP.Fitness>
38.1280

> <Gold.PLP.PLP>
-25.2430

> <Gold.PLP.part.hbond>
-4.0000

> <Gold.PLP.part.metal>
0.0000

> <Gold.PLP.part.buried>
-3.0306

> <Gold.PLP.part.nonpolar>
-19.6756

> <Gold.PLP.part.repulsive>
0.9508

> <Gold.PLP.ligand.clash>
0.0000

> <Gold.PLP.ligand.torsion>
1.0544

> <Gold.PLP.Chemscore.Hbond>
2.9920

> <Gold.PLP.Chemscore.CHOScore>
2.0000

> <Gold.PLP.Chemscore.Metal>
0.0000

> <Gold.Chemscore.Hbonds>
donor molecule, donor type, donor heavy atom, donor atom, acceptor molecule, acceptor atom, score
      L1  H     9    27       P1  7948  1.00
      L1  H    17    33       P1  7948  0.98
      P1  H  7989  7998       L1    16  1.00
      L1  C     5    24       P1 10747  1.00
      L1  C     7    26       P1 10186  1.00

> <Gold.PLP.Chemscore.Internal.Correction>
0.0178

> <Gold.Rescore>
     Score         DG    S(hbond)    S(metal)    S(lipo)     H(rot)  DE(clash)    DE(int)     intcor
     15.09     -16.23       2.83        0.00      52.35       1.88       0.16       0.98       ----

> <Gold.Chemscore.Fitness>
15.0909

> <Gold.Chemscore.DG>
-16.2307

> <Gold.Chemscore.ZeroCoef>
-5.4800

> <Gold.Chemscore.Hbond>
2.8274

> <Gold.Chemscore.Metal>
0.0000

> <Gold.Chemscore.Lipo>
52.3533

> <Gold.Chemscore.Internal_Hbond>
0.0000

> <Gold.Chemscore.DEClash>
0.1611

> <Gold.Chemscore.DEInternal>
0.9787

> <Gold.Chemscore.Rot>
1.8821

> <Gold.Chemscore.Internal.Correction>
   9.000000E+99

> <Gold.Chemscore.Hbonds>
donor molecule, donor type, donor heavy atom, donor atom, acceptor molecule, acceptor atom, score
      L1  H     9    27       P1  7948  0.98
      L1  H    17    33       P1  7948  0.93
      P1  H  7989  7998       L1    16  0.99

> <Gold.Chemscore.Hbond.Weighted>
-9.4435

> <Gold.Chemscore.Metal.Weighted>
-0.0000

> <Gold.Chemscore.Lipo.Weighted>
-6.1253

> <Gold.Chemscore.Internal_Hbond.Weighted>
0.0000

> <Gold.Chemscore.DEClash.Weighted>
0.1611

> <Gold.Chemscore.DEInternal.Weighted>
0.9787

> <Gold.Chemscore.Rot.Weighted>
4.8181

> <Gold.Chemscore.Internal.Correction.Weighted>
   9.000000E+99

> <Gold.Protein.RotatedTorsions>
[ 6907 6896 6895 6894 ] final  -79.22 input  -60.11 | X-H torsion
[ 7974 7965 7964 7962 ] final -131.37 input  175.53 | X-H torsion
[ 8008 7997 7996 7995 ] final   66.57 input   59.86 | X-H torsion
[ 10167 10162 10161 10158 ] final -130.68 input  -65.29 | X-H torsion
[ 10718 10713 10712 10709 ] final   51.65 input   66.30 | X-H torsion
[ 10763 10752 10751 10750 ] final -145.58 input  -60.55 | X-H torsion
[ 11005 11000 10999 10996 ] final -114.43 input  -57.11 | X-H torsion

> <Gold.Protein.ActiveResidues>
 VAL166  LYS551  ARG553  GLY616  TRP617  ASP618  TYR619  PRO620  LYS621  CYS622 
 ASP623  PHE694  ASN695  SER759  ASP760  ASP761  ALA762  ILE779  LEU786  VAL792 
 PHE793  MET794  SER795  GLU796  ALA797  LYS798  CYS799  TRP800  GLU811  SER814 

> <Gold.Protein.RotatedAtoms>
  150.6954  134.4154  159.5180 H   0  0  0  0  0  0  0  0  0  0  0  0  # atno 6907 bound_to 6896
  152.1905  134.8673  160.0527 H   0  0  0  0  0  0  0  0  0  0  0  0  # atno 6908 bound_to 6896
  151.9630  133.3666  159.4079 H   0  0  0  0  0  0  0  0  0  0  0  0  # atno 6909 bound_to 6896
  144.9386  140.7212  143.4861 H   0  0  0  0  0  0  0  0  0  0  0  0  # atno 7974 bound_to 7965
  155.6794  140.3496  155.4849 H   0  0  0  0  0  0  0  0  0  0  0  0  # atno 8008 bound_to 7997
  155.9619  140.1139  157.0910 H   0  0  0  0  0  0  0  0  0  0  0  0  # atno 8009 bound_to 7997
  154.4145  140.1174  156.5177 H   0  0  0  0  0  0  0  0  0  0  0  0  # atno 8010 bound_to 7997
  139.9268  143.6319  152.2540 H   0  0  0  0  0  0  0  0  0  0  0  0  # atno 10167 bound_to 10162
  157.5001  130.8432  149.8306 H   0  0  0  0  0  0  0  0  0  0  0  0  # atno 10718 bound_to 10713
  154.8377  135.3409  154.6526 H   0  0  0  0  0  0  0  0  0  0  0  0  # atno 10763 bound_to 10752
  153.7139  135.6962  153.5034 H   0  0  0  0  0  0  0  0  0  0  0  0  # atno 10764 bound_to 10752
  153.2431  135.4378  155.0672 H   0  0  0  0  0  0  0  0  0  0  0  0  # atno 10765 bound_to 10752
  141.0552  133.9624  157.2767 H   0  0  0  0  0  0  0  0  0  0  0  0  # atno 11005 bound_to 11000
  145.3027  139.1845  143.4681 LP  0  0  0  0  0  0  0  0  0  0  0  0  # atno 17320 bound_to 7965
  146.3276  140.3021  142.8621 LP  0  0  0  0  0  0  0  0  0  0  0  0  # atno 17321 bound_to 7965
  139.6816  144.7655  151.1599 LP  0  0  0  0  0  0  0  0  0  0  0  0  # atno 17342 bound_to 10162
  140.7648  143.5717  150.8989 LP  0  0  0  0  0  0  0  0  0  0  0  0  # atno 17343 bound_to 10162
  156.0224  130.3791  150.1922 LP  0  0  0  0  0  0  0  0  0  0  0  0  # atno 17370 bound_to 10713
  157.0112  130.9951  151.3365 LP  0  0  0  0  0  0  0  0  0  0  0  0  # atno 17371 bound_to 10713
  139.9384  135.0194  156.8629 LP  0  0  0  0  0  0  0  0  0  0  0  0  # atno 17394 bound_to 11000
  140.5978  134.0200  155.7525 LP  0  0  0  0  0  0  0  0  0  0  0  0  # atno 17395 bound_to 11000

$$$$
