AV-unprocessed.smi:1875|AV-procd|sdf|7619|dock6
  -GOLD-   22720 9343D 1   1.00000     0.00000
 Structure written by MMmdl.
 48 50  0  0  0  0  0  0  0  0  2 V2000
  157.3384  133.8741  153.1531 C   0  0  0  0  0  0  0  0  0  0  0  0
  157.5483  135.3024  153.6113 C   0  0  0  0  0  0  0  0  0  0  0  0
  158.7467  135.6010  154.1228 N   0  0  0  0  0  0  0  0  0  0  0  0
  158.9334  136.8729  154.5387 C   0  0  0  0  0  0  0  0  0  0  0  0
  157.9156  137.8431  154.4414 C   0  0  0  0  0  0  0  0  0  0  0  0
  156.6943  137.4090  153.8846 C   0  0  0  0  0  0  0  0  0  0  0  0
  155.5184  138.3518  153.7387 C   0  0  0  0  0  0  0  0  0  0  0  0
  154.3156  137.8222  154.3715 N   0  0  0  0  0  0  0  0  0  0  0  0
  153.3783  138.8628  154.7803 C   0  0  0  0  0  0  0  0  0  0  0  0
  151.9188  138.4179  154.5674 C   0  0  1  0  0  0  0  0  0  0  0  0
  151.9002  137.0174  154.3846 O   0  0  0  0  0  0  0  0  0  0  0  0
  150.9941  138.7297  155.7609 C   0  0  0  0  0  0  0  0  0  0  0  0
  150.7641  140.1693  155.9487 N   0  0  0  0  0  0  0  0  0  0  0  0
  150.0428  141.0344  155.1850 C   0  0  0  0  0  0  0  0  0  0  0  0
  150.1188  142.2614  155.7697 N   0  3  0  0  0  0  0  0  0  0  0  0
  150.8994  142.1796  156.9246 C   0  0  0  0  0  0  0  0  0  0  0  0
  151.2627  143.1540  157.8466 C   0  0  0  0  0  0  0  0  0  0  0  0
  152.0821  142.7492  158.9242 C   0  0  0  0  0  0  0  0  0  0  0  0
  152.5008  143.7907  159.9481 C   0  0  0  0  0  0  0  0  0  0  0  0
  152.5095  141.4020  159.0497 C   0  0  0  0  0  0  0  0  0  0  0  0
  153.3977  140.9790  160.2075 C   0  0  0  0  0  0  0  0  0  0  0  0
  152.1237  140.4244  158.1047 C   0  0  0  0  0  0  0  0  0  0  0  0
  151.3168  140.8397  157.0473 C   0  0  0  0  0  0  0  0  0  0  0  0
  156.5122  136.1350  153.4718 N   0  0  0  0  0  0  0  0  0  0  0  0
  158.2840  133.4072  152.8753 H   0  0  0  0  0  0  0  0  0  0  0  0
  156.6772  133.8368  152.2864 H   0  0  0  0  0  0  0  0  0  0  0  0
  156.8879  133.2866  153.9534 H   0  0  0  0  0  0  0  0  0  0  0  0
  159.8999  137.1176  154.9534 H   0  0  0  0  0  0  0  0  0  0  0  0
  158.0644  138.8592  154.7759 H   0  0  0  0  0  0  0  0  0  0  0  0
  155.7862  139.3115  154.1824 H   0  0  0  0  0  0  0  0  0  0  0  0
  155.3369  138.5370  152.6789 H   0  0  0  0  0  0  0  0  0  0  0  0
  154.5815  137.2735  155.1827 H   0  0  0  0  0  0  0  0  0  0  0  0
  153.5394  139.1442  155.8220 H   0  0  0  0  0  0  0  0  0  0  0  0
  153.5813  139.7537  154.1872 H   0  0  0  0  0  0  0  0  0  0  0  0
  151.5094  138.8907  153.6733 H   0  0  0  0  0  0  0  0  0  0  0  0
  151.0052  136.7430  154.2553 H   0  0  0  0  0  0  0  0  0  0  0  0
  150.0154  138.2757  155.5978 H   0  0  0  0  0  0  0  0  0  0  0  0
  151.3776  138.2962  156.6845 H   0  0  0  0  0  0  0  0  0  0  0  0
  149.5061  140.7904  154.2794 H   0  0  0  0  0  0  0  0  0  0  0  0
  150.9356  144.1782  157.7427 H   0  0  0  0  0  0  0  0  0  0  0  0
  152.1925  143.4910  160.9501 H   0  0  0  0  0  0  0  0  0  0  0  0
  152.0491  144.7607  159.7378 H   0  0  0  0  0  0  0  0  0  0  0  0
  153.5836  143.9186  159.9417 H   0  0  0  0  0  0  0  0  0  0  0  0
  153.6767  139.9276  160.1331 H   0  0  0  0  0  0  0  0  0  0  0  0
  152.8821  141.1219  161.1573 H   0  0  0  0  0  0  0  0  0  0  0  0
  154.3166  141.5653  160.2199 H   0  0  0  0  0  0  0  0  0  0  0  0
  152.4530  139.4007  158.2025 H   0  0  0  0  0  0  0  0  0  0  0  0
  149.6702  143.0921  155.4050 H   0  0  0  0  0  0  0  0  0  0  0  0
  1  2  1  0  0  0  0
  1 25  1  0  0  0  0
  1 26  1  0  0  0  0
  1 27  1  0  0  0  0
  2 24  1  0  0  0  0
  2  3  2  0  0  0  0
  3  4  1  0  0  0  0
  4  5  2  0  0  0  0
  4 28  1  0  0  0  0
  5  6  1  0  0  0  0
  5 29  1  0  0  0  0
  6  7  1  0  0  0  0
  6 24  2  0  0  0  0
  7  8  1  0  0  0  0
  7 30  1  0  0  0  0
  7 31  1  0  0  0  0
  8  9  1  0  0  0  0
  8 32  1  0  0  0  0
  9 10  1  0  0  0  0
  9 33  1  0  0  0  0
  9 34  1  0  0  0  0
 10 11  1  0  0  0  0
 10 12  1  0  0  0  0
 10 35  1  0  0  0  0
 11 36  1  0  0  0  0
 12 13  1  0  0  0  0
 12 37  1  0  0  0  0
 12 38  1  0  0  0  0
 13 23  1  0  0  0  0
 13 14  1  0  0  0  0
 14 15  2  0  0  0  0
 14 39  1  0  0  0  0
 15 16  1  0  0  0  0
 15 48  1  0  0  0  0
 16 23  2  0  0  0  0
 16 17  1  0  0  0  0
 17 18  2  0  0  0  0
 17 40  1  0  0  0  0
 18 19  1  0  0  0  0
 18 20  1  0  0  0  0
 19 41  1  0  0  0  0
 19 42  1  0  0  0  0
 19 43  1  0  0  0  0
 20 21  1  0  0  0  0
 20 22  2  0  0  0  0
 21 44  1  0  0  0  0
 21 45  1  0  0  0  0
 21 46  1  0  0  0  0
 22 23  1  0  0  0  0
 22 47  1  0  0  0  0
M  CHG  1  15   1
M  END
> <s_m_source_file>
AV-unprocessed.smi

> <i_m_source_file_index>
1875

> <i_lp_mmshare_version>
43012

> <i_f3d_flags>
0

> <s_epik_input>
W0NIM11jMW5bY0hdW2NIXWMobjEpW0NIMl1bTkhdW0NIMl1bQ0BIXShbT0hdKVtDSDJdbihbY0hdbjIpYyhjMjMpW2NIXWMoW0NIM10pYyhbY0hdMylbQ0gzXQ==

> <s_epik_cmdline>
J2VwaWtfcHl0aG9uJywgJy1waCcsICc3LjAnLCAnLXRuJywgJzgnLCAnLW1hJywgJzIwMCcsICctbWV0YWxfYmluZGluZycsICctaW1hZScsICc8aW5maWxlLm1hZT4nLCAnLW9tYWUnLCAnPG91dGZpbGUubWFlPic=

> <r_epik_Ionization_Penalty>
2.02862

> <r_epik_Ionization_Penalty_Charging>
1.0004

> <r_epik_Ionization_Penalty_Neutral>
1.02823

> <r_epik_State_Penalty>
2.23022

> <r_epik_Charging_Adjusted_Penalty>
3.23062

> <i_epik_Tot_Q>
1

> <i_epik_Tot_abs_Q>
1

> <r_epik_Metal_State_Penalty>
2.31249

> <b_epik_Metal_Only>
0

> <s_epik_Chemistry_Notes>
This compound contains an electron-poor aromatic ring that is susceptible to covalent hydrolysis at low pH, typically resulting in measured values for nitrogen ring protonation that are around two units higher than predicted values.

> <s_lp_Force_Field>
OPLS_2005

> <r_lp_Energy>
17.8623

> <b_lp_Chiralities_Consistent>
1

> <s_lp_Variant>
AV-unprocessed.smi:1875-8

> <Gold.Version>
5.8.1

> <Gold.Id.Protein>
6NUR|6NUR_protein|mol2

> <Gold.PLP.Fitness>
58.4150

> <Gold.PLP.PLP>
-48.7459

> <Gold.PLP.part.hbond>
-4.6657

> <Gold.PLP.part.metal>
0.0000

> <Gold.PLP.part.buried>
-4.4617

> <Gold.PLP.part.nonpolar>
-39.8593

> <Gold.PLP.part.repulsive>
0.2426

> <Gold.PLP.ligand.clash>
0.0000

> <Gold.PLP.ligand.torsion>
1.2047

> <Gold.PLP.Chemscore.Hbond>
4.0000

> <Gold.PLP.Chemscore.CHOScore>
0.0000

> <Gold.PLP.Chemscore.Metal>
0.0000

> <Gold.Chemscore.Hbonds>
donor molecule, donor type, donor heavy atom, donor atom, acceptor molecule, acceptor atom, score
      L1  H    15    48       P1  8028  2.00
      P1  H 10752 10763       L1    11  0.99
      P1  H 10752 10765       L1    24  1.00

> <Gold.PLP.Chemscore.Internal.Correction>
0.0785

> <Gold.Rescore>
     Score         DG    S(hbond)    S(metal)    S(lipo)     H(rot)  DE(clash)    DE(int)     intcor
     21.58     -24.00       2.78        0.00     140.42       2.80       1.04       1.39       ----

> <Gold.Chemscore.Fitness>
21.5757

> <Gold.Chemscore.DG>
-24.0036

> <Gold.Chemscore.ZeroCoef>
-5.4800

> <Gold.Chemscore.Hbond>
2.7757

> <Gold.Chemscore.Metal>
0.0000

> <Gold.Chemscore.Lipo>
140.4172

> <Gold.Chemscore.Internal_Hbond>
0.0000

> <Gold.Chemscore.DEClash>
1.0359

> <Gold.Chemscore.DEInternal>
1.3919

> <Gold.Chemscore.Rot>
2.8032

> <Gold.Chemscore.Internal.Correction>
   9.000000E+99

> <Gold.Chemscore.Hbonds>
donor molecule, donor type, donor heavy atom, donor atom, acceptor molecule, acceptor atom, score
      L1  H    15    48       P1  8028  0.95
      P1  H 10752 10763       L1    11  0.74
      P1  H 10752 10765       L1    24  0.75

> <Gold.Chemscore.Hbond.Weighted>
-9.2709

> <Gold.Chemscore.Metal.Weighted>
-0.0000

> <Gold.Chemscore.Lipo.Weighted>
-16.4288

> <Gold.Chemscore.Internal_Hbond.Weighted>
0.0000

> <Gold.Chemscore.DEClash.Weighted>
1.0359

> <Gold.Chemscore.DEInternal.Weighted>
1.3919

> <Gold.Chemscore.Rot.Weighted>
7.1761

> <Gold.Chemscore.Internal.Correction.Weighted>
   9.000000E+99

> <Gold.Protein.RotatedTorsions>
[ 6907 6896 6895 6894 ] final -153.89 input  -60.11 | X-H torsion
[ 7974 7965 7964 7962 ] final  121.28 input  175.53 | X-H torsion
[ 8008 7997 7996 7995 ] final    5.55 input   59.86 | X-H torsion
[ 10167 10162 10161 10158 ] final  -85.92 input  -65.29 | X-H torsion
[ 10718 10713 10712 10709 ] final -136.45 input   66.30 | X-H torsion
[ 10763 10752 10751 10750 ] final   31.50 input  -60.55 | X-H torsion
[ 11005 11000 10999 10996 ] final  -63.02 input  -57.11 | X-H torsion

> <Gold.Protein.ActiveResidues>
 VAL166  LYS551  ARG553  GLY616  TRP617  ASP618  TYR619  PRO620  LYS621  CYS622 
 ASP623  PHE694  ASN695  SER759  ASP760  ASP761  ALA762  ILE779  LEU786  VAL792 
 PHE793  MET794  SER795  GLU796  ALA797  LYS798  CYS799  TRP800  GLU811  SER814 

> <Gold.Protein.RotatedAtoms>
  151.2493  133.4358  159.2610 H   0  0  0  0  0  0  0  0  0  0  0  0  # atno 6907 bound_to 6896
  151.0632  134.9750  159.8281 H   0  0  0  0  0  0  0  0  0  0  0  0  # atno 6908 bound_to 6896
  152.5401  134.2442  159.8926 H   0  0  0  0  0  0  0  0  0  0  0  0  # atno 6909 bound_to 6896
  145.1212  139.3388  143.4713 H   0  0  0  0  0  0  0  0  0  0  0  0  # atno 7974 bound_to 7965
  154.7298  140.2728  155.6466 H   0  0  0  0  0  0  0  0  0  0  0  0  # atno 8008 bound_to 7997
  156.2847  140.2718  156.1920 H   0  0  0  0  0  0  0  0  0  0  0  0  # atno 8009 bound_to 7997
  155.0396  140.0371  157.2494 H   0  0  0  0  0  0  0  0  0  0  0  0  # atno 8010 bound_to 7997
  140.3991  143.2670  151.9165 H   0  0  0  0  0  0  0  0  0  0  0  0  # atno 10167 bound_to 10162
  156.2772  130.7300  151.1286 H   0  0  0  0  0  0  0  0  0  0  0  0  # atno 10718 bound_to 10713
  153.0312  135.6437  154.1210 H   0  0  0  0  0  0  0  0  0  0  0  0  # atno 10763 bound_to 10752
  154.0932  135.2865  155.3269 H   0  0  0  0  0  0  0  0  0  0  0  0  # atno 10764 bound_to 10752
  154.6450  135.5446  153.7898 H   0  0  0  0  0  0  0  0  0  0  0  0  # atno 10765 bound_to 10752
  141.1379  133.6647  156.5616 H   0  0  0  0  0  0  0  0  0  0  0  0  # atno 11005 bound_to 11000
  146.3521  140.1172  142.8601 LP  0  0  0  0  0  0  0  0  0  0  0  0  # atno 17320 bound_to 7965
  145.0738  140.9174  143.4866 LP  0  0  0  0  0  0  0  0  0  0  0  0  # atno 17321 bound_to 7965
  139.4785  144.5651  151.8177 LP  0  0  0  0  0  0  0  0  0  0  0  0  # atno 17342 bound_to 10162
  140.4758  144.1520  150.5925 LP  0  0  0  0  0  0  0  0  0  0  0  0  # atno 17343 bound_to 10162
  157.7303  131.0617  150.5733 LP  0  0  0  0  0  0  0  0  0  0  0  0  # atno 17370 bound_to 10713
  156.5835  130.4310  149.5967 LP  0  0  0  0  0  0  0  0  0  0  0  0  # atno 17371 bound_to 10713
  140.3984  134.7379  157.4764 LP  0  0  0  0  0  0  0  0  0  0  0  0  # atno 17394 bound_to 11000
  140.0514  134.6125  155.8857 LP  0  0  0  0  0  0  0  0  0  0  0  0  # atno 17395 bound_to 11000

$$$$
