AV-unprocessed.smi:2784|AV-procd|sdf|10736|dock2
  -GOLD-   2272015173D 1   1.00000     0.00000
 Structure written by MMmdl.
 31 32  0  0  0  0  0  0  0  0  1 V2000
  149.3351  144.7142  160.3680 C   0  0  0  0  0  0  0  0  0  0  0  0
  149.6889  144.1025  159.1385 O   0  0  0  0  0  0  0  0  0  0  0  0
  150.9067  143.3641  159.1931 C   0  0  2  0  0  0  0  0  0  0  0  0
  151.9778  144.3228  159.7161 C   0  0  0  0  0  0  0  0  0  0  0  0
  152.4137  145.1089  158.4828 C   0  0  0  0  0  0  0  0  0  0  0  0
  152.3716  144.0915  157.3397 C   0  0  0  0  0  0  0  0  0  0  0  0
  151.3946  142.9816  157.7760 C   0  0  2  0  0  0  0  0  0  0  0  0
  150.3031  142.8364  156.8142 N   0  0  0  0  0  0  0  0  0  0  0  0
  149.9714  141.7050  156.1752 C   0  0  0  0  0  0  0  0  0  0  0  0
  150.5973  140.6553  156.3544 O   0  0  0  0  0  0  0  0  0  0  0  0
  148.8742  141.9280  155.3552 N   0  0  0  0  0  0  0  0  0  0  0  0
  148.3912  140.9621  154.6353 C   0  0  0  0  0  0  0  0  0  0  0  0
  148.7524  139.6273  154.4714 N   0  0  0  0  0  0  0  0  0  0  0  0
  147.8889  139.0584  153.5776 C   0  0  0  0  0  0  0  0  0  0  0  0
  147.0205  139.9895  153.1944 C   0  0  0  0  0  0  0  0  0  0  0  0
  147.3029  141.1642  153.8243 O   0  0  0  0  0  0  0  0  0  0  0  0
  148.3763  145.2212  160.2616 H   0  0  0  0  0  0  0  0  0  0  0  0
  150.0784  145.4565  160.6614 H   0  0  0  0  0  0  0  0  0  0  0  0
  149.2404  143.9794  161.1681 H   0  0  0  0  0  0  0  0  0  0  0  0
  150.8224  142.4890  159.8409 H   0  0  0  0  0  0  0  0  0  0  0  0
  151.6185  144.9639  160.5219 H   0  0  0  0  0  0  0  0  0  0  0  0
  152.8242  143.7518  160.1005 H   0  0  0  0  0  0  0  0  0  0  0  0
  151.6976  145.9089  158.2893 H   0  0  0  0  0  0  0  0  0  0  0  0
  153.3966  145.5653  158.6019 H   0  0  0  0  0  0  0  0  0  0  0  0
  152.0850  144.5686  156.4012 H   0  0  0  0  0  0  0  0  0  0  0  0
  153.3638  143.6640  157.1885 H   0  0  0  0  0  0  0  0  0  0  0  0
  151.9617  142.0507  157.8366 H   0  0  0  0  0  0  0  0  0  0  0  0
  149.7458  143.6589  156.6338 H   0  0  0  0  0  0  0  0  0  0  0  0
  149.5114  139.1273  154.9120 H   0  0  0  0  0  0  0  0  0  0  0  0
  147.9912  138.0185  153.3042 H   0  0  0  0  0  0  0  0  0  0  0  0
  146.1829  139.9753  152.5125 H   0  0  0  0  0  0  0  0  0  0  0  0
  1  2  1  0  0  0  0
  1 17  1  0  0  0  0
  1 18  1  0  0  0  0
  1 19  1  0  0  0  0
  2  3  1  0  0  0  0
  3  7  1  0  0  0  0
  3  4  1  0  0  0  0
  3 20  1  0  0  0  0
  4  5  1  0  0  0  0
  4 21  1  0  0  0  0
  4 22  1  0  0  0  0
  5  6  1  0  0  0  0
  5 23  1  0  0  0  0
  5 24  1  0  0  0  0
  6  7  1  0  0  0  0
  6 25  1  0  0  0  0
  6 26  1  0  0  0  0
  7  8  1  0  0  0  0
  7 27  1  0  0  0  0
  8 28  1  0  0  0  0
  8  9  1  0  0  0  0
  9 11  1  0  0  0  0
  9 10  2  0  0  0  0
 11 12  2  0  0  0  0
 12 16  1  0  0  0  0
 12 13  1  0  0  0  0
 13 29  1  0  0  0  0
 13 14  1  0  0  0  0
 14 30  1  0  0  0  0
 14 15  2  0  0  0  0
 15 31  1  0  0  0  0
 15 16  1  0  0  0  0
M  END
> <s_m_source_file>
AV-unprocessed.smi

> <i_m_source_file_index>
2784

> <i_lp_mmshare_version>
43012

> <i_f3d_flags>
0

> <s_epik_input>
W0NIM11PW0NAQEhdMVtDSDJdW0NIMl1bQ0gyXVtDQEhdMVtOSF1DKD1PKVtOSF1jMm5bY0hdW2NIXW8y

> <s_epik_cmdline>
J2VwaWtfcHl0aG9uJywgJy1waCcsICc3LjAnLCAnLXRuJywgJzgnLCAnLW1hJywgJzIwMCcsICctbWV0YWxfYmluZGluZycsICctaW1hZScsICc8aW5maWxlLm1hZT4nLCAnLW9tYWUnLCAnPG91dGZpbGUubWFlPic=

> <r_lp_tautomer_probability>
0.107061

> <r_epik_Ionization_Penalty>
1.29244

> <r_epik_Ionization_Penalty_Charging>
1.29208

> <r_epik_Ionization_Penalty_Neutral>
0.000359742

> <r_epik_State_Penalty>
2.59896

> <r_epik_Charging_Adjusted_Penalty>
3.89105

> <i_epik_Tot_Q>
0

> <i_epik_Tot_abs_Q>
0

> <r_epik_Metal_State_Penalty>
3.62496

> <b_epik_Metal_Only>
0

> <s_lp_Force_Field>
OPLS_2005

> <r_lp_Energy>
46.1047

> <b_lp_Chiralities_Consistent>
1

> <s_lp_Variant>
AV-unprocessed.smi:2784-11

> <Gold.Version>
5.8.1

> <Gold.Id.Protein>
6NUR|6NUR_protein|mol2

> <Gold.PLP.Fitness>
35.0451

> <Gold.PLP.PLP>
-26.1435

> <Gold.PLP.part.hbond>
-1.0000

> <Gold.PLP.part.metal>
0.0000

> <Gold.PLP.part.buried>
-5.8064

> <Gold.PLP.part.nonpolar>
-22.1775

> <Gold.PLP.part.repulsive>
2.6171

> <Gold.PLP.ligand.clash>
0.0003

> <Gold.PLP.ligand.torsion>
0.0561

> <Gold.PLP.Chemscore.Hbond>
1.0000

> <Gold.PLP.Chemscore.CHOScore>
1.9992

> <Gold.PLP.Chemscore.Metal>
0.0000

> <Gold.Chemscore.Hbonds>
donor molecule, donor type, donor heavy atom, donor atom, acceptor molecule, acceptor atom, score
      L1  H     8    28       P1  8028  1.00
      L1  C    14    30       P1  7948  1.00
      L1  C    15    31       P1 10175  0.97

> <Gold.PLP.Chemscore.Internal.Correction>
0.0164

> <Gold.Rescore>
     Score         DG    S(hbond)    S(metal)    S(lipo)     H(rot)  DE(clash)    DE(int)     intcor
     12.97     -14.46       0.99        0.00      77.30       1.32       1.41       0.08       ----

> <Gold.Chemscore.Fitness>
12.9655

> <Gold.Chemscore.DG>
-14.4586

> <Gold.Chemscore.ZeroCoef>
-5.4800

> <Gold.Chemscore.Hbond>
0.9949

> <Gold.Chemscore.Metal>
0.0000

> <Gold.Chemscore.Lipo>
77.2972

> <Gold.Chemscore.Internal_Hbond>
0.0000

> <Gold.Chemscore.DEClash>
1.4108

> <Gold.Chemscore.DEInternal>
0.0823

> <Gold.Chemscore.Rot>
1.3235

> <Gold.Chemscore.Internal.Correction>
   9.000000E+99

> <Gold.Chemscore.Hbonds>
donor molecule, donor type, donor heavy atom, donor atom, acceptor molecule, acceptor atom, score
      L1  H     8    28       P1  8028  0.98

> <Gold.Chemscore.Hbond.Weighted>
-3.3230

> <Gold.Chemscore.Metal.Weighted>
-0.0000

> <Gold.Chemscore.Lipo.Weighted>
-9.0438

> <Gold.Chemscore.Internal_Hbond.Weighted>
0.0000

> <Gold.Chemscore.DEClash.Weighted>
1.4108

> <Gold.Chemscore.DEInternal.Weighted>
0.0823

> <Gold.Chemscore.Rot.Weighted>
3.3882

> <Gold.Chemscore.Internal.Correction.Weighted>
   9.000000E+99

> <Gold.Protein.RotatedTorsions>
[ 6907 6896 6895 6894 ] final   44.14 input  -60.11 | X-H torsion
[ 7974 7965 7964 7962 ] final   25.98 input  175.53 | X-H torsion
[ 8008 7997 7996 7995 ] final -176.37 input   59.86 | X-H torsion
[ 10167 10162 10161 10158 ] final  -52.27 input  -65.29 | X-H torsion
[ 10718 10713 10712 10709 ] final -107.20 input   66.30 | X-H torsion
[ 10763 10752 10751 10750 ] final   34.05 input  -60.55 | X-H torsion
[ 11005 11000 10999 10996 ] final  -10.57 input  -57.11 | X-H torsion

> <Gold.Protein.ActiveResidues>
 VAL166  LYS551  ARG553  GLY616  TRP617  ASP618  TYR619  PRO620  LYS621  CYS622 
 ASP623  PHE694  ASN695  SER759  ASP760  ASP761  ALA762  ILE779  LEU786  VAL792 
 PHE793  MET794  SER795  GLU796  ALA797  LYS798  CYS799  TRP800  GLU811  SER814 

> <Gold.Protein.RotatedAtoms>
  152.2289  134.8341  160.0476 H   0  0  0  0  0  0  0  0  0  0  0  0  # atno 6907 bound_to 6896
  151.9098  133.3553  159.3868 H   0  0  0  0  0  0  0  0  0  0  0  0  # atno 6908 bound_to 6896
  150.7020  134.4669  159.5451 H   0  0  0  0  0  0  0  0  0  0  0  0  # atno 6909 bound_to 6896
  146.1861  139.7391  142.8865 H   0  0  0  0  0  0  0  0  0  0  0  0  # atno 7974 bound_to 7965
  155.9940  140.1207  157.0611 H   0  0  0  0  0  0  0  0  0  0  0  0  # atno 8008 bound_to 7997
  154.4220  140.1120  156.5673 H   0  0  0  0  0  0  0  0  0  0  0  0  # atno 8009 bound_to 7997
  155.6304  140.3473  155.4683 H   0  0  0  0  0  0  0  0  0  0  0  0  # atno 8010 bound_to 7997
  140.6546  143.2590  151.4624 H   0  0  0  0  0  0  0  0  0  0  0  0  # atno 10167 bound_to 10162
  156.0425  130.5651  150.7788 H   0  0  0  0  0  0  0  0  0  0  0  0  # atno 10718 bound_to 10713
  153.0182  135.6371  154.1607 H   0  0  0  0  0  0  0  0  0  0  0  0  # atno 10763 bound_to 10752
  154.1344  135.2838  155.3178 H   0  0  0  0  0  0  0  0  0  0  0  0  # atno 10764 bound_to 10752
  154.6170  135.5537  153.7596 H   0  0  0  0  0  0  0  0  0  0  0  0  # atno 10765 bound_to 10752
  140.7461  133.8630  155.9007 H   0  0  0  0  0  0  0  0  0  0  0  0  # atno 11005 bound_to 11000
  145.3934  141.0375  143.3111 LP  0  0  0  0  0  0  0  0  0  0  0  0  # atno 17320 bound_to 7965
  144.8400  139.5487  143.6904 LP  0  0  0  0  0  0  0  0  0  0  0  0  # atno 17321 bound_to 7965
  139.5766  144.1805  152.1912 LP  0  0  0  0  0  0  0  0  0  0  0  0  # atno 17342 bound_to 10162
  140.1117  144.5451  150.6920 LP  0  0  0  0  0  0  0  0  0  0  0  0  # atno 17343 bound_to 10162
  157.5261  131.0934  151.0015 LP  0  0  0  0  0  0  0  0  0  0  0  0  # atno 17370 bound_to 10713
  157.0333  130.5720  149.5346 LP  0  0  0  0  0  0  0  0  0  0  0  0  # atno 17371 bound_to 10713
  140.9793  134.1427  157.4509 LP  0  0  0  0  0  0  0  0  0  0  0  0  # atno 17394 bound_to 11000
  139.8796  135.0005  156.6014 LP  0  0  0  0  0  0  0  0  0  0  0  0  # atno 17395 bound_to 11000

$$$$
