AV-unprocessed.smi:532|AV-procd|sdf|2853|dock5
  -GOLD-   2262023343D 1   1.00000     0.00000
 Structure written by MMmdl.
 48 50  0  0  0  0  0  0  0  0  2 V2000
  148.5876  141.1535  154.1964 C   0  0  0  0  0  0  0  0  0  0  0  0
  149.8702  140.5645  154.3166 O   0  0  0  0  0  0  0  0  0  0  0  0
  150.1219  140.0807  155.6248 C   0  0  0  0  0  0  0  0  0  0  0  0
  151.3274  140.8262  156.2091 C   0  0  0  0  0  0  0  0  0  0  0  0
  151.8881  140.1207  157.3538 N   0  0  0  0  0  0  0  0  0  0  0  0
  152.0875  140.6025  158.6067 C   0  0  0  0  0  0  0  0  0  0  0  0
  151.7639  141.9155  158.9384 N   0  0  0  0  0  0  0  0  0  0  0  0
  152.7342  142.8412  159.5243 C   0  0  0  0  0  0  0  0  0  0  0  0
  152.5053  144.3182  159.1314 C   0  0  1  0  0  0  0  0  0  0  0  0
  152.9502  144.6379  157.6949 C   0  0  0  0  0  0  0  0  0  0  0  0
  151.0508  144.7353  159.4089 C   0  0  0  0  0  0  0  0  0  0  0  0
  150.0586  143.7295  158.8028 C   0  0  2  0  0  0  0  0  0  0  0  0
  148.6081  144.0999  159.1402 C   0  0  0  0  0  0  0  0  0  0  0  0
  150.4015  142.3092  159.2871 C   0  0  0  0  0  0  0  0  0  0  0  0
  152.6024  139.7262  159.4711 N   0  0  0  0  0  0  0  0  0  0  0  0
  152.7592  138.5893  158.6914 C   0  0  0  0  0  0  0  0  0  0  0  0
  152.3434  138.8015  157.4146 C   0  0  0  0  0  0  0  0  0  0  0  0
  152.3978  137.7781  156.3500 C   0  0  0  0  0  0  0  0  0  0  0  0
  152.0229  138.0318  155.2069 O   0  0  0  0  0  0  0  0  0  0  0  0
  152.9010  136.5873  156.8062 N   0  5  0  0  0  0  0  0  0  0  0  0
  153.3310  136.3259  158.0906 C   0  0  0  0  0  0  0  0  0  0  0  0
  153.7718  135.2216  158.4097 O   0  0  0  0  0  0  0  0  0  0  0  0
  153.2708  137.3124  159.0426 N   0  0  0  0  0  0  0  0  0  0  0  0
  153.7106  137.1175  160.4275 C   0  0  0  0  0  0  0  0  0  0  0  0
  148.4414  141.5104  153.1771 H   0  0  0  0  0  0  0  0  0  0  0  0
  148.4805  142.0049  154.8699 H   0  0  0  0  0  0  0  0  0  0  0  0
  147.8002  140.4313  154.4157 H   0  0  0  0  0  0  0  0  0  0  0  0
  149.2446  140.2265  156.2563 H   0  0  0  0  0  0  0  0  0  0  0  0
  150.3237  139.0096  155.5922 H   0  0  0  0  0  0  0  0  0  0  0  0
  152.1029  140.9513  155.4549 H   0  0  0  0  0  0  0  0  0  0  0  0
  151.0505  141.8370  156.5065 H   0  0  0  0  0  0  0  0  0  0  0  0
  152.6784  142.7415  160.6091 H   0  0  0  0  0  0  0  0  0  0  0  0
  153.7423  142.5335  159.2444 H   0  0  0  0  0  0  0  0  0  0  0  0
  153.1420  144.9216  159.7796 H   0  0  0  0  0  0  0  0  0  0  0  0
  152.3679  144.0926  156.9550 H   0  0  0  0  0  0  0  0  0  0  0  0
  154.0000  144.3862  157.5449 H   0  0  0  0  0  0  0  0  0  0  0  0
  152.8378  145.7005  157.4793 H   0  0  0  0  0  0  0  0  0  0  0  0
  150.8961  144.7836  160.4878 H   0  0  0  0  0  0  0  0  0  0  0  0
  150.8618  145.7398  159.0283 H   0  0  0  0  0  0  0  0  0  0  0  0
  150.1569  143.7520  157.7167 H   0  0  0  0  0  0  0  0  0  0  0  0
  148.4334  144.0817  160.2164 H   0  0  0  0  0  0  0  0  0  0  0  0
  147.9084  143.4036  158.6770 H   0  0  0  0  0  0  0  0  0  0  0  0
  148.3645  145.0997  158.7797 H   0  0  0  0  0  0  0  0  0  0  0  0
  149.7058  141.5938  158.8462 H   0  0  0  0  0  0  0  0  0  0  0  0
  150.2774  142.2359  160.3685 H   0  0  0  0  0  0  0  0  0  0  0  0
  154.0868  136.1179  160.6455 H   0  0  0  0  0  0  0  0  0  0  0  0
  152.8809  137.3071  161.1091 H   0  0  0  0  0  0  0  0  0  0  0  0
  154.5072  137.8230  160.6653 H   0  0  0  0  0  0  0  0  0  0  0  0
  1  2  1  0  0  0  0
  1 25  1  0  0  0  0
  1 26  1  0  0  0  0
  1 27  1  0  0  0  0
  2  3  1  0  0  0  0
  3  4  1  0  0  0  0
  3 28  1  0  0  0  0
  3 29  1  0  0  0  0
  4  5  1  0  0  0  0
  4 30  1  0  0  0  0
  4 31  1  0  0  0  0
  5 17  1  0  0  0  0
  5  6  1  0  0  0  0
  6  7  1  0  0  0  0
  6 15  2  0  0  0  0
  7 14  1  0  0  0  0
  7  8  1  0  0  0  0
  8  9  1  0  0  0  0
  8 32  1  0  0  0  0
  8 33  1  0  0  0  0
  9 10  1  0  0  0  0
  9 11  1  0  0  0  0
  9 34  1  0  0  0  0
 10 35  1  0  0  0  0
 10 36  1  0  0  0  0
 10 37  1  0  0  0  0
 11 12  1  0  0  0  0
 11 38  1  0  0  0  0
 11 39  1  0  0  0  0
 12 13  1  0  0  0  0
 12 14  1  0  0  0  0
 12 40  1  0  0  0  0
 13 41  1  0  0  0  0
 13 42  1  0  0  0  0
 13 43  1  0  0  0  0
 14 44  1  0  0  0  0
 14 45  1  0  0  0  0
 15 16  1  0  0  0  0
 16 23  1  0  0  0  0
 16 17  2  0  0  0  0
 17 18  1  0  0  0  0
 18 19  2  0  0  0  0
 18 20  1  0  0  0  0
 20 21  1  0  0  0  0
 21 22  2  0  0  0  0
 21 23  1  0  0  0  0
 23 24  1  0  0  0  0
 24 46  1  0  0  0  0
 24 47  1  0  0  0  0
 24 48  1  0  0  0  0
M  CHG  1  20  -1
M  END
> <s_m_source_file>
AV-unprocessed.smi

> <i_m_source_file_index>
532

> <i_lp_mmshare_version>
43012

> <i_f3d_flags>
0

> <s_epik_input>
W0NIM11uMWMoPU8pW25IXWMoPU8pYyhjMTIpbihbQ0gyXVtDSDJdT1tDSDNdKWMobjIpTjNbQ0gyXVtDQEBIXShbQ0gzXSlbQ0gyXVtDQEBIXShbQ0gzXSlbQ0gyXTM=

> <s_epik_cmdline>
J2VwaWtfcHl0aG9uJywgJy1waCcsICc3LjAnLCAnLXRuJywgJzgnLCAnLW1hJywgJzIwMCcsICctbWV0YWxfYmluZGluZycsICctaW1hZScsICc8aW5maWxlLm1hZT4nLCAnLW9tYWUnLCAnPG91dGZpbGUubWFlPic=

> <r_lp_tautomer_probability>
1

> <r_epik_Ionization_Penalty>
5.12128

> <r_epik_Ionization_Penalty_Charging>
0.0789629

> <r_epik_Ionization_Penalty_Neutral>
5.04232

> <r_epik_State_Penalty>
5.03111

> <r_epik_Charging_Adjusted_Penalty>
5.11007

> <i_epik_Tot_Q>
-1

> <i_epik_Tot_abs_Q>
1

> <r_epik_Metal_State_Penalty>
1.14201

> <b_epik_Metal_Only>
1

> <s_lp_Force_Field>
OPLS_2005

> <r_lp_Energy>
48.0239

> <b_lp_Chiralities_Consistent>
1

> <s_lp_Variant>
AV-unprocessed.smi:532-6

> <Gold.Version>
5.8.1

> <Gold.Id.Protein>
6NUR|6NUR_protein|mol2

> <Gold.PLP.Fitness>
44.4185

> <Gold.PLP.PLP>
-36.6450

> <Gold.PLP.part.hbond>
-3.0000

> <Gold.PLP.part.metal>
0.0000

> <Gold.PLP.part.buried>
-0.2824

> <Gold.PLP.part.nonpolar>
-33.9742

> <Gold.PLP.part.repulsive>
0.1608

> <Gold.PLP.ligand.clash>
0.0000

> <Gold.PLP.ligand.torsion>
1.7102

> <Gold.PLP.Chemscore.Hbond>
3.4308

> <Gold.PLP.Chemscore.CHOScore>
0.0000

> <Gold.PLP.Chemscore.Metal>
0.0000

> <Gold.Chemscore.Hbonds>
donor molecule, donor type, donor heavy atom, donor atom, acceptor molecule, acceptor atom, score
      P1  H  6896  6908       L1    22  0.59
      P1  H  7989  7998       L1     2  0.77
      P1  H 10752 10763       L1    20  1.98

> <Gold.PLP.Chemscore.Internal.Correction>
0.9016

> <Gold.Rescore>
     Score         DG    S(hbond)    S(metal)    S(lipo)     H(rot)  DE(clash)    DE(int)     intcor
     14.71     -19.26       1.75        0.00      98.85       1.41       1.50       3.05       ----

> <Gold.Chemscore.Fitness>
14.7138

> <Gold.Chemscore.DG>
-19.2594

> <Gold.Chemscore.ZeroCoef>
-5.4800

> <Gold.Chemscore.Hbond>
1.7470

> <Gold.Chemscore.Metal>
0.0000

> <Gold.Chemscore.Lipo>
98.8542

> <Gold.Chemscore.Internal_Hbond>
0.0000

> <Gold.Chemscore.DEClash>
1.4955

> <Gold.Chemscore.DEInternal>
3.0500

> <Gold.Chemscore.Rot>
1.4147

> <Gold.Chemscore.Internal.Correction>
   9.000000E+99

> <Gold.Chemscore.Hbonds>
donor molecule, donor type, donor heavy atom, donor atom, acceptor molecule, acceptor atom, score
      P1  H  6896  6908       L1    22  0.38
      P1  H  7989  7998       L1     2  0.45
      P1  H 10752 10763       L1    20  0.73

> <Gold.Chemscore.Hbond.Weighted>
-5.8350

> <Gold.Chemscore.Metal.Weighted>
-0.0000

> <Gold.Chemscore.Lipo.Weighted>
-11.5659

> <Gold.Chemscore.Internal_Hbond.Weighted>
0.0000

> <Gold.Chemscore.DEClash.Weighted>
1.4955

> <Gold.Chemscore.DEInternal.Weighted>
3.0500

> <Gold.Chemscore.Rot.Weighted>
3.6216

> <Gold.Chemscore.Internal.Correction.Weighted>
   9.000000E+99

> <Gold.Protein.RotatedTorsions>
[ 6907 6896 6895 6894 ] final  -44.01 input  -60.11 | X-H torsion
[ 7974 7965 7964 7962 ] final   77.39 input  175.53 | X-H torsion
[ 8008 7997 7996 7995 ] final  -25.78 input   59.86 | X-H torsion
[ 10167 10162 10161 10158 ] final -175.87 input  -65.29 | X-H torsion
[ 10718 10713 10712 10709 ] final -101.79 input   66.30 | X-H torsion
[ 10763 10752 10751 10750 ] final  125.71 input  -60.55 | X-H torsion
[ 11005 11000 10999 10996 ] final   17.96 input  -57.11 | X-H torsion

> <Gold.Protein.ActiveResidues>
 VAL166  LYS551  ARG553  GLY616  TRP617  ASP618  TYR619  PRO620  LYS621  CYS622 
 ASP623  PHE694  ASN695  SER759  ASP760  ASP761  ALA762  ILE779  LEU786  VAL792 
 PHE793  MET794  SER795  GLU796  ALA797  LYS798  CYS799  TRP800  GLU811  SER814 

> <Gold.Protein.RotatedAtoms>
  150.9375  134.8787  159.7590 H   0  0  0  0  0  0  0  0  0  0  0  0  # atno 6907 bound_to 6896
  152.5066  134.3989  159.9419 H   0  0  0  0  0  0  0  0  0  0  0  0  # atno 6908 bound_to 6896
  151.4012  133.3717  159.2767 H   0  0  0  0  0  0  0  0  0  0  0  0  # atno 6909 bound_to 6896
  145.6906  139.2551  143.1762 H   0  0  0  0  0  0  0  0  0  0  0  0  # atno 7974 bound_to 7965
  154.4458  140.1917  156.0672 H   0  0  0  0  0  0  0  0  0  0  0  0  # atno 8008 bound_to 7997
  156.0538  140.3305  155.7355 H   0  0  0  0  0  0  0  0  0  0  0  0  # atno 8009 bound_to 7997
  155.5516  140.0595  157.2839 H   0  0  0  0  0  0  0  0  0  0  0  0  # atno 8010 bound_to 7997
  139.5559  144.1992  152.1157 H   0  0  0  0  0  0  0  0  0  0  0  0  # atno 10167 bound_to 10162
  156.0206  130.5390  150.7015 H   0  0  0  0  0  0  0  0  0  0  0  0  # atno 10718 bound_to 10713
  153.6817  135.3313  155.3180 H   0  0  0  0  0  0  0  0  0  0  0  0  # atno 10763 bound_to 10752
  154.8464  135.4410  154.1599 H   0  0  0  0  0  0  0  0  0  0  0  0  # atno 10764 bound_to 10752
  153.2617  135.6992  153.7648 H   0  0  0  0  0  0  0  0  0  0  0  0  # atno 10765 bound_to 10752
  140.4301  134.1429  155.7680 H   0  0  0  0  0  0  0  0  0  0  0  0  # atno 11005 bound_to 11000
  146.0885  140.7683  142.9607 LP  0  0  0  0  0  0  0  0  0  0  0  0  # atno 17320 bound_to 7965
  144.6998  140.3600  143.7165 LP  0  0  0  0  0  0  0  0  0  0  0  0  # atno 17321 bound_to 7965
  140.1496  144.5127  150.6695 LP  0  0  0  0  0  0  0  0  0  0  0  0  # atno 17342 bound_to 10162
  140.6831  143.2336  151.5332 LP  0  0  0  0  0  0  0  0  0  0  0  0  # atno 17343 bound_to 10162
  157.4674  131.0889  151.0680 LP  0  0  0  0  0  0  0  0  0  0  0  0  # atno 17370 bound_to 10713
  157.1150  130.6038  149.5491 LP  0  0  0  0  0  0  0  0  0  0  0  0  # atno 17371 bound_to 10713
  141.1749  133.8534  157.1453 LP  0  0  0  0  0  0  0  0  0  0  0  0  # atno 17394 bound_to 11000
  140.0140  134.9975  157.0455 LP  0  0  0  0  0  0  0  0  0  0  0  0  # atno 17395 bound_to 11000

$$$$
