AV-unprocessed.smi:244|AV-procd|sdf|1867|dock3
  -GOLD-   2262020503D 1   1.00000     0.00000
 Structure written by MMmdl.
 57 61  0  0  0  0  0  0  0  0  2 V2000
  146.5475  138.3990  152.3675 C   0  0  0  0  0  0  0  0  0  0  0  0
  147.0507  137.2910  153.2069 N   0  3  2  0  0  0  0  0  0  0  0  0
  146.2556  136.0490  153.0437 C   0  0  0  0  0  0  0  0  0  0  0  0
  146.9066  134.8830  153.8030 C   0  0  0  0  0  0  0  0  0  0  0  0
  147.1103  135.2346  155.2931 C   0  0  1  0  0  0  0  0  0  0  0  0
  147.7481  134.1855  156.0246 O   0  0  0  0  0  0  0  0  0  0  0  0
  149.1230  133.9832  155.7030 C   0  0  0  0  0  0  0  0  0  0  0  0
  149.9065  135.2902  155.8902 C   0  0  0  0  0  0  0  0  0  0  0  0
  149.2911  136.3636  155.1185 N   0  0  0  0  0  0  0  0  0  0  0  0
  150.0518  137.4790  155.0891 C   0  0  0  0  0  0  0  0  0  0  0  0
  151.1784  137.4324  154.3372 N   0  0  0  0  0  0  0  0  0  0  0  0
  151.9659  138.5088  154.2511 C   0  0  0  0  0  0  0  0  0  0  0  0
  151.8091  139.7056  154.8209 N   0  0  0  0  0  0  0  0  0  0  0  0
  150.6716  139.7548  155.5722 C   0  0  0  0  0  0  0  0  0  0  0  0
  149.7420  138.6946  155.7611 C   0  0  0  0  0  0  0  0  0  0  0  0
  148.7052  139.1123  156.5861 N   0  0  0  0  0  0  0  0  0  0  0  0
  149.0105  140.3473  156.8781 C   0  0  0  0  0  0  0  0  0  0  0  0
  150.1686  140.8181  156.3009 N   0  0  0  0  0  0  0  0  0  0  0  0
  150.7374  142.1494  156.4457 C   0  0  0  0  0  0  0  0  0  0  0  0
  151.1943  142.4872  157.8870 C   0  0  0  0  0  0  0  0  0  0  0  0
  150.0491  142.4743  158.7217 O   0  0  0  0  0  0  0  0  0  0  0  0
  152.2120  141.4663  158.4422 C   0  0  0  0  0  0  0  0  0  0  0  0
  152.8220  141.9239  159.7792 C   0  0  0  0  0  0  0  0  0  0  0  0
  153.4010  143.2152  159.6378 O   0  0  0  0  0  0  0  0  0  0  0  0
  152.4438  144.2124  159.3028 C   0  0  0  0  0  0  0  0  0  0  0  0
  151.8152  143.8979  157.9337 C   0  0  0  0  0  0  0  0  0  0  0  0
  147.8800  136.5656  155.4609 C   0  0  1  0  0  0  0  0  0  0  0  0
  147.1821  137.6758  154.6344 C   0  0  0  0  0  0  0  0  0  0  0  0
  145.5383  138.6879  152.6639 H   0  0  0  0  0  0  0  0  0  0  0  0
  146.5262  138.1071  151.3170 H   0  0  0  0  0  0  0  0  0  0  0  0
  147.1949  139.2722  152.4550 H   0  0  0  0  0  0  0  0  0  0  0  0
  145.2380  136.2136  153.4017 H   0  0  0  0  0  0  0  0  0  0  0  0
  146.1824  135.7965  151.9851 H   0  0  0  0  0  0  0  0  0  0  0  0
  146.2903  133.9883  153.7126 H   0  0  0  0  0  0  0  0  0  0  0  0
  147.8565  134.6530  153.3215 H   0  0  0  0  0  0  0  0  0  0  0  0
  146.1221  135.3574  155.7381 H   0  0  0  0  0  0  0  0  0  0  0  0
  149.5248  133.2128  156.3613 H   0  0  0  0  0  0  0  0  0  0  0  0
  149.2332  133.6045  154.6872 H   0  0  0  0  0  0  0  0  0  0  0  0
  149.9219  135.5552  156.9480 H   0  0  0  0  0  0  0  0  0  0  0  0
  150.9427  135.1504  155.5791 H   0  0  0  0  0  0  0  0  0  0  0  0
  152.8467  138.3975  153.6357 H   0  0  0  0  0  0  0  0  0  0  0  0
  148.3897  140.9570  157.5189 H   0  0  0  0  0  0  0  0  0  0  0  0
  151.5810  142.2290  155.7587 H   0  0  0  0  0  0  0  0  0  0  0  0
  149.9996  142.8763  156.1023 H   0  0  0  0  0  0  0  0  0  0  0  0
  149.4527  141.8135  158.4040 H   0  0  0  0  0  0  0  0  0  0  0  0
  151.7512  140.4862  158.5694 H   0  0  0  0  0  0  0  0  0  0  0  0
  153.0184  141.3346  157.7196 H   0  0  0  0  0  0  0  0  0  0  0  0
  152.0714  141.9342  160.5708 H   0  0  0  0  0  0  0  0  0  0  0  0
  153.5978  141.2250  160.0916 H   0  0  0  0  0  0  0  0  0  0  0  0
  151.6823  144.2798  160.0812 H   0  0  0  0  0  0  0  0  0  0  0  0
  152.9447  145.1800  159.2684 H   0  0  0  0  0  0  0  0  0  0  0  0
  152.5944  143.9731  157.1741 H   0  0  0  0  0  0  0  0  0  0  0  0
  151.0699  144.6534  157.6812 H   0  0  0  0  0  0  0  0  0  0  0  0
  147.8386  136.8505  156.5133 H   0  0  0  0  0  0  0  0  0  0  0  0
  147.7163  138.6228  154.7201 H   0  0  0  0  0  0  0  0  0  0  0  0
  146.1865  137.8602  155.0415 H   0  0  0  0  0  0  0  0  0  0  0  0
  147.9837  137.0856  152.8775 H   0  0  0  0  0  0  0  0  0  0  0  0
  1  2  1  0  0  0  0
  1 29  1  0  0  0  0
  1 30  1  0  0  0  0
  1 31  1  0  0  0  0
  2 28  1  0  0  0  0
  2  3  1  0  0  0  0
  2 57  1  0  0  0  0
  3  4  1  0  0  0  0
  3 32  1  0  0  0  0
  3 33  1  0  0  0  0
  4  5  1  0  0  0  0
  4 34  1  0  0  0  0
  4 35  1  0  0  0  0
  5 27  1  0  0  0  0
  5  6  1  0  0  0  0
  5 36  1  0  0  0  0
  6  7  1  0  0  0  0
  7  8  1  0  0  0  0
  7 37  1  0  0  0  0
  7 38  1  0  0  0  0
  8  9  1  0  0  0  0
  8 39  1  0  0  0  0
  8 40  1  0  0  0  0
  9 10  1  0  0  0  0
  9 27  1  0  0  0  0
 10 15  1  0  0  0  0
 10 11  2  0  0  0  0
 11 12  1  0  0  0  0
 12 13  2  0  0  0  0
 12 41  1  0  0  0  0
 13 14  1  0  0  0  0
 14 18  1  0  0  0  0
 14 15  2  0  0  0  0
 15 16  1  0  0  0  0
 16 17  2  0  0  0  0
 17 18  1  0  0  0  0
 17 42  1  0  0  0  0
 18 19  1  0  0  0  0
 19 20  1  0  0  0  0
 19 43  1  0  0  0  0
 19 44  1  0  0  0  0
 20 26  1  0  0  0  0
 20 21  1  0  0  0  0
 20 22  1  0  0  0  0
 21 45  1  0  0  0  0
 22 23  1  0  0  0  0
 22 46  1  0  0  0  0
 22 47  1  0  0  0  0
 23 24  1  0  0  0  0
 23 48  1  0  0  0  0
 23 49  1  0  0  0  0
 24 25  1  0  0  0  0
 25 26  1  0  0  0  0
 25 50  1  0  0  0  0
 25 51  1  0  0  0  0
 26 52  1  0  0  0  0
 26 53  1  0  0  0  0
 27 28  1  0  0  0  0
 27 54  1  0  0  0  0
 28 55  1  0  0  0  0
 28 56  1  0  0  0  0
M  CHG  1   2   1
M  END
> <s_m_source_file>
AV-unprocessed.smi

> <i_m_source_file_index>
244

> <i_lp_mmshare_version>
43012

> <i_f3d_flags>
0

> <s_epik_input>
W0NIMl0xW0NIMl1OKFtDSDNdKVtDSDJdW0NAQEhdKFtDQEhdMTIpTihbQ0gyXVtDSDJdTzIpYyhuW2NIXW4zKWMoYzM0KW5bY0hdbjRbQ0gyXUM1KFtPSF0pW0NIMl1bQ0gyXU9bQ0gyXVtDSDJdNQ==

> <s_epik_cmdline>
J2VwaWtfcHl0aG9uJywgJy1waCcsICc3LjAnLCAnLXRuJywgJzgnLCAnLW1hJywgJzIwMCcsICctbWV0YWxfYmluZGluZycsICctaW1hZScsICc8aW5maWxlLm1hZT4nLCAnLW9tYWUnLCAnPG91dGZpbGUubWFlPic=

> <r_lp_tautomer_probability>
1

> <r_epik_Ionization_Penalty>
0.0136215

> <r_epik_Ionization_Penalty_Charging>
0.0131385

> <r_epik_Ionization_Penalty_Neutral>
0.000483022

> <r_epik_State_Penalty>
0.0104001

> <r_epik_Charging_Adjusted_Penalty>
0.0235387

> <i_epik_Tot_Q>
1

> <i_epik_Tot_abs_Q>
1

> <r_epik_Metal_State_Penalty>
0.0104469

> <b_epik_Metal_Only>
0

> <s_lp_Force_Field>
OPLS_2005

> <r_lp_Energy>
48.7962

> <b_lp_Chiralities_Consistent>
1

> <s_lp_Variant>
AV-unprocessed.smi:244-4

> <Gold.Version>
5.8.1

> <Gold.Id.Protein>
6NUR|6NUR_protein|mol2

> <Gold.PLP.Fitness>
45.8262

> <Gold.PLP.PLP>
-38.4022

> <Gold.PLP.part.hbond>
-2.1858

> <Gold.PLP.part.metal>
0.0000

> <Gold.PLP.part.buried>
-5.9767

> <Gold.PLP.part.nonpolar>
-31.5160

> <Gold.PLP.part.repulsive>
0.4035

> <Gold.PLP.ligand.clash>
0.7745

> <Gold.PLP.ligand.torsion>
0.4690

> <Gold.PLP.Chemscore.Hbond>
3.0000

> <Gold.PLP.Chemscore.CHOScore>
0.0000

> <Gold.PLP.Chemscore.Metal>
0.0000

> <Gold.Chemscore.Hbonds>
donor molecule, donor type, donor heavy atom, donor atom, acceptor molecule, acceptor atom, score
      L1  H     2    57       P1  7948  1.95
      P1  H  7989  7998       L1    13  1.00

> <Gold.PLP.Chemscore.Internal.Correction>
0.1366

> <Gold.Rescore>
     Score         DG    S(hbond)    S(metal)    S(lipo)     H(rot)  DE(clash)    DE(int)     intcor
     10.35     -15.58       1.61        0.00      86.22       2.09       0.03       5.20       ----

> <Gold.Chemscore.Fitness>
10.3540

> <Gold.Chemscore.DG>
-15.5803

> <Gold.Chemscore.ZeroCoef>
-5.4800

> <Gold.Chemscore.Hbond>
1.6064

> <Gold.Chemscore.Metal>
0.0000

> <Gold.Chemscore.Lipo>
86.2236

> <Gold.Chemscore.Internal_Hbond>
0.0000

> <Gold.Chemscore.DEClash>
0.0310

> <Gold.Chemscore.DEInternal>
5.1954

> <Gold.Chemscore.Rot>
2.0911

> <Gold.Chemscore.Internal.Correction>
   9.000000E+99

> <Gold.Chemscore.Hbonds>
donor molecule, donor type, donor heavy atom, donor atom, acceptor molecule, acceptor atom, score
      L1  H     2    57       P1  7948  0.93
      P1  H  7989  7998       L1    13  0.37

> <Gold.Chemscore.Hbond.Weighted>
-5.3653

> <Gold.Chemscore.Metal.Weighted>
-0.0000

> <Gold.Chemscore.Lipo.Weighted>
-10.0882

> <Gold.Chemscore.Internal_Hbond.Weighted>
0.0000

> <Gold.Chemscore.DEClash.Weighted>
0.0310

> <Gold.Chemscore.DEInternal.Weighted>
5.1954

> <Gold.Chemscore.Rot.Weighted>
5.3531

> <Gold.Chemscore.Internal.Correction.Weighted>
   9.000000E+99

> <Gold.Protein.RotatedTorsions>
[ 6907 6896 6895 6894 ] final  -54.10 input  -60.11 | X-H torsion
[ 7974 7965 7964 7962 ] final -123.32 input  175.53 | X-H torsion
[ 8008 7997 7996 7995 ] final   73.84 input   59.86 | X-H torsion
[ 10167 10162 10161 10158 ] final  -99.88 input  -65.29 | X-H torsion
[ 10718 10713 10712 10709 ] final  130.52 input   66.30 | X-H torsion
[ 10763 10752 10751 10750 ] final  -71.72 input  -60.55 | X-H torsion
[ 11005 11000 10999 10996 ] final -139.27 input  -57.11 | X-H torsion

> <Gold.Protein.ActiveResidues>
 VAL166  LYS551  ARG553  GLY616  TRP617  ASP618  TYR619  PRO620  LYS621  CYS622 
 ASP623  PHE694  ASN695  SER759  ASP760  ASP761  ALA762  ILE779  LEU786  VAL792 
 PHE793  MET794  SER795  GLU796  ALA797  LYS798  CYS799  TRP800  GLU811  SER814 

> <Gold.Protein.RotatedAtoms>
  150.8368  134.7644  159.6898 H   0  0  0  0  0  0  0  0  0  0  0  0  # atno 6907 bound_to 6896
  152.4463  134.5484  159.9869 H   0  0  0  0  0  0  0  0  0  0  0  0  # atno 6908 bound_to 6896
  151.5633  133.3362  159.3011 H   0  0  0  0  0  0  0  0  0  0  0  0  # atno 6909 bound_to 6896
  145.0199  140.7979  143.4387 H   0  0  0  0  0  0  0  0  0  0  0  0  # atno 7974 bound_to 7965
  155.7895  140.3479  155.5341 H   0  0  0  0  0  0  0  0  0  0  0  0  # atno 8008 bound_to 7997
  155.8648  140.0977  157.1610 H   0  0  0  0  0  0  0  0  0  0  0  0  # atno 8009 bound_to 7997
  154.4014  140.1351  156.3992 H   0  0  0  0  0  0  0  0  0  0  0  0  # atno 8010 bound_to 7997
  140.2578  143.3428  152.0654 H   0  0  0  0  0  0  0  0  0  0  0  0  # atno 10167 bound_to 10162
  157.5054  131.1095  150.9368 H   0  0  0  0  0  0  0  0  0  0  0  0  # atno 10718 bound_to 10713
  154.4358  135.5953  153.6097 H   0  0  0  0  0  0  0  0  0  0  0  0  # atno 10763 bound_to 10752
  152.9802  135.5986  154.3784 H   0  0  0  0  0  0  0  0  0  0  0  0  # atno 10764 bound_to 10752
  154.3627  135.2841  155.2289 H   0  0  0  0  0  0  0  0  0  0  0  0  # atno 10765 bound_to 10752
  140.8536  134.2255  157.4747 H   0  0  0  0  0  0  0  0  0  0  0  0  # atno 11005 bound_to 11000
  145.1909  139.2301  143.5243 LP  0  0  0  0  0  0  0  0  0  0  0  0  # atno 17320 bound_to 7965
  146.3484  140.1705  142.8589 LP  0  0  0  0  0  0  0  0  0  0  0  0  # atno 17321 bound_to 7965
  139.5026  144.6738  151.6178 LP  0  0  0  0  0  0  0  0  0  0  0  0  # atno 17342 bound_to 10162
  140.5990  143.9644  150.6373 LP  0  0  0  0  0  0  0  0  0  0  0  0  # atno 17343 bound_to 10162
  157.0025  130.5605  149.5313 LP  0  0  0  0  0  0  0  0  0  0  0  0  # atno 17370 bound_to 10713
  156.0255  130.5349  150.8395 LP  0  0  0  0  0  0  0  0  0  0  0  0  # atno 17371 bound_to 10713
  139.8704  134.9695  156.4670 LP  0  0  0  0  0  0  0  0  0  0  0  0  # atno 17394 bound_to 11000
  140.8762  133.7951  155.9417 LP  0  0  0  0  0  0  0  0  0  0  0  0  # atno 17395 bound_to 11000

$$$$
