AV-unprocessed.smi:2784|AV-procd|sdf|10737|dock4
  -GOLD-   2272015173D 1   1.00000     0.00000
 Structure written by MMmdl.
 31 32  0  0  0  0  0  0  0  0  1 V2000
  154.9328  140.6411  160.9548 C   0  0  0  0  0  0  0  0  0  0  0  0
  154.3363  141.7910  161.5322 O   0  0  0  0  0  0  0  0  0  0  0  0
  153.1085  142.1643  160.9214 C   0  0  1  0  0  0  0  0  0  0  0  0
  152.3876  143.2662  161.7096 C   0  0  0  0  0  0  0  0  0  0  0  0
  151.6442  144.0690  160.6482 C   0  0  0  0  0  0  0  0  0  0  0  0
  152.6114  144.0936  159.4659 C   0  0  0  0  0  0  0  0  0  0  0  0
  153.3727  142.7566  159.5178 C   0  0  2  0  0  0  0  0  0  0  0  0
  152.9007  141.8664  158.4599 N   0  0  0  0  0  0  0  0  0  0  0  0
  151.6169  141.6809  158.1188 C   0  0  0  0  0  0  0  0  0  0  0  0
  150.6972  142.2602  158.7055 O   0  0  0  0  0  0  0  0  0  0  0  0
  151.5191  140.7544  157.0926 N   0  0  0  0  0  0  0  0  0  0  0  0
  151.0091  141.1232  155.9579 C   0  0  0  0  0  0  0  0  0  0  0  0
  150.4699  142.3265  155.5098 N   0  0  0  0  0  0  0  0  0  0  0  0
  150.0617  142.1546  154.2168 C   0  0  0  0  0  0  0  0  0  0  0  0
  150.3296  140.9010  153.8634 C   0  0  0  0  0  0  0  0  0  0  0  0
  150.9096  140.2456  154.9080 O   0  0  0  0  0  0  0  0  0  0  0  0
  155.8719  140.4248  161.4639 H   0  0  0  0  0  0  0  0  0  0  0  0
  155.1537  140.8008  159.8987 H   0  0  0  0  0  0  0  0  0  0  0  0
  154.2921  139.7639  161.0498 H   0  0  0  0  0  0  0  0  0  0  0  0
  152.4498  141.2972  160.8356 H   0  0  0  0  0  0  0  0  0  0  0  0
  151.7234  142.8688  162.4773 H   0  0  0  0  0  0  0  0  0  0  0  0
  153.1178  143.9104  162.2016 H   0  0  0  0  0  0  0  0  0  0  0  0
  150.7284  143.5481  160.3658 H   0  0  0  0  0  0  0  0  0  0  0  0
  151.3714  145.0677  160.9894 H   0  0  0  0  0  0  0  0  0  0  0  0
  152.0997  144.2670  158.5183 H   0  0  0  0  0  0  0  0  0  0  0  0
  153.3184  144.9131  159.6014 H   0  0  0  0  0  0  0  0  0  0  0  0
  154.4364  142.9556  159.3724 H   0  0  0  0  0  0  0  0  0  0  0  0
  153.6038  141.3533  157.9480 H   0  0  0  0  0  0  0  0  0  0  0  0
  150.3743  143.1954  156.0162 H   0  0  0  0  0  0  0  0  0  0  0  0
  149.6097  142.9708  153.6730 H   0  0  0  0  0  0  0  0  0  0  0  0
  150.1750  140.3481  152.9486 H   0  0  0  0  0  0  0  0  0  0  0  0
  1  2  1  0  0  0  0
  1 17  1  0  0  0  0
  1 18  1  0  0  0  0
  1 19  1  0  0  0  0
  2  3  1  0  0  0  0
  3  7  1  0  0  0  0
  3  4  1  0  0  0  0
  3 20  1  0  0  0  0
  4  5  1  0  0  0  0
  4 21  1  0  0  0  0
  4 22  1  0  0  0  0
  5  6  1  0  0  0  0
  5 23  1  0  0  0  0
  5 24  1  0  0  0  0
  6  7  1  0  0  0  0
  6 25  1  0  0  0  0
  6 26  1  0  0  0  0
  7  8  1  0  0  0  0
  7 27  1  0  0  0  0
  8 28  1  0  0  0  0
  8  9  1  0  0  0  0
  9 11  1  0  0  0  0
  9 10  2  0  0  0  0
 11 12  2  0  0  0  0
 12 16  1  0  0  0  0
 12 13  1  0  0  0  0
 13 29  1  0  0  0  0
 13 14  1  0  0  0  0
 14 30  1  0  0  0  0
 14 15  2  0  0  0  0
 15 31  1  0  0  0  0
 15 16  1  0  0  0  0
M  END
> <s_m_source_file>
AV-unprocessed.smi

> <i_m_source_file_index>
2784

> <i_lp_mmshare_version>
43012

> <i_f3d_flags>
0

> <s_epik_input>
W0NIM11PW0NAQEhdMVtDSDJdW0NIMl1bQ0gyXVtDQEhdMVtOSF1DKD1PKVtOSF1jMm5bY0hdW2NIXW8y

> <s_epik_cmdline>
J2VwaWtfcHl0aG9uJywgJy1waCcsICc3LjAnLCAnLXRuJywgJzgnLCAnLW1hJywgJzIwMCcsICctbWV0YWxfYmluZGluZycsICctaW1hZScsICc8aW5maWxlLm1hZT4nLCAnLW9tYWUnLCAnPG91dGZpbGUubWFlPic=

> <r_lp_tautomer_probability>
0.107061

> <r_epik_Ionization_Penalty>
1.29244

> <r_epik_Ionization_Penalty_Charging>
1.29208

> <r_epik_Ionization_Penalty_Neutral>
0.000359742

> <r_epik_State_Penalty>
2.59896

> <r_epik_Charging_Adjusted_Penalty>
3.89105

> <i_epik_Tot_Q>
0

> <i_epik_Tot_abs_Q>
0

> <r_epik_Metal_State_Penalty>
3.62496

> <b_epik_Metal_Only>
0

> <s_lp_Force_Field>
OPLS_2005

> <r_lp_Energy>
42.837

> <b_lp_Chiralities_Consistent>
1

> <s_lp_Variant>
AV-unprocessed.smi:2784-12

> <Gold.Version>
5.8.1

> <Gold.Id.Protein>
6NUR|6NUR_protein|mol2

> <Gold.PLP.Fitness>
39.2757

> <Gold.PLP.PLP>
-34.7867

> <Gold.PLP.part.hbond>
-3.0000

> <Gold.PLP.part.metal>
0.0000

> <Gold.PLP.part.buried>
-1.1284

> <Gold.PLP.part.nonpolar>
-29.9762

> <Gold.PLP.part.repulsive>
0.2811

> <Gold.PLP.ligand.clash>
0.0000

> <Gold.PLP.ligand.torsion>
0.8497

> <Gold.PLP.Chemscore.Hbond>
0.5304

> <Gold.PLP.Chemscore.CHOScore>
1.5305

> <Gold.PLP.Chemscore.Metal>
0.0000

> <Gold.Chemscore.Hbonds>
donor molecule, donor type, donor heavy atom, donor atom, acceptor molecule, acceptor atom, score
      L1  H    13    29       P1  8028  0.36
      L1  C    14    30       P1  8028  0.27
      L1  C    15    31       P1  7957  0.65

> <Gold.PLP.Chemscore.Internal.Correction>
0.0059

> <Gold.Rescore>
     Score         DG    S(hbond)    S(metal)    S(lipo)     H(rot)  DE(clash)    DE(int)     intcor
     11.38     -14.90       0.92        0.00      83.16       1.32       0.03       3.50       ----

> <Gold.Chemscore.Fitness>
11.3782

> <Gold.Chemscore.DG>
-14.9009

> <Gold.Chemscore.ZeroCoef>
-5.4800

> <Gold.Chemscore.Hbond>
0.9219

> <Gold.Chemscore.Metal>
0.0000

> <Gold.Chemscore.Lipo>
83.1612

> <Gold.Chemscore.Internal_Hbond>
0.0000

> <Gold.Chemscore.DEClash>
0.0261

> <Gold.Chemscore.DEInternal>
3.4966

> <Gold.Chemscore.Rot>
1.3235

> <Gold.Chemscore.Internal.Correction>
   9.000000E+99

> <Gold.Chemscore.Hbonds>
donor molecule, donor type, donor heavy atom, donor atom, acceptor molecule, acceptor atom, score
      L1  H    13    29       P1  8028  0.36

> <Gold.Chemscore.Hbond.Weighted>
-3.0792

> <Gold.Chemscore.Metal.Weighted>
-0.0000

> <Gold.Chemscore.Lipo.Weighted>
-9.7299

> <Gold.Chemscore.Internal_Hbond.Weighted>
0.0000

> <Gold.Chemscore.DEClash.Weighted>
0.0261

> <Gold.Chemscore.DEInternal.Weighted>
3.4966

> <Gold.Chemscore.Rot.Weighted>
3.3882

> <Gold.Chemscore.Internal.Correction.Weighted>
   9.000000E+99

> <Gold.Protein.RotatedTorsions>
[ 6907 6896 6895 6894 ] final  -83.82 input  -60.11 | X-H torsion
[ 7974 7965 7964 7962 ] final   32.37 input  175.53 | X-H torsion
[ 8008 7997 7996 7995 ] final    1.20 input   59.86 | X-H torsion
[ 10167 10162 10161 10158 ] final  143.50 input  -65.29 | X-H torsion
[ 10718 10713 10712 10709 ] final  -31.50 input   66.30 | X-H torsion
[ 10763 10752 10751 10750 ] final  -46.09 input  -60.55 | X-H torsion
[ 11005 11000 10999 10996 ] final    9.19 input  -57.11 | X-H torsion

> <Gold.Protein.ActiveResidues>
 VAL166  LYS551  ARG553  GLY616  TRP617  ASP618  TYR619  PRO620  LYS621  CYS622 
 ASP623  PHE694  ASN695  SER759  ASP760  ASP761  ALA762  ILE779  LEU786  VAL792 
 PHE793  MET794  SER795  GLU796  ALA797  LYS798  CYS799  TRP800  GLU811  SER814 

> <Gold.Protein.RotatedAtoms>
  150.6882  134.3453  159.4885 H   0  0  0  0  0  0  0  0  0  0  0  0  # atno 6907 bound_to 6896
  152.1301  134.9138  160.0568 H   0  0  0  0  0  0  0  0  0  0  0  0  # atno 6908 bound_to 6896
  152.0312  133.3903  159.4335 H   0  0  0  0  0  0  0  0  0  0  0  0  # atno 6909 bound_to 6896
  146.1490  139.6534  142.9111 H   0  0  0  0  0  0  0  0  0  0  0  0  # atno 7974 bound_to 7965
  154.6770  140.2624  155.6948 H   0  0  0  0  0  0  0  0  0  0  0  0  # atno 8008 bound_to 7997
  156.2682  140.2818  156.1222 H   0  0  0  0  0  0  0  0  0  0  0  0  # atno 8009 bound_to 7997
  155.1086  140.0375  157.2708 H   0  0  0  0  0  0  0  0  0  0  0  0  # atno 8010 bound_to 7997
  139.4968  144.6036  151.6427 H   0  0  0  0  0  0  0  0  0  0  0  0  # atno 10167 bound_to 10162
  156.3865  130.4365  149.7428 H   0  0  0  0  0  0  0  0  0  0  0  0  # atno 10718 bound_to 10713
  154.0394  135.6646  153.4788 H   0  0  0  0  0  0  0  0  0  0  0  0  # atno 10763 bound_to 10752
  153.0508  135.5086  154.7857 H   0  0  0  0  0  0  0  0  0  0  0  0  # atno 10764 bound_to 10752
  154.6828  135.3048  154.9555 H   0  0  0  0  0  0  0  0  0  0  0  0  # atno 10765 bound_to 10752
  140.5285  134.0490  155.7866 H   0  0  0  0  0  0  0  0  0  0  0  0  # atno 11005 bound_to 11000
  145.4868  141.0438  143.2615 LP  0  0  0  0  0  0  0  0  0  0  0  0  # atno 17320 bound_to 7965
  144.7881  139.6384  143.7125 LP  0  0  0  0  0  0  0  0  0  0  0  0  # atno 17321 bound_to 7965
  140.5692  144.0138  150.6208 LP  0  0  0  0  0  0  0  0  0  0  0  0  # atno 17342 bound_to 10162
  140.3250  143.3113  152.0746 LP  0  0  0  0  0  0  0  0  0  0  0  0  # atno 17343 bound_to 10162
  156.4498  130.7901  151.2922 LP  0  0  0  0  0  0  0  0  0  0  0  0  # atno 17370 bound_to 10713
  157.7496  131.0099  150.3284 LP  0  0  0  0  0  0  0  0  0  0  0  0  # atno 17371 bound_to 10713
  141.1295  133.9327  157.2566 LP  0  0  0  0  0  0  0  0  0  0  0  0  # atno 17394 bound_to 11000
  139.9567  135.0164  156.9148 LP  0  0  0  0  0  0  0  0  0  0  0  0  # atno 17395 bound_to 11000

$$$$
