AV-unprocessed.smi:2450|AV-procd|sdf|9668|dock3
  -GOLD-   2272013303D 1   1.00000     0.00000
 Structure written by MMmdl.
 42 43  0  0  0  0  0  0  0  0  2 V2000
  152.2442  142.7431  160.2858 C   0  0  0  0  0  0  0  0  0  0  0  0
  151.2586  143.8716  159.9488 C   0  0  0  0  0  0  0  0  0  0  0  0
  151.5650  144.5870  158.6194 C   0  0  1  0  0  0  0  0  0  0  0  0
  153.0645  144.5348  158.2845 C   0  0  0  0  0  0  0  0  0  0  0  0
  150.7839  143.9932  157.5360 N   0  0  0  0  0  0  0  0  0  0  0  0
  150.7703  142.6928  157.2099 C   0  0  0  0  0  0  0  0  0  0  0  0
  151.4053  141.8320  157.8181 O   0  0  0  0  0  0  0  0  0  0  0  0
  149.9671  142.4667  156.1567 N   0  0  0  0  0  0  0  0  0  0  0  0
  149.6752  141.2334  155.5050 C   0  0  0  0  0  0  0  0  0  0  0  0
  150.5486  140.1156  155.5375 C   0  0  0  0  0  0  0  0  0  0  0  0
  150.1980  138.9342  154.8546 C   0  0  0  0  0  0  0  0  0  0  0  0
  148.9868  138.8890  154.1404 C   0  0  0  0  0  0  0  0  0  0  0  0
  148.1853  139.9740  154.1140 N   0  3  0  0  0  0  0  0  0  0  0  0
  148.4758  141.1336  154.7540 C   0  0  0  0  0  0  0  0  0  0  0  0
  147.5711  142.2055  154.6625 N   0  0  0  0  0  0  0  0  0  0  0  0
  147.3610  142.7423  153.3283 C   0  0  0  0  0  0  0  0  0  0  0  0
  146.0918  143.5927  153.4269 C   0  0  0  0  0  0  0  0  0  0  0  0
  145.3587  143.0665  154.6671 C   0  0  0  0  0  0  0  0  0  0  0  0
  146.2487  141.9428  155.2039 C   0  0  0  0  0  0  0  0  0  0  0  0
  151.9542  142.2400  161.2084 H   0  0  0  0  0  0  0  0  0  0  0  0
  153.2577  143.1206  160.4229 H   0  0  0  0  0  0  0  0  0  0  0  0
  152.2693  141.9943  159.4938 H   0  0  0  0  0  0  0  0  0  0  0  0
  150.2531  143.4515  159.9041 H   0  0  0  0  0  0  0  0  0  0  0  0
  151.2470  144.5954  160.7649 H   0  0  0  0  0  0  0  0  0  0  0  0
  151.2764  145.6341  158.7305 H   0  0  0  0  0  0  0  0  0  0  0  0
  153.6588  144.9856  159.0799 H   0  0  0  0  0  0  0  0  0  0  0  0
  153.2856  145.0786  157.3655 H   0  0  0  0  0  0  0  0  0  0  0  0
  153.4076  143.5079  158.1549 H   0  0  0  0  0  0  0  0  0  0  0  0
  150.2244  144.6276  156.9850 H   0  0  0  0  0  0  0  0  0  0  0  0
  149.4495  143.2651  155.8194 H   0  0  0  0  0  0  0  0  0  0  0  0
  151.4914  140.1430  156.0614 H   0  0  0  0  0  0  0  0  0  0  0  0
  150.8539  138.0760  154.8755 H   0  0  0  0  0  0  0  0  0  0  0  0
  148.6405  138.0271  153.5883 H   0  0  0  0  0  0  0  0  0  0  0  0
  148.2170  143.3354  153.0048 H   0  0  0  0  0  0  0  0  0  0  0  0
  147.2168  141.9374  152.6062 H   0  0  0  0  0  0  0  0  0  0  0  0
  146.3484  144.6437  153.5655 H   0  0  0  0  0  0  0  0  0  0  0  0
  145.4873  143.5154  152.5225 H   0  0  0  0  0  0  0  0  0  0  0  0
  145.2647  143.8619  155.4076 H   0  0  0  0  0  0  0  0  0  0  0  0
  144.3552  142.7078  154.4365 H   0  0  0  0  0  0  0  0  0  0  0  0
  145.8805  140.9750  154.8601 H   0  0  0  0  0  0  0  0  0  0  0  0
  146.2650  141.9293  156.2941 H   0  0  0  0  0  0  0  0  0  0  0  0
  147.3154  139.9178  153.5842 H   0  0  0  0  0  0  0  0  0  0  0  0
  1  2  1  0  0  0  0
  1 20  1  0  0  0  0
  1 21  1  0  0  0  0
  1 22  1  0  0  0  0
  2  3  1  0  0  0  0
  2 23  1  0  0  0  0
  2 24  1  0  0  0  0
  3  4  1  0  0  0  0
  3  5  1  0  0  0  0
  3 25  1  0  0  0  0
  4 26  1  0  0  0  0
  4 27  1  0  0  0  0
  4 28  1  0  0  0  0
  5  6  1  0  0  0  0
  5 29  1  0  0  0  0
  6  7  2  0  0  0  0
  6  8  1  0  0  0  0
  8  9  1  0  0  0  0
  8 30  1  0  0  0  0
  9 14  1  0  0  0  0
  9 10  2  0  0  0  0
 10 11  1  0  0  0  0
 10 31  1  0  0  0  0
 11 12  2  0  0  0  0
 11 32  1  0  0  0  0
 12 13  1  0  0  0  0
 12 33  1  0  0  0  0
 13 14  2  0  0  0  0
 13 42  1  0  0  0  0
 14 15  1  0  0  0  0
 15 19  1  0  0  0  0
 15 16  1  0  0  0  0
 16 17  1  0  0  0  0
 16 34  1  0  0  0  0
 16 35  1  0  0  0  0
 17 18  1  0  0  0  0
 17 36  1  0  0  0  0
 17 37  1  0  0  0  0
 18 19  1  0  0  0  0
 18 38  1  0  0  0  0
 18 39  1  0  0  0  0
 19 40  1  0  0  0  0
 19 41  1  0  0  0  0
M  CHG  1  13   1
M  END
> <s_m_source_file>
AV-unprocessed.smi

> <i_m_source_file_index>
2450

> <i_lp_mmshare_version>
43012

> <i_f3d_flags>
0

> <s_epik_input>
W0NIM11bQ0gyXVtDQEhdKFtDSDNdKVtOSF1DKD1PKVtOSF1jMVtjSF1bY0hdW2NIXW5jMU4yW0NIMl1bQ0gyXVtDSDJdW0NIMl0y

> <s_epik_cmdline>
J2VwaWtfcHl0aG9uJywgJy1waCcsICc3LjAnLCAnLXRuJywgJzgnLCAnLW1hJywgJzIwMCcsICctbWV0YWxfYmluZGluZycsICctaW1hZScsICc8aW5maWxlLm1hZT4nLCAnLW9tYWUnLCAnPG91dGZpbGUubWFlPic=

> <r_lp_tautomer_probability>
0.999994

> <r_epik_Ionization_Penalty>
1.08838

> <r_epik_Ionization_Penalty_Charging>
1.08836

> <r_epik_Ionization_Penalty_Neutral>
2.1796e-05

> <r_epik_State_Penalty>
1.14442

> <r_epik_Charging_Adjusted_Penalty>
2.23278

> <i_epik_Tot_Q>
1

> <i_epik_Tot_abs_Q>
1

> <r_epik_Metal_State_Penalty>
1.23344

> <b_epik_Metal_Only>
0

> <s_lp_Force_Field>
OPLS_2005

> <r_lp_Energy>
41.1125

> <b_lp_Chiralities_Consistent>
1

> <s_lp_Variant>
AV-unprocessed.smi:2450-4

> <Gold.Version>
5.8.1

> <Gold.Id.Protein>
6NUR|6NUR_protein|mol2

> <Gold.PLP.Fitness>
45.8314

> <Gold.PLP.PLP>
-41.3372

> <Gold.PLP.part.hbond>
-2.0000

> <Gold.PLP.part.metal>
0.0000

> <Gold.PLP.part.buried>
-4.8710

> <Gold.PLP.part.nonpolar>
-34.4758

> <Gold.PLP.part.repulsive>
0.3282

> <Gold.PLP.ligand.clash>
0.0000

> <Gold.PLP.ligand.torsion>
0.6192

> <Gold.PLP.Chemscore.Hbond>
1.8960

> <Gold.PLP.Chemscore.CHOScore>
0.0000

> <Gold.PLP.Chemscore.Metal>
0.0000

> <Gold.Chemscore.Hbonds>
donor molecule, donor type, donor heavy atom, donor atom, acceptor molecule, acceptor atom, score
      L1  H     5    29       P1  8028  0.91
      L1  H     8    30       P1  8028  1.00

> <Gold.PLP.Chemscore.Internal.Correction>
0.0447

> <Gold.Rescore>
     Score         DG    S(hbond)    S(metal)    S(lipo)     H(rot)  DE(clash)    DE(int)     intcor
     15.92     -19.95       1.90        0.00      98.81       1.34       0.35       3.68       ----

> <Gold.Chemscore.Fitness>
15.9154

> <Gold.Chemscore.DG>
-19.9470

> <Gold.Chemscore.ZeroCoef>
-5.4800

> <Gold.Chemscore.Hbond>
1.8967

> <Gold.Chemscore.Metal>
0.0000

> <Gold.Chemscore.Lipo>
98.8094

> <Gold.Chemscore.Internal_Hbond>
0.0000

> <Gold.Chemscore.DEClash>
0.3485

> <Gold.Chemscore.DEInternal>
3.6832

> <Gold.Chemscore.Rot>
1.3393

> <Gold.Chemscore.Internal.Correction>
   9.000000E+99

> <Gold.Chemscore.Hbonds>
donor molecule, donor type, donor heavy atom, donor atom, acceptor molecule, acceptor atom, score
      L1  H     5    29       P1  8028  0.54
      L1  H     8    30       P1  8028  0.97

> <Gold.Chemscore.Hbond.Weighted>
-6.3349

> <Gold.Chemscore.Metal.Weighted>
-0.0000

> <Gold.Chemscore.Lipo.Weighted>
-11.5607

> <Gold.Chemscore.Internal_Hbond.Weighted>
0.0000

> <Gold.Chemscore.DEClash.Weighted>
0.3485

> <Gold.Chemscore.DEInternal.Weighted>
3.6832

> <Gold.Chemscore.Rot.Weighted>
3.4285

> <Gold.Chemscore.Internal.Correction.Weighted>
   9.000000E+99

> <Gold.Protein.RotatedTorsions>
[ 6907 6896 6895 6894 ] final    6.64 input  -60.11 | X-H torsion
[ 7974 7965 7964 7962 ] final -170.95 input  175.53 | X-H torsion
[ 8008 7997 7996 7995 ] final   59.11 input   59.86 | X-H torsion
[ 10167 10162 10161 10158 ] final  -41.59 input  -65.29 | X-H torsion
[ 10718 10713 10712 10709 ] final -173.15 input   66.30 | X-H torsion
[ 10763 10752 10751 10750 ] final  131.18 input  -60.55 | X-H torsion
[ 11005 11000 10999 10996 ] final -179.45 input  -57.11 | X-H torsion

> <Gold.Protein.ActiveResidues>
 VAL166  LYS551  ARG553  GLY616  TRP617  ASP618  TYR619  PRO620  LYS621  CYS622 
 ASP623  PHE694  ASN695  SER759  ASP760  ASP761  ALA762  ILE779  LEU786  VAL792 
 PHE793  MET794  SER795  GLU796  ALA797  LYS798  CYS799  TRP800  GLU811  SER814 

> <Gold.Protein.RotatedAtoms>
  151.6769  135.0967  160.0208 H   0  0  0  0  0  0  0  0  0  0  0  0  # atno 6907 bound_to 6896
  152.3858  133.6605  159.6206 H   0  0  0  0  0  0  0  0  0  0  0  0  # atno 6908 bound_to 6896
  150.7784  133.8954  159.3367 H   0  0  0  0  0  0  0  0  0  0  0  0  # atno 6909 bound_to 6896
  144.7163  140.1996  143.6340 H   0  0  0  0  0  0  0  0  0  0  0  0  # atno 7974 bound_to 7965
  155.5609  140.3488  155.4491 H   0  0  0  0  0  0  0  0  0  0  0  0  # atno 8008 bound_to 7997
  156.0515  140.1319  157.0070 H   0  0  0  0  0  0  0  0  0  0  0  0  # atno 8009 bound_to 7997
  154.4436  140.1004  156.6368 H   0  0  0  0  0  0  0  0  0  0  0  0  # atno 8010 bound_to 7997
  140.6997  143.3085  151.3089 H   0  0  0  0  0  0  0  0  0  0  0  0  # atno 10167 bound_to 10162
  156.7661  130.9431  151.3119 H   0  0  0  0  0  0  0  0  0  0  0  0  # atno 10718 bound_to 10713
  153.7701  135.3183  155.3350 H   0  0  0  0  0  0  0  0  0  0  0  0  # atno 10763 bound_to 10752
  154.8199  135.4610  154.0752 H   0  0  0  0  0  0  0  0  0  0  0  0  # atno 10764 bound_to 10752
  153.2009  135.6922  153.8317 H   0  0  0  0  0  0  0  0  0  0  0  0  # atno 10765 bound_to 10752
  140.4185  134.6627  157.4652 H   0  0  0  0  0  0  0  0  0  0  0  0  # atno 11005 bound_to 11000
  145.8693  139.2263  143.1671 LP  0  0  0  0  0  0  0  0  0  0  0  0  # atno 17320 bound_to 7965
  146.0100  140.8444  142.9975 LP  0  0  0  0  0  0  0  0  0  0  0  0  # atno 17321 bound_to 7965
  139.6500  144.0380  152.2619 LP  0  0  0  0  0  0  0  0  0  0  0  0  # atno 17342 bound_to 10162
  139.9913  144.6359  150.7812 LP  0  0  0  0  0  0  0  0  0  0  0  0  # atno 17343 bound_to 10162
  157.6712  130.9053  150.0045 LP  0  0  0  0  0  0  0  0  0  0  0  0  # atno 17370 bound_to 10713
  156.1308  130.3643  149.9736 LP  0  0  0  0  0  0  0  0  0  0  0  0  # atno 17371 bound_to 10713
  140.0217  134.6538  155.9231 LP  0  0  0  0  0  0  0  0  0  0  0  0  # atno 17394 bound_to 11000
  141.1793  133.6544  156.4955 LP  0  0  0  0  0  0  0  0  0  0  0  0  # atno 17395 bound_to 11000

$$$$
