AV-unprocessed.smi:3313|AV-procd|sdf|12730|dock5
  -GOLD-   2272019 73D 1   1.00000     0.00000
 Structure written by MMmdl.
 43 43  0  0  0  0  0  0  0  0  2 V2000
  145.3217  136.2537  153.7643 C   0  0  0  0  0  0  0  0  0  0  0  0
  145.7594  134.9390  153.0974 C   0  0  1  0  0  0  0  0  0  0  0  0
  145.4259  134.9538  151.5928 C   0  0  0  0  0  0  0  0  0  0  0  0
  145.3370  133.6169  151.0326 N   0  0  0  0  0  0  0  0  0  0  0  0
  144.2572  133.0155  150.4210 C   0  0  0  0  0  0  0  0  0  0  0  0
  144.6437  131.7562  150.0617 C   0  0  0  0  0  0  0  0  0  0  0  0
  145.9952  131.6784  150.5002 C   0  0  0  0  0  0  0  0  0  0  0  0
  146.4066  132.7930  151.0835 N   0  0  0  0  0  0  0  0  0  0  0  0
  147.2075  134.7045  153.2972 N   0  3  0  0  0  0  0  0  0  0  0  0
  147.6701  134.7435  154.7020 C   0  0  0  0  0  0  0  0  0  0  0  0
  149.2008  134.5945  154.8072 C   0  0  0  0  0  0  0  0  0  0  0  0
  149.9364  135.8838  155.1943 C   0  0  0  0  0  0  0  0  0  0  0  0
  150.7969  135.8709  156.0750 O   0  0  0  0  0  0  0  0  0  0  0  0
  149.5721  136.9881  154.5187 N   0  0  0  0  0  0  0  0  0  0  0  0
  150.0773  138.3583  154.6681 C   0  0  0  0  0  0  0  0  0  0  0  0
  149.8899  138.7445  156.1460 C   0  0  0  0  0  0  0  0  0  0  0  0
  149.2710  139.3370  153.7882 C   0  0  0  0  0  0  0  0  0  0  0  0
  151.5793  138.4254  154.3194 C   0  0  0  0  0  0  0  0  0  0  0  0
  144.2607  136.4416  153.5973 H   0  0  0  0  0  0  0  0  0  0  0  0
  145.8749  137.1044  153.3642 H   0  0  0  0  0  0  0  0  0  0  0  0
  145.4763  136.2332  154.8428 H   0  0  0  0  0  0  0  0  0  0  0  0
  145.2076  134.1164  153.5554 H   0  0  0  0  0  0  0  0  0  0  0  0
  144.4676  135.4481  151.4265 H   0  0  0  0  0  0  0  0  0  0  0  0
  146.1694  135.5260  151.0350 H   0  0  0  0  0  0  0  0  0  0  0  0
  143.3144  133.5274  150.2940 H   0  0  0  0  0  0  0  0  0  0  0  0
  144.0522  131.0050  149.5596 H   0  0  0  0  0  0  0  0  0  0  0  0
  146.6841  130.8511  150.4133 H   0  0  0  0  0  0  0  0  0  0  0  0
  147.4177  133.7846  152.9353 H   0  0  0  0  0  0  0  0  0  0  0  0
  147.3537  135.6725  155.1766 H   0  0  0  0  0  0  0  0  0  0  0  0
  147.1922  133.9326  155.2529 H   0  0  0  0  0  0  0  0  0  0  0  0
  149.4392  133.8351  155.5526 H   0  0  0  0  0  0  0  0  0  0  0  0
  149.5961  134.2301  153.8576 H   0  0  0  0  0  0  0  0  0  0  0  0
  148.8569  136.8690  153.8156 H   0  0  0  0  0  0  0  0  0  0  0  0
  150.2475  139.7562  156.3408 H   0  0  0  0  0  0  0  0  0  0  0  0
  150.4384  138.0718  156.8067 H   0  0  0  0  0  0  0  0  0  0  0  0
  148.8394  138.7075  156.4376 H   0  0  0  0  0  0  0  0  0  0  0  0
  148.2031  139.2752  154.0014 H   0  0  0  0  0  0  0  0  0  0  0  0
  149.4071  139.1422  152.7243 H   0  0  0  0  0  0  0  0  0  0  0  0
  149.5801  140.3676  153.9646 H   0  0  0  0  0  0  0  0  0  0  0  0
  151.9833  139.4186  154.5178 H   0  0  0  0  0  0  0  0  0  0  0  0
  151.7677  138.2104  153.2677 H   0  0  0  0  0  0  0  0  0  0  0  0
  152.1568  137.7140  154.9107 H   0  0  0  0  0  0  0  0  0  0  0  0
  147.7257  135.3841  152.7582 H   0  0  0  0  0  0  0  0  0  0  0  0
  1  2  1  0  0  0  0
  1 19  1  0  0  0  0
  1 20  1  0  0  0  0
  1 21  1  0  0  0  0
  2  3  1  0  0  0  0
  2  9  1  0  0  0  0
  2 22  1  0  0  0  0
  3  4  1  0  0  0  0
  3 23  1  0  0  0  0
  3 24  1  0  0  0  0
  4  8  1  0  0  0  0
  4  5  1  0  0  0  0
  5  6  2  0  0  0  0
  5 25  1  0  0  0  0
  6  7  1  0  0  0  0
  6 26  1  0  0  0  0
  7  8  2  0  0  0  0
  7 27  1  0  0  0  0
  9 10  1  0  0  0  0
  9 28  1  0  0  0  0
  9 43  1  0  0  0  0
 10 11  1  0  0  0  0
 10 29  1  0  0  0  0
 10 30  1  0  0  0  0
 11 12  1  0  0  0  0
 11 31  1  0  0  0  0
 11 32  1  0  0  0  0
 12 13  2  0  0  0  0
 12 14  1  0  0  0  0
 14 15  1  0  0  0  0
 14 33  1  0  0  0  0
 15 16  1  0  0  0  0
 15 17  1  0  0  0  0
 15 18  1  0  0  0  0
 16 34  1  0  0  0  0
 16 35  1  0  0  0  0
 16 36  1  0  0  0  0
 17 37  1  0  0  0  0
 17 38  1  0  0  0  0
 17 39  1  0  0  0  0
 18 40  1  0  0  0  0
 18 41  1  0  0  0  0
 18 42  1  0  0  0  0
M  CHG  1   9   1
M  END
> <s_m_source_file>
AV-unprocessed.smi

> <i_m_source_file_index>
3313

> <i_lp_mmshare_version>
43012

> <i_f3d_flags>
0

> <s_epik_input>
bjFbY0hdW2NIXVtjSF1uMVtDSDJdW0NAQEhdKFtDSDNdKVtOSF1bQ0gyXVtDSDJdQyg9TylbTkhdQyhbQ0gzXSkoW0NIM10pW0NIM10=

> <s_epik_cmdline>
J2VwaWtfcHl0aG9uJywgJy1waCcsICc3LjAnLCAnLXRuJywgJzgnLCAnLW1hJywgJzIwMCcsICctbWV0YWxfYmluZGluZycsICctaW1hZScsICc8aW5maWxlLm1hZT4nLCAnLW9tYWUnLCAnPG91dGZpbGUubWFlPic=

> <r_lp_tautomer_probability>
1

> <r_epik_Ionization_Penalty>
0.0056766

> <r_epik_Ionization_Penalty_Charging>
0.00567288

> <r_epik_Ionization_Penalty_Neutral>
3.71277e-06

> <r_epik_State_Penalty>
0.0041598

> <r_epik_Charging_Adjusted_Penalty>
0.00983268

> <i_epik_Tot_Q>
1

> <i_epik_Tot_abs_Q>
1

> <r_epik_Metal_State_Penalty>
-0

> <b_epik_Metal_Only>
0

> <s_lp_Force_Field>
OPLS_2005

> <r_lp_Energy>
4.0528

> <b_lp_Chiralities_Consistent>
1

> <s_lp_Variant>
AV-unprocessed.smi:3313-2

> <Gold.Version>
5.8.1

> <Gold.Id.Protein>
6NUR|6NUR_protein|mol2

> <Gold.PLP.Fitness>
47.6815

> <Gold.PLP.PLP>
-31.9609

> <Gold.PLP.part.hbond>
-3.1014

> <Gold.PLP.part.metal>
0.0000

> <Gold.PLP.part.buried>
-4.6734

> <Gold.PLP.part.nonpolar>
-25.6924

> <Gold.PLP.part.repulsive>
0.3078

> <Gold.PLP.ligand.clash>
0.0000

> <Gold.PLP.ligand.torsion>
0.7295

> <Gold.PLP.Chemscore.Hbond>
3.6880

> <Gold.PLP.Chemscore.CHOScore>
2.0000

> <Gold.PLP.Chemscore.Metal>
0.0000

> <Gold.Chemscore.Hbonds>
donor molecule, donor type, donor heavy atom, donor atom, acceptor molecule, acceptor atom, score
      L1  H     9    43       P1  7948  2.00
      L1  H    14    33       P1  7948  0.58
      L1  C     5    25       P1 10186  0.87
      L1  C     7    27       P1 10747  1.00

> <Gold.PLP.Chemscore.Internal.Correction>
0.1156

> <Gold.Rescore>
     Score         DG    S(hbond)    S(metal)    S(lipo)     H(rot)  DE(clash)    DE(int)     intcor
     15.07     -16.97       2.42        0.00      77.24       2.20       0.05       1.85       ----

> <Gold.Chemscore.Fitness>
15.0711

> <Gold.Chemscore.DG>
-16.9653

> <Gold.Chemscore.ZeroCoef>
-5.4800

> <Gold.Chemscore.Hbond>
2.4213

> <Gold.Chemscore.Metal>
0.0000

> <Gold.Chemscore.Lipo>
77.2407

> <Gold.Chemscore.Internal_Hbond>
0.0000

> <Gold.Chemscore.DEClash>
0.0461

> <Gold.Chemscore.DEInternal>
1.8481

> <Gold.Chemscore.Rot>
2.2027

> <Gold.Chemscore.Internal.Correction>
   9.000000E+99

> <Gold.Chemscore.Hbonds>
donor molecule, donor type, donor heavy atom, donor atom, acceptor molecule, acceptor atom, score
      L1  H     9    43       P1  7948  1.00
      L1  H    14    33       P1  7948  0.57

> <Gold.Chemscore.Hbond.Weighted>
-8.0871

> <Gold.Chemscore.Metal.Weighted>
-0.0000

> <Gold.Chemscore.Lipo.Weighted>
-9.0372

> <Gold.Chemscore.Internal_Hbond.Weighted>
0.0000

> <Gold.Chemscore.DEClash.Weighted>
0.0461

> <Gold.Chemscore.DEInternal.Weighted>
1.8481

> <Gold.Chemscore.Rot.Weighted>
5.6390

> <Gold.Chemscore.Internal.Correction.Weighted>
   9.000000E+99

> <Gold.Protein.RotatedTorsions>
[ 6907 6896 6895 6894 ] final   62.69 input  -60.11 | X-H torsion
[ 7974 7965 7964 7962 ] final   18.69 input  175.53 | X-H torsion
[ 8008 7997 7996 7995 ] final  161.84 input   59.86 | X-H torsion
[ 10167 10162 10161 10158 ] final   17.00 input  -65.29 | X-H torsion
[ 10718 10713 10712 10709 ] final  104.53 input   66.30 | X-H torsion
[ 10763 10752 10751 10750 ] final  -43.60 input  -60.55 | X-H torsion
[ 11005 11000 10999 10996 ] final  -45.36 input  -57.11 | X-H torsion

> <Gold.Protein.ActiveResidues>
 VAL166  LYS551  ARG553  GLY616  TRP617  ASP618  TYR619  PRO620  LYS621  CYS622 
 ASP623  PHE694  ASN695  SER759  ASP760  ASP761  ALA762  ILE779  LEU786  VAL792 
 PHE793  MET794  SER795  GLU796  ALA797  LYS798  CYS799  TRP800  GLU811  SER814 

> <Gold.Protein.RotatedAtoms>
  152.4192  134.5985  159.9993 H   0  0  0  0  0  0  0  0  0  0  0  0  # atno 6907 bound_to 6896
  151.6140  133.3339  159.3081 H   0  0  0  0  0  0  0  0  0  0  0  0  # atno 6908 bound_to 6896
  150.8081  134.7257  159.6728 H   0  0  0  0  0  0  0  0  0  0  0  0  # atno 6909 bound_to 6896
  146.2176  139.8420  142.8639 H   0  0  0  0  0  0  0  0  0  0  0  0  # atno 7974 bound_to 7965
  156.2074  140.1766  156.7769 H   0  0  0  0  0  0  0  0  0  0  0  0  # atno 8008 bound_to 7997
  154.5674  140.0688  156.8943 H   0  0  0  0  0  0  0  0  0  0  0  0  # atno 8009 bound_to 7997
  155.2735  140.3344  155.4266 H   0  0  0  0  0  0  0  0  0  0  0  0  # atno 8010 bound_to 7997
  140.5757  143.9077  150.6748 H   0  0  0  0  0  0  0  0  0  0  0  0  # atno 10167 bound_to 10162
  157.6737  131.0806  150.5719 H   0  0  0  0  0  0  0  0  0  0  0  0  # atno 10718 bound_to 10713
  153.9983  135.6697  153.4757 H   0  0  0  0  0  0  0  0  0  0  0  0  # atno 10763 bound_to 10752
  153.0674  135.4993  154.8226 H   0  0  0  0  0  0  0  0  0  0  0  0  # atno 10764 bound_to 10752
  154.7068  135.3089  154.9221 H   0  0  0  0  0  0  0  0  0  0  0  0  # atno 10765 bound_to 10752
  141.0510  133.6743  156.3002 H   0  0  0  0  0  0  0  0  0  0  0  0  # atno 11005 bound_to 11000
  145.2889  141.0161  143.3674 LP  0  0  0  0  0  0  0  0  0  0  0  0  # atno 17320 bound_to 7965
  144.9093  139.4549  143.6595 LP  0  0  0  0  0  0  0  0  0  0  0  0  # atno 17321 bound_to 7965
  140.2564  143.3556  152.1361 LP  0  0  0  0  0  0  0  0  0  0  0  0  # atno 17342 bound_to 10162
  139.5141  144.6943  151.5673 LP  0  0  0  0  0  0  0  0  0  0  0  0  # atno 17343 bound_to 10162
  156.6021  130.4357  149.5893 LP  0  0  0  0  0  0  0  0  0  0  0  0  # atno 17370 bound_to 10713
  156.2498  130.6900  151.1634 LP  0  0  0  0  0  0  0  0  0  0  0  0  # atno 17371 bound_to 10713
  140.6055  134.5512  157.5525 LP  0  0  0  0  0  0  0  0  0  0  0  0  # atno 17394 bound_to 11000
  139.9351  134.7891  156.0826 LP  0  0  0  0  0  0  0  0  0  0  0  0  # atno 17395 bound_to 11000

$$$$
