AV-unprocessed.smi:2031|AV-procd|sdf|8230|dock2
  -GOLD-   2272010503D 1   1.00000     0.00000
 Structure written by MMmdl.
 41 42  0  0  0  0  0  0  0  0  3 V2000
  153.1173  142.2544  161.2890 C   0  0  0  0  0  0  0  0  0  0  0  0
  152.8785  141.4963  160.0287 C   0  0  0  0  0  0  0  0  0  0  0  0
  151.9946  141.6567  158.9991 C   0  0  0  0  0  0  0  0  0  0  0  0
  152.3173  140.5823  158.1278 C   0  0  0  0  0  0  0  0  0  0  0  0
  151.6044  140.3963  156.9137 N   0  0  0  0  0  0  0  0  0  0  0  0
  151.9697  139.7046  155.8188 C   0  0  0  0  0  0  0  0  0  0  0  0
  153.0608  139.1233  155.7829 O   0  0  0  0  0  0  0  0  0  0  0  0
  151.0212  139.7482  154.8427 N   0  5  0  0  0  0  0  0  0  0  0  0
  149.9235  138.7937  154.6967 C   0  0  0  0  0  0  0  0  0  0  0  0
  148.7779  139.4377  153.8928 C   0  0  0  0  0  0  0  0  0  0  0  0
  147.7092  138.4470  153.5767 N   0  3  0  0  0  0  0  0  0  0  0  0
  146.6638  138.9482  152.6438 C   0  0  0  0  0  0  0  0  0  0  0  0
  146.3611  137.8943  151.5649 C   0  0  0  0  0  0  0  0  0  0  0  0
  145.5017  136.7136  152.0417 C   0  0  0  0  0  0  0  0  0  0  0  0
  146.0620  135.9713  153.2662 C   0  0  0  0  0  0  0  0  0  0  0  0
  145.9811  136.8178  154.5467 C   0  0  0  0  0  0  0  0  0  0  0  0
  147.1774  137.7594  154.7903 C   0  0  0  0  0  0  0  0  0  0  0  0
  153.3088  139.8329  158.5867 N   0  0  0  0  0  0  0  0  0  0  0  0
  153.6734  140.4148  159.8065 O   0  0  0  0  0  0  0  0  0  0  0  0
  152.4137  143.0813  161.3865 H   0  0  0  0  0  0  0  0  0  0  0  0
  154.1270  142.6649  161.3067 H   0  0  0  0  0  0  0  0  0  0  0  0
  152.9995  141.6062  162.1575 H   0  0  0  0  0  0  0  0  0  0  0  0
  151.2398  142.4209  158.8877 H   0  0  0  0  0  0  0  0  0  0  0  0
  150.7045  140.8504  156.8640 H   0  0  0  0  0  0  0  0  0  0  0  0
  150.2519  137.8920  154.1791 H   0  0  0  0  0  0  0  0  0  0  0  0
  149.5279  138.4526  155.6543 H   0  0  0  0  0  0  0  0  0  0  0  0
  148.3582  140.2870  154.4347 H   0  0  0  0  0  0  0  0  0  0  0  0
  149.2093  139.8585  152.9842 H   0  0  0  0  0  0  0  0  0  0  0  0
  145.7653  139.2598  153.1782 H   0  0  0  0  0  0  0  0  0  0  0  0
  147.0117  139.8354  152.1152 H   0  0  0  0  0  0  0  0  0  0  0  0
  145.8385  138.3795  150.7397 H   0  0  0  0  0  0  0  0  0  0  0  0
  147.2972  137.5238  151.1440 H   0  0  0  0  0  0  0  0  0  0  0  0
  144.4910  137.0622  152.2575 H   0  0  0  0  0  0  0  0  0  0  0  0
  145.3996  136.0067  151.2174 H   0  0  0  0  0  0  0  0  0  0  0  0
  145.4635  135.0714  153.4131 H   0  0  0  0  0  0  0  0  0  0  0  0
  147.0818  135.6276  153.0869 H   0  0  0  0  0  0  0  0  0  0  0  0
  145.0516  137.3881  154.5497 H   0  0  0  0  0  0  0  0  0  0  0  0
  145.9048  136.1503  155.4057 H   0  0  0  0  0  0  0  0  0  0  0  0
  147.9877  137.1835  155.2387 H   0  0  0  0  0  0  0  0  0  0  0  0
  146.8843  138.5023  155.5334 H   0  0  0  0  0  0  0  0  0  0  0  0
  148.1872  137.7345  153.0438 H   0  0  0  0  0  0  0  0  0  0  0  0
  1  2  1  0  0  0  0
  1 20  1  0  0  0  0
  1 21  1  0  0  0  0
  1 22  1  0  0  0  0
  2 19  1  0  0  0  0
  2  3  2  0  0  0  0
  3  4  1  0  0  0  0
  3 23  1  0  0  0  0
  4  5  1  0  0  0  0
  4 18  2  0  0  0  0
  5  6  1  0  0  0  0
  5 24  1  0  0  0  0
  6  7  2  0  0  0  0
  6  8  1  0  0  0  0
  8  9  1  0  0  0  0
  9 10  1  0  0  0  0
  9 25  1  0  0  0  0
  9 26  1  0  0  0  0
 10 11  1  0  0  0  0
 10 27  1  0  0  0  0
 10 28  1  0  0  0  0
 11 17  1  0  0  0  0
 11 12  1  0  0  0  0
 11 41  1  0  0  0  0
 12 13  1  0  0  0  0
 12 29  1  0  0  0  0
 12 30  1  0  0  0  0
 13 14  1  0  0  0  0
 13 31  1  0  0  0  0
 13 32  1  0  0  0  0
 14 15  1  0  0  0  0
 14 33  1  0  0  0  0
 14 34  1  0  0  0  0
 15 16  1  0  0  0  0
 15 35  1  0  0  0  0
 15 36  1  0  0  0  0
 16 17  1  0  0  0  0
 16 37  1  0  0  0  0
 16 38  1  0  0  0  0
 17 39  1  0  0  0  0
 17 40  1  0  0  0  0
 18 19  1  0  0  0  0
M  CHG  1   8  -1
M  CHG  1  11   1
M  END
> <s_m_source_file>
AV-unprocessed.smi

> <i_m_source_file_index>
2031

> <i_lp_mmshare_version>
43012

> <i_f3d_flags>
0

> <s_epik_input>
W0NIM11jMVtjSF1jKG5vMSlbTkhdQyg9TylbTkhdW0NIMl1bQ0gyXU4yW0NIMl1bQ0gyXVtDSDJdW0NIMl1bQ0gyXVtDSDJdMg==

> <s_epik_cmdline>
J2VwaWtfcHl0aG9uJywgJy1waCcsICc3LjAnLCAnLXRuJywgJzgnLCAnLW1hJywgJzIwMCcsICctbWV0YWxfYmluZGluZycsICctaW1hZScsICc8aW5maWxlLm1hZT4nLCAnLW9tYWUnLCAnPG91dGZpbGUubWFlPic=

> <r_epik_Ionization_Penalty>
6.7666

> <r_epik_Ionization_Penalty_Charging>
6.7666

> <r_epik_Ionization_Penalty_Neutral>
5.77131e-06

> <r_epik_State_Penalty>
6.79217

> <r_epik_Charging_Adjusted_Penalty>
13.5588

> <i_epik_Tot_Q>
0

> <i_epik_Tot_abs_Q>
2

> <r_epik_Metal_State_Penalty>
2.72569

> <b_epik_Metal_Only>
1

> <s_lp_Force_Field>
OPLS_2005

> <r_lp_Energy>
19.0994

> <b_lp_Chiralities_Consistent>
1

> <s_lp_Variant>
AV-unprocessed.smi:2031-3

> <Gold.Version>
5.8.1

> <Gold.Id.Protein>
6NUR|6NUR_protein|mol2

> <Gold.PLP.Fitness>
42.3677

> <Gold.PLP.PLP>
-31.1924

> <Gold.PLP.part.hbond>
-4.0747

> <Gold.PLP.part.metal>
0.0000

> <Gold.PLP.part.buried>
1.9399

> <Gold.PLP.part.nonpolar>
-28.5652

> <Gold.PLP.part.repulsive>
0.2093

> <Gold.PLP.ligand.clash>
0.0000

> <Gold.PLP.ligand.torsion>
1.0335

> <Gold.PLP.Chemscore.Hbond>
4.3920

> <Gold.PLP.Chemscore.CHOScore>
0.0000

> <Gold.PLP.Chemscore.Metal>
0.0000

> <Gold.Chemscore.Hbonds>
donor molecule, donor type, donor heavy atom, donor atom, acceptor molecule, acceptor atom, score
      L1  H    11    41       P1  7948  1.92
      P1  H  7989  7998       L1     8  1.00
      P1  H  7997  8009       L1    18  0.50
      P1  H  7997  8010       L1     7  0.59

> <Gold.PLP.Chemscore.Internal.Correction>
0.0664

> <Gold.Rescore>
     Score         DG    S(hbond)    S(metal)    S(lipo)     H(rot)  DE(clash)    DE(int)     intcor
     16.08     -19.51       3.00        0.00      68.12       1.54       1.17       2.26       ----

> <Gold.Chemscore.Fitness>
16.0804

> <Gold.Chemscore.DG>
-19.5101

> <Gold.Chemscore.ZeroCoef>
-5.4800

> <Gold.Chemscore.Hbond>
2.9954

> <Gold.Chemscore.Metal>
0.0000

> <Gold.Chemscore.Lipo>
68.1203

> <Gold.Chemscore.Internal_Hbond>
0.0000

> <Gold.Chemscore.DEClash>
1.1672

> <Gold.Chemscore.DEInternal>
2.2625

> <Gold.Chemscore.Rot>
1.5409

> <Gold.Chemscore.Internal.Correction>
   9.000000E+99

> <Gold.Chemscore.Hbonds>
donor molecule, donor type, donor heavy atom, donor atom, acceptor molecule, acceptor atom, score
      L1  H    11    41       P1  7948  0.91
      P1  H  7989  7998       L1     8  0.65
      P1  H  7997  8009       L1    18  0.21
      P1  H  7997  8010       L1     7  0.56

> <Gold.Chemscore.Hbond.Weighted>
-10.0047

> <Gold.Chemscore.Metal.Weighted>
-0.0000

> <Gold.Chemscore.Lipo.Weighted>
-7.9701

> <Gold.Chemscore.Internal_Hbond.Weighted>
0.0000

> <Gold.Chemscore.DEClash.Weighted>
1.1672

> <Gold.Chemscore.DEInternal.Weighted>
2.2625

> <Gold.Chemscore.Rot.Weighted>
3.9446

> <Gold.Chemscore.Internal.Correction.Weighted>
   9.000000E+99

> <Gold.Protein.RotatedTorsions>
[ 6907 6896 6895 6894 ] final   47.79 input  -60.11 | X-H torsion
[ 7974 7965 7964 7962 ] final  150.98 input  175.53 | X-H torsion
[ 8008 7997 7996 7995 ] final  122.23 input   59.86 | X-H torsion
[ 10167 10162 10161 10158 ] final  174.55 input  -65.29 | X-H torsion
[ 10718 10713 10712 10709 ] final  122.86 input   66.30 | X-H torsion
[ 10763 10752 10751 10750 ] final   45.56 input  -60.55 | X-H torsion
[ 11005 11000 10999 10996 ] final  -54.06 input  -57.11 | X-H torsion

> <Gold.Protein.ActiveResidues>
 VAL166  LYS551  ARG553  GLY616  TRP617  ASP618  TYR619  PRO620  LYS621  CYS622 
 ASP623  PHE694  ASN695  SER759  ASP760  ASP761  ALA762  ILE779  LEU786  VAL792 
 PHE793  MET794  SER795  GLU796  ALA797  LYS798  CYS799  TRP800  GLU811  SER814 

> <Gold.Protein.RotatedAtoms>
  152.2721  134.7921  160.0412 H   0  0  0  0  0  0  0  0  0  0  0  0  # atno 6907 bound_to 6896
  151.8530  133.3438  159.3687 H   0  0  0  0  0  0  0  0  0  0  0  0  # atno 6908 bound_to 6896
  150.7156  134.5208  159.5697 H   0  0  0  0  0  0  0  0  0  0  0  0  # atno 6909 bound_to 6896
  144.8325  139.6479  143.6052 H   0  0  0  0  0  0  0  0  0  0  0  0  # atno 7974 bound_to 7965
  156.2719  140.2790  156.1435 H   0  0  0  0  0  0  0  0  0  0  0  0  # atno 8008 bound_to 7997
  155.0928  140.0389  157.2691 H   0  0  0  0  0  0  0  0  0  0  0  0  # atno 8009 bound_to 7997
  154.6876  140.2622  155.6851 H   0  0  0  0  0  0  0  0  0  0  0  0  # atno 8010 bound_to 7997
  139.5146  144.3133  152.0271 H   0  0  0  0  0  0  0  0  0  0  0  0  # atno 10167 bound_to 10162
  157.5710  131.1083  150.8367 H   0  0  0  0  0  0  0  0  0  0  0  0  # atno 10718 bound_to 10713
  152.9823  135.6035  154.3457 H   0  0  0  0  0  0  0  0  0  0  0  0  # atno 10763 bound_to 10752
  154.3150  135.2770  155.2549 H   0  0  0  0  0  0  0  0  0  0  0  0  # atno 10764 bound_to 10752
  154.4742  135.5934  153.6399 H   0  0  0  0  0  0  0  0  0  0  0  0  # atno 10765 bound_to 10752
  141.1007  133.6618  156.4265 H   0  0  0  0  0  0  0  0  0  0  0  0  # atno 11005 bound_to 11000
  146.2626  139.6446  142.9351 LP  0  0  0  0  0  0  0  0  0  0  0  0  # atno 17320 bound_to 7965
  145.4866  141.0438  143.2616 LP  0  0  0  0  0  0  0  0  0  0  0  0  # atno 17321 bound_to 7965
  140.2577  144.4101  150.6197 LP  0  0  0  0  0  0  0  0  0  0  0  0  # atno 17342 bound_to 10162
  140.6179  143.2174  151.6753 LP  0  0  0  0  0  0  0  0  0  0  0  0  # atno 17343 bound_to 10162
  156.8838  130.5189  149.5289 LP  0  0  0  0  0  0  0  0  0  0  0  0  # atno 17370 bound_to 10713
  156.0755  130.5778  150.9466 LP  0  0  0  0  0  0  0  0  0  0  0  0  # atno 17371 bound_to 10713
  140.5029  134.6469  157.5255 LP  0  0  0  0  0  0  0  0  0  0  0  0  # atno 17394 bound_to 11000
  139.9858  134.7064  155.9777 LP  0  0  0  0  0  0  0  0  0  0  0  0  # atno 17395 bound_to 11000

$$$$
