AV-unprocessed.smi:3189|AV-procd|sdf|12194|dock2
  -GOLD-   2272018 33D 1   1.00000     0.00000
 Structure written by MMmdl.
 31 32  0  0  0  0  0  0  0  0  2 V2000
  146.9263  139.3210  152.9024 C   0  0  0  0  0  0  0  0  0  0  0  0
  148.2312  139.5311  153.6462 C   0  0  0  0  0  0  0  0  0  0  0  0
  149.1224  138.5151  153.6519 N   0  3  0  0  0  0  0  0  0  0  0  0
  150.3113  138.5831  154.2862 C   0  0  0  0  0  0  0  0  0  0  0  0
  150.6726  139.7556  154.9777 C   0  0  0  0  0  0  0  0  0  0  0  0
  149.7823  140.8591  154.9894 C   0  0  0  0  0  0  0  0  0  0  0  0
  150.0586  142.0744  155.6746 N   0  0  0  0  0  0  0  0  0  0  0  0
  150.9476  142.3072  156.6599 C   0  0  0  0  0  0  0  0  0  0  0  0
  151.6888  141.4565  157.1474 O   0  0  0  0  0  0  0  0  0  0  0  0
  151.0150  143.5939  157.0444 N   0  0  0  0  0  0  0  0  0  0  0  0
  151.8545  144.1564  158.0584 C   0  0  1  0  0  0  0  0  0  0  0  0
  151.1989  145.1182  159.0244 C   0  0  0  0  0  0  0  0  0  0  0  0
  151.6190  143.7510  159.4979 C   0  0  2  0  0  0  0  0  0  0  0  0
  152.7790  143.6033  160.4587 C   0  0  0  0  0  0  0  0  0  0  0  0
  148.5378  140.7347  154.3237 C   0  0  0  0  0  0  0  0  0  0  0  0
  147.4021  142.0426  154.3309 Cl  0  0  0  0  0  0  0  0  0  0  0  0
  146.8235  140.0545  152.1021 H   0  0  0  0  0  0  0  0  0  0  0  0
  146.0809  139.4306  153.5825 H   0  0  0  0  0  0  0  0  0  0  0  0
  146.8759  138.3261  152.4584 H   0  0  0  0  0  0  0  0  0  0  0  0
  150.9320  137.7009  154.2270 H   0  0  0  0  0  0  0  0  0  0  0  0
  151.6195  139.7812  155.4952 H   0  0  0  0  0  0  0  0  0  0  0  0
  149.5875  142.8903  155.3110 H   0  0  0  0  0  0  0  0  0  0  0  0
  150.4696  144.2548  156.5098 H   0  0  0  0  0  0  0  0  0  0  0  0
  152.8733  144.4188  157.7757 H   0  0  0  0  0  0  0  0  0  0  0  0
  151.7857  145.9728  159.3552 H   0  0  0  0  0  0  0  0  0  0  0  0
  150.1316  145.3034  158.9172 H   0  0  0  0  0  0  0  0  0  0  0  0
  150.8153  143.0374  159.6712 H   0  0  0  0  0  0  0  0  0  0  0  0
  153.5485  144.3490  160.2558 H   0  0  0  0  0  0  0  0  0  0  0  0
  153.2218  142.6120  160.3599 H   0  0  0  0  0  0  0  0  0  0  0  0
  152.4340  143.7305  161.4850 H   0  0  0  0  0  0  0  0  0  0  0  0
  148.8828  137.6547  153.1584 H   0  0  0  0  0  0  0  0  0  0  0  0
  1  2  1  0  0  0  0
  1 17  1  0  0  0  0
  1 18  1  0  0  0  0
  1 19  1  0  0  0  0
  2 15  1  0  0  0  0
  2  3  2  0  0  0  0
  3  4  1  0  0  0  0
  3 31  1  0  0  0  0
  4  5  2  0  0  0  0
  4 20  1  0  0  0  0
  5  6  1  0  0  0  0
  5 21  1  0  0  0  0
  6  7  1  0  0  0  0
  6 15  2  0  0  0  0
  7  8  1  0  0  0  0
  7 22  1  0  0  0  0
  8  9  2  0  0  0  0
  8 10  1  0  0  0  0
 10 11  1  0  0  0  0
 10 23  1  0  0  0  0
 11 13  1  0  0  0  0
 11 12  1  0  0  0  0
 11 24  1  0  0  0  0
 12 13  1  0  0  0  0
 12 25  1  0  0  0  0
 12 26  1  0  0  0  0
 13 14  1  0  0  0  0
 13 27  1  0  0  0  0
 14 28  1  0  0  0  0
 14 29  1  0  0  0  0
 14 30  1  0  0  0  0
 15 16  1  0  0  0  0
M  CHG  1   3   1
M  END
> <s_m_source_file>
AV-unprocessed.smi

> <i_m_source_file_index>
3189

> <i_lp_mmshare_version>
43012

> <i_f3d_flags>
0

> <s_epik_input>
W0NIM11jMW5bY0hdW2NIXWMoYzFDbClbTkhdQyg9TylbTkhdW0NAQEhdMltDSDJdW0NASF0yW0NIM10=

> <s_epik_cmdline>
J2VwaWtfcHl0aG9uJywgJy1waCcsICc3LjAnLCAnLXRuJywgJzgnLCAnLW1hJywgJzIwMCcsICctbWV0YWxfYmluZGluZycsICctaW1hZScsICc8aW5maWxlLm1hZT4nLCAnLW9tYWUnLCAnPG91dGZpbGUubWFlPic=

> <r_epik_Ionization_Penalty>
2.42914

> <r_epik_Ionization_Penalty_Charging>
2.42912

> <r_epik_Ionization_Penalty_Neutral>
2.15137e-05

> <r_epik_State_Penalty>
2.58904

> <r_epik_Charging_Adjusted_Penalty>
5.01816

> <i_epik_Tot_Q>
1

> <i_epik_Tot_abs_Q>
1

> <r_epik_Metal_State_Penalty>
2.59882

> <b_epik_Metal_Only>
0

> <s_lp_Force_Field>
OPLS_2005

> <r_lp_Energy>
37.5643

> <b_lp_Chiralities_Consistent>
1

> <s_lp_Variant>
AV-unprocessed.smi:3189-8

> <Gold.Version>
5.8.1

> <Gold.Id.Protein>
6NUR|6NUR_protein|mol2

> <Gold.PLP.Fitness>
51.7196

> <Gold.PLP.PLP>
-40.0923

> <Gold.PLP.part.hbond>
-4.0000

> <Gold.PLP.part.metal>
0.0000

> <Gold.PLP.part.buried>
0.1033

> <Gold.PLP.part.nonpolar>
-35.5109

> <Gold.PLP.part.repulsive>
0.2385

> <Gold.PLP.ligand.clash>
0.0000

> <Gold.PLP.ligand.torsion>
0.1920

> <Gold.PLP.Chemscore.Hbond>
3.9920

> <Gold.PLP.Chemscore.CHOScore>
0.0000

> <Gold.PLP.Chemscore.Metal>
0.0000

> <Gold.Chemscore.Hbonds>
donor molecule, donor type, donor heavy atom, donor atom, acceptor molecule, acceptor atom, score
      L1  H     3    31       P1  7948  2.00
      L1  H     7    22       P1  8028  0.96
      L1  H    10    23       P1  8028  1.00

> <Gold.PLP.Chemscore.Internal.Correction>
0.0354

> <Gold.Rescore>
     Score         DG    S(hbond)    S(metal)    S(lipo)     H(rot)  DE(clash)    DE(int)     intcor
     21.93     -23.59       2.83        0.00      95.82       1.00       0.26       1.40       ----

> <Gold.Chemscore.Fitness>
21.9250

> <Gold.Chemscore.DG>
-23.5915

> <Gold.Chemscore.ZeroCoef>
-5.4800

> <Gold.Chemscore.Hbond>
2.8327

> <Gold.Chemscore.Metal>
0.0000

> <Gold.Chemscore.Lipo>
95.8151

> <Gold.Chemscore.Internal_Hbond>
0.0000

> <Gold.Chemscore.DEClash>
0.2615

> <Gold.Chemscore.DEInternal>
1.4049

> <Gold.Chemscore.Rot>
1.0000

> <Gold.Chemscore.Internal.Correction>
   9.000000E+99

> <Gold.Chemscore.Hbonds>
donor molecule, donor type, donor heavy atom, donor atom, acceptor molecule, acceptor atom, score
      L1  H     3    31       P1  7948  0.99
      L1  H     7    22       P1  8028  0.90
      L1  H    10    23       P1  8028  0.96

> <Gold.Chemscore.Hbond.Weighted>
-9.4611

> <Gold.Chemscore.Metal.Weighted>
-0.0000

> <Gold.Chemscore.Lipo.Weighted>
-11.2104

> <Gold.Chemscore.Internal_Hbond.Weighted>
0.0000

> <Gold.Chemscore.DEClash.Weighted>
0.2615

> <Gold.Chemscore.DEInternal.Weighted>
1.4049

> <Gold.Chemscore.Rot.Weighted>
2.5600

> <Gold.Chemscore.Internal.Correction.Weighted>
   9.000000E+99

> <Gold.Protein.RotatedTorsions>
[ 6907 6896 6895 6894 ] final  -39.52 input  -60.11 | X-H torsion
[ 7974 7965 7964 7962 ] final -121.25 input  175.53 | X-H torsion
[ 8008 7997 7996 7995 ] final -160.15 input   59.86 | X-H torsion
[ 10167 10162 10161 10158 ] final  126.68 input  -65.29 | X-H torsion
[ 10718 10713 10712 10709 ] final  -29.49 input   66.30 | X-H torsion
[ 10763 10752 10751 10750 ] final  179.00 input  -60.55 | X-H torsion
[ 11005 11000 10999 10996 ] final  175.04 input  -57.11 | X-H torsion

> <Gold.Protein.ActiveResidues>
 VAL166  LYS551  ARG553  GLY616  TRP617  ASP618  TYR619  PRO620  LYS621  CYS622 
 ASP623  PHE694  ASN695  SER759  ASP760  ASP761  ALA762  ILE779  LEU786  VAL792 
 PHE793  MET794  SER795  GLU796  ALA797  LYS798  CYS799  TRP800  GLU811  SER814 

> <Gold.Protein.RotatedAtoms>
  150.9894  134.9232  159.7890 H   0  0  0  0  0  0  0  0  0  0  0  0  # atno 6907 bound_to 6896
  152.5246  134.3302  159.9190 H   0  0  0  0  0  0  0  0  0  0  0  0  # atno 6908 bound_to 6896
  151.3308  133.3960  159.2697 H   0  0  0  0  0  0  0  0  0  0  0  0  # atno 6909 bound_to 6896
  145.0424  140.8155  143.4258 H   0  0  0  0  0  0  0  0  0  0  0  0  # atno 7974 bound_to 7965
  155.7732  140.0855  157.2097 H   0  0  0  0  0  0  0  0  0  0  0  0  # atno 8008 bound_to 7997
  154.3995  140.1521  156.3024 H   0  0  0  0  0  0  0  0  0  0  0  0  # atno 8009 bound_to 7997
  155.8726  140.3424  155.5834 H   0  0  0  0  0  0  0  0  0  0  0  0  # atno 8010 bound_to 7997
  139.5618  144.6886  151.4022 H   0  0  0  0  0  0  0  0  0  0  0  0  # atno 10167 bound_to 10162
  156.4117  130.4409  149.7247 H   0  0  0  0  0  0  0  0  0  0  0  0  # atno 10718 bound_to 10713
  154.5150  135.2790  155.1311 H   0  0  0  0  0  0  0  0  0  0  0  0  # atno 10763 bound_to 10752
  154.2891  135.6270  153.5382 H   0  0  0  0  0  0  0  0  0  0  0  0  # atno 10764 bound_to 10752
  152.9926  135.5670  154.5624 H   0  0  0  0  0  0  0  0  0  0  0  0  # atno 10765 bound_to 10752
  140.3579  134.7139  157.4311 H   0  0  0  0  0  0  0  0  0  0  0  0  # atno 11005 bound_to 11000
  145.1631  139.2447  143.5381 LP  0  0  0  0  0  0  0  0  0  0  0  0  # atno 17320 bound_to 7965
  146.3510  140.1363  142.8595 LP  0  0  0  0  0  0  0  0  0  0  0  0  # atno 17321 bound_to 7965
  140.6898  143.7888  150.7239 LP  0  0  0  0  0  0  0  0  0  0  0  0  # atno 17342 bound_to 10162
  140.1367  143.4478  152.2220 LP  0  0  0  0  0  0  0  0  0  0  0  0  # atno 17343 bound_to 10162
  156.4223  130.7775  151.2792 LP  0  0  0  0  0  0  0  0  0  0  0  0  # atno 17370 bound_to 10713
  157.7507  131.0179  150.3604 LP  0  0  0  0  0  0  0  0  0  0  0  0  # atno 17371 bound_to 10713
  140.0650  134.5942  155.8705 LP  0  0  0  0  0  0  0  0  0  0  0  0  # atno 17394 bound_to 11000
  141.1993  133.6606  156.5836 LP  0  0  0  0  0  0  0  0  0  0  0  0  # atno 17395 bound_to 11000

$$$$
