AV-unprocessed.smi:290|AV-procd|sdf|2224|dock10
  -GOLD-   2262022 73D 1   1.00000     0.00000
 Structure written by MMmdl.
 59 62  0  0  0  0  0  0  0  0  2 V2000
  152.1624  144.6926  159.3567 C   0  0  0  0  0  0  0  0  0  0  0  0
  152.6668  143.3217  158.8803 C   0  0  1  0  0  0  0  0  0  0  0  0
  153.2254  142.5726  159.9584 O   0  0  0  0  0  0  0  0  0  0  0  0
  152.7539  141.2306  159.9291 C   0  0  0  0  0  0  0  0  0  0  0  0
  152.1954  141.0300  158.5242 C   0  0  0  0  0  0  0  0  0  0  0  0
  151.6282  142.4039  158.1950 C   0  0  1  0  0  0  0  0  0  0  0  0
  150.3647  142.5302  158.8265 O   0  0  0  0  0  0  0  0  0  0  0  0
  151.3829  142.6691  156.6866 C   0  0  0  0  0  0  0  0  0  0  0  0
  150.4622  141.7462  156.0407 N   0  0  0  0  0  0  0  0  0  0  0  0
  149.1371  141.9728  155.7387 C   0  0  0  0  0  0  0  0  0  0  0  0
  148.5209  140.9834  155.1503 N   0  0  0  0  0  0  0  0  0  0  0  0
  149.5011  140.0084  155.0227 C   0  0  0  0  0  0  0  0  0  0  0  0
  149.5229  138.6996  154.4763 C   0  0  0  0  0  0  0  0  0  0  0  0
  148.4183  138.1424  153.9322 N   0  0  0  0  0  0  0  0  0  0  0  0
  147.4798  139.1019  153.3712 C   0  0  0  0  0  0  0  0  0  0  0  0
  146.1698  138.3334  153.1561 C   0  0  0  0  0  0  0  0  0  0  0  0
  146.2986  137.0677  154.0313 C   0  0  1  0  0  0  0  0  0  0  0  0
  146.1972  135.7730  153.2871 N   0  3  2  0  0  0  0  0  0  0  0  0
  145.3173  135.7857  152.0899 C   0  0  0  0  0  0  0  0  0  0  0  0
  145.9303  134.6037  154.1630 C   0  0  0  0  0  0  0  0  0  0  0  0
  144.6616  134.7921  155.0115 C   0  0  0  0  0  0  0  0  0  0  0  0
  144.4695  133.6693  155.8457 O   0  0  0  0  0  0  0  0  0  0  0  0
  147.6304  137.2614  154.7836 C   0  0  1  0  0  0  0  0  0  0  0  0
  148.3700  135.9861  155.2357 C   0  0  0  0  0  0  0  0  0  0  0  0
  150.6944  138.0116  154.5151 N   0  0  0  0  0  0  0  0  0  0  0  0
  151.7793  138.5741  155.0570 C   0  0  0  0  0  0  0  0  0  0  0  0
  151.9069  139.7853  155.6039 N   0  0  0  0  0  0  0  0  0  0  0  0
  150.7299  140.4737  155.5667 C   0  0  0  0  0  0  0  0  0  0  0  0
  145.5113  137.0801  154.7848 H   0  0  0  0  0  0  0  0  0  0  0  0
  147.3901  137.8226  155.6887 H   0  0  0  0  0  0  0  0  0  0  0  0
  151.7319  145.2593  158.5309 H   0  0  0  0  0  0  0  0  0  0  0  0
  152.9811  145.2812  159.7706 H   0  0  0  0  0  0  0  0  0  0  0  0
  151.4036  144.5965  160.1333 H   0  0  0  0  0  0  0  0  0  0  0  0
  153.5049  143.4863  158.2047 H   0  0  0  0  0  0  0  0  0  0  0  0
  153.5475  140.5230  160.1701 H   0  0  0  0  0  0  0  0  0  0  0  0
  151.9645  141.1205  160.6735 H   0  0  0  0  0  0  0  0  0  0  0  0
  153.0193  140.7779  157.8579 H   0  0  0  0  0  0  0  0  0  0  0  0
  151.4611  140.2258  158.4663 H   0  0  0  0  0  0  0  0  0  0  0  0
  150.2597  143.4237  159.1153 H   0  0  0  0  0  0  0  0  0  0  0  0
  150.9985  143.6800  156.5442 H   0  0  0  0  0  0  0  0  0  0  0  0
  152.3299  142.6291  156.1459 H   0  0  0  0  0  0  0  0  0  0  0  0
  148.6369  142.9010  155.9749 H   0  0  0  0  0  0  0  0  0  0  0  0
  147.3197  139.9305  154.0631 H   0  0  0  0  0  0  0  0  0  0  0  0
  147.8585  139.5147  152.4355 H   0  0  0  0  0  0  0  0  0  0  0  0
  145.3195  138.9414  153.4662 H   0  0  0  0  0  0  0  0  0  0  0  0
  146.0203  138.1134  152.1008 H   0  0  0  0  0  0  0  0  0  0  0  0
  144.2621  135.7364  152.3577 H   0  0  0  0  0  0  0  0  0  0  0  0
  145.5343  134.9182  151.4661 H   0  0  0  0  0  0  0  0  0  0  0  0
  145.4711  136.6704  151.4738 H   0  0  0  0  0  0  0  0  0  0  0  0
  145.8523  133.7016  153.5546 H   0  0  0  0  0  0  0  0  0  0  0  0
  146.7722  134.4397  154.8380 H   0  0  0  0  0  0  0  0  0  0  0  0
  144.7015  135.6958  155.6188 H   0  0  0  0  0  0  0  0  0  0  0  0
  143.7921  134.8865  154.3606 H   0  0  0  0  0  0  0  0  0  0  0  0
  143.9308  133.0414  155.3878 H   0  0  0  0  0  0  0  0  0  0  0  0
  147.7144  135.3461  155.8267 H   0  0  0  0  0  0  0  0  0  0  0  0
  149.2295  136.2335  155.8593 H   0  0  0  0  0  0  0  0  0  0  0  0
  148.7402  135.4009  154.3947 H   0  0  0  0  0  0  0  0  0  0  0  0
  152.6726  137.9669  155.0546 H   0  0  0  0  0  0  0  0  0  0  0  0
  147.1247  135.6083  152.9215 H   0  0  0  0  0  0  0  0  0  0  0  0
  1  2  1  0  0  0  0
  1 31  1  0  0  0  0
  1 32  1  0  0  0  0
  1 33  1  0  0  0  0
  2  6  1  0  0  0  0
  2  3  1  0  0  0  0
  2 34  1  0  0  0  0
  3  4  1  0  0  0  0
  4  5  1  0  0  0  0
  4 35  1  0  0  0  0
  4 36  1  0  0  0  0
  5  6  1  0  0  0  0
  5 37  1  0  0  0  0
  5 38  1  0  0  0  0
  6  7  1  0  0  0  0
  6  8  1  0  0  0  0
  7 39  1  0  0  0  0
  8  9  1  0  0  0  0
  8 40  1  0  0  0  0
  8 41  1  0  0  0  0
  9 28  1  0  0  0  0
  9 10  1  0  0  0  0
 10 11  2  0  0  0  0
 10 42  1  0  0  0  0
 11 12  1  0  0  0  0
 12 28  2  0  0  0  0
 12 13  1  0  0  0  0
 13 14  1  0  0  0  0
 13 25  2  0  0  0  0
 14 23  1  0  0  0  0
 14 15  1  0  0  0  0
 15 16  1  0  0  0  0
 15 43  1  0  0  0  0
 15 44  1  0  0  0  0
 16 17  1  0  0  0  0
 16 45  1  0  0  0  0
 16 46  1  0  0  0  0
 17 29  1  0  0  0  0
 17 18  1  0  0  0  0
 17 23  1  0  0  0  0
 18 19  1  0  0  0  0
 18 20  1  0  0  0  0
 18 59  1  0  0  0  0
 19 47  1  0  0  0  0
 19 48  1  0  0  0  0
 19 49  1  0  0  0  0
 20 21  1  0  0  0  0
 20 50  1  0  0  0  0
 20 51  1  0  0  0  0
 21 22  1  0  0  0  0
 21 52  1  0  0  0  0
 21 53  1  0  0  0  0
 22 54  1  0  0  0  0
 23 30  1  0  0  0  0
 23 24  1  0  0  0  0
 24 55  1  0  0  0  0
 24 56  1  0  0  0  0
 24 57  1  0  0  0  0
 25 26  1  0  0  0  0
 26 27  2  0  0  0  0
 26 58  1  0  0  0  0
 27 28  1  0  0  0  0
M  CHG  1  18   1
M  END
> <s_m_source_file>
AV-unprocessed.smi

> <i_m_source_file_index>
290

> <i_lp_mmshare_version>
43012

> <i_f3d_flags>
0

> <s_epik_input>
W0NIMl0xW0NIMl1PW0NAQEhdKFtDSDNdKVtDQEBdMShbT0hdKVtDSDJdbihbY0hdbjIpYyhjMjMpbltjSF1uYzNONFtDSDJdW0NIMl1bQ0BIXShbQ0BIXTRbQ0gzXSlOKFtDSDNdKVtDSDJdW0NIMl1bT0hd

> <s_epik_cmdline>
J2VwaWtfcHl0aG9uJywgJy1waCcsICc3LjAnLCAnLXRuJywgJzgnLCAnLW1hJywgJzIwMCcsICctbWV0YWxfYmluZGluZycsICctaW1hZScsICc8aW5maWxlLm1hZT4nLCAnLW9tYWUnLCAnPG91dGZpbGUubWFlPic=

> <r_lp_tautomer_probability>
1

> <r_epik_Ionization_Penalty>
0.0036983

> <r_epik_Ionization_Penalty_Charging>
0.0032725

> <r_epik_Ionization_Penalty_Neutral>
0.000425798

> <r_epik_State_Penalty>
-0

> <r_epik_Charging_Adjusted_Penalty>
0.0032725

> <i_epik_Tot_Q>
1

> <i_epik_Tot_abs_Q>
1

> <r_epik_Metal_State_Penalty>
-0

> <b_epik_Metal_Only>
0

> <s_lp_Force_Field>
OPLS_2005

> <r_lp_Energy>
72.0744

> <b_lp_Chiralities_Consistent>
1

> <s_lp_Variant>
AV-unprocessed.smi:290-10

> <Gold.Version>
5.8.1

> <Gold.Id.Protein>
6NUR|6NUR_protein|mol2

> <Gold.PLP.Fitness>
48.9627

> <Gold.PLP.PLP>
-39.8767

> <Gold.PLP.part.hbond>
-3.2737

> <Gold.PLP.part.metal>
0.0000

> <Gold.PLP.part.buried>
-3.2940

> <Gold.PLP.part.nonpolar>
-35.8120

> <Gold.PLP.part.repulsive>
2.8943

> <Gold.PLP.ligand.clash>
0.0000

> <Gold.PLP.ligand.torsion>
1.5299

> <Gold.PLP.Chemscore.Hbond>
3.0000

> <Gold.PLP.Chemscore.CHOScore>
0.9871

> <Gold.PLP.Chemscore.Metal>
0.0000

> <Gold.Chemscore.Hbonds>
donor molecule, donor type, donor heavy atom, donor atom, acceptor molecule, acceptor atom, score
      L1  H    18    59       P1  7948  1.20
      L1  H    22    54       P1 10957  1.00
      L1  C    10    42       P1  8028  0.56

> <Gold.PLP.Chemscore.Internal.Correction>
0.1846

> <Gold.Rescore>
     Score         DG    S(hbond)    S(metal)    S(lipo)     H(rot)  DE(clash)    DE(int)     intcor
      9.34     -13.11       1.98        0.00      88.97       3.67       0.58       3.19       ----

> <Gold.Chemscore.Fitness>
9.3419

> <Gold.Chemscore.DG>
-13.1079

> <Gold.Chemscore.ZeroCoef>
-5.4800

> <Gold.Chemscore.Hbond>
1.9767

> <Gold.Chemscore.Metal>
0.0000

> <Gold.Chemscore.Lipo>
88.9744

> <Gold.Chemscore.Internal_Hbond>
0.0000

> <Gold.Chemscore.DEClash>
0.5792

> <Gold.Chemscore.DEInternal>
3.1867

> <Gold.Chemscore.Rot>
3.6658

> <Gold.Chemscore.Internal.Correction>
   9.000000E+99

> <Gold.Chemscore.Hbonds>
donor molecule, donor type, donor heavy atom, donor atom, acceptor molecule, acceptor atom, score
      L1  H    18    59       P1  7948  0.59
      L1  H    22    54       P1 10957  1.00

> <Gold.Chemscore.Hbond.Weighted>
-6.6023

> <Gold.Chemscore.Metal.Weighted>
-0.0000

> <Gold.Chemscore.Lipo.Weighted>
-10.4100

> <Gold.Chemscore.Internal_Hbond.Weighted>
0.0000

> <Gold.Chemscore.DEClash.Weighted>
0.5792

> <Gold.Chemscore.DEInternal.Weighted>
3.1867

> <Gold.Chemscore.Rot.Weighted>
9.3844

> <Gold.Chemscore.Internal.Correction.Weighted>
   9.000000E+99

> <Gold.Protein.RotatedTorsions>
[ 6907 6896 6895 6894 ] final  -31.94 input  -60.11 | X-H torsion
[ 7974 7965 7964 7962 ] final -128.53 input  175.53 | X-H torsion
[ 8008 7997 7996 7995 ] final   16.75 input   59.86 | X-H torsion
[ 10167 10162 10161 10158 ] final   14.30 input  -65.29 | X-H torsion
[ 10718 10713 10712 10709 ] final  108.54 input   66.30 | X-H torsion
[ 10763 10752 10751 10750 ] final  111.68 input  -60.55 | X-H torsion
[ 11005 11000 10999 10996 ] final   28.94 input  -57.11 | X-H torsion

> <Gold.Protein.ActiveResidues>
 VAL166  LYS551  ARG553  GLY616  TRP617  ASP618  TYR619  PRO620  LYS621  CYS622 
 ASP623  PHE694  ASN695  SER759  ASP760  ASP761  ALA762  ILE779  LEU786  VAL792 
 PHE793  MET794  SER795  GLU796  ALA797  LYS798  CYS799  TRP800  GLU811  SER814 

> <Gold.Protein.RotatedAtoms>
  151.0854  134.9883  159.8376 H   0  0  0  0  0  0  0  0  0  0  0  0  # atno 6907 bound_to 6896
  152.5424  134.2131  159.8768 H   0  0  0  0  0  0  0  0  0  0  0  0  # atno 6908 bound_to 6896
  151.2164  133.4483  159.2633 H   0  0  0  0  0  0  0  0  0  0  0  0  # atno 6909 bound_to 6896
  144.9662  140.7498  143.4699 H   0  0  0  0  0  0  0  0  0  0  0  0  # atno 7974 bound_to 7965
  154.8815  140.2973  155.5422 H   0  0  0  0  0  0  0  0  0  0  0  0  # atno 8008 bound_to 7997
  156.3022  140.2441  156.3752 H   0  0  0  0  0  0  0  0  0  0  0  0  # atno 8009 bound_to 7997
  154.8712  140.0401  157.1715 H   0  0  0  0  0  0  0  0  0  0  0  0  # atno 8010 bound_to 7997
  140.5945  143.8730  150.6904 H   0  0  0  0  0  0  0  0  0  0  0  0  # atno 10167 bound_to 10162
  157.6581  131.0896  150.6321 H   0  0  0  0  0  0  0  0  0  0  0  0  # atno 10718 bound_to 10713
  153.4669  135.3709  155.2369 H   0  0  0  0  0  0  0  0  0  0  0  0  # atno 10763 bound_to 10752
  154.8757  135.3922  154.3858 H   0  0  0  0  0  0  0  0  0  0  0  0  # atno 10764 bound_to 10752
  153.4440  135.7084  153.6215 H   0  0  0  0  0  0  0  0  0  0  0  0  # atno 10765 bound_to 10752
  140.3103  134.2657  155.7735 H   0  0  0  0  0  0  0  0  0  0  0  0  # atno 11005 bound_to 11000
  145.2627  139.1986  143.4883 LP  0  0  0  0  0  0  0  0  0  0  0  0  # atno 17320 bound_to 7965
  146.3368  140.2559  142.8600 LP  0  0  0  0  0  0  0  0  0  0  0  0  # atno 17321 bound_to 7965
  140.2261  143.3772  152.1604 LP  0  0  0  0  0  0  0  0  0  0  0  0  # atno 17342 bound_to 10162
  139.5249  144.7089  151.5268 LP  0  0  0  0  0  0  0  0  0  0  0  0  # atno 17343 bound_to 10162
  156.6626  130.4516  149.5683 LP  0  0  0  0  0  0  0  0  0  0  0  0  # atno 17370 bound_to 10713
  156.2056  130.6647  151.1215 LP  0  0  0  0  0  0  0  0  0  0  0  0  # atno 17371 bound_to 10713
  141.2109  133.7704  156.9897 LP  0  0  0  0  0  0  0  0  0  0  0  0  # atno 17394 bound_to 11000
  140.1031  134.9523  157.1953 LP  0  0  0  0  0  0  0  0  0  0  0  0  # atno 17395 bound_to 11000

$$$$
