#       Name:                AV-unprocessed.smi:2695
#       Creating user name   scv26
#       Creation time:       Fri Mar 27 14:44:50 2020


#       File generated by GOLD software.
#

@<TRIPOS>MOLECULE
AV-unprocessed.smi:2695
    48    49     1
SMALL
NO_CHARGES


@<TRIPOS>ATOM
      1 ****        -2.4469   1.6026  -1.6661 C.3            1 S1                 0.0000
      2 ****        -2.6045   2.4477  -0.4081 C.2            1 S1                 0.0000
      3 ****        -3.0662   3.7155  -0.5131 C.2            1 S1                 0.0000
      4 ****        -3.1957   4.5742   0.6771 C.2            1 S1                 0.0000
      5 ****        -3.6411   5.7181   0.6122 O.2            1 S1                 0.0000
      6 ****        -2.7526   3.9806   1.9464 C.2            1 S1                 0.0000
      7 ****        -2.3102   2.7084   1.9551 C.2            1 S1                 0.0000
      8 ****        -1.8739   2.1297   3.0844 O.3            1 S1                 0.0000
      9 ****        -2.2416   1.8662   0.8275 N.pl3          1 S1                 0.0000
     10 ****        -1.8255   0.4559   0.9371 C.3            1 S1                 0.0000
     11 ****        -0.3064   0.2576   0.8375 C.2            1 S1                 0.0000
     12 ****         0.4487   1.2134   0.6539 O.2            1 S1                 0.0000
     13 ****         0.1213  -1.0089   0.9537 N.am           1 S1                 0.0000
     14 ****         1.5147  -1.4572   0.9127 C.3            1 S1                 0.0000
     15 ****         1.7891  -2.1832  -0.4306 C.3            1 S1                 0.0000
     16 ****         3.2448  -2.6118  -0.6521 C.3            1 S1                 0.0000
     17 ****         3.3866  -2.8248  -2.1633 C.3            1 S1                 0.0000
     18 ****         2.2523  -2.0263  -2.8199 C.3            1 S1                 0.0000
     19 ****         1.4996  -1.3370  -1.6783 C.3            1 S1                 0.0000
     20 ****         1.7898  -2.3239   2.1631 C.3            1 S1                 0.0000
     21 ****         1.4652  -1.6434   3.2636 F              1 S1                 0.0000
     22 ****         1.0678  -3.4445   2.1258 F              1 S1                 0.0000
     23 ****         3.0802  -2.6432   2.2515 F              1 S1                 0.0000
     24 ****        -2.4764   2.2266  -2.5600 H              1 S1                 0.0000
     25 ****        -3.2576   0.8776  -1.7419 H              1 S1                 0.0000
     26 ****        -1.4947   1.0728  -1.6845 H              1 S1                 0.0000
     27 ****        -3.3358   4.1339  -1.4722 H              1 S1                 0.0000
     28 ****        -2.7815   4.5806   2.8445 H              1 S1                 0.0000
     29 ****        -2.1745   0.0230   1.8754 H              1 S1                 0.0000
     30 ****        -2.3109  -0.1566   0.1781 H              1 S1                 0.0000
     31 ****        -0.5741  -1.7261   1.1005 H              1 S1                 0.0000
     32 ****         2.1764  -0.5912   0.9709 H              1 S1                 0.0000
     33 ****         1.1641  -3.0763  -0.4837 H              1 S1                 0.0000
     34 ****         3.9189  -1.8152  -0.3340 H              1 S1                 0.0000
     35 ****         3.5073  -3.5100  -0.0927 H              1 S1                 0.0000
     36 ****         4.3675  -2.5054  -2.5170 H              1 S1                 0.0000
     37 ****         3.2819  -3.8828  -2.4064 H              1 S1                 0.0000
     38 ****         2.6268  -1.3030  -3.5449 H              1 S1                 0.0000
     39 ****         1.5849  -2.7054  -3.3519 H              1 S1                 0.0000
     40 ****         0.4332  -1.2453  -1.8873 H              1 S1                 0.0000
     41 ****         1.8949  -0.3293  -1.5415 H              1 S1                 0.0000
     42 ****        -1.9478   2.7676   3.7777 H              1 S1                 0.0000
     43 ****        -3.9293   6.0932  -0.2688 LP             1 S1                 0.0000
     44 ****        -3.7152   6.2735   1.4405 LP             1 S1                 0.0000
     45 ****        -0.9196   1.8501   2.9781 LP             1 S1                 0.0000
     46 ****        -2.4342   1.3289   3.2962 LP             1 S1                 0.0000
     47 ****         0.0746   2.1367   0.5672 LP             1 S1                 0.0000
     48 ****         1.4359   1.0660   0.5916 LP             1 S1                 0.0000
@<TRIPOS>BOND
    1    1    2 1     
    2    1   24 1     
    3    1   25 1     
    4    1   26 1     
    5    2    9 1     
    6    2    3 2     
    7    3    4 1     
    8    3   27 1     
    9    4    5 2     
   10    4    6 1     
   11    6    7 2     
   12    6   28 1     
   13    7    8 1     
   14    7    9 1     
   15    8   42 1     
   16    9   10 1     
   17   10   11 1     
   18   10   29 1     
   19   10   30 1     
   20   11   12 2     
   21   11   13 am    
   22   13   14 1     
   23   13   31 1     
   24   14   15 1     
   25   14   20 1     
   26   14   32 1     
   27   15   19 1     
   28   15   16 1     
   29   15   33 1     
   30   16   17 1     
   31   16   34 1     
   32   16   35 1     
   33   17   18 1     
   34   17   36 1     
   35   17   37 1     
   36   18   19 1     
   37   18   38 1     
   38   18   39 1     
   39   19   40 1     
   40   19   41 1     
   41   20   21 1     
   42   20   22 1     
   43   20   23 1     
   44    5   43 1     
   45    5   44 1     
   46    8   45 1     
   47    8   46 1     
   48   12   47 1     
   49   12   48 1     
@<TRIPOS>SUBSTRUCTURE
      1 S1             1
@<TRIPOS>SET
LONE_PAIRS      STATIC     ATOMS    <user>   **** ""
6 43 44 45 46 47 48
DONOR_HYDROGENS      STATIC     ATOMS    <user>   **** ""
2 42 31
ATOM$BLUE        STATIC     ATOMS    COLORGROUP SYSTEM
6 43 44 45 46 47 48
ATOM$RED        STATIC     ATOMS    COLORGROUP SYSTEM
2 42 31
