#       Name:                AV-unprocessed.smi:157
#       Creating user name   scv26
#       Creation time:       Thu Mar 26 18:58:30 2020


#       File generated by GOLD software.
#

@<TRIPOS>MOLECULE
AV-unprocessed.smi:157
    45    47     1
SMALL
NO_CHARGES


@<TRIPOS>ATOM
      1 ****        -4.8014   1.9089   0.3681 O.3            1 S1                 0.0000
      2 ****        -3.6448   1.1683   0.0392 C.3            1 S1                 0.0000
      3 ****        -2.5836   2.0718  -0.6232 C.3            1 S1                 0.0000
      4 ****        -1.6536   1.2175  -1.2917 O.3            1 S1                 0.0000
      5 ****        -0.4195   1.2144  -0.6341 C.3            1 S1                 0.0000
      6 ****         0.0052  -0.2026  -0.4035 N.pl3          1 S1                 0.0000
      7 ****        -0.7972  -1.2718  -0.3117 C.2            1 S1                 0.0000
      8 ****        -0.1684  -2.4133  -0.0893 N.2            1 S1                 0.0000
      9 ****         1.1759  -2.0504  -0.0314 C.2            1 S1                 0.0000
     10 ****         1.3055  -0.6824  -0.2239 C.2            1 S1                 0.0000
     11 ****         2.3476   0.2245  -0.2555 N.2            1 S1                 0.0000
     12 ****         3.5461  -0.2324  -0.4398 C.2            1 S1                 0.0000
     13 ****         4.0030  -1.5397  -0.5267 N.pl3          1 S1                 0.0000
     14 ****         3.6421  -2.5757   0.4261 C.3            1 S1                 0.0000
     15 ****         2.2120  -3.1003   0.2487 C.3            1 S1                 0.0000
     16 ****         2.1794  -4.0107  -0.8313 O.3            1 S1                 0.0000
     17 ****        -0.6157   1.9300   0.6993 C.3            1 S1                 0.0000
     18 ****        -1.7126   2.9044   0.3341 C.3            1 S1                 0.0000
     19 ****        -2.3844   3.3877   1.4797 O.3            1 S1                 0.0000
     20 ****        -3.0627   2.7119  -1.3653 H              1 S1                 0.0000
     21 ****         0.3439   1.6629  -1.2709 H              1 S1                 0.0000
     22 ****         1.9374  -3.6617   1.1424 H              1 S1                 0.0000
     23 ****        -1.2821   3.7479  -0.2077 H              1 S1                 0.0000
     24 ****        -5.4327   1.3232   0.7577 H              1 S1                 0.0000
     25 ****        -3.2537   0.6697   0.9261 H              1 S1                 0.0000
     26 ****        -3.9488   0.3858  -0.6565 H              1 S1                 0.0000
     27 ****        -1.8714  -1.2141  -0.4048 H              1 S1                 0.0000
     28 ****         4.3628   0.4835  -0.5422 H              1 S1                 0.0000
     29 ****         4.9211  -1.7038  -0.9138 H              1 S1                 0.0000
     30 ****         4.3637  -3.3917   0.3783 H              1 S1                 0.0000
     31 ****         3.7368  -2.1443   1.4237 H              1 S1                 0.0000
     32 ****         1.3050  -4.3648  -0.8916 H              1 S1                 0.0000
     33 ****        -0.9536   1.2200   1.4565 H              1 S1                 0.0000
     34 ****         0.3073   2.4030   1.0361 H              1 S1                 0.0000
     35 ****        -3.1093   3.9247   1.1978 H              1 S1                 0.0000
     36 ****        -5.1865   2.3177  -0.4592 LP             1 S1                 0.0000
     37 ****        -4.5656   2.6313   1.0182 LP             1 S1                 0.0000
     38 ****        -1.5249   1.5426  -2.2285 LP             1 S1                 0.0000
     39 ****        -2.0179   0.2864  -1.3091 LP             1 S1                 0.0000
     40 ****        -0.5652  -3.3254   0.0135 LP             1 S1                 0.0000
     41 ****         2.1819   1.2038  -0.1396 LP             1 S1                 0.0000
     42 ****         2.8339  -4.7497  -0.6713 LP             1 S1                 0.0000
     43 ****         2.4125  -3.5372  -1.6807 LP             1 S1                 0.0000
     44 ****        -1.7560   3.9333   2.0343 LP             1 S1                 0.0000
     45 ****        -2.7246   2.6186   2.0208 LP             1 S1                 0.0000
@<TRIPOS>BOND
    1    1    2 1     
    2    1   24 1     
    3    2    3 1     
    4    2   25 1     
    5    2   26 1     
    6    3   20 1     
    7    3   18 1     
    8    3    4 1     
    9    4    5 1     
   10    5   21 1     
   11    5    6 1     
   12    5   17 1     
   13    6   10 1     
   14    6    7 1     
   15    7    8 2     
   16    7   27 1     
   17    8    9 1     
   18    9   15 1     
   19    9   10 2     
   20   10   11 1     
   21   11   12 2     
   22   12   13 1     
   23   12   28 1     
   24   13   14 1     
   25   13   29 1     
   26   14   15 1     
   27   14   30 1     
   28   14   31 1     
   29   15   22 1     
   30   15   16 1     
   31   16   32 1     
   32   17   18 1     
   33   17   33 1     
   34   17   34 1     
   35   18   23 1     
   36   18   19 1     
   37   19   35 1     
   38    1   36 1     
   39    1   37 1     
   40    4   38 1     
   41    4   39 1     
   42    8   40 1     
   43   11   41 1     
   44   16   42 1     
   45   16   43 1     
   46   19   44 1     
   47   19   45 1     
@<TRIPOS>SUBSTRUCTURE
      1 S1             1
@<TRIPOS>SET
LONE_PAIRS      STATIC     ATOMS    <user>   **** ""
10 36 37 38 39 40 41 42 43 44 45
DONOR_HYDROGENS      STATIC     ATOMS    <user>   **** ""
4 24 29 32 35
ATOM$BLUE        STATIC     ATOMS    COLORGROUP SYSTEM
10 36 37 38 39 40 41 42 43 44 45
ATOM$RED        STATIC     ATOMS    COLORGROUP SYSTEM
4 24 29 32 35
