AV-unprocessed.smi:1624|AV-procd|sdf|6503|dock8
  -GOLD-   22720 7173D 1   1.00000     0.00000
 Structure written by MMmdl.
 36 37  0  0  0  0  0  0  0  0  1 V2000
  150.7588  140.6452  156.0356 O   0  0  0  0  0  0  0  0  0  0  0  0
  150.2386  141.7534  155.9019 C   0  0  0  0  0  0  0  0  0  0  0  0
  150.6615  142.8506  156.5457 N   0  0  0  0  0  0  0  0  0  0  0  0
  151.7804  142.8928  157.4785 C   0  0  0  0  0  0  0  0  0  0  0  0
  151.4784  142.0997  158.7635 C   0  0  0  0  0  0  0  0  0  0  0  0
  152.4953  142.3545  159.7909 N   0  0  0  0  0  0  0  0  0  0  0  0
  152.5955  143.7405  160.2775 C   0  0  0  0  0  0  0  0  0  0  0  0
  152.0891  143.9291  161.7268 C   0  0  0  0  0  0  0  0  0  0  0  0
  152.2328  142.7145  162.6652 C   0  0  0  0  0  0  0  0  0  0  0  0
  153.6486  142.1043  162.7302 C   0  0  0  0  0  0  0  0  0  0  0  0
  154.2907  141.7053  161.3800 C   0  0  0  0  0  0  0  0  0  0  0  0
  153.2780  141.3595  160.2764 C   0  0  0  0  0  0  0  0  0  0  0  0
  153.2078  140.1957  159.8803 O   0  0  0  0  0  0  0  0  0  0  0  0
  149.1894  142.0309  155.1082 N   0  0  0  0  0  0  0  0  0  0  0  0
  148.4607  141.1471  154.2690 C   0  0  0  0  0  0  0  0  0  0  0  0
  148.8702  139.9073  153.9582 N   0  0  0  0  0  0  0  0  0  0  0  0
  147.9703  139.2571  153.1234 N   0  0  0  0  0  0  0  0  0  0  0  0
  146.9191  140.0309  152.8384 C   0  0  0  0  0  0  0  0  0  0  0  0
  146.9254  141.6296  153.5622 S   0  0  0  0  0  0  0  0  0  0  0  0
  150.1773  143.7203  156.3782 H   0  0  0  0  0  0  0  0  0  0  0  0
  152.6827  142.5118  156.9967 H   0  0  0  0  0  0  0  0  0  0  0  0
  151.9762  143.9384  157.7169 H   0  0  0  0  0  0  0  0  0  0  0  0
  150.4894  142.3648  159.1413 H   0  0  0  0  0  0  0  0  0  0  0  0
  151.4172  141.0339  158.5407 H   0  0  0  0  0  0  0  0  0  0  0  0
  153.6311  144.0723  160.2020 H   0  0  0  0  0  0  0  0  0  0  0  0
  152.0513  144.4279  159.6292 H   0  0  0  0  0  0  0  0  0  0  0  0
  152.5921  144.7914  162.1654 H   0  0  0  0  0  0  0  0  0  0  0  0
  151.0318  144.1937  161.6905 H   0  0  0  0  0  0  0  0  0  0  0  0
  151.9297  143.0098  163.6700 H   0  0  0  0  0  0  0  0  0  0  0  0
  151.5177  141.9445  162.3717 H   0  0  0  0  0  0  0  0  0  0  0  0
  154.3132  142.8057  163.2357 H   0  0  0  0  0  0  0  0  0  0  0  0
  153.6103  141.2244  163.3734 H   0  0  0  0  0  0  0  0  0  0  0  0
  154.9429  142.5025  161.0242 H   0  0  0  0  0  0  0  0  0  0  0  0
  154.9534  140.8532  161.5371 H   0  0  0  0  0  0  0  0  0  0  0  0
  148.8753  142.9899  155.1018 H   0  0  0  0  0  0  0  0  0  0  0  0
  146.1340  139.6578  152.1978 H   0  0  0  0  0  0  0  0  0  0  0  0
  1  2  2  0  0  0  0
  2  3  1  0  0  0  0
  2 14  1  0  0  0  0
  3  4  1  0  0  0  0
  3 20  1  0  0  0  0
  4  5  1  0  0  0  0
  4 21  1  0  0  0  0
  4 22  1  0  0  0  0
  5  6  1  0  0  0  0
  5 23  1  0  0  0  0
  5 24  1  0  0  0  0
  6 12  1  0  0  0  0
  6  7  1  0  0  0  0
  7  8  1  0  0  0  0
  7 25  1  0  0  0  0
  7 26  1  0  0  0  0
  8  9  1  0  0  0  0
  8 27  1  0  0  0  0
  8 28  1  0  0  0  0
  9 10  1  0  0  0  0
  9 29  1  0  0  0  0
  9 30  1  0  0  0  0
 10 11  1  0  0  0  0
 10 31  1  0  0  0  0
 10 32  1  0  0  0  0
 11 12  1  0  0  0  0
 11 33  1  0  0  0  0
 11 34  1  0  0  0  0
 12 13  2  0  0  0  0
 14 15  1  0  0  0  0
 14 35  1  0  0  0  0
 15 19  1  0  0  0  0
 15 16  2  0  0  0  0
 16 17  1  0  0  0  0
 17 18  2  0  0  0  0
 18 19  1  0  0  0  0
 18 36  1  0  0  0  0
M  END
> <s_m_source_file>
AV-unprocessed.smi

> <i_m_source_file_index>
1624

> <i_lp_mmshare_version>
43012

> <i_f3d_flags>
0

> <s_epik_input>
czFbY0hdbm5jMVtOSF1DKD1PKVtOSF1bQ0gyXVtDSDJdTjJbQ0gyXVtDSDJdW0NIMl1bQ0gyXVtDSDJdQzI9Tw==

> <s_epik_cmdline>
J2VwaWtfcHl0aG9uJywgJy1waCcsICc3LjAnLCAnLXRuJywgJzgnLCAnLW1hJywgJzIwMCcsICctbWV0YWxfYmluZGluZycsICctaW1hZScsICc8aW5maWxlLm1hZT4nLCAnLW9tYWUnLCAnPG91dGZpbGUubWFlPic=

> <r_lp_tautomer_probability>
1

> <r_epik_Ionization_Penalty>
0.00222419

> <r_epik_Ionization_Penalty_Charging>
0

> <r_epik_Ionization_Penalty_Neutral>
0.00222419

> <r_epik_State_Penalty>
-0

> <r_epik_Charging_Adjusted_Penalty>
0

> <i_epik_Tot_Q>
0

> <i_epik_Tot_abs_Q>
0

> <r_epik_Metal_State_Penalty>
0.3454

> <b_epik_Metal_Only>
0

> <s_lp_Force_Field>
OPLS_2005

> <r_lp_Energy>
20.1162

> <b_lp_Chiralities_Consistent>
1

> <s_lp_Variant>
AV-unprocessed.smi:1624-1

> <Gold.Version>
5.8.1

> <Gold.Id.Protein>
6NUR|6NUR_protein|mol2

> <Gold.PLP.Fitness>
45.8701

> <Gold.PLP.PLP>
-37.3397

> <Gold.PLP.part.hbond>
-2.0000

> <Gold.PLP.part.metal>
0.0000

> <Gold.PLP.part.buried>
-2.1710

> <Gold.PLP.part.nonpolar>
-34.1906

> <Gold.PLP.part.repulsive>
2.0387

> <Gold.PLP.ligand.clash>
0.0000

> <Gold.PLP.ligand.torsion>
0.0953

> <Gold.PLP.Chemscore.Hbond>
2.0000

> <Gold.PLP.Chemscore.CHOScore>
0.9034

> <Gold.PLP.Chemscore.Metal>
0.0000

> <Gold.Chemscore.Hbonds>
donor molecule, donor type, donor heavy atom, donor atom, acceptor molecule, acceptor atom, score
      L1  H     3    20       P1  8028  1.00
      L1  H    14    35       P1  8028  1.00
      L1  C    18    36       P1 10175  0.71

> <Gold.PLP.Chemscore.Internal.Correction>
0.0109

> <Gold.Rescore>
     Score         DG    S(hbond)    S(metal)    S(lipo)     H(rot)  DE(clash)    DE(int)     intcor
     14.15     -17.95       1.96        0.00      89.10       1.76       2.37       1.42       ----

> <Gold.Chemscore.Fitness>
14.1535

> <Gold.Chemscore.DG>
-17.9463

> <Gold.Chemscore.ZeroCoef>
-5.4800

> <Gold.Chemscore.Hbond>
1.9615

> <Gold.Chemscore.Metal>
0.0000

> <Gold.Chemscore.Lipo>
89.0973

> <Gold.Chemscore.Internal_Hbond>
0.0000

> <Gold.Chemscore.DEClash>
2.3719

> <Gold.Chemscore.DEInternal>
1.4210

> <Gold.Chemscore.Rot>
1.7615

> <Gold.Chemscore.Internal.Correction>
   9.000000E+99

> <Gold.Chemscore.Hbonds>
donor molecule, donor type, donor heavy atom, donor atom, acceptor molecule, acceptor atom, score
      L1  H     3    20       P1  8028  0.98
      L1  H    14    35       P1  8028  0.99

> <Gold.Chemscore.Hbond.Weighted>
-6.5514

> <Gold.Chemscore.Metal.Weighted>
-0.0000

> <Gold.Chemscore.Lipo.Weighted>
-10.4244

> <Gold.Chemscore.Internal_Hbond.Weighted>
0.0000

> <Gold.Chemscore.DEClash.Weighted>
2.3719

> <Gold.Chemscore.DEInternal.Weighted>
1.4210

> <Gold.Chemscore.Rot.Weighted>
4.5095

> <Gold.Chemscore.Internal.Correction.Weighted>
   9.000000E+99

> <Gold.Protein.RotatedTorsions>
[ 6907 6896 6895 6894 ] final -113.29 input  -60.11 | X-H torsion
[ 7974 7965 7964 7962 ] final  148.98 input  175.53 | X-H torsion
[ 8008 7997 7996 7995 ] final -161.44 input   59.86 | X-H torsion
[ 10167 10162 10161 10158 ] final  -89.45 input  -65.29 | X-H torsion
[ 10718 10713 10712 10709 ] final  -11.02 input   66.30 | X-H torsion
[ 10763 10752 10751 10750 ] final  -71.05 input  -60.55 | X-H torsion
[ 11005 11000 10999 10996 ] final   68.57 input  -57.11 | X-H torsion

> <Gold.Protein.ActiveResidues>
 VAL166  LYS551  ARG553  GLY616  TRP617  ASP618  TYR619  PRO620  LYS621  CYS622 
 ASP623  PHE694  ASN695  SER759  ASP760  ASP761  ALA762  ILE779  LEU786  VAL792 
 PHE793  MET794  SER795  GLU796  ALA797  LYS798  CYS799  TRP800  GLU811  SER814 

> <Gold.Protein.RotatedAtoms>
  150.7818  133.8966  159.3328 H   0  0  0  0  0  0  0  0  0  0  0  0  # atno 6907 bound_to 6896
  151.6827  135.0957  160.0228 H   0  0  0  0  0  0  0  0  0  0  0  0  # atno 6908 bound_to 6896
  152.3872  133.6589  159.6244 H   0  0  0  0  0  0  0  0  0  0  0  0  # atno 6909 bound_to 6896
  144.8473  139.6222  143.5990 H   0  0  0  0  0  0  0  0  0  0  0  0  # atno 7974 bound_to 7965
  155.7923  140.0880  157.2002 H   0  0  0  0  0  0  0  0  0  0  0  0  # atno 8008 bound_to 7997
  154.3985  140.1488  156.3235 H   0  0  0  0  0  0  0  0  0  0  0  0  # atno 8009 bound_to 7997
  155.8546  140.3433  155.5719 H   0  0  0  0  0  0  0  0  0  0  0  0  # atno 8010 bound_to 7997
  140.3647  143.2824  151.9572 H   0  0  0  0  0  0  0  0  0  0  0  0  # atno 10167 bound_to 10162
  156.6651  130.4993  149.6018 H   0  0  0  0  0  0  0  0  0  0  0  0  # atno 10718 bound_to 10713
  154.4262  135.5974  153.6040 H   0  0  0  0  0  0  0  0  0  0  0  0  # atno 10763 bound_to 10752
  152.9796  135.5964  154.3894 H   0  0  0  0  0  0  0  0  0  0  0  0  # atno 10764 bound_to 10752
  154.3726  135.2841  155.2236 H   0  0  0  0  0  0  0  0  0  0  0  0  # atno 10765 bound_to 10752
  139.9704  134.6910  156.0459 H   0  0  0  0  0  0  0  0  0  0  0  0  # atno 11005 bound_to 11000
  146.2755  139.6741  142.9266 LP  0  0  0  0  0  0  0  0  0  0  0  0  # atno 17320 bound_to 7965
  145.4572  141.0431  143.2772 LP  0  0  0  0  0  0  0  0  0  0  0  0  # atno 17321 bound_to 7965
  139.4810  144.5961  151.7688 LP  0  0  0  0  0  0  0  0  0  0  0  0  # atno 17342 bound_to 10162
  140.5092  144.1051  150.5990 LP  0  0  0  0  0  0  0  0  0  0  0  0  # atno 17343 bound_to 10162
  156.1981  130.6603  151.1137 LP  0  0  0  0  0  0  0  0  0  0  0  0  # atno 17370 bound_to 10713
  157.7096  131.0740  150.6546 LP  0  0  0  0  0  0  0  0  0  0  0  0  # atno 17371 bound_to 10713
  141.1383  133.6570  156.3657 LP  0  0  0  0  0  0  0  0  0  0  0  0  # atno 17394 bound_to 11000
  140.5306  134.6216  157.5348 LP  0  0  0  0  0  0  0  0  0  0  0  0  # atno 17395 bound_to 11000

$$$$
