AV-unprocessed.smi:160|AV-procd|sdf|1371|dock1
  -GOLD-   2262019 93D 1   1.00000     0.00000
 Structure written by MMmdl.
 28 29  0  0  0  0  0  0  0  0  2 V2000
  152.6403  139.8929  155.0581 N   0  5  0  0  0  0  0  0  0  0  0  0
  152.4533  138.5560  155.1105 C   0  0  0  0  0  0  0  0  0  0  0  0
  153.3337  137.7017  155.2072 O   0  0  0  0  0  0  0  0  0  0  0  0
  151.0086  138.1214  155.0416 C   0  0  0  0  0  0  0  0  0  0  0  0
  150.6729  136.7995  155.1468 N   0  0  0  0  0  0  0  0  0  0  0  0
  149.3559  136.9054  155.0340 C   0  0  0  0  0  0  0  0  0  0  0  0
  148.9177  138.1583  154.8835 N   0  0  0  0  0  0  0  0  0  0  0  0
  147.5236  138.6738  154.7107 C   0  0  2  0  0  0  0  0  0  0  0  0
  146.7219  137.5974  154.3265 O   0  0  0  0  0  0  0  0  0  0  0  0
  145.9192  137.9507  153.2026 C   0  0  2  0  0  0  0  0  0  0  0  0
  145.5416  136.7047  152.3820 C   0  0  0  0  0  0  0  0  0  0  0  0
  146.6048  135.7754  152.3903 O   0  0  0  0  0  0  0  0  0  0  0  0
  146.7538  139.0053  152.4620 C   0  0  2  0  0  0  0  0  0  0  0  0
  147.6976  138.3968  151.5975 O   0  0  0  0  0  0  0  0  0  0  0  0
  147.4069  139.7549  153.6168 C   0  0  2  0  0  0  0  0  0  0  0  0
  148.6106  140.4130  153.2576 O   0  0  0  0  0  0  0  0  0  0  0  0
  149.9968  138.9785  154.8757 N   0  0  0  0  0  0  0  0  0  0  0  0
  147.2433  139.0370  155.7002 H   0  0  0  0  0  0  0  0  0  0  0  0
  145.0175  138.4415  153.5745 H   0  0  0  0  0  0  0  0  0  0  0  0
  146.1279  139.6659  151.8615 H   0  0  0  0  0  0  0  0  0  0  0  0
  146.7056  140.5035  153.9876 H   0  0  0  0  0  0  0  0  0  0  0  0
  151.8812  140.4776  154.6882 H   0  0  0  0  0  0  0  0  0  0  0  0
  148.6961  136.0508  155.0630 H   0  0  0  0  0  0  0  0  0  0  0  0
  144.6761  136.2109  152.8244 H   0  0  0  0  0  0  0  0  0  0  0  0
  145.2773  136.9695  151.3575 H   0  0  0  0  0  0  0  0  0  0  0  0
  147.3889  136.2163  152.1009 H   0  0  0  0  0  0  0  0  0  0  0  0
  148.1286  137.7002  152.0694 H   0  0  0  0  0  0  0  0  0  0  0  0
  148.6842  140.4150  152.3157 H   0  0  0  0  0  0  0  0  0  0  0  0
  1  2  1  0  0  0  0
  1 22  1  0  0  0  0
  2  3  2  0  0  0  0
  2  4  1  0  0  0  0
  4 17  2  0  0  0  0
  4  5  1  0  0  0  0
  5  6  2  0  0  0  0
  6  7  1  0  0  0  0
  6 23  1  0  0  0  0
  7  8  1  0  0  0  0
  7 17  1  0  0  0  0
  8 18  1  0  0  0  0
  8 15  1  0  0  0  0
  8  9  1  0  0  0  0
  9 10  1  0  0  0  0
 10 19  1  0  0  0  0
 10 11  1  0  0  0  0
 10 13  1  0  0  0  0
 11 12  1  0  0  0  0
 11 24  1  0  0  0  0
 11 25  1  0  0  0  0
 12 26  1  0  0  0  0
 13 20  1  0  0  0  0
 13 14  1  0  0  0  0
 13 15  1  0  0  0  0
 14 27  1  0  0  0  0
 15 21  1  0  0  0  0
 15 16  1  0  0  0  0
 16 28  1  0  0  0  0
M  CHG  1   1  -1
M  END
> <s_m_source_file>
AV-unprocessed.smi

> <i_m_source_file_index>
160

> <i_lp_mmshare_version>
43012

> <i_f3d_flags>
0

> <s_epik_input>
W05IMl1DKD1PKWMxbltjSF1uKG4xKVtDQEBIXTJPW0NASF0oW0NIMl1bT0hdKVtDQEBIXShbT0hdKVtDQEhdMltPSF0=

> <s_epik_cmdline>
J2VwaWtfcHl0aG9uJywgJy1waCcsICc3LjAnLCAnLXRuJywgJzgnLCAnLW1hJywgJzIwMCcsICctbWV0YWxfYmluZGluZycsICctaW1hZScsICc8aW5maWxlLm1hZT4nLCAnLW9tYWUnLCAnPG91dGZpbGUubWFlPic=

> <r_lp_tautomer_probability>
1

> <r_epik_Ionization_Penalty>
6.6993

> <r_epik_Ionization_Penalty_Charging>
6.6993

> <r_epik_Ionization_Penalty_Neutral>
6.01698e-06

> <r_epik_State_Penalty>
6.69929

> <r_epik_Charging_Adjusted_Penalty>
13.3986

> <i_epik_Tot_Q>
-1

> <i_epik_Tot_abs_Q>
1

> <r_epik_Metal_State_Penalty>
2.62798

> <b_epik_Metal_Only>
1

> <s_epik_Chemistry_Notes>
This compound contains an acetal/aminal-like group ( X-CH(R)-Y where X, Y are N, S, or O) that may be acid/base labile, releasing an aldehyde.

> <s_lp_Force_Field>
OPLS_2005

> <r_lp_Energy>
51.4861

> <b_lp_Chiralities_Consistent>
1

> <s_lp_Variant>
AV-unprocessed.smi:160-29

> <Gold.Version>
5.8.1

> <Gold.Id.Protein>
6NUR|6NUR_protein|mol2

> <Gold.PLP.Fitness>
39.8432

> <Gold.PLP.PLP>
-24.1958

> <Gold.PLP.part.hbond>
-6.8267

> <Gold.PLP.part.metal>
0.0000

> <Gold.PLP.part.buried>
-4.1461

> <Gold.PLP.part.nonpolar>
-13.4133

> <Gold.PLP.part.repulsive>
0.3592

> <Gold.PLP.ligand.clash>
0.0000

> <Gold.PLP.ligand.torsion>
0.7378

> <Gold.PLP.Chemscore.Hbond>
5.7044

> <Gold.PLP.Chemscore.CHOScore>
0.0000

> <Gold.PLP.Chemscore.Metal>
0.0000

> <Gold.Chemscore.Hbonds>
donor molecule, donor type, donor heavy atom, donor atom, acceptor molecule, acceptor atom, score
      L1  H    12    26       P1  7948  1.00
      L1  H    14    27       P1  7948  0.83
      L1  H    16    28       P1  7957  0.87
      P1  H  7954  7966       L1    14  0.90
      P1  H  7997  8009       L1     1  2.00
      P1  H 10752 10763       L1     3  0.10

> <Gold.PLP.Chemscore.Internal.Correction>
0.0097

> <Gold.Rescore>
     Score         DG    S(hbond)    S(metal)    S(lipo)     H(rot)  DE(clash)    DE(int)     intcor
      9.80     -12.25       4.32        0.00      23.11       4.04       0.01       2.44       ----

> <Gold.Chemscore.Fitness>
9.8004

> <Gold.Chemscore.DG>
-12.2546

> <Gold.Chemscore.ZeroCoef>
-5.4800

> <Gold.Chemscore.Hbond>
4.3155

> <Gold.Chemscore.Metal>
0.0000

> <Gold.Chemscore.Lipo>
23.1102

> <Gold.Chemscore.Internal_Hbond>
0.0000

> <Gold.Chemscore.DEClash>
0.0149

> <Gold.Chemscore.DEInternal>
2.4393

> <Gold.Chemscore.Rot>
4.0403

> <Gold.Chemscore.Internal.Correction>
   9.000000E+99

> <Gold.Chemscore.Hbonds>
donor molecule, donor type, donor heavy atom, donor atom, acceptor molecule, acceptor atom, score
      L1  H    12    26       P1  7948  0.92
      L1  H    14    27       P1  7948  0.81
      L1  H    16    28       P1  7957  0.80
      P1  H  7954  7966       L1    14  0.17
      P1  H  7997  8009       L1     1  0.42
      P1  H 10752 10763       L1     3  0.10

> <Gold.Chemscore.Hbond.Weighted>
-14.4138

> <Gold.Chemscore.Metal.Weighted>
-0.0000

> <Gold.Chemscore.Lipo.Weighted>
-2.7039

> <Gold.Chemscore.Internal_Hbond.Weighted>
0.0000

> <Gold.Chemscore.DEClash.Weighted>
0.0149

> <Gold.Chemscore.DEInternal.Weighted>
2.4393

> <Gold.Chemscore.Rot.Weighted>
10.3431

> <Gold.Chemscore.Internal.Correction.Weighted>
   9.000000E+99

> <Gold.Protein.RotatedTorsions>
[ 6907 6896 6895 6894 ] final  178.43 input  -60.11 | X-H torsion
[ 7974 7965 7964 7962 ] final  114.20 input  175.53 | X-H torsion
[ 8008 7997 7996 7995 ] final -146.54 input   59.86 | X-H torsion
[ 10167 10162 10161 10158 ] final   -1.31 input  -65.29 | X-H torsion
[ 10718 10713 10712 10709 ] final -138.10 input   66.30 | X-H torsion
[ 10763 10752 10751 10750 ] final   80.77 input  -60.55 | X-H torsion
[ 11005 11000 10999 10996 ] final   10.35 input  -57.11 | X-H torsion

> <Gold.Protein.ActiveResidues>
 VAL166  LYS551  ARG553  GLY616  TRP617  ASP618  TYR619  PRO620  LYS621  CYS622 
 ASP623  PHE694  ASN695  SER759  ASP760  ASP761  ALA762  ILE779  LEU786  VAL792 
 PHE793  MET794  SER795  GLU796  ALA797  LYS798  CYS799  TRP800  GLU811  SER814 

> <Gold.Protein.RotatedAtoms>
  151.6879  133.3311  159.3235 H   0  0  0  0  0  0  0  0  0  0  0  0  # atno 6907 bound_to 6896
  150.7792  134.6724  159.6408 H   0  0  0  0  0  0  0  0  0  0  0  0  # atno 6908 bound_to 6896
  152.3844  134.6543  160.0183 H   0  0  0  0  0  0  0  0  0  0  0  0  # atno 6909 bound_to 6896
  145.2074  139.2923  143.4286 H   0  0  0  0  0  0  0  0  0  0  0  0  # atno 7974 bound_to 7965
  155.5610  140.0625  157.2829 H   0  0  0  0  0  0  0  0  0  0  0  0  # atno 8008 bound_to 7997
  154.4390  140.1885  156.0828 H   0  0  0  0  0  0  0  0  0  0  0  0  # atno 8009 bound_to 7997
  156.0447  140.3291  155.7286 H   0  0  0  0  0  0  0  0  0  0  0  0  # atno 8010 bound_to 7997
  140.6804  143.6791  150.8120 H   0  0  0  0  0  0  0  0  0  0  0  0  # atno 10167 bound_to 10162
  156.2956  130.7399  151.1437 H   0  0  0  0  0  0  0  0  0  0  0  0  # atno 10718 bound_to 10713
  153.1061  135.4790  154.8953 H   0  0  0  0  0  0  0  0  0  0  0  0  # atno 10763 bound_to 10752
  154.7431  135.3087  154.8695 H   0  0  0  0  0  0  0  0  0  0  0  0  # atno 10764 bound_to 10752
  153.9297  135.6846  153.4799 H   0  0  0  0  0  0  0  0  0  0  0  0  # atno 10765 bound_to 10752
  140.5155  134.0610  155.7830 H   0  0  0  0  0  0  0  0  0  0  0  0  # atno 11005 bound_to 11000
  146.3405  140.2338  142.8594 LP  0  0  0  0  0  0  0  0  0  0  0  0  # atno 17320 bound_to 7965
  144.9889  140.8529  143.5351 LP  0  0  0  0  0  0  0  0  0  0  0  0  # atno 17321 bound_to 7965
  140.0490  143.5268  152.2682 LP  0  0  0  0  0  0  0  0  0  0  0  0  # atno 17342 bound_to 10162
  139.6123  144.7611  151.2923 LP  0  0  0  0  0  0  0  0  0  0  0  0  # atno 17343 bound_to 10162
  157.7354  131.0572  150.5471 LP  0  0  0  0  0  0  0  0  0  0  0  0  # atno 17370 bound_to 10713
  156.5592  130.4251  149.6071 LP  0  0  0  0  0  0  0  0  0  0  0  0  # atno 17371 bound_to 10713
  141.1363  133.9216  157.2427 LP  0  0  0  0  0  0  0  0  0  0  0  0  # atno 17394 bound_to 11000
  139.9635  135.0148  156.9325 LP  0  0  0  0  0  0  0  0  0  0  0  0  # atno 17395 bound_to 11000

$$$$
