AV-unprocessed.smi:72|AV-procd|sdf|667|dock3
  -GOLD-   2262016573D 1   1.00000     0.00000
 Structure written by MMmdl.
 29 30  0  0  0  0  0  0  0  0  1 V2000
  149.4064  135.3184  158.4756 N   0  0  0  0  0  0  0  0  0  0  0  0
  149.4650  136.3055  157.6545 C   0  0  0  0  0  0  0  0  0  0  0  0
  148.8231  137.5404  157.8242 N   0  0  0  0  0  0  0  0  0  0  0  0
  148.9403  138.4359  156.8932 C   0  0  0  0  0  0  0  0  0  0  0  0
  149.6753  138.1886  155.6573 N   0  0  0  0  0  0  0  0  0  0  0  0
  149.8386  139.2665  154.5930 C   0  0  2  0  0  0  0  0  0  0  0  0
  150.7613  140.2273  155.0310 O   0  0  0  0  0  0  0  0  0  0  0  0
  150.1203  141.4387  155.4278 C   0  0  2  0  0  0  0  0  0  0  0  0
  149.7266  141.3916  156.9223 C   0  0  0  0  0  0  0  0  0  0  0  0
  148.9578  142.5286  157.2525 O   0  0  0  0  0  0  0  0  0  0  0  0
  148.9452  141.4915  154.4461 C   0  0  2  0  0  0  0  0  0  0  0  0
  147.8780  142.3031  154.8960 O   0  0  0  0  0  0  0  0  0  0  0  0
  148.5244  140.0339  154.3075 C   0  0  1  0  0  0  0  0  0  0  0  0
  148.0564  139.8070  152.9931 O   0  0  0  0  0  0  0  0  0  0  0  0
  150.4176  136.9857  155.5276 C   0  0  0  0  0  0  0  0  0  0  0  0
  151.1677  136.7667  154.5770 O   0  0  0  0  0  0  0  0  0  0  0  0
  150.2535  136.0834  156.5188 N   0  0  0  0  0  0  0  0  0  0  0  0
  150.2436  138.7359  153.7296 H   0  0  0  0  0  0  0  0  0  0  0  0
  150.7857  142.2862  155.2568 H   0  0  0  0  0  0  0  0  0  0  0  0
  149.3092  141.8737  153.4905 H   0  0  0  0  0  0  0  0  0  0  0  0
  147.7647  139.7796  155.0485 H   0  0  0  0  0  0  0  0  0  0  0  0
  148.8235  135.5485  159.2670 H   0  0  0  0  0  0  0  0  0  0  0  0
  148.4916  139.4251  156.9851 H   0  0  0  0  0  0  0  0  0  0  0  0
  149.0949  140.5267  157.1237 H   0  0  0  0  0  0  0  0  0  0  0  0
  150.5896  141.3064  157.5806 H   0  0  0  0  0  0  0  0  0  0  0  0
  149.1234  143.2007  156.6090 H   0  0  0  0  0  0  0  0  0  0  0  0
  148.2415  143.0926  155.2674 H   0  0  0  0  0  0  0  0  0  0  0  0
  148.7228  140.0946  152.3869 H   0  0  0  0  0  0  0  0  0  0  0  0
  150.7496  135.2081  156.4376 H   0  0  0  0  0  0  0  0  0  0  0  0
  1  2  2  0  0  0  0
  1 22  1  0  0  0  0
  2 17  1  0  0  0  0
  2  3  1  0  0  0  0
  3  4  2  0  0  0  0
  4  5  1  0  0  0  0
  4 23  1  0  0  0  0
  5  6  1  0  0  0  0
  5 15  1  0  0  0  0
  6 18  1  0  0  0  0
  6 13  1  0  0  0  0
  6  7  1  0  0  0  0
  7  8  1  0  0  0  0
  8 19  1  0  0  0  0
  8  9  1  0  0  0  0
  8 11  1  0  0  0  0
  9 10  1  0  0  0  0
  9 24  1  0  0  0  0
  9 25  1  0  0  0  0
 10 26  1  0  0  0  0
 11 20  1  0  0  0  0
 11 12  1  0  0  0  0
 11 13  1  0  0  0  0
 12 27  1  0  0  0  0
 13 21  1  0  0  0  0
 13 14  1  0  0  0  0
 14 28  1  0  0  0  0
 15 16  2  0  0  0  0
 15 17  1  0  0  0  0
 17 29  1  0  0  0  0
M  END
> <s_m_source_file>
AV-unprocessed.smi

> <i_m_source_file_index>
72

> <i_lp_mmshare_version>
43012

> <i_f3d_flags>
0

> <s_epik_input>
W05IMl1jMW5bY0hdbihjKD1PKW4xKVtDQEBIXTJPW0NASF0oW0NIMl1bT0hdKVtDQEBIXShbT0hdKVtDQEhdMltPSF0=

> <s_epik_cmdline>
J2VwaWtfcHl0aG9uJywgJy1waCcsICc3LjAnLCAnLXRuJywgJzgnLCAnLW1hJywgJzIwMCcsICctbWV0YWxfYmluZGluZycsICctaW1hZScsICc8aW5maWxlLm1hZT4nLCAnLW9tYWUnLCAnPG91dGZpbGUubWFlPic=

> <r_lp_tautomer_probability>
7.17554e-07

> <r_epik_Ionization_Penalty>
0.0066451

> <r_epik_Ionization_Penalty_Charging>
0.00663793

> <r_epik_Ionization_Penalty_Neutral>
7.17052e-06

> <r_epik_State_Penalty>
0.419231

> <r_epik_Charging_Adjusted_Penalty>
0.425868

> <i_epik_Tot_Q>
0

> <i_epik_Tot_abs_Q>
0

> <r_epik_Metal_State_Penalty>
1.44144

> <b_epik_Metal_Only>
0

> <s_epik_Chemistry_Notes>
This compound contains an acetal/aminal-like group ( X-CH(R)-Y where X, Y are N, S, or O) that may be acid/base labile, releasing an aldehyde.

> <s_lp_Force_Field>
OPLS_2005

> <r_lp_Energy>
41.47

> <b_lp_Chiralities_Consistent>
1

> <s_lp_Variant>
AV-unprocessed.smi:72-5

> <Gold.Version>
5.8.1

> <Gold.Id.Protein>
6NUR|6NUR_protein|mol2

> <Gold.PLP.Fitness>
38.9101

> <Gold.PLP.PLP>
-22.0719

> <Gold.PLP.part.hbond>
-5.6924

> <Gold.PLP.part.metal>
0.0000

> <Gold.PLP.part.buried>
-5.0373

> <Gold.PLP.part.nonpolar>
-12.6296

> <Gold.PLP.part.repulsive>
0.2915

> <Gold.PLP.ligand.clash>
0.0000

> <Gold.PLP.ligand.torsion>
0.5288

> <Gold.PLP.Chemscore.Hbond>
5.9325

> <Gold.PLP.Chemscore.CHOScore>
0.0000

> <Gold.PLP.Chemscore.Metal>
0.0000

> <Gold.Chemscore.Hbonds>
donor molecule, donor type, donor heavy atom, donor atom, acceptor molecule, acceptor atom, score
      L1  H    10    26       P1  8028  1.00
      L1  H    12    27       P1  8028  1.00
      L1  H    14    28       P1  7957  0.94
      P1  H  6896  6907       L1     1  0.60
      P1  H  7989  7998       L1     7  0.90
      P1  H 10752 10763       L1    16  0.83

> <Gold.PLP.Chemscore.Internal.Correction>
0.0983

> <Gold.Rescore>
     Score         DG    S(hbond)    S(metal)    S(lipo)     H(rot)  DE(clash)    DE(int)     intcor
     13.68     -14.38       4.87        0.00      26.02       4.06       0.00       0.70       ----

> <Gold.Chemscore.Fitness>
13.6783

> <Gold.Chemscore.DG>
-14.3831

> <Gold.Chemscore.ZeroCoef>
-5.4800

> <Gold.Chemscore.Hbond>
4.8661

> <Gold.Chemscore.Metal>
0.0000

> <Gold.Chemscore.Lipo>
26.0159

> <Gold.Chemscore.Internal_Hbond>
0.0000

> <Gold.Chemscore.DEClash>
0.0000

> <Gold.Chemscore.DEInternal>
0.7049

> <Gold.Chemscore.Rot>
4.0600

> <Gold.Chemscore.Internal.Correction>
   9.000000E+99

> <Gold.Chemscore.Hbonds>
donor molecule, donor type, donor heavy atom, donor atom, acceptor molecule, acceptor atom, score
      L1  H    10    26       P1  8028  0.98
      L1  H    12    27       P1  8028  0.97
      L1  H    14    28       P1  7957  0.89
      P1  H  6896  6907       L1     1  0.04
      P1  H  7989  7998       L1     7  0.11
      P1  H 10752 10763       L1    16  0.80

> <Gold.Chemscore.Hbond.Weighted>
-16.2529

> <Gold.Chemscore.Metal.Weighted>
-0.0000

> <Gold.Chemscore.Lipo.Weighted>
-3.0439

> <Gold.Chemscore.Internal_Hbond.Weighted>
0.0000

> <Gold.Chemscore.DEClash.Weighted>
0.0000

> <Gold.Chemscore.DEInternal.Weighted>
0.7049

> <Gold.Chemscore.Rot.Weighted>
10.3936

> <Gold.Chemscore.Internal.Correction.Weighted>
   9.000000E+99

> <Gold.Protein.RotatedTorsions>
[ 6907 6896 6895 6894 ] final  -67.24 input  -60.11 | X-H torsion
[ 7974 7965 7964 7962 ] final   54.28 input  175.53 | X-H torsion
[ 8008 7997 7996 7995 ] final  -15.34 input   59.86 | X-H torsion
[ 10167 10162 10161 10158 ] final -148.27 input  -65.29 | X-H torsion
[ 10718 10713 10712 10709 ] final  129.02 input   66.30 | X-H torsion
[ 10763 10752 10751 10750 ] final   53.96 input  -60.55 | X-H torsion
[ 11005 11000 10999 10996 ] final -153.72 input  -57.11 | X-H torsion

> <Gold.Protein.ActiveResidues>
 VAL166  LYS551  ARG553  GLY616  TRP617  ASP618  TYR619  PRO620  LYS621  CYS622 
 ASP623  PHE694  ASN695  SER759  ASP760  ASP761  ALA762  ILE779  LEU786  VAL792 
 PHE793  MET794  SER795  GLU796  ALA797  LYS798  CYS799  TRP800  GLU811  SER814 

> <Gold.Protein.RotatedAtoms>
  150.7420  134.5908  159.5986 H   0  0  0  0  0  0  0  0  0  0  0  0  # atno 6907 bound_to 6896
  152.3296  134.7273  160.0302 H   0  0  0  0  0  0  0  0  0  0  0  0  # atno 6908 bound_to 6896
  151.7761  133.3309  159.3495 H   0  0  0  0  0  0  0  0  0  0  0  0  # atno 6909 bound_to 6896
  145.9624  139.4072  143.0240 H   0  0  0  0  0  0  0  0  0  0  0  0  # atno 7974 bound_to 7965
  154.5138  140.2199  155.9105 H   0  0  0  0  0  0  0  0  0  0  0  0  # atno 8008 bound_to 7997
  156.1584  140.3147  155.8730 H   0  0  0  0  0  0  0  0  0  0  0  0  # atno 8009 bound_to 7997
  155.3801  140.0472  157.3034 H   0  0  0  0  0  0  0  0  0  0  0  0  # atno 8010 bound_to 7997
  139.7547  143.8466  152.2594 H   0  0  0  0  0  0  0  0  0  0  0  0  # atno 10167 bound_to 10162
  157.5192  131.1098  150.9179 H   0  0  0  0  0  0  0  0  0  0  0  0  # atno 10718 bound_to 10713
  152.9800  135.5761  154.4826 H   0  0  0  0  0  0  0  0  0  0  0  0  # atno 10763 bound_to 10752
  154.4372  135.2775  155.1874 H   0  0  0  0  0  0  0  0  0  0  0  0  # atno 10764 bound_to 10752
  154.3557  135.6199  153.5719 H   0  0  0  0  0  0  0  0  0  0  0  0  # atno 10765 bound_to 10752
  140.7051  134.3895  157.5205 H   0  0  0  0  0  0  0  0  0  0  0  0  # atno 11005 bound_to 11000
  145.8021  140.9766  143.0993 LP  0  0  0  0  0  0  0  0  0  0  0  0  # atno 17320 bound_to 7965
  144.6818  139.9814  143.7483 LP  0  0  0  0  0  0  0  0  0  0  0  0  # atno 17321 bound_to 7965
  139.8454  144.7190  150.9279 LP  0  0  0  0  0  0  0  0  0  0  0  0  # atno 17342 bound_to 10162
  140.7801  143.3946  151.1252 LP  0  0  0  0  0  0  0  0  0  0  0  0  # atno 17343 bound_to 10162
  156.9795  130.5521  149.5295 LP  0  0  0  0  0  0  0  0  0  0  0  0  # atno 17370 bound_to 10713
  156.0341  130.5430  150.8610 LP  0  0  0  0  0  0  0  0  0  0  0  0  # atno 17371 bound_to 10713
  139.8886  134.8851  156.2464 LP  0  0  0  0  0  0  0  0  0  0  0  0  # atno 17394 bound_to 11000
  141.0131  133.7084  156.1145 LP  0  0  0  0  0  0  0  0  0  0  0  0  # atno 17395 bound_to 11000

$$$$
