AV-unprocessed.smi:865|AV-procd|sdf|3990|dock7
  -GOLD-   22720 1473D 1   1.00000     0.00000
 Structure written by MMmdl.
 36 36  0  0  0  0  0  0  0  0  1 V2000
  145.5843  136.0285  151.0046 C   0  0  0  0  0  0  0  0  0  0  0  0
  145.0725  136.7718  152.2477 C   0  0  0  0  0  0  0  0  0  0  0  0
  146.1874  137.3941  153.1282 C   0  0  0  0  0  0  0  0  0  0  0  0
  145.7516  137.4909  154.6129 C   0  0  0  0  0  0  0  0  0  0  0  0
  145.2945  136.1634  155.2365 C   0  0  0  0  0  0  0  0  0  0  0  0
  146.6917  138.7553  152.5708 C   0  0  2  0  0  0  0  0  0  0  0  0
  147.2078  138.5586  151.2680 O   0  0  0  0  0  0  0  0  0  0  0  0
  147.7791  139.4172  153.4475 C   0  0  0  0  0  0  0  0  0  0  0  0
  148.9926  138.6097  153.4918 N   0  0  0  0  0  0  0  0  0  0  0  0
  150.1362  138.9659  154.0964 C   0  0  0  0  0  0  0  0  0  0  0  0
  150.3118  140.0584  154.6348 O   0  0  0  0  0  0  0  0  0  0  0  0
  151.2509  137.9208  154.1110 C   0  0  0  0  0  0  0  0  0  0  0  0
  150.9011  136.8119  154.9785 N   0  0  0  0  0  0  0  0  0  0  0  0
  149.8332  136.0113  154.9912 C   0  0  0  0  0  0  0  0  0  0  0  0
  149.9156  135.1024  155.9510 N   0  0  0  0  0  0  0  0  0  0  0  0
  151.1294  135.3892  156.5531 N   0  0  0  0  0  0  0  0  0  0  0  0
  151.7191  136.4023  155.9801 N   0  0  0  0  0  0  0  0  0  0  0  0
  144.7495  135.7066  150.3818 H   0  0  0  0  0  0  0  0  0  0  0  0
  146.1528  135.1364  151.2645 H   0  0  0  0  0  0  0  0  0  0  0  0
  146.2209  136.6702  150.3951 H   0  0  0  0  0  0  0  0  0  0  0  0
  144.4007  137.5528  151.8944 H   0  0  0  0  0  0  0  0  0  0  0  0
  144.4564  136.0985  152.8446 H   0  0  0  0  0  0  0  0  0  0  0  0
  147.0367  136.7100  153.0944 H   0  0  0  0  0  0  0  0  0  0  0  0
  146.5537  137.9189  155.2147 H   0  0  0  0  0  0  0  0  0  0  0  0
  144.9165  138.1839  154.7021 H   0  0  0  0  0  0  0  0  0  0  0  0
  144.8821  136.3308  156.2317 H   0  0  0  0  0  0  0  0  0  0  0  0
  146.1175  135.4578  155.3466 H   0  0  0  0  0  0  0  0  0  0  0  0
  144.5190  135.6899  154.6339 H   0  0  0  0  0  0  0  0  0  0  0  0
  145.8498  139.4436  152.5016 H   0  0  0  0  0  0  0  0  0  0  0  0
  148.0272  139.0238  151.1967 H   0  0  0  0  0  0  0  0  0  0  0  0
  148.0713  140.3713  153.0082 H   0  0  0  0  0  0  0  0  0  0  0  0
  147.4136  139.6446  154.4507 H   0  0  0  0  0  0  0  0  0  0  0  0
  148.9437  137.6918  153.0735 H   0  0  0  0  0  0  0  0  0  0  0  0
  151.4368  137.5520  153.1010 H   0  0  0  0  0  0  0  0  0  0  0  0
  152.1795  138.3670  154.4696 H   0  0  0  0  0  0  0  0  0  0  0  0
  149.0068  136.0908  154.3006 H   0  0  0  0  0  0  0  0  0  0  0  0
  1  2  1  0  0  0  0
  1 18  1  0  0  0  0
  1 19  1  0  0  0  0
  1 20  1  0  0  0  0
  2  3  1  0  0  0  0
  2 21  1  0  0  0  0
  2 22  1  0  0  0  0
  3  4  1  0  0  0  0
  3  6  1  0  0  0  0
  3 23  1  0  0  0  0
  4  5  1  0  0  0  0
  4 24  1  0  0  0  0
  4 25  1  0  0  0  0
  5 26  1  0  0  0  0
  5 27  1  0  0  0  0
  5 28  1  0  0  0  0
  6  7  1  0  0  0  0
  6  8  1  0  0  0  0
  6 29  1  0  0  0  0
  7 30  1  0  0  0  0
  8  9  1  0  0  0  0
  8 31  1  0  0  0  0
  8 32  1  0  0  0  0
  9 10  1  0  0  0  0
  9 33  1  0  0  0  0
 10 11  2  0  0  0  0
 10 12  1  0  0  0  0
 12 13  1  0  0  0  0
 12 34  1  0  0  0  0
 12 35  1  0  0  0  0
 13 17  1  0  0  0  0
 13 14  1  0  0  0  0
 14 15  2  0  0  0  0
 14 36  1  0  0  0  0
 15 16  1  0  0  0  0
 16 17  2  0  0  0  0
M  END
> <s_m_source_file>
AV-unprocessed.smi

> <i_m_source_file_index>
865

> <i_lp_mmshare_version>
43012

> <i_f3d_flags>
0

> <s_epik_input>
W0NIM11bQ0gyXVtDSF0oW0NIMl1bQ0gzXSlbQ0BIXShbT0hdKVtDSDJdW05IXUMoPU8pW0NIMl1uMVtjSF1ubm4x

> <s_epik_cmdline>
J2VwaWtfcHl0aG9uJywgJy1waCcsICc3LjAnLCAnLXRuJywgJzgnLCAnLW1hJywgJzIwMCcsICctbWV0YWxfYmluZGluZycsICctaW1hZScsICc8aW5maWxlLm1hZT4nLCAnLW9tYWUnLCAnPG91dGZpbGUubWFlPic=

> <r_lp_tautomer_probability>
1

> <r_epik_Ionization_Penalty>
9.39891e-07

> <r_epik_Ionization_Penalty_Charging>
0

> <r_epik_Ionization_Penalty_Neutral>
9.39891e-07

> <r_epik_State_Penalty>
-0

> <r_epik_Charging_Adjusted_Penalty>
0

> <i_epik_Tot_Q>
0

> <i_epik_Tot_abs_Q>
0

> <r_epik_Metal_State_Penalty>
-0

> <b_epik_Metal_Only>
0

> <s_lp_Force_Field>
OPLS_2005

> <r_lp_Energy>
13.4574

> <b_lp_Chiralities_Consistent>
1

> <s_lp_Variant>
AV-unprocessed.smi:865-1

> <Gold.Version>
5.8.1

> <Gold.Id.Protein>
6NUR|6NUR_protein|mol2

> <Gold.PLP.Fitness>
42.4397

> <Gold.PLP.PLP>
-28.1172

> <Gold.PLP.part.hbond>
-7.0000

> <Gold.PLP.part.metal>
0.0000

> <Gold.PLP.part.buried>
-2.4829

> <Gold.PLP.part.nonpolar>
-18.5728

> <Gold.PLP.part.repulsive>
0.2069

> <Gold.PLP.ligand.clash>
0.0000

> <Gold.PLP.ligand.torsion>
0.4454

> <Gold.PLP.Chemscore.Hbond>
4.0000

> <Gold.PLP.Chemscore.CHOScore>
1.0000

> <Gold.PLP.Chemscore.Metal>
0.0000

> <Gold.Chemscore.Hbonds>
donor molecule, donor type, donor heavy atom, donor atom, acceptor molecule, acceptor atom, score
      L1  H     7    30       P1  7957  1.00
      L1  H     9    33       P1  7948  1.00
      P1  H  7989  7998       L1    11  1.00
      P1  H 10752 10764       L1    17  1.00
      L1  C    14    36       P1  7948  1.00

> <Gold.PLP.Chemscore.Internal.Correction>
0.2133

> <Gold.Rescore>
     Score         DG    S(hbond)    S(metal)    S(lipo)     H(rot)  DE(clash)    DE(int)     intcor
     10.54     -11.35       3.39        0.00      36.50       3.80       0.07       0.74       ----

> <Gold.Chemscore.Fitness>
10.5353

> <Gold.Chemscore.DG>
-11.3464

> <Gold.Chemscore.ZeroCoef>
-5.4800

> <Gold.Chemscore.Hbond>
3.3876

> <Gold.Chemscore.Metal>
0.0000

> <Gold.Chemscore.Lipo>
36.4999

> <Gold.Chemscore.Internal_Hbond>
0.0000

> <Gold.Chemscore.DEClash>
0.0712

> <Gold.Chemscore.DEInternal>
0.7398

> <Gold.Chemscore.Rot>
3.7964

> <Gold.Chemscore.Internal.Correction>
   9.000000E+99

> <Gold.Chemscore.Hbonds>
donor molecule, donor type, donor heavy atom, donor atom, acceptor molecule, acceptor atom, score
      L1  H     7    30       P1  7957  0.50
      L1  H     9    33       P1  7948  1.00
      P1  H  7989  7998       L1    11  0.34
      P1  H 10752 10764       L1    17  0.11

> <Gold.Chemscore.Hbond.Weighted>
-11.3147

> <Gold.Chemscore.Metal.Weighted>
-0.0000

> <Gold.Chemscore.Lipo.Weighted>
-4.2705

> <Gold.Chemscore.Internal_Hbond.Weighted>
0.0000

> <Gold.Chemscore.DEClash.Weighted>
0.0712

> <Gold.Chemscore.DEInternal.Weighted>
0.7398

> <Gold.Chemscore.Rot.Weighted>
9.7188

> <Gold.Chemscore.Internal.Correction.Weighted>
   9.000000E+99

> <Gold.Protein.RotatedTorsions>
[ 6907 6896 6895 6894 ] final -165.97 input  -60.11 | X-H torsion
[ 7974 7965 7964 7962 ] final   -1.90 input  175.53 | X-H torsion
[ 8008 7997 7996 7995 ] final  -73.65 input   59.86 | X-H torsion
[ 10167 10162 10161 10158 ] final -167.93 input  -65.29 | X-H torsion
[ 10718 10713 10712 10709 ] final   -3.10 input   66.30 | X-H torsion
[ 10763 10752 10751 10750 ] final  -28.90 input  -60.55 | X-H torsion
[ 11005 11000 10999 10996 ] final  167.38 input  -57.11 | X-H torsion

> <Gold.Protein.ActiveResidues>
 VAL166  LYS551  ARG553  GLY616  TRP617  ASP618  TYR619  PRO620  LYS621  CYS622 
 ASP623  PHE694  ASN695  SER759  ASP760  ASP761  ALA762  ILE779  LEU786  VAL792 
 PHE793  MET794  SER795  GLU796  ALA797  LYS798  CYS799  TRP800  GLU811  SER814 

> <Gold.Protein.RotatedAtoms>
  151.4362  133.3656  159.2775 H   0  0  0  0  0  0  0  0  0  0  0  0  # atno 6907 bound_to 6896
  150.9190  134.8609  159.7487 H   0  0  0  0  0  0  0  0  0  0  0  0  # atno 6908 bound_to 6896
  152.4972  134.4298  159.9560 H   0  0  0  0  0  0  0  0  0  0  0  0  # atno 6909 bound_to 6896
  146.2411  140.1490  142.8334 H   0  0  0  0  0  0  0  0  0  0  0  0  # atno 7974 bound_to 7965
  154.5265  140.0775  156.8267 H   0  0  0  0  0  0  0  0  0  0  0  0  # atno 8008 bound_to 7997
  155.3465  140.3410  155.4221 H   0  0  0  0  0  0  0  0  0  0  0  0  # atno 8009 bound_to 7997
  156.1736  140.1628  156.8389 H   0  0  0  0  0  0  0  0  0  0  0  0  # atno 8010 bound_to 7997
  139.6017  144.0996  152.1750 H   0  0  0  0  0  0  0  0  0  0  0  0  # atno 10167 bound_to 10162
  156.7811  130.5331  149.5751 H   0  0  0  0  0  0  0  0  0  0  0  0  # atno 10718 bound_to 10713
  153.7559  135.6922  153.4935 H   0  0  0  0  0  0  0  0  0  0  0  0  # atno 10763 bound_to 10752
  153.1971  135.4450  155.0220 H   0  0  0  0  0  0  0  0  0  0  0  0  # atno 10764 bound_to 10752
  154.8170  135.3404  154.7077 H   0  0  0  0  0  0  0  0  0  0  0  0  # atno 10765 bound_to 10752
  140.2762  134.7787  157.3719 H   0  0  0  0  0  0  0  0  0  0  0  0  # atno 11005 bound_to 11000
  145.0183  140.8772  143.5182 LP  0  0  0  0  0  0  0  0  0  0  0  0  # atno 17320 bound_to 7965
  145.1535  139.2500  143.5429 LP  0  0  0  0  0  0  0  0  0  0  0  0  # atno 17321 bound_to 7965
  140.0594  144.5869  150.7275 LP  0  0  0  0  0  0  0  0  0  0  0  0  # atno 17342 bound_to 10162
  140.7255  143.2632  151.4135 LP  0  0  0  0  0  0  0  0  0  0  0  0  # atno 17343 bound_to 10162
  156.1217  130.6115  151.0204 LP  0  0  0  0  0  0  0  0  0  0  0  0  # atno 17370 bound_to 10713
  157.6646  131.0874  150.7759 LP  0  0  0  0  0  0  0  0  0  0  0  0  # atno 17371 bound_to 10713
  140.1326  134.5075  155.8093 LP  0  0  0  0  0  0  0  0  0  0  0  0  # atno 17394 bound_to 11000
  141.2170  133.6795  156.7067 LP  0  0  0  0  0  0  0  0  0  0  0  0  # atno 17395 bound_to 11000

$$$$
