AV-unprocessed.smi:51|AV-procd|sdf|501|dock4
  -GOLD-   2262016373D 1   1.00000     0.00000
 Structure written by MMmdl.
 25 26  0  0  0  0  0  0  0  0  2 V2000
  151.9300  137.3927  154.7661 O   0  0  0  0  0  0  0  0  0  0  0  0
  152.0674  138.5546  155.2063 C   0  0  0  0  0  0  0  0  0  0  0  0
  153.1594  139.1456  155.3652 O   0  5  0  0  0  0  0  0  0  0  0  0
  150.7827  139.3132  155.5718 C   0  0  2  0  0  0  0  0  0  0  0  0
  149.8616  139.5032  154.3544 C   0  0  0  0  0  0  0  0  0  0  0  0
  149.1568  140.8253  154.6538 C   0  0  2  0  0  0  0  0  0  0  0  0
  148.6771  141.4619  153.4884 O   0  0  0  0  0  0  0  0  0  0  0  0
  150.2280  141.6490  155.3710 C   0  0  0  0  0  0  0  0  0  0  0  0
  151.0535  140.6666  156.0591 N   0  0  0  0  0  0  0  0  0  0  0  0
  151.5758  140.9301  157.3417 C   0  0  0  0  0  0  0  0  0  0  0  0
  151.6009  142.2456  157.8637 C   0  0  0  0  0  0  0  0  0  0  0  0
  152.1453  142.4085  159.1532 C   0  0  0  0  0  0  0  0  0  0  0  0
  152.6201  141.3644  159.8642 N   0  0  0  0  0  0  0  0  0  0  0  0
  152.5519  140.1660  159.2809 C   0  0  0  0  0  0  0  0  0  0  0  0
  152.0582  139.8951  158.0712 N   0  0  0  0  0  0  0  0  0  0  0  0
  150.2411  138.7666  156.3453 H   0  0  0  0  0  0  0  0  0  0  0  0
  150.4418  139.5942  153.4338 H   0  0  0  0  0  0  0  0  0  0  0  0
  149.1622  138.6766  154.2261 H   0  0  0  0  0  0  0  0  0  0  0  0
  148.3232  140.6429  155.3335 H   0  0  0  0  0  0  0  0  0  0  0  0
  148.8404  140.8930  152.7515 H   0  0  0  0  0  0  0  0  0  0  0  0
  150.8585  142.1877  154.6622 H   0  0  0  0  0  0  0  0  0  0  0  0
  149.7702  142.3750  156.0439 H   0  0  0  0  0  0  0  0  0  0  0  0
  151.2362  143.0954  157.3064 H   0  0  0  0  0  0  0  0  0  0  0  0
  152.2011  143.3829  159.6153 H   0  0  0  0  0  0  0  0  0  0  0  0
  152.9314  139.3290  159.8479 H   0  0  0  0  0  0  0  0  0  0  0  0
  1  2  2  0  0  0  0
  2  3  1  0  0  0  0
  2  4  1  0  0  0  0
  4  9  1  0  0  0  0
  4  5  1  0  0  0  0
  4 16  1  0  0  0  0
  5  6  1  0  0  0  0
  5 17  1  0  0  0  0
  5 18  1  0  0  0  0
  6  7  1  0  0  0  0
  6  8  1  0  0  0  0
  6 19  1  0  0  0  0
  7 20  1  0  0  0  0
  8  9  1  0  0  0  0
  8 21  1  0  0  0  0
  8 22  1  0  0  0  0
  9 10  1  0  0  0  0
 10 15  1  0  0  0  0
 10 11  2  0  0  0  0
 11 12  1  0  0  0  0
 11 23  1  0  0  0  0
 12 13  2  0  0  0  0
 12 24  1  0  0  0  0
 13 14  1  0  0  0  0
 14 15  2  0  0  0  0
 14 25  1  0  0  0  0
M  CHG  1   3  -1
M  END
> <s_m_source_file>
AV-unprocessed.smi

> <i_m_source_file_index>
51

> <i_lp_mmshare_version>
43012

> <i_f3d_flags>
0

> <s_epik_input>
Tz1DKFtPSF0pW0NAQEhdMVtDSDJdW0NAQEhdKFtPSF0pW0NIMl1OMWMyW2NIXVtjSF1uW2NIXW4y

> <s_epik_cmdline>
J2VwaWtfcHl0aG9uJywgJy1waCcsICc3LjAnLCAnLXRuJywgJzgnLCAnLW1hJywgJzIwMCcsICctbWV0YWxfYmluZGluZycsICctaW1hZScsICc8aW5maWxlLm1hZT4nLCAnLW9tYWUnLCAnPG91dGZpbGUubWFlPic=

> <r_lp_tautomer_probability>
1

> <r_epik_Ionization_Penalty>
0.225251

> <r_epik_Ionization_Penalty_Charging>
0.000248217

> <r_epik_Ionization_Penalty_Neutral>
0.225002

> <r_epik_State_Penalty>
0.21284

> <r_epik_Charging_Adjusted_Penalty>
0.213088

> <i_epik_Tot_Q>
-1

> <i_epik_Tot_abs_Q>
1

> <r_epik_Metal_State_Penalty>
0.154111

> <b_epik_Metal_Only>
0

> <s_lp_Force_Field>
OPLS_2005

> <r_lp_Energy>
15.7166

> <b_lp_Chiralities_Consistent>
1

> <s_lp_Variant>
AV-unprocessed.smi:51-3

> <Gold.Version>
5.8.1

> <Gold.Id.Protein>
6NUR|6NUR_protein|mol2

> <Gold.PLP.Fitness>
44.1972

> <Gold.PLP.PLP>
-29.9214

> <Gold.PLP.part.hbond>
-4.0000

> <Gold.PLP.part.metal>
0.0000

> <Gold.PLP.part.buried>
-4.0833

> <Gold.PLP.part.nonpolar>
-21.3606

> <Gold.PLP.part.repulsive>
0.1115

> <Gold.PLP.ligand.clash>
0.0000

> <Gold.PLP.ligand.torsion>
0.0859

> <Gold.PLP.Chemscore.Hbond>
4.7600

> <Gold.PLP.Chemscore.CHOScore>
0.0000

> <Gold.PLP.Chemscore.Metal>
0.0000

> <Gold.Chemscore.Hbonds>
donor molecule, donor type, donor heavy atom, donor atom, acceptor molecule, acceptor atom, score
      L1  H     7    20       P1  7957  1.00
      P1  H  7997  8008       L1     3  2.00
      P1  H 10752 10765       L1     1  1.78

> <Gold.PLP.Chemscore.Internal.Correction>
0.1676

> <Gold.Rescore>
     Score         DG    S(hbond)    S(metal)    S(lipo)     H(rot)  DE(clash)    DE(int)     intcor
     15.90     -16.22       2.84        0.00      47.72       1.69       0.18       0.14       ----

> <Gold.Chemscore.Fitness>
15.9014

> <Gold.Chemscore.DG>
-16.2217

> <Gold.Chemscore.ZeroCoef>
-5.4800

> <Gold.Chemscore.Hbond>
2.8388

> <Gold.Chemscore.Metal>
0.0000

> <Gold.Chemscore.Lipo>
47.7210

> <Gold.Chemscore.Internal_Hbond>
0.0000

> <Gold.Chemscore.DEClash>
0.1834

> <Gold.Chemscore.DEInternal>
0.1369

> <Gold.Chemscore.Rot>
1.6887

> <Gold.Chemscore.Internal.Correction>
   9.000000E+99

> <Gold.Chemscore.Hbonds>
donor molecule, donor type, donor heavy atom, donor atom, acceptor molecule, acceptor atom, score
      L1  H     7    20       P1  7957  0.99
      P1  H  7997  8008       L1     3  1.00
      P1  H 10752 10765       L1     1  0.82

> <Gold.Chemscore.Hbond.Weighted>
-9.4815

> <Gold.Chemscore.Metal.Weighted>
-0.0000

> <Gold.Chemscore.Lipo.Weighted>
-5.5834

> <Gold.Chemscore.Internal_Hbond.Weighted>
0.0000

> <Gold.Chemscore.DEClash.Weighted>
0.1834

> <Gold.Chemscore.DEInternal.Weighted>
0.1369

> <Gold.Chemscore.Rot.Weighted>
4.3232

> <Gold.Chemscore.Internal.Correction.Weighted>
   9.000000E+99

> <Gold.Protein.RotatedTorsions>
[ 6907 6896 6895 6894 ] final  -54.73 input  -60.11 | X-H torsion
[ 7974 7965 7964 7962 ] final  170.17 input  175.53 | X-H torsion
[ 8008 7997 7996 7995 ] final  -25.64 input   59.86 | X-H torsion
[ 10167 10162 10161 10158 ] final  -34.64 input  -65.29 | X-H torsion
[ 10718 10713 10712 10709 ] final  169.95 input   66.30 | X-H torsion
[ 10763 10752 10751 10750 ] final  167.71 input  -60.55 | X-H torsion
[ 11005 11000 10999 10996 ] final  -12.85 input  -57.11 | X-H torsion

> <Gold.Protein.ActiveResidues>
 VAL166  LYS551  ARG553  GLY616  TRP617  ASP618  TYR619  PRO620  LYS621  CYS622 
 ASP623  PHE694  ASN695  SER759  ASP760  ASP761  ALA762  ILE779  LEU786  VAL792 
 PHE793  MET794  SER795  GLU796  ALA797  LYS798  CYS799  TRP800  GLU811  SER814 

> <Gold.Protein.RotatedAtoms>
  150.8312  134.7566  159.6854 H   0  0  0  0  0  0  0  0  0  0  0  0  # atno 6907 bound_to 6896
  152.4416  134.5575  159.9894 H   0  0  0  0  0  0  0  0  0  0  0  0  # atno 6908 bound_to 6896
  151.5736  133.3349  159.3030 H   0  0  0  0  0  0  0  0  0  0  0  0  # atno 6909 bound_to 6896
  144.7332  139.9163  143.6418 H   0  0  0  0  0  0  0  0  0  0  0  0  # atno 7974 bound_to 7965
  154.4465  140.1921  156.0651 H   0  0  0  0  0  0  0  0  0  0  0  0  # atno 8008 bound_to 7997
  156.0553  140.3303  155.7371 H   0  0  0  0  0  0  0  0  0  0  0  0  # atno 8009 bound_to 7997
  155.5494  140.0593  157.2844 H   0  0  0  0  0  0  0  0  0  0  0  0  # atno 8010 bound_to 7997
  140.7181  143.3533  151.2110 H   0  0  0  0  0  0  0  0  0  0  0  0  # atno 10167 bound_to 10162
  157.0153  131.0216  151.2791 H   0  0  0  0  0  0  0  0  0  0  0  0  # atno 10718 bound_to 10713
  154.3578  135.2753  155.2336 H   0  0  0  0  0  0  0  0  0  0  0  0  # atno 10763 bound_to 10752
  154.4538  135.5924  153.6213 H   0  0  0  0  0  0  0  0  0  0  0  0  # atno 10764 bound_to 10752
  152.9845  135.6048  154.3795 H   0  0  0  0  0  0  0  0  0  0  0  0  # atno 10765 bound_to 10752
  140.7700  133.8446  155.9198 H   0  0  0  0  0  0  0  0  0  0  0  0  # atno 11005 bound_to 11000
  146.0963  139.3955  143.0374 LP  0  0  0  0  0  0  0  0  0  0  0  0  # atno 17320 bound_to 7965
  145.7641  140.9923  143.1184 LP  0  0  0  0  0  0  0  0  0  0  0  0  # atno 17321 bound_to 7965
  139.7069  143.9440  152.2930 LP  0  0  0  0  0  0  0  0  0  0  0  0  # atno 17342 bound_to 10162
  139.9152  144.6832  150.8519 LP  0  0  0  0  0  0  0  0  0  0  0  0  # atno 17343 bound_to 10162
  157.5290  130.8046  149.7895 LP  0  0  0  0  0  0  0  0  0  0  0  0  # atno 17370 bound_to 10713
  156.0121  130.3828  150.2229 LP  0  0  0  0  0  0  0  0  0  0  0  0  # atno 17371 bound_to 10713
  140.9583  134.1689  157.4674 LP  0  0  0  0  0  0  0  0  0  0  0  0  # atno 17394 bound_to 11000
  139.8757  134.9935  156.5648 LP  0  0  0  0  0  0  0  0  0  0  0  0  # atno 17395 bound_to 11000

$$$$
