#       Name:                AV-unprocessed.smi:787
#       Creating user name   scv26
#       Creation time:       Fri Mar 27 01:16:32 2020


#       File generated by GOLD software.
#

@<TRIPOS>MOLECULE
AV-unprocessed.smi:787
    52    54     1
SMALL
NO_CHARGES


@<TRIPOS>ATOM
      1 ****        -2.2574   1.9967  -4.5393 C.3            1 S1                 0.0000
      2 ****        -2.1868   1.4244  -3.2044 N.pl3          1 S1                 0.0000
      3 ****        -3.3456   0.9728  -2.5573 C.ar           1 S1                 0.0000
      4 ****        -4.5487   1.0995  -3.1637 N.ar           1 S1                 0.0000
      5 ****        -5.6295   0.6519  -2.5114 C.ar           1 S1                 0.0000
      6 ****        -5.7087   0.0734  -1.3032 N.ar           1 S1                 0.0000
      7 ****        -4.5221  -0.0572  -0.6943 C.ar           1 S1                 0.0000
      8 ****        -4.3078  -0.6178   0.5531 N.2            1 S1                 0.0000
      9 ****        -2.9881  -0.5031   0.6775 C.2            1 S1                 0.0000
     10 ****        -2.3140   0.0677  -0.3399 N.pl3          1 S1                 0.0000
     11 ****        -0.8784   0.2850  -0.4021 C.3            1 S1                 0.0000
     12 ****        -0.1082  -0.9654  -0.8758 C.3            1 S1                 0.0000
     13 ****        -0.5787  -1.3689  -2.1467 O.3            1 S1                 0.0000
     14 ****         1.4102  -0.7195  -0.9943 C.3            1 S1                 0.0000
     15 ****         2.0823  -0.2876   0.2329 N.3            1 S1                 0.0000
     16 ****         3.4372   0.1626  -0.0723 C.3            1 S1                 0.0000
     17 ****         2.0939  -1.3324   1.2609 C.3            1 S1                 0.0000
     18 ****         2.5801  -0.8494   2.6167 C.ar           1 S1                 0.0000
     19 ****         1.8676   0.1547   3.3064 C.ar           1 S1                 0.0000
     20 ****         2.3158   0.6036   4.5640 C.ar           1 S1                 0.0000
     21 ****         3.4758   0.0485   5.1375 C.ar           1 S1                 0.0000
     22 ****         4.1880  -0.9558   4.4532 C.ar           1 S1                 0.0000
     23 ****         3.7410  -1.4046   3.1950 C.ar           1 S1                 0.0000
     24 ****        -3.2955   0.3811  -1.2789 C.ar           1 S1                 0.0000
     25 ****        -1.2581   2.2635  -4.8826 H              1 S1                 0.0000
     26 ****        -2.8714   2.8979  -4.5412 H              1 S1                 0.0000
     27 ****        -2.6811   1.2814  -5.2449 H              1 S1                 0.0000
     28 ****        -1.2896   1.3459  -2.7482 H              1 S1                 0.0000
     29 ****        -6.5686   0.7745  -3.0303 H              1 S1                 0.0000
     30 ****        -2.4787  -0.8565   1.5623 H              1 S1                 0.0000
     31 ****        -0.6708   1.1377  -1.0472 H              1 S1                 0.0000
     32 ****        -0.5422   0.5746   0.5945 H              1 S1                 0.0000
     33 ****        -0.3083  -1.7941  -0.1975 H              1 S1                 0.0000
     34 ****        -0.4293  -0.6671  -2.7617 H              1 S1                 0.0000
     35 ****         1.8942  -1.6215  -1.3724 H              1 S1                 0.0000
     36 ****         1.5600   0.0409  -1.7626 H              1 S1                 0.0000
     37 ****         3.9309   0.5633   0.8133 H              1 S1                 0.0000
     38 ****         3.4230   0.9573  -0.8190 H              1 S1                 0.0000
     39 ****         4.0460  -0.6555  -0.4600 H              1 S1                 0.0000
     40 ****         1.0889  -1.7179   1.4242 H              1 S1                 0.0000
     41 ****         2.6972  -2.1791   0.9298 H              1 S1                 0.0000
     42 ****         0.9769   0.5832   2.8705 H              1 S1                 0.0000
     43 ****         1.7696   1.3737   5.0888 H              1 S1                 0.0000
     44 ****         3.8189   0.3925   6.1022 H              1 S1                 0.0000
     45 ****         5.0773  -1.3820   4.8934 H              1 S1                 0.0000
     46 ****         4.2932  -2.1741   2.6756 H              1 S1                 0.0000
     47 ****        -4.6283   1.5142  -4.0702 LP             1 S1                 0.0000
     48 ****        -6.5701  -0.2309  -0.8965 LP             1 S1                 0.0000
     49 ****        -4.9708  -1.0068   1.1927 LP             1 S1                 0.0000
     50 ****        -1.5572  -1.5688  -2.0954 LP             1 S1                 0.0000
     51 ****        -0.0864  -2.1871  -2.4436 LP             1 S1                 0.0000
     52 ****         1.5607   0.4773   0.6110 LP             1 S1                 0.0000
@<TRIPOS>BOND
    1    1    2 1     
    2    1   25 1     
    3    1   26 1     
    4    1   27 1     
    5    2    3 1     
    6    2   28 1     
    7    3   24 ar    
    8    3    4 ar    
    9    4    5 ar    
   10    5    6 ar    
   11    5   29 1     
   12    6    7 ar    
   13    7   24 ar    
   14    7    8 1     
   15    8    9 2     
   16    9   10 1     
   17    9   30 1     
   18   10   11 1     
   19   10   24 1     
   20   11   12 1     
   21   11   31 1     
   22   11   32 1     
   23   12   13 1     
   24   12   14 1     
   25   12   33 1     
   26   13   34 1     
   27   14   15 1     
   28   14   35 1     
   29   14   36 1     
   30   15   16 1     
   31   15   17 1     
   32   16   37 1     
   33   16   38 1     
   34   16   39 1     
   35   17   18 1     
   36   17   40 1     
   37   17   41 1     
   38   18   23 ar    
   39   18   19 ar    
   40   19   20 ar    
   41   19   42 1     
   42   20   21 ar    
   43   20   43 1     
   44   21   22 ar    
   45   21   44 1     
   46   22   23 ar    
   47   22   45 1     
   48   23   46 1     
   49    4   47 1     
   50    6   48 1     
   51    8   49 1     
   52   13   50 1     
   53   13   51 1     
   54   15   52 1     
@<TRIPOS>SUBSTRUCTURE
      1 S1             1
@<TRIPOS>SET
LONE_PAIRS      STATIC     ATOMS    <user>   **** ""
6 47 48 49 50 51 52
DONOR_HYDROGENS      STATIC     ATOMS    <user>   **** ""
2 28 34
ATOM$BLUE        STATIC     ATOMS    COLORGROUP SYSTEM
6 47 48 49 50 51 52
ATOM$RED        STATIC     ATOMS    COLORGROUP SYSTEM
2 28 34
