#       Name:                AV-unprocessed.smi:2229
#       Creating user name   scv26
#       Creation time:       Fri Mar 27 12:23:20 2020


#       File generated by GOLD software.
#

@<TRIPOS>MOLECULE
AV-unprocessed.smi:2229
    49    50     1
SMALL
NO_CHARGES


@<TRIPOS>ATOM
      1 ****        -2.2650   2.0770   1.2523 C.3            1 S1                 0.0000
      2 ****        -2.8517   0.9135   0.4340 C.3            1 S1                 0.0000
      3 ****        -4.3750   0.8442   0.6204 C.3            1 S1                 0.0000
      4 ****        -2.1980  -0.4429   0.7728 C.3            1 S1                 0.0000
      5 ****        -0.7146  -0.5288   0.3751 C.3            1 S1                 0.0000
      6 ****        -0.0698  -1.9098   0.6304 C.3            1 S1                 0.0000
      7 ****        -0.6284  -3.0344  -0.2477 C.3            1 S1                 0.0000
      8 ****         0.4107  -4.1450  -0.1345 C.3            1 S1                 0.0000
      9 ****         1.7555  -3.4161  -0.0909 C.3            1 S1                 0.0000
     10 ****         1.4693  -1.9983   0.4448 C.3            1 S1                 0.0000
     11 ****         1.9912  -0.9944  -0.4845 N.am           1 S1                 0.0000
     12 ****         2.5297   0.1852  -0.1381 C.2            1 S1                 0.0000
     13 ****         2.7091   0.5337   1.0292 O.2            1 S1                 0.0000
     14 ****         2.9234   1.1178  -1.2881 C.3            1 S1                 0.0000
     15 ****         2.4055   2.4719  -1.0873 N.am           1 S1                 0.0000
     16 ****         3.1890   3.5376  -0.6983 C.2            1 S1                 0.0000
     17 ****         2.4992   4.6193  -0.5679 N.2            1 S1                 0.0000
     18 ****         1.2470   4.2103  -0.8838 N.am           1 S1                 0.0000
     19 ****         1.1571   2.9181  -1.2013 C.2            1 S1                 0.0000
     20 ****         0.1499   2.2908  -1.5243 O.2            1 S1                 0.0000
     21 ****         0.4889   4.8772  -0.8606 H              1 S1                 0.0000
     22 ****        -2.3787   1.9058   2.3231 H              1 S1                 0.0000
     23 ****        -2.7664   3.0148   1.0119 H              1 S1                 0.0000
     24 ****        -1.2049   2.2235   1.0480 H              1 S1                 0.0000
     25 ****        -2.6659   1.1224  -0.6206 H              1 S1                 0.0000
     26 ****        -4.6379   0.6363   1.6581 H              1 S1                 0.0000
     27 ****        -4.8139   0.0606   0.0020 H              1 S1                 0.0000
     28 ****        -4.8491   1.7852   0.3391 H              1 S1                 0.0000
     29 ****        -2.3066  -0.6505   1.8379 H              1 S1                 0.0000
     30 ****        -2.7450  -1.2301   0.2536 H              1 S1                 0.0000
     31 ****        -0.6108  -0.2624  -0.6772 H              1 S1                 0.0000
     32 ****        -0.1602   0.2182   0.9418 H              1 S1                 0.0000
     33 ****        -0.2738  -2.1820   1.6674 H              1 S1                 0.0000
     34 ****        -1.6186  -3.3644   0.0679 H              1 S1                 0.0000
     35 ****        -0.7009  -2.7019  -1.2843 H              1 S1                 0.0000
     36 ****         0.2597  -4.6919   0.7971 H              1 S1                 0.0000
     37 ****         0.3489  -4.8621  -0.9537 H              1 S1                 0.0000
     38 ****         2.4759  -3.9477   0.5317 H              1 S1                 0.0000
     39 ****         2.1754  -3.3761  -1.0975 H              1 S1                 0.0000
     40 ****         1.9507  -1.8837   1.4178 H              1 S1                 0.0000
     41 ****         1.8871  -1.1930  -1.4691 H              1 S1                 0.0000
     42 ****         4.0113   1.1284  -1.3721 H              1 S1                 0.0000
     43 ****         2.5439   0.7304  -2.2355 H              1 S1                 0.0000
     44 ****         4.2589   3.3926  -0.5389 H              1 S1                 0.0000
     45 ****         2.4487  -0.0753   1.7784 LP             1 S1                 0.0000
     46 ****         3.1151   1.4257   1.2279 LP             1 S1                 0.0000
     47 ****         2.8105   5.5313  -0.3006 LP             1 S1                 0.0000
     48 ****         0.2155   1.3167  -1.7408 LP             1 S1                 0.0000
     49 ****        -0.7348   2.7548  -1.5705 LP             1 S1                 0.0000
@<TRIPOS>BOND
    1    1    2 1     
    2    1   22 1     
    3    1   23 1     
    4    1   24 1     
    5    2    3 1     
    6    2    4 1     
    7    2   25 1     
    8    3   26 1     
    9    3   27 1     
   10    3   28 1     
   11    4    5 1     
   12    4   29 1     
   13    4   30 1     
   14    5    6 1     
   15    5   31 1     
   16    5   32 1     
   17    6   10 1     
   18    6    7 1     
   19    6   33 1     
   20    7    8 1     
   21    7   34 1     
   22    7   35 1     
   23    8    9 1     
   24    8   36 1     
   25    8   37 1     
   26    9   10 1     
   27    9   38 1     
   28    9   39 1     
   29   10   11 1     
   30   10   40 1     
   31   11   12 am    
   32   11   41 1     
   33   12   13 2     
   34   12   14 1     
   35   14   15 1     
   36   14   42 1     
   37   14   43 1     
   38   15   19 am    
   39   15   16 1     
   40   16   17 2     
   41   16   44 1     
   42   17   18 1     
   43   18   21 1     
   44   18   19 am    
   45   19   20 2     
   46   13   45 1     
   47   13   46 1     
   48   17   47 1     
   49   20   48 1     
   50   20   49 1     
@<TRIPOS>SUBSTRUCTURE
      1 S1             1
@<TRIPOS>SET
LONE_PAIRS      STATIC     ATOMS    <user>   **** ""
5 45 46 47 48 49
DONOR_HYDROGENS      STATIC     ATOMS    <user>   **** ""
2 41 21
ATOM$BLUE        STATIC     ATOMS    COLORGROUP SYSTEM
5 45 46 47 48 49
ATOM$RED        STATIC     ATOMS    COLORGROUP SYSTEM
2 41 21
