AV-unprocessed.smi:283|AV-procd|sdf|2137|dock7
  -GOLD-   2262021463D 1   1.00000     0.00000
 Structure written by MMmdl.
 48 51  0  0  0  0  0  0  0  0  1 V2000
  149.6934  141.5882  156.8913 C   0  0  0  0  0  0  0  0  0  0  0  0
  151.2119  141.8075  156.8742 C   0  0  2  0  0  0  0  0  0  0  0  0
  151.9005  140.5198  156.8010 N   0  0  0  0  0  0  0  0  0  0  0  0
  151.4545  139.5394  155.9839 C   0  0  0  0  0  0  0  0  0  0  0  0
  150.8824  139.8282  154.7856 N   0  0  0  0  0  0  0  0  0  0  0  0
  150.4478  138.8412  153.9970 C   0  0  0  0  0  0  0  0  0  0  0  0
  150.4866  137.5238  154.2107 N   0  0  0  0  0  0  0  0  0  0  0  0
  151.0584  137.2292  155.4145 C   0  0  0  0  0  0  0  0  0  0  0  0
  151.5597  138.1735  156.3524 C   0  0  0  0  0  0  0  0  0  0  0  0
  152.0595  137.5103  157.4643 N   0  0  0  0  0  0  0  0  0  0  0  0
  151.8572  136.2482  157.1961 C   0  0  0  0  0  0  0  0  0  0  0  0
  151.2723  135.9864  155.9723 N   0  0  0  0  0  0  0  0  0  0  0  0
  150.8698  134.6788  155.3503 C   0  0  2  0  0  0  0  0  0  0  0  0
  149.4953  134.7094  155.1405 O   0  0  0  0  0  0  0  0  0  0  0  0
  148.8308  134.2494  156.3087 C   0  0  1  0  0  0  0  0  0  0  0  0
  147.4166  133.7689  155.9489 C   0  0  0  0  0  0  0  0  0  0  0  0
  147.4831  132.7426  154.9821 O   0  0  0  0  0  0  0  0  0  0  0  0
  149.7499  133.1225  156.8085 C   0  0  2  0  0  0  0  0  0  0  0  0
  149.7411  133.0858  158.2222 O   0  0  0  0  0  0  0  0  0  0  0  0
  151.1431  133.4888  156.2848 C   0  0  1  0  0  0  0  0  0  0  0  0
  151.7104  132.4061  155.5759 O   0  0  0  0  0  0  0  0  0  0  0  0
  151.6399  142.6841  158.0536 C   0  0  0  0  0  0  0  0  0  0  0  0
  151.1828  144.0200  158.1367 C   0  0  0  0  0  0  0  0  0  0  0  0
  151.5637  144.8440  159.2122 C   0  0  0  0  0  0  0  0  0  0  0  0
  152.4125  144.3422  160.2151 C   0  0  0  0  0  0  0  0  0  0  0  0
  152.8823  143.0182  160.1373 C   0  0  0  0  0  0  0  0  0  0  0  0
  152.5043  142.1886  159.0623 C   0  0  0  0  0  0  0  0  0  0  0  0
  153.1224  140.5746  159.0128 Cl  0  0  0  0  0  0  0  0  0  0  0  0
  151.4206  134.6371  154.4099 H   0  0  0  0  0  0  0  0  0  0  0  0
  148.7881  135.0578  157.0409 H   0  0  0  0  0  0  0  0  0  0  0  0
  149.4255  132.1588  156.4119 H   0  0  0  0  0  0  0  0  0  0  0  0
  151.8404  133.7724  157.0742 H   0  0  0  0  0  0  0  0  0  0  0  0
  149.1606  142.5392  156.8622 H   0  0  0  0  0  0  0  0  0  0  0  0
  149.3778  141.0574  157.7902 H   0  0  0  0  0  0  0  0  0  0  0  0
  149.3708  141.0051  156.0283 H   0  0  0  0  0  0  0  0  0  0  0  0
  151.4492  142.3256  155.9457 H   0  0  0  0  0  0  0  0  0  0  0  0
  152.7971  140.4772  157.2637 H   0  0  0  0  0  0  0  0  0  0  0  0
  150.0063  139.1512  153.0613 H   0  0  0  0  0  0  0  0  0  0  0  0
  152.1349  135.4753  157.8967 H   0  0  0  0  0  0  0  0  0  0  0  0
  146.8764  133.4257  156.8317 H   0  0  0  0  0  0  0  0  0  0  0  0
  146.8422  134.5881  155.5157 H   0  0  0  0  0  0  0  0  0  0  0  0
  146.6042  132.5290  154.7084 H   0  0  0  0  0  0  0  0  0  0  0  0
  148.9187  132.7213  158.5104 H   0  0  0  0  0  0  0  0  0  0  0  0
  151.0697  132.0798  154.9626 H   0  0  0  0  0  0  0  0  0  0  0  0
  150.5337  144.4219  157.3726 H   0  0  0  0  0  0  0  0  0  0  0  0
  151.2056  145.8615  159.2666 H   0  0  0  0  0  0  0  0  0  0  0  0
  152.7061  144.9728  161.0412 H   0  0  0  0  0  0  0  0  0  0  0  0
  153.5380  142.6378  160.9065 H   0  0  0  0  0  0  0  0  0  0  0  0
  1  2  1  0  0  0  0
  1 33  1  0  0  0  0
  1 34  1  0  0  0  0
  1 35  1  0  0  0  0
  2  3  1  0  0  0  0
  2 22  1  0  0  0  0
  2 36  1  0  0  0  0
  3  4  1  0  0  0  0
  3 37  1  0  0  0  0
  4  9  1  0  0  0  0
  4  5  2  0  0  0  0
  5  6  1  0  0  0  0
  6  7  2  0  0  0  0
  6 38  1  0  0  0  0
  7  8  1  0  0  0  0
  8 12  1  0  0  0  0
  8  9  2  0  0  0  0
  9 10  1  0  0  0  0
 10 11  2  0  0  0  0
 11 12  1  0  0  0  0
 11 39  1  0  0  0  0
 12 13  1  0  0  0  0
 13 29  1  0  0  0  0
 13 20  1  0  0  0  0
 13 14  1  0  0  0  0
 14 15  1  0  0  0  0
 15 30  1  0  0  0  0
 15 16  1  0  0  0  0
 15 18  1  0  0  0  0
 16 17  1  0  0  0  0
 16 40  1  0  0  0  0
 16 41  1  0  0  0  0
 17 42  1  0  0  0  0
 18 31  1  0  0  0  0
 18 19  1  0  0  0  0
 18 20  1  0  0  0  0
 19 43  1  0  0  0  0
 20 32  1  0  0  0  0
 20 21  1  0  0  0  0
 21 44  1  0  0  0  0
 22 27  1  0  0  0  0
 22 23  2  0  0  0  0
 23 24  1  0  0  0  0
 23 45  1  0  0  0  0
 24 25  2  0  0  0  0
 24 46  1  0  0  0  0
 25 26  1  0  0  0  0
 25 47  1  0  0  0  0
 26 27  2  0  0  0  0
 26 48  1  0  0  0  0
 27 28  1  0  0  0  0
M  END
> <s_m_source_file>
AV-unprocessed.smi

> <i_m_source_file_index>
283

> <i_lp_mmshare_version>
43012

> <i_f3d_flags>
0

> <s_epik_input>
Q2xjMVtjSF1bY0hdW2NIXVtjSF1jMVtDQEhdKFtDSDNdKVtOSF1jKG5bY0hdbjIpYyhjMjMpbltjSF1uM1tDQEBIXTRPW0NASF0oW0NIMl1bT0hdKVtDQEBIXShbT0hdKVtDQEhdNFtPSF0=

> <s_epik_cmdline>
J2VwaWtfcHl0aG9uJywgJy1waCcsICc3LjAnLCAnLXRuJywgJzgnLCAnLW1hJywgJzIwMCcsICctbWV0YWxfYmluZGluZycsICctaW1hZScsICc8aW5maWxlLm1hZT4nLCAnLW9tYWUnLCAnPG91dGZpbGUubWFlPic=

> <r_lp_tautomer_probability>
1

> <r_epik_Ionization_Penalty>
0.000266407

> <r_epik_Ionization_Penalty_Charging>
0

> <r_epik_Ionization_Penalty_Neutral>
0.000266407

> <r_epik_State_Penalty>
-0

> <r_epik_Charging_Adjusted_Penalty>
0

> <i_epik_Tot_Q>
0

> <i_epik_Tot_abs_Q>
0

> <r_epik_Metal_State_Penalty>
-0

> <b_epik_Metal_Only>
0

> <s_epik_Chemistry_Notes>
This compound contains an acetal/aminal-like group ( X-CH(R)-Y where X, Y are N, S, or O) that may be acid/base labile, releasing an aldehyde.

> <s_lp_Force_Field>
OPLS_2005

> <r_lp_Energy>
39.6204

> <b_lp_Chiralities_Consistent>
1

> <s_lp_Variant>
AV-unprocessed.smi:283-13

> <Gold.Version>
5.8.1

> <Gold.Id.Protein>
6NUR|6NUR_protein|mol2

> <Gold.PLP.Fitness>
48.3498

> <Gold.PLP.PLP>
-40.3204

> <Gold.PLP.part.hbond>
-2.0000

> <Gold.PLP.part.metal>
0.0000

> <Gold.PLP.part.buried>
-6.7888

> <Gold.PLP.part.nonpolar>
-32.7817

> <Gold.PLP.part.repulsive>
1.1599

> <Gold.PLP.ligand.clash>
0.0000

> <Gold.PLP.ligand.torsion>
0.5316

> <Gold.PLP.Chemscore.Hbond>
2.0000

> <Gold.PLP.Chemscore.CHOScore>
1.0000

> <Gold.PLP.Chemscore.Metal>
0.0000

> <Gold.Chemscore.Hbonds>
donor molecule, donor type, donor heavy atom, donor atom, acceptor molecule, acceptor atom, score
      P1  H  6896  6908       L1    19  1.00
      P1  H  7989  7998       L1     5  0.90
      L1  C     6    38       P1  7957  1.00

> <Gold.PLP.Chemscore.Internal.Correction>
0.0927

> <Gold.Rescore>
     Score         DG    S(hbond)    S(metal)    S(lipo)     H(rot)  DE(clash)    DE(int)     intcor
      8.85     -11.25       1.21        0.00     104.39       4.10       0.15       2.26       ----

> <Gold.Chemscore.Fitness>
8.8478

> <Gold.Chemscore.DG>
-11.2533

> <Gold.Chemscore.ZeroCoef>
-5.4800

> <Gold.Chemscore.Hbond>
1.2120

> <Gold.Chemscore.Metal>
0.0000

> <Gold.Chemscore.Lipo>
104.3863

> <Gold.Chemscore.Internal_Hbond>
0.0000

> <Gold.Chemscore.DEClash>
0.1452

> <Gold.Chemscore.DEInternal>
2.2603

> <Gold.Chemscore.Rot>
4.0968

> <Gold.Chemscore.Internal.Correction>
   9.000000E+99

> <Gold.Chemscore.Hbonds>
donor molecule, donor type, donor heavy atom, donor atom, acceptor molecule, acceptor atom, score
      P1  H  6896  6908       L1    19  0.99
      P1  H  7989  7998       L1     5  0.18

> <Gold.Chemscore.Hbond.Weighted>
-4.0480

> <Gold.Chemscore.Metal.Weighted>
-0.0000

> <Gold.Chemscore.Lipo.Weighted>
-12.2132

> <Gold.Chemscore.Internal_Hbond.Weighted>
0.0000

> <Gold.Chemscore.DEClash.Weighted>
0.1452

> <Gold.Chemscore.DEInternal.Weighted>
2.2603

> <Gold.Chemscore.Rot.Weighted>
10.4879

> <Gold.Chemscore.Internal.Correction.Weighted>
   9.000000E+99

> <Gold.Protein.RotatedTorsions>
[ 6907 6896 6895 6894 ] final  111.58 input  -60.11 | X-H torsion
[ 7974 7965 7964 7962 ] final  176.50 input  175.53 | X-H torsion
[ 8008 7997 7996 7995 ] final -129.98 input   59.86 | X-H torsion
[ 10167 10162 10161 10158 ] final  -53.00 input  -65.29 | X-H torsion
[ 10718 10713 10712 10709 ] final  109.92 input   66.30 | X-H torsion
[ 10763 10752 10751 10750 ] final  -67.04 input  -60.55 | X-H torsion
[ 11005 11000 10999 10996 ] final  132.27 input  -57.11 | X-H torsion

> <Gold.Protein.ActiveResidues>
 VAL166  LYS551  ARG553  GLY616  TRP617  ASP618  TYR619  PRO620  LYS621  CYS622 
 ASP623  PHE694  ASN695  SER759  ASP760  ASP761  ALA762  ILE779  LEU786  VAL792 
 PHE793  MET794  SER795  GLU796  ALA797  LYS798  CYS799  TRP800  GLU811  SER814 

> <Gold.Protein.RotatedAtoms>
  152.4962  133.8638  159.7263 H   0  0  0  0  0  0  0  0  0  0  0  0  # atno 6907 bound_to 6896
  150.9142  133.6950  159.2854 H   0  0  0  0  0  0  0  0  0  0  0  0  # atno 6908 bound_to 6896
  151.4349  135.1018  159.9705 H   0  0  0  0  0  0  0  0  0  0  0  0  # atno 6909 bound_to 6896
  144.7183  140.0105  143.6440 H   0  0  0  0  0  0  0  0  0  0  0  0  # atno 7974 bound_to 7965
  155.2881  140.0447  157.3021 H   0  0  0  0  0  0  0  0  0  0  0  0  # atno 8008 bound_to 7997
  154.5557  140.2331  155.8381 H   0  0  0  0  0  0  0  0  0  0  0  0  # atno 8009 bound_to 7997
  156.2005  140.3027  155.9524 H   0  0  0  0  0  0  0  0  0  0  0  0  # atno 8010 bound_to 7997
  140.6508  143.2565  151.4729 H   0  0  0  0  0  0  0  0  0  0  0  0  # atno 10167 bound_to 10162
  157.6519  131.0923  150.6525 H   0  0  0  0  0  0  0  0  0  0  0  0  # atno 10718 bound_to 10713
  154.3686  135.6100  153.5728 H   0  0  0  0  0  0  0  0  0  0  0  0  # atno 10763 bound_to 10752
  152.9791  135.5832  154.4548 H   0  0  0  0  0  0  0  0  0  0  0  0  # atno 10764 bound_to 10752
  154.4298  135.2847  155.1897 H   0  0  0  0  0  0  0  0  0  0  0  0  # atno 10765 bound_to 10752
  139.9780  134.9557  156.9557 H   0  0  0  0  0  0  0  0  0  0  0  0  # atno 11005 bound_to 11000
  146.0262  139.3294  143.0783 LP  0  0  0  0  0  0  0  0  0  0  0  0  # atno 17320 bound_to 7965
  145.8508  140.9529  143.0750 LP  0  0  0  0  0  0  0  0  0  0  0  0  # atno 17321 bound_to 7965
  139.5723  144.1900  152.1854 LP  0  0  0  0  0  0  0  0  0  0  0  0  # atno 17342 bound_to 10162
  140.1200  144.5382  150.6869 LP  0  0  0  0  0  0  0  0  0  0  0  0  # atno 17343 bound_to 10162
  156.6835  130.4574  149.5620 LP  0  0  0  0  0  0  0  0  0  0  0  0  # atno 17370 bound_to 10713
  156.1912  130.6561  151.1063 LP  0  0  0  0  0  0  0  0  0  0  0  0  # atno 17371 bound_to 10713
  140.5155  134.0959  155.7280 LP  0  0  0  0  0  0  0  0  0  0  0  0  # atno 17394 bound_to 11000
  141.1455  133.9063  157.2226 LP  0  0  0  0  0  0  0  0  0  0  0  0  # atno 17395 bound_to 11000

$$$$
