AV-unprocessed.smi:1845|AV-procd|sdf|7513|dock5
  -GOLD-   22720 9223D 1   1.00000     0.00000
 Structure written by MMmdl.
 44 45  0  0  0  0  0  0  0  0  2 V2000
  147.9339  134.2466  161.6572 C   0  0  0  0  0  0  0  0  0  0  0  0
  148.0894  135.7831  160.6492 S   0  0  0  0  0  0  0  0  0  0  0  0
  146.7193  136.0923  160.2133 O   0  0  0  0  0  0  0  0  0  0  0  0
  148.7488  136.7779  161.5121 O   0  0  0  0  0  0  0  0  0  0  0  0
  149.0024  135.2896  159.3961 N   0  5  0  0  0  0  0  0  0  0  0  0
  148.4239  135.0449  158.0816 C   0  0  0  0  0  0  0  0  0  0  0  0
  149.5505  134.8873  157.0372 C   0  0  0  0  0  0  0  0  0  0  0  0
  149.9359  136.2035  156.3448 C   0  0  0  0  0  0  0  0  0  0  0  0
  149.1591  137.1613  156.3388 O   0  0  0  0  0  0  0  0  0  0  0  0
  151.1622  136.2519  155.7969 N   0  0  0  0  0  0  0  0  0  0  0  0
  151.7294  137.3900  155.0791 C   0  0  0  0  0  0  0  0  0  0  0  0
  151.8058  138.6791  155.8860 C   0  0  0  0  0  0  0  0  0  0  0  0
  150.9918  139.7996  155.6136 C   0  0  0  0  0  0  0  0  0  0  0  0
  151.1339  140.9574  156.4025 C   0  0  0  0  0  0  0  0  0  0  0  0
  152.0880  140.9705  157.4479 C   0  0  0  0  0  0  0  0  0  0  0  0
  152.2459  142.1182  158.2564 N   0  0  0  0  0  0  0  0  0  0  0  0
  151.5581  143.3220  157.7951 C   0  0  0  0  0  0  0  0  0  0  0  0
  152.0512  144.5542  158.5733 C   0  0  0  0  0  0  0  0  0  0  0  0
  151.9006  144.3342  159.9717 O   0  0  0  0  0  0  0  0  0  0  0  0
  152.6732  143.2249  160.4176 C   0  0  0  0  0  0  0  0  0  0  0  0
  152.2000  141.9453  159.7078 C   0  0  0  0  0  0  0  0  0  0  0  0
  152.8774  139.8963  157.6966 N   0  0  0  0  0  0  0  0  0  0  0  0
  152.7380  138.7901  156.9366 C   0  0  0  0  0  0  0  0  0  0  0  0
  147.2577  134.4336  162.4907 H   0  0  0  0  0  0  0  0  0  0  0  0
  148.9083  133.9548  162.0476 H   0  0  0  0  0  0  0  0  0  0  0  0
  147.5309  133.4445  161.0396 H   0  0  0  0  0  0  0  0  0  0  0  0
  147.8094  134.1441  158.0665 H   0  0  0  0  0  0  0  0  0  0  0  0
  147.7598  135.8574  157.7852 H   0  0  0  0  0  0  0  0  0  0  0  0
  150.4435  134.4817  157.5150 H   0  0  0  0  0  0  0  0  0  0  0  0
  149.2537  134.1592  156.2799 H   0  0  0  0  0  0  0  0  0  0  0  0
  151.7373  135.4244  155.8607 H   0  0  0  0  0  0  0  0  0  0  0  0
  152.7375  137.1095  154.7723 H   0  0  0  0  0  0  0  0  0  0  0  0
  151.1772  137.5856  154.1586 H   0  0  0  0  0  0  0  0  0  0  0  0
  150.2705  139.7881  154.8104 H   0  0  0  0  0  0  0  0  0  0  0  0
  150.5238  141.8211  156.1847 H   0  0  0  0  0  0  0  0  0  0  0  0
  151.7109  143.4944  156.7309 H   0  0  0  0  0  0  0  0  0  0  0  0
  150.4855  143.1920  157.9442 H   0  0  0  0  0  0  0  0  0  0  0  0
  153.0947  144.7700  158.3383 H   0  0  0  0  0  0  0  0  0  0  0  0
  151.4733  145.4334  158.2889 H   0  0  0  0  0  0  0  0  0  0  0  0
  153.7327  143.4059  160.2291 H   0  0  0  0  0  0  0  0  0  0  0  0
  152.5554  143.1206  161.4964 H   0  0  0  0  0  0  0  0  0  0  0  0
  151.1796  141.7063  160.0107 H   0  0  0  0  0  0  0  0  0  0  0  0
  152.8349  141.1115  160.0102 H   0  0  0  0  0  0  0  0  0  0  0  0
  153.3929  137.9660  157.1781 H   0  0  0  0  0  0  0  0  0  0  0  0
  1  2  1  0  0  0  0
  1 24  1  0  0  0  0
  1 25  1  0  0  0  0
  1 26  1  0  0  0  0
  2  3  2  0  0  0  0
  2  4  2  0  0  0  0
  2  5  1  0  0  0  0
  5  6  1  0  0  0  0
  6  7  1  0  0  0  0
  6 27  1  0  0  0  0
  6 28  1  0  0  0  0
  7  8  1  0  0  0  0
  7 29  1  0  0  0  0
  7 30  1  0  0  0  0
  8  9  2  0  0  0  0
  8 10  1  0  0  0  0
 10 11  1  0  0  0  0
 10 31  1  0  0  0  0
 11 12  1  0  0  0  0
 11 32  1  0  0  0  0
 11 33  1  0  0  0  0
 12 23  1  0  0  0  0
 12 13  2  0  0  0  0
 13 14  1  0  0  0  0
 13 34  1  0  0  0  0
 14 15  2  0  0  0  0
 14 35  1  0  0  0  0
 15 16  1  0  0  0  0
 15 22  1  0  0  0  0
 16 21  1  0  0  0  0
 16 17  1  0  0  0  0
 17 18  1  0  0  0  0
 17 36  1  0  0  0  0
 17 37  1  0  0  0  0
 18 19  1  0  0  0  0
 18 38  1  0  0  0  0
 18 39  1  0  0  0  0
 19 20  1  0  0  0  0
 20 21  1  0  0  0  0
 20 40  1  0  0  0  0
 20 41  1  0  0  0  0
 21 42  1  0  0  0  0
 21 43  1  0  0  0  0
 22 23  2  0  0  0  0
 23 44  1  0  0  0  0
M  CHG  1   5  -1
M  END
> <s_m_source_file>
AV-unprocessed.smi

> <i_m_source_file_index>
1845

> <i_lp_mmshare_version>
43012

> <i_f3d_flags>
0

> <s_epik_input>
W0NIM11TKD1PKSg9TylbTkhdW0NIMl1bQ0gyXUMoPU8pW05IXVtDSDJdYzFbY0hdW2NIXWMobltjSF0xKU4yW0NIMl1bQ0gyXU9bQ0gyXVtDSDJdMg==

> <s_epik_cmdline>
J2VwaWtfcHl0aG9uJywgJy1waCcsICc3LjAnLCAnLXRuJywgJzgnLCAnLW1hJywgJzIwMCcsICctbWV0YWxfYmluZGluZycsICctaW1hZScsICc8aW5maWxlLm1hZT4nLCAnLW9tYWUnLCAnPG91dGZpbGUubWFlPic=

> <r_lp_tautomer_probability>
1

> <r_epik_Ionization_Penalty>
6.31253

> <r_epik_Ionization_Penalty_Charging>
6.30704

> <r_epik_Ionization_Penalty_Neutral>
0.00548995

> <r_epik_State_Penalty>
6.31049

> <r_epik_Charging_Adjusted_Penalty>
12.6175

> <i_epik_Tot_Q>
-1

> <i_epik_Tot_abs_Q>
1

> <r_epik_Metal_State_Penalty>
2.24651

> <b_epik_Metal_Only>
1

> <s_lp_Force_Field>
OPLS_2005

> <r_lp_Energy>
11.4109

> <b_lp_Chiralities_Consistent>
1

> <s_lp_Variant>
AV-unprocessed.smi:1845-2

> <Gold.Version>
5.8.1

> <Gold.Id.Protein>
6NUR|6NUR_protein|mol2

> <Gold.PLP.Fitness>
44.6760

> <Gold.PLP.PLP>
-35.4001

> <Gold.PLP.part.hbond>
-3.0000

> <Gold.PLP.part.metal>
0.0000

> <Gold.PLP.part.buried>
-4.4262

> <Gold.PLP.part.nonpolar>
-28.3433

> <Gold.PLP.part.repulsive>
0.1598

> <Gold.PLP.ligand.clash>
0.0000

> <Gold.PLP.ligand.torsion>
1.3522

> <Gold.PLP.Chemscore.Hbond>
3.5281

> <Gold.PLP.Chemscore.CHOScore>
0.0000

> <Gold.PLP.Chemscore.Metal>
0.0000

> <Gold.Chemscore.Hbonds>
donor molecule, donor type, donor heavy atom, donor atom, acceptor molecule, acceptor atom, score
      P1  H  6896  6908       L1     5  2.00
      P1  H  6931  6943       L1     4  1.00
      P1  H  7997  8010       L1    22  0.35

> <Gold.PLP.Chemscore.Internal.Correction>
1.3959

> <Gold.Rescore>
     Score         DG    S(hbond)    S(metal)    S(lipo)     H(rot)  DE(clash)    DE(int)     intcor
     14.34     -15.72       1.88        0.00      87.63       2.46       0.00       1.38       ----

> <Gold.Chemscore.Fitness>
14.3366

> <Gold.Chemscore.DG>
-15.7152

> <Gold.Chemscore.ZeroCoef>
-5.4800

> <Gold.Chemscore.Hbond>
1.8821

> <Gold.Chemscore.Metal>
0.0000

> <Gold.Chemscore.Lipo>
87.6323

> <Gold.Chemscore.Internal_Hbond>
0.0000

> <Gold.Chemscore.DEClash>
0.0000

> <Gold.Chemscore.DEInternal>
1.3787

> <Gold.Chemscore.Rot>
2.4625

> <Gold.Chemscore.Internal.Correction>
   9.000000E+99

> <Gold.Chemscore.Hbonds>
donor molecule, donor type, donor heavy atom, donor atom, acceptor molecule, acceptor atom, score
      P1  H  6896  6908       L1     5  0.85
      P1  H  6931  6943       L1     4  0.94
      P1  H  7997  8010       L1    22  0.01

> <Gold.Chemscore.Hbond.Weighted>
-6.2863

> <Gold.Chemscore.Metal.Weighted>
-0.0000

> <Gold.Chemscore.Lipo.Weighted>
-10.2530

> <Gold.Chemscore.Internal_Hbond.Weighted>
0.0000

> <Gold.Chemscore.DEClash.Weighted>
0.0000

> <Gold.Chemscore.DEInternal.Weighted>
1.3787

> <Gold.Chemscore.Rot.Weighted>
6.3040

> <Gold.Chemscore.Internal.Correction.Weighted>
   9.000000E+99

> <Gold.Protein.RotatedTorsions>
[ 6907 6896 6895 6894 ] final  170.70 input  -60.11 | X-H torsion
[ 7974 7965 7964 7962 ] final  -11.36 input  175.53 | X-H torsion
[ 8008 7997 7996 7995 ] final   34.80 input   59.86 | X-H torsion
[ 10167 10162 10161 10158 ] final    0.19 input  -65.29 | X-H torsion
[ 10718 10713 10712 10709 ] final   18.97 input   66.30 | X-H torsion
[ 10763 10752 10751 10750 ] final   29.41 input  -60.55 | X-H torsion
[ 11005 11000 10999 10996 ] final  -27.10 input  -57.11 | X-H torsion

> <Gold.Protein.ActiveResidues>
 VAL166  LYS551  ARG553  GLY616  TRP617  ASP618  TYR619  PRO620  LYS621  CYS622 
 ASP623  PHE694  ASN695  SER759  ASP760  ASP761  ALA762  ILE779  LEU786  VAL792 
 PHE793  MET794  SER795  GLU796  ALA797  LYS798  CYS799  TRP800  GLU811  SER814 

> <Gold.Protein.RotatedAtoms>
  151.8119  133.3383  159.3557 H   0  0  0  0  0  0  0  0  0  0  0  0  # atno 6907 bound_to 6896
  150.7323  134.5656  159.5874 H   0  0  0  0  0  0  0  0  0  0  0  0  # atno 6908 bound_to 6896
  152.3069  134.7545  160.0396 H   0  0  0  0  0  0  0  0  0  0  0  0  # atno 6909 bound_to 6896
  146.2190  140.2900  142.8368 H   0  0  0  0  0  0  0  0  0  0  0  0  # atno 7974 bound_to 7965
  155.1607  140.3283  155.4412 H   0  0  0  0  0  0  0  0  0  0  0  0  # atno 8008 bound_to 7997
  156.2544  140.1961  156.6665 H   0  0  0  0  0  0  0  0  0  0  0  0  # atno 8009 bound_to 7997
  154.6407  140.0570  156.9828 H   0  0  0  0  0  0  0  0  0  0  0  0  # atno 8010 bound_to 7997
  140.6740  143.6969  150.7983 H   0  0  0  0  0  0  0  0  0  0  0  0  # atno 10167 bound_to 10162
  157.1038  130.6479  149.5879 H   0  0  0  0  0  0  0  0  0  0  0  0  # atno 10718 bound_to 10713
  153.0432  135.6489  154.0887 H   0  0  0  0  0  0  0  0  0  0  0  0  # atno 10763 bound_to 10752
  154.0590  135.2889  155.3329 H   0  0  0  0  0  0  0  0  0  0  0  0  # atno 10764 bound_to 10752
  154.6670  135.5370  153.8155 H   0  0  0  0  0  0  0  0  0  0  0  0  # atno 10765 bound_to 10752
  140.9089  133.7474  156.0643 H   0  0  0  0  0  0  0  0  0  0  0  0  # atno 11005 bound_to 11000
  144.9134  140.7784  143.5793 LP  0  0  0  0  0  0  0  0  0  0  0  0  # atno 17320 bound_to 7965
  145.2832  139.1911  143.4780 LP  0  0  0  0  0  0  0  0  0  0  0  0  # atno 17321 bound_to 7965
  140.0659  143.5109  152.2604 LP  0  0  0  0  0  0  0  0  0  0  0  0  # atno 17342 bound_to 10162
  139.6022  144.7586  151.3145 LP  0  0  0  0  0  0  0  0  0  0  0  0  # atno 17343 bound_to 10162
  155.9867  130.4903  150.7091 LP  0  0  0  0  0  0  0  0  0  0  0  0  # atno 17370 bound_to 10713
  157.4618  131.0884  151.0737 LP  0  0  0  0  0  0  0  0  0  0  0  0  # atno 17371 bound_to 10713
  140.8136  134.3371  157.5404 LP  0  0  0  0  0  0  0  0  0  0  0  0  # atno 17394 bound_to 11000
  139.8754  134.9268  156.3410 LP  0  0  0  0  0  0  0  0  0  0  0  0  # atno 17395 bound_to 11000

$$$$
