AV-unprocessed.smi:900|AV-procd|sdf|4089|dock2
  -GOLD-   22720 1573D 1   1.00000     0.00000
 Structure written by MMmdl.
 33 34  0  0  0  0  0  0  0  0  1 V2000
  147.2041  138.7130  153.1151 C   0  0  0  0  0  0  0  0  0  0  0  0
  148.1437  139.7903  153.3841 N   0  0  0  0  0  0  0  0  0  0  0  0
  148.3967  140.2846  154.6052 C   0  0  0  0  0  0  0  0  0  0  0  0
  147.8658  139.8582  155.6306 O   0  0  0  0  0  0  0  0  0  0  0  0
  149.4018  141.4353  154.6847 C   0  0  0  0  0  0  0  0  0  0  0  0
  150.5106  141.0980  155.6293 C   0  0  0  0  0  0  0  0  0  0  0  0
  151.4533  140.2210  155.3032 N   0  0  0  0  0  0  0  0  0  0  0  0
  152.2644  140.1772  156.4460 O   0  0  0  0  0  0  0  0  0  0  0  0
  151.7206  141.0580  157.3195 C   0  0  0  0  0  0  0  0  0  0  0  0
  152.3284  141.1957  158.6760 C   0  0  0  0  0  0  0  0  0  0  0  0
  151.8273  142.4375  159.4343 C   0  0  0  0  0  0  0  0  0  0  0  0
  152.0972  143.7695  158.7269 C   0  0  0  0  0  0  0  0  0  0  0  0
  151.9961  144.8314  159.8273 C   0  0  0  0  0  0  0  0  0  0  0  0
  152.2481  144.1014  161.1559 C   0  0  0  0  0  0  0  0  0  0  0  0
  152.4873  142.6297  160.8012 C   0  0  0  0  0  0  0  0  0  0  0  0
  150.6214  141.6564  156.8671 N   0  0  0  0  0  0  0  0  0  0  0  0
  147.2531  138.4315  152.0631 H   0  0  0  0  0  0  0  0  0  0  0  0
  146.1839  139.0285  153.3369 H   0  0  0  0  0  0  0  0  0  0  0  0
  147.4348  137.8315  153.7150 H   0  0  0  0  0  0  0  0  0  0  0  0
  148.6204  140.1971  152.5919 H   0  0  0  0  0  0  0  0  0  0  0  0
  149.8093  141.6395  153.6933 H   0  0  0  0  0  0  0  0  0  0  0  0
  148.9009  142.3465  155.0147 H   0  0  0  0  0  0  0  0  0  0  0  0
  152.0982  140.2959  159.2476 H   0  0  0  0  0  0  0  0  0  0  0  0
  153.4136  141.2265  158.5712 H   0  0  0  0  0  0  0  0  0  0  0  0
  150.7509  142.3457  159.5906 H   0  0  0  0  0  0  0  0  0  0  0  0
  153.1064  143.7718  158.3128 H   0  0  0  0  0  0  0  0  0  0  0  0
  151.4042  143.9565  157.9057 H   0  0  0  0  0  0  0  0  0  0  0  0
  152.7079  145.6414  159.6645 H   0  0  0  0  0  0  0  0  0  0  0  0
  150.9979  145.2710  159.8332 H   0  0  0  0  0  0  0  0  0  0  0  0
  153.0958  144.5218  161.6980 H   0  0  0  0  0  0  0  0  0  0  0  0
  151.3720  144.1951  161.7989 H   0  0  0  0  0  0  0  0  0  0  0  0
  152.0901  141.9503  161.5559 H   0  0  0  0  0  0  0  0  0  0  0  0
  153.5601  142.4462  160.7245 H   0  0  0  0  0  0  0  0  0  0  0  0
  1  2  1  0  0  0  0
  1 17  1  0  0  0  0
  1 18  1  0  0  0  0
  1 19  1  0  0  0  0
  2  3  1  0  0  0  0
  2 20  1  0  0  0  0
  3  4  2  0  0  0  0
  3  5  1  0  0  0  0
  5  6  1  0  0  0  0
  5 21  1  0  0  0  0
  5 22  1  0  0  0  0
  6 16  1  0  0  0  0
  6  7  2  0  0  0  0
  7  8  1  0  0  0  0
  8  9  1  0  0  0  0
  9 10  1  0  0  0  0
  9 16  2  0  0  0  0
 10 11  1  0  0  0  0
 10 23  1  0  0  0  0
 10 24  1  0  0  0  0
 11 15  1  0  0  0  0
 11 12  1  0  0  0  0
 11 25  1  0  0  0  0
 12 13  1  0  0  0  0
 12 26  1  0  0  0  0
 12 27  1  0  0  0  0
 13 14  1  0  0  0  0
 13 28  1  0  0  0  0
 13 29  1  0  0  0  0
 14 15  1  0  0  0  0
 14 30  1  0  0  0  0
 14 31  1  0  0  0  0
 15 32  1  0  0  0  0
 15 33  1  0  0  0  0
M  END
> <s_m_source_file>
AV-unprocessed.smi

> <i_m_source_file_index>
900

> <i_lp_mmshare_version>
43012

> <i_f3d_flags>
0

> <s_epik_input>
W0NIM11bTkhdQyg9TylbQ0gyXWMxbm9jKG4xKVtDSDJdW0NIXTJbQ0gyXVtDSDJdW0NIMl1bQ0gyXTI=

> <s_epik_cmdline>
J2VwaWtfcHl0aG9uJywgJy1waCcsICc3LjAnLCAnLXRuJywgJzgnLCAnLW1hJywgJzIwMCcsICctbWV0YWxfYmluZGluZycsICctaW1hZScsICc8aW5maWxlLm1hZT4nLCAnLW9tYWUnLCAnPG91dGZpbGUubWFlPic=

> <r_lp_tautomer_probability>
1

> <r_epik_Ionization_Penalty>
1.02915e-07

> <r_epik_Ionization_Penalty_Charging>
0

> <r_epik_Ionization_Penalty_Neutral>
1.02915e-07

> <r_epik_State_Penalty>
-0

> <r_epik_Charging_Adjusted_Penalty>
0

> <i_epik_Tot_Q>
0

> <i_epik_Tot_abs_Q>
0

> <r_epik_Metal_State_Penalty>
-0

> <b_epik_Metal_Only>
0

> <s_lp_Force_Field>
OPLS_2005

> <r_lp_Energy>
19.3932

> <b_lp_Chiralities_Consistent>
1

> <s_lp_Variant>
AV-unprocessed.smi:900-1

> <Gold.Version>
5.8.1

> <Gold.Id.Protein>
6NUR|6NUR_protein|mol2

> <Gold.PLP.Fitness>
42.7500

> <Gold.PLP.PLP>
-35.4720

> <Gold.PLP.part.hbond>
-2.9971

> <Gold.PLP.part.metal>
0.0000

> <Gold.PLP.part.buried>
-3.6623

> <Gold.PLP.part.nonpolar>
-28.6422

> <Gold.PLP.part.repulsive>
0.1827

> <Gold.PLP.ligand.clash>
0.0000

> <Gold.PLP.ligand.torsion>
0.3815

> <Gold.PLP.Chemscore.Hbond>
2.6711

> <Gold.PLP.Chemscore.CHOScore>
0.0000

> <Gold.PLP.Chemscore.Metal>
0.0000

> <Gold.Chemscore.Hbonds>
donor molecule, donor type, donor heavy atom, donor atom, acceptor molecule, acceptor atom, score
      L1  H     2    20       P1  7957  1.00
      P1  H  7989  7998       L1     7  0.69
      P1  H  7997  8008       L1     8  0.91

> <Gold.PLP.Chemscore.Internal.Correction>
0.0277

> <Gold.Rescore>
     Score         DG    S(hbond)    S(metal)    S(lipo)     H(rot)  DE(clash)    DE(int)     intcor
     16.15     -16.59       1.90        0.00      81.60       1.87       0.04       0.40       ----

> <Gold.Chemscore.Fitness>
16.1450

> <Gold.Chemscore.DG>
-16.5896

> <Gold.Chemscore.ZeroCoef>
-5.4800

> <Gold.Chemscore.Hbond>
1.9032

> <Gold.Chemscore.Metal>
0.0000

> <Gold.Chemscore.Lipo>
81.5960

> <Gold.Chemscore.Internal_Hbond>
0.0000

> <Gold.Chemscore.DEClash>
0.0449

> <Gold.Chemscore.DEInternal>
0.3996

> <Gold.Chemscore.Rot>
1.8727

> <Gold.Chemscore.Internal.Correction>
   9.000000E+99

> <Gold.Chemscore.Hbonds>
donor molecule, donor type, donor heavy atom, donor atom, acceptor molecule, acceptor atom, score
      L1  H     2    20       P1  7957  0.95
      P1  H  7989  7998       L1     7  0.07
      P1  H  7997  8008       L1     8  0.77

> <Gold.Chemscore.Hbond.Weighted>
-6.3568

> <Gold.Chemscore.Metal.Weighted>
-0.0000

> <Gold.Chemscore.Lipo.Weighted>
-9.5467

> <Gold.Chemscore.Internal_Hbond.Weighted>
0.0000

> <Gold.Chemscore.DEClash.Weighted>
0.0449

> <Gold.Chemscore.DEInternal.Weighted>
0.3996

> <Gold.Chemscore.Rot.Weighted>
4.7940

> <Gold.Chemscore.Internal.Correction.Weighted>
   9.000000E+99

> <Gold.Protein.RotatedTorsions>
[ 6907 6896 6895 6894 ] final   79.00 input  -60.11 | X-H torsion
[ 7974 7965 7964 7962 ] final   65.13 input  175.53 | X-H torsion
[ 8008 7997 7996 7995 ] final  -45.71 input   59.86 | X-H torsion
[ 10167 10162 10161 10158 ] final  127.01 input  -65.29 | X-H torsion
[ 10718 10713 10712 10709 ] final -117.83 input   66.30 | X-H torsion
[ 10763 10752 10751 10750 ] final  151.27 input  -60.55 | X-H torsion
[ 11005 11000 10999 10996 ] final  -98.63 input  -57.11 | X-H torsion

> <Gold.Protein.ActiveResidues>
 VAL166  LYS551  ARG553  GLY616  TRP617  ASP618  TYR619  PRO620  LYS621  CYS622 
 ASP623  PHE694  ASN695  SER759  ASP760  ASP761  ALA762  ILE779  LEU786  VAL792 
 PHE793  MET794  SER795  GLU796  ALA797  LYS798  CYS799  TRP800  GLU811  SER814 

> <Gold.Protein.RotatedAtoms>
  152.5182  134.3578  159.9273 H   0  0  0  0  0  0  0  0  0  0  0  0  # atno 6907 bound_to 6896
  151.3530  133.3912  159.2690 H   0  0  0  0  0  0  0  0  0  0  0  0  # atno 6908 bound_to 6896
  150.9712  134.9103  159.7847 H   0  0  0  0  0  0  0  0  0  0  0  0  # atno 6909 bound_to 6896
  145.8421  139.3202  143.0925 H   0  0  0  0  0  0  0  0  0  0  0  0  # atno 7974 bound_to 7965
  154.4002  140.1390  156.3893 H   0  0  0  0  0  0  0  0  0  0  0  0  # atno 8008 bound_to 7997
  155.7930  140.3478  155.5339 H   0  0  0  0  0  0  0  0  0  0  0  0  # atno 8009 bound_to 7997
  155.8560  140.0949  157.1634 H   0  0  0  0  0  0  0  0  0  0  0  0  # atno 8010 bound_to 7997
  139.5601  144.6875  151.4069 H   0  0  0  0  0  0  0  0  0  0  0  0  # atno 10167 bound_to 10162
  156.1062  130.6212  150.9214 H   0  0  0  0  0  0  0  0  0  0  0  0  # atno 10718 bound_to 10713
  154.1010  135.2845  155.3251 H   0  0  0  0  0  0  0  0  0  0  0  0  # atno 10763 bound_to 10752
  154.6555  135.5353  153.7957 H   0  0  0  0  0  0  0  0  0  0  0  0  # atno 10764 bound_to 10752
  153.0379  135.6521  154.1174 H   0  0  0  0  0  0  0  0  0  0  0  0  # atno 10765 bound_to 10752
  141.1338  133.8260  157.0864 H   0  0  0  0  0  0  0  0  0  0  0  0  # atno 11005 bound_to 11000
  145.9453  140.8949  143.0286 LP  0  0  0  0  0  0  0  0  0  0  0  0  # atno 17320 bound_to 7965
  144.6733  140.1605  143.7423 LP  0  0  0  0  0  0  0  0  0  0  0  0  # atno 17321 bound_to 7965
  140.6879  143.7930  150.7213 LP  0  0  0  0  0  0  0  0  0  0  0  0  # atno 17342 bound_to 10162
  140.1404  143.4447  152.2197 LP  0  0  0  0  0  0  0  0  0  0  0  0  # atno 17343 bound_to 10162
  157.6239  131.0927  150.8571 LP  0  0  0  0  0  0  0  0  0  0  0  0  # atno 17370 bound_to 10713
  156.8690  130.5139  149.5298 LP  0  0  0  0  0  0  0  0  0  0  0  0  # atno 17371 bound_to 10713
  140.0419  134.9850  157.0978 LP  0  0  0  0  0  0  0  0  0  0  0  0  # atno 17394 bound_to 11000
  140.4122  134.1969  155.7163 LP  0  0  0  0  0  0  0  0  0  0  0  0  # atno 17395 bound_to 11000

$$$$
