AV-unprocessed.smi:2538|AV-procd|sdf|9982|dock4
  -GOLD-   2272014 33D 1   1.00000     0.00000
 Structure written by MMmdl.
 48 49  0  0  0  0  0  0  0  0  1 V2000
  153.0561  142.8376  161.4273 C   0  0  0  0  0  0  0  0  0  0  0  0
  152.4623  142.5298  160.0639 C   0  0  0  0  0  0  0  0  0  0  0  0
  152.8047  141.3176  159.4233 C   0  0  0  0  0  0  0  0  0  0  0  0
  152.2738  140.9927  158.1561 C   0  0  0  0  0  0  0  0  0  0  0  0
  152.4673  139.8761  157.3606 N   0  0  0  0  0  0  0  0  0  0  0  0
  151.7065  140.1623  156.3083 C   0  0  0  0  0  0  0  0  0  0  0  0
  151.0407  141.3329  156.3292 N   0  0  0  0  0  0  0  0  0  0  0  0
  150.1597  141.8470  155.2972 C   0  0  0  0  0  0  0  0  0  0  0  0
  149.1230  140.7993  154.8430 C   0  0  1  0  0  0  0  0  0  0  0  0
  149.7804  139.8838  153.9879 O   0  0  0  0  0  0  0  0  0  0  0  0
  148.5022  140.0242  156.0285 C   0  0  0  0  0  0  0  0  0  0  0  0
  147.0308  140.0948  156.0050 N   0  0  0  0  0  0  0  0  0  0  0  0
  146.3399  138.8020  156.0522 C   0  0  0  0  0  0  0  0  0  0  0  0
  146.2066  141.4890  156.6282 S   0  0  0  0  0  0  0  0  0  0  0  0
  145.0792  141.0009  157.4379 O   0  0  0  0  0  0  0  0  0  0  0  0
  147.2079  142.3813  157.2321 O   0  0  0  0  0  0  0  0  0  0  0  0
  145.5658  142.2840  155.0763 C   0  0  0  0  0  0  0  0  0  0  0  0
  146.7111  142.5620  154.0921 C   0  0  0  0  0  0  0  0  0  0  0  0
  144.7760  143.5583  155.4067 C   0  0  0  0  0  0  0  0  0  0  0  0
  151.3851  141.9222  157.5406 C   0  0  0  0  0  0  0  0  0  0  0  0
  151.0354  143.1309  158.1683 C   0  0  0  0  0  0  0  0  0  0  0  0
  151.5732  143.4387  159.4357 C   0  0  0  0  0  0  0  0  0  0  0  0
  151.1852  144.7438  160.1079 C   0  0  0  0  0  0  0  0  0  0  0  0
  153.7486  142.0577  161.7450 H   0  0  0  0  0  0  0  0  0  0  0  0
  152.2685  142.9122  162.1774 H   0  0  0  0  0  0  0  0  0  0  0  0
  153.6038  143.7800  161.4039 H   0  0  0  0  0  0  0  0  0  0  0  0
  153.4797  140.6239  159.9022 H   0  0  0  0  0  0  0  0  0  0  0  0
  151.6246  139.4811  155.4733 H   0  0  0  0  0  0  0  0  0  0  0  0
  149.6645  142.7463  155.6660 H   0  0  0  0  0  0  0  0  0  0  0  0
  150.7812  142.1661  154.4612 H   0  0  0  0  0  0  0  0  0  0  0  0
  148.3424  141.2921  154.2612 H   0  0  0  0  0  0  0  0  0  0  0  0
  149.6651  140.1727  153.0953 H   0  0  0  0  0  0  0  0  0  0  0  0
  148.8277  138.9823  156.0193 H   0  0  0  0  0  0  0  0  0  0  0  0
  148.8473  140.4259  156.9820 H   0  0  0  0  0  0  0  0  0  0  0  0
  146.7440  138.1224  155.3015 H   0  0  0  0  0  0  0  0  0  0  0  0
  145.2761  138.9314  155.8536 H   0  0  0  0  0  0  0  0  0  0  0  0
  146.4544  138.3503  157.0380 H   0  0  0  0  0  0  0  0  0  0  0  0
  144.8846  141.5728  154.6090 H   0  0  0  0  0  0  0  0  0  0  0  0
  146.3340  142.9948  153.1652 H   0  0  0  0  0  0  0  0  0  0  0  0
  147.2385  141.6433  153.8334 H   0  0  0  0  0  0  0  0  0  0  0  0
  147.4361  143.2586  154.5142 H   0  0  0  0  0  0  0  0  0  0  0  0
  144.3788  144.0199  154.5026 H   0  0  0  0  0  0  0  0  0  0  0  0
  145.4053  144.2946  155.9078 H   0  0  0  0  0  0  0  0  0  0  0  0
  143.9313  143.3391  156.0602 H   0  0  0  0  0  0  0  0  0  0  0  0
  150.3567  143.8140  157.6789 H   0  0  0  0  0  0  0  0  0  0  0  0
  150.4856  145.3135  159.4957 H   0  0  0  0  0  0  0  0  0  0  0  0
  152.0658  145.3644  160.2758 H   0  0  0  0  0  0  0  0  0  0  0  0
  150.7079  144.5514  161.0692 H   0  0  0  0  0  0  0  0  0  0  0  0
  1  2  1  0  0  0  0
  1 24  1  0  0  0  0
  1 25  1  0  0  0  0
  1 26  1  0  0  0  0
  2 22  1  0  0  0  0
  2  3  2  0  0  0  0
  3  4  1  0  0  0  0
  3 27  1  0  0  0  0
  4 20  2  0  0  0  0
  4  5  1  0  0  0  0
  5  6  2  0  0  0  0
  6  7  1  0  0  0  0
  6 28  1  0  0  0  0
  7  8  1  0  0  0  0
  7 20  1  0  0  0  0
  8  9  1  0  0  0  0
  8 29  1  0  0  0  0
  8 30  1  0  0  0  0
  9 10  1  0  0  0  0
  9 11  1  0  0  0  0
  9 31  1  0  0  0  0
 10 32  1  0  0  0  0
 11 12  1  0  0  0  0
 11 33  1  0  0  0  0
 11 34  1  0  0  0  0
 12 13  1  0  0  0  0
 12 14  1  0  0  0  0
 13 35  1  0  0  0  0
 13 36  1  0  0  0  0
 13 37  1  0  0  0  0
 14 15  2  0  0  0  0
 14 16  2  0  0  0  0
 14 17  1  0  0  0  0
 17 18  1  0  0  0  0
 17 19  1  0  0  0  0
 17 38  1  0  0  0  0
 18 39  1  0  0  0  0
 18 40  1  0  0  0  0
 18 41  1  0  0  0  0
 19 42  1  0  0  0  0
 19 43  1  0  0  0  0
 19 44  1  0  0  0  0
 20 21  1  0  0  0  0
 21 22  2  0  0  0  0
 21 45  1  0  0  0  0
 22 23  1  0  0  0  0
 23 46  1  0  0  0  0
 23 47  1  0  0  0  0
 23 48  1  0  0  0  0
M  END
> <s_m_source_file>
AV-unprocessed.smi

> <i_m_source_file_index>
2538

> <i_lp_mmshare_version>
43012

> <i_f3d_flags>
0

> <s_epik_input>
W0NIM11jKFtjSF0xKWMoW0NIM10pW2NIXWMoYzEyKW4oW2NIXW4yKVtDSDJdW0NASF0oW09IXSlbQ0gyXU4oW0NIM10pUyg9TykoPU8pW0NIXShbQ0gzXSlbQ0gzXQ==

> <s_epik_cmdline>
J2VwaWtfcHl0aG9uJywgJy1waCcsICc3LjAnLCAnLXRuJywgJzgnLCAnLW1hJywgJzIwMCcsICctbWV0YWxfYmluZGluZycsICctaW1hZScsICc8aW5maWxlLm1hZT4nLCAnLW9tYWUnLCAnPG91dGZpbGUubWFlPic=

> <r_epik_Ionization_Penalty>
0.105018

> <r_epik_Ionization_Penalty_Charging>
0

> <r_epik_Ionization_Penalty_Neutral>
0.105018

> <r_epik_State_Penalty>
0.094904

> <r_epik_Charging_Adjusted_Penalty>
0.094904

> <i_epik_Tot_Q>
0

> <i_epik_Tot_abs_Q>
0

> <r_epik_Metal_State_Penalty>
0.000102919

> <b_epik_Metal_Only>
0

> <s_lp_Force_Field>
OPLS_2005

> <r_lp_Energy>
6.99225

> <b_lp_Chiralities_Consistent>
1

> <s_lp_Variant>
AV-unprocessed.smi:2538-2

> <Gold.Version>
5.8.1

> <Gold.Id.Protein>
6NUR|6NUR_protein|mol2

> <Gold.PLP.Fitness>
46.2266

> <Gold.PLP.PLP>
-42.1394

> <Gold.PLP.part.hbond>
-3.0000

> <Gold.PLP.part.metal>
0.0000

> <Gold.PLP.part.buried>
-5.3132

> <Gold.PLP.part.nonpolar>
-33.4396

> <Gold.PLP.part.repulsive>
0.1738

> <Gold.PLP.ligand.clash>
0.0000

> <Gold.PLP.ligand.torsion>
2.2871

> <Gold.PLP.Chemscore.Hbond>
2.0000

> <Gold.PLP.Chemscore.CHOScore>
0.0000

> <Gold.PLP.Chemscore.Metal>
0.0000

> <Gold.Chemscore.Hbonds>
donor molecule, donor type, donor heavy atom, donor atom, acceptor molecule, acceptor atom, score
      L1  H    10    32       P1  7957  1.00
      P1  H  7997  8008       L1     5  0.91

> <Gold.PLP.Chemscore.Internal.Correction>
2.6614

> <Gold.Rescore>
     Score         DG    S(hbond)    S(metal)    S(lipo)     H(rot)  DE(clash)    DE(int)     intcor
     14.12     -17.75       1.51        0.00     112.04       2.29       0.59       3.04       ----

> <Gold.Chemscore.Fitness>
14.1237

> <Gold.Chemscore.DG>
-17.7529

> <Gold.Chemscore.ZeroCoef>
-5.4800

> <Gold.Chemscore.Hbond>
1.5063

> <Gold.Chemscore.Metal>
0.0000

> <Gold.Chemscore.Lipo>
112.0401

> <Gold.Chemscore.Internal_Hbond>
0.0000

> <Gold.Chemscore.DEClash>
0.5874

> <Gold.Chemscore.DEInternal>
3.0418

> <Gold.Chemscore.Rot>
2.2917

> <Gold.Chemscore.Internal.Correction>
   9.000000E+99

> <Gold.Chemscore.Hbonds>
donor molecule, donor type, donor heavy atom, donor atom, acceptor molecule, acceptor atom, score
      L1  H    10    32       P1  7957  0.98
      P1  H  7997  8008       L1     5  0.21

> <Gold.Chemscore.Hbond.Weighted>
-5.0311

> <Gold.Chemscore.Metal.Weighted>
-0.0000

> <Gold.Chemscore.Lipo.Weighted>
-13.1087

> <Gold.Chemscore.Internal_Hbond.Weighted>
0.0000

> <Gold.Chemscore.DEClash.Weighted>
0.5874

> <Gold.Chemscore.DEInternal.Weighted>
3.0418

> <Gold.Chemscore.Rot.Weighted>
5.8669

> <Gold.Chemscore.Internal.Correction.Weighted>
   9.000000E+99

> <Gold.Protein.RotatedTorsions>
[ 6907 6896 6895 6894 ] final   94.80 input  -60.11 | X-H torsion
[ 7974 7965 7964 7962 ] final   41.48 input  175.53 | X-H torsion
[ 8008 7997 7996 7995 ] final  -72.72 input   59.86 | X-H torsion
[ 10167 10162 10161 10158 ] final  -35.20 input  -65.29 | X-H torsion
[ 10718 10713 10712 10709 ] final   64.04 input   66.30 | X-H torsion
[ 10763 10752 10751 10750 ] final  -82.34 input  -60.55 | X-H torsion
[ 11005 11000 10999 10996 ] final  -77.96 input  -57.11 | X-H torsion

> <Gold.Protein.ActiveResidues>
 VAL166  LYS551  ARG553  GLY616  TRP617  ASP618  TYR619  PRO620  LYS621  CYS622 
 ASP623  PHE694  ASN695  SER759  ASP760  ASP761  ALA762  ILE779  LEU786  VAL792 
 PHE793  MET794  SER795  GLU796  ALA797  LYS798  CYS799  TRP800  GLU811  SER814 

> <Gold.Protein.RotatedAtoms>
  152.5447  134.1137  159.8369 H   0  0  0  0  0  0  0  0  0  0  0  0  # atno 6907 bound_to 6896
  151.1201  133.5103  159.2610 H   0  0  0  0  0  0  0  0  0  0  0  0  # atno 6908 bound_to 6896
  151.1788  135.0361  159.8838 H   0  0  0  0  0  0  0  0  0  0  0  0  # atno 6909 bound_to 6896
  146.0820  139.5411  142.9531 H   0  0  0  0  0  0  0  0  0  0  0  0  # atno 7974 bound_to 7965
  154.5189  140.0792  156.8133 H   0  0  0  0  0  0  0  0  0  0  0  0  # atno 8008 bound_to 7997
  155.3620  140.3418  155.4223 H   0  0  0  0  0  0  0  0  0  0  0  0  # atno 8009 bound_to 7997
  156.1658  140.1603  156.8520 H   0  0  0  0  0  0  0  0  0  0  0  0  # atno 8010 bound_to 7997
  140.7170  143.3494  151.2188 H   0  0  0  0  0  0  0  0  0  0  0  0  # atno 10167 bound_to 10162
  157.6012  130.9138  149.9793 H   0  0  0  0  0  0  0  0  0  0  0  0  # atno 10718 bound_to 10713
  154.5745  135.5595  153.7126 H   0  0  0  0  0  0  0  0  0  0  0  0  # atno 10763 bound_to 10752
  153.0060  135.6305  154.2068 H   0  0  0  0  0  0  0  0  0  0  0  0  # atno 10764 bound_to 10752
  154.2008  135.2878  155.2971 H   0  0  0  0  0  0  0  0  0  0  0  0  # atno 10765 bound_to 10752
  141.1663  133.7043  156.7899 H   0  0  0  0  0  0  0  0  0  0  0  0  # atno 11005 bound_to 11000
  145.6200  141.0324  143.1920 LP  0  0  0  0  0  0  0  0  0  0  0  0  # atno 17320 bound_to 7965
  144.7300  139.7756  143.7351 LP  0  0  0  0  0  0  0  0  0  0  0  0  # atno 17321 bound_to 7965
  139.7021  143.9516  152.2910 LP  0  0  0  0  0  0  0  0  0  0  0  0  # atno 17342 bound_to 10162
  139.9213  144.6798  150.8459 LP  0  0  0  0  0  0  0  0  0  0  0  0  # atno 17343 bound_to 10162
  156.1086  130.3651  150.0089 LP  0  0  0  0  0  0  0  0  0  0  0  0  # atno 17370 bound_to 10713
  156.8191  130.9352  151.3642 LP  0  0  0  0  0  0  0  0  0  0  0  0  # atno 17371 bound_to 10713
  140.2333  134.8669  157.3499 LP  0  0  0  0  0  0  0  0  0  0  0  0  # atno 17394 bound_to 11000
  140.1869  134.4420  155.7738 LP  0  0  0  0  0  0  0  0  0  0  0  0  # atno 17395 bound_to 11000

$$$$
