#       Name:                AV-unprocessed.smi:1019
#       Creating user name   scv26
#       Creation time:       Fri Mar 27 02:41:20 2020


#       File generated by GOLD software.
#

@<TRIPOS>MOLECULE
AV-unprocessed.smi:1019
    47    49     1
SMALL
NO_CHARGES


@<TRIPOS>ATOM
      1 ****        -3.0778   0.5696  -2.3117 C.3            1 S1                 0.0000
      2 ****        -2.2228   1.0899  -1.2198 N.4            1 S1                 1.0000
      3 ****        -2.5907   2.4786  -0.8465 C.3            1 S1                 0.0000
      4 ****        -2.0261   2.8748   0.5076 C.ar           1 S1                 0.0000
      5 ****        -2.5373   2.2880   1.6847 C.ar           1 S1                 0.0000
      6 ****        -2.0067   2.6426   2.9403 C.ar           1 S1                 0.0000
      7 ****        -0.9663   3.5877   3.0243 C.ar           1 S1                 0.0000
      8 ****        -0.4573   4.1798   1.8526 C.ar           1 S1                 0.0000
      9 ****        -0.9865   3.8253   0.5966 C.ar           1 S1                 0.0000
     10 ****        -0.7713   0.9071  -1.4900 C.3            1 S1                 0.0000
     11 ****        -0.2902  -0.5089  -1.1202 C.3            1 S1                 0.0000
     12 ****        -0.4493  -0.6913   0.2740 O.3            1 S1                 0.0000
     13 ****         1.1854  -0.7327  -1.5059 C.3            1 S1                 0.0000
     14 ****         1.6499  -2.0969  -1.2152 N.pl3          1 S1                 0.0000
     15 ****         1.5334  -3.2286  -1.9624 C.2            1 S1                 0.0000
     16 ****         2.1217  -4.2427  -1.2701 N.pl3          1 S1                 1.0000
     17 ****         2.6233  -3.7537  -0.0626 C.ar           1 S1                 0.0000
     18 ****         3.2983  -4.3983   0.9694 C.ar           1 S1                 0.0000
     19 ****         3.6744  -3.6045   2.0725 C.ar           1 S1                 0.0000
     20 ****         3.3780  -2.2268   2.1205 C.ar           1 S1                 0.0000
     21 ****         2.6937  -1.5834   1.0681 C.ar           1 S1                 0.0000
     22 ****         2.3250  -2.3747  -0.0198 C.ar           1 S1                 0.0000
     23 ****        -2.9393   1.1492  -3.2252 H              1 S1                 0.0000
     24 ****        -4.1308   0.6210  -2.0332 H              1 S1                 0.0000
     25 ****        -2.8511  -0.4730  -2.5323 H              1 S1                 0.0000
     26 ****        -2.2597   3.1725  -1.6211 H              1 S1                 0.0000
     27 ****        -3.6764   2.5701  -0.7883 H              1 S1                 0.0000
     28 ****        -3.3336   1.5603   1.6278 H              1 S1                 0.0000
     29 ****        -2.3975   2.1897   3.8397 H              1 S1                 0.0000
     30 ****        -0.5602   3.8598   3.9876 H              1 S1                 0.0000
     31 ****         0.3393   4.9063   1.9173 H              1 S1                 0.0000
     32 ****        -0.5884   4.2830  -0.2973 H              1 S1                 0.0000
     33 ****        -0.5713   1.1191  -2.5414 H              1 S1                 0.0000
     34 ****        -0.1753   1.6256  -0.9275 H              1 S1                 0.0000
     35 ****        -0.8994  -1.2556  -1.6296 H              1 S1                 0.0000
     36 ****         0.0979  -0.0676   0.7268 H              1 S1                 0.0000
     37 ****         1.3144  -0.5764  -2.5776 H              1 S1                 0.0000
     38 ****         1.8410  -0.0142  -1.0132 H              1 S1                 0.0000
     39 ****         1.0600  -3.3086  -2.9304 H              1 S1                 0.0000
     40 ****         3.5263  -5.4537   0.9355 H              1 S1                 0.0000
     41 ****         4.2002  -4.0617   2.8983 H              1 S1                 0.0000
     42 ****         3.6816  -1.6515   2.9830 H              1 S1                 0.0000
     43 ****         2.4715  -0.5283   1.1198 H              1 S1                 0.0000
     44 ****        -2.4274   0.5295  -0.4043 H              1 S1                 0.0000
     45 ****         2.1760  -5.1978  -1.6003 H              1 S1                 0.0000
     46 ****        -0.1781  -1.6206   0.5246 LP             1 S1                 0.0000
     47 ****        -1.4059  -0.5440   0.5253 LP             1 S1                 0.0000
@<TRIPOS>BOND
    1    1    2 1     
    2    1   23 1     
    3    1   24 1     
    4    1   25 1     
    5    2    3 1     
    6    2   10 1     
    7    2   44 1     
    8    3    4 1     
    9    3   26 1     
   10    3   27 1     
   11    4    9 ar    
   12    4    5 ar    
   13    5    6 ar    
   14    5   28 1     
   15    6    7 ar    
   16    6   29 1     
   17    7    8 ar    
   18    7   30 1     
   19    8    9 ar    
   20    8   31 1     
   21    9   32 1     
   22   10   11 1     
   23   10   33 1     
   24   10   34 1     
   25   11   12 1     
   26   11   13 1     
   27   11   35 1     
   28   12   36 1     
   29   13   14 1     
   30   13   37 1     
   31   13   38 1     
   32   14   22 1     
   33   14   15 1     
   34   15   16 2     
   35   15   39 1     
   36   16   17 1     
   37   16   45 1     
   38   17   22 ar    
   39   17   18 ar    
   40   18   19 ar    
   41   18   40 1     
   42   19   20 ar    
   43   19   41 1     
   44   20   21 ar    
   45   20   42 1     
   46   21   22 ar    
   47   21   43 1     
   48   12   46 1     
   49   12   47 1     
@<TRIPOS>SUBSTRUCTURE
      1 S1             1
@<TRIPOS>SET
LONE_PAIRS      STATIC     ATOMS    <user>   **** ""
2 46 47
DONOR_HYDROGENS      STATIC     ATOMS    <user>   **** ""
3 44 36 45
ATOM$BLUE        STATIC     ATOMS    COLORGROUP SYSTEM
2 46 47
ATOM$RED        STATIC     ATOMS    COLORGROUP SYSTEM
3 44 36 45
