#       Name:                AV-unprocessed.smi:2750
#       Creating user name   scv26
#       Creation time:       Fri Mar 27 15:04:10 2020


#       File generated by GOLD software.
#

@<TRIPOS>MOLECULE
AV-unprocessed.smi:2750
    35    36     1
SMALL
NO_CHARGES


@<TRIPOS>ATOM
      1 ****        -5.1181   2.8523  -0.5912 O.co2          1 S1                 0.0000
      2 ****        -4.1974   2.3248   0.0707 C.2            1 S1                 0.0000
      3 ****        -3.6988   2.7932   1.1185 O.co2          1 S1                -1.0000
      4 ****        -3.6602   0.9833  -0.4378 C.3            1 S1                 0.0000
      5 ****        -2.2115   0.8854  -0.3749 N.pl3          1 S1                 0.0000
      6 ****        -1.4241   0.4245   0.6604 C.2            1 S1                 0.0000
      7 ****        -0.1537   0.5565   0.1771 C.2            1 S1                 0.0000
      8 ****         1.1487   0.2144   0.8379 C.3            1 S1                 0.0000
      9 ****         1.6717  -1.1845   0.4524 C.3            1 S1                 0.0000
     10 ****         1.9546  -1.3198  -0.9669 N.am           1 S1                 0.0000
     11 ****         3.2347  -1.6346  -1.2064 C.2            1 S1                 0.0000
     12 ****         3.7413  -1.8076  -2.3123 O.2            1 S1                 0.0000
     13 ****         3.8643  -1.7251  -0.0298 N.am           1 S1                 0.0000
     14 ****         3.0582  -1.4711   0.9997 C.2            1 S1                 0.0000
     15 ****         3.3596  -1.4631   2.1917 O.2            1 S1                 0.0000
     16 ****        -0.2188   1.0814  -1.1137 N.2            1 S1                 0.0000
     17 ****        -1.4600   1.2782  -1.4318 N.2            1 S1                 0.0000
     18 ****        -4.0889   0.1809   0.1631 H              1 S1                 0.0000
     19 ****        -3.9831   0.8161  -1.4668 H              1 S1                 0.0000
     20 ****        -1.8201   0.0674   1.5994 H              1 S1                 0.0000
     21 ****         1.8951   0.9710   0.5899 H              1 S1                 0.0000
     22 ****         1.0290   0.2651   1.9209 H              1 S1                 0.0000
     23 ****         0.9774  -1.9651   0.7661 H              1 S1                 0.0000
     24 ****         1.2552  -1.1767  -1.6813 H              1 S1                 0.0000
     25 ****         4.8443  -1.9480   0.0659 H              1 S1                 0.0000
     26 ****        -5.5154   3.7198  -0.2919 LP             1 S1                 0.0000
     27 ****        -5.4569   2.4066  -1.4198 LP             1 S1                 0.0000
     28 ****        -4.0365   3.6582   1.4896 LP             1 S1                 0.0000
     29 ****        -2.9626   2.3026   1.5847 LP             1 S1                 0.0000
     30 ****         3.1841  -1.7150  -3.1375 LP             1 S1                 0.0000
     31 ****         4.7108  -2.0409  -2.3872 LP             1 S1                 0.0000
     32 ****         2.6657  -1.2565   2.8815 LP             1 S1                 0.0000
     33 ****         4.2986  -1.6631   2.4713 LP             1 S1                 0.0000
     34 ****         0.5674   1.2752  -1.7006 LP             1 S1                 0.0000
     35 ****        -1.7994   1.6504  -2.2957 LP             1 S1                 0.0000
@<TRIPOS>BOND
    1    1    2 ar    
    2    2    3 ar    
    3    2    4 1     
    4    4    5 1     
    5    4   18 1     
    6    4   19 1     
    7    5   17 1     
    8    5    6 1     
    9    6    7 2     
   10    6   20 1     
   11    7    8 1     
   12    7   16 1     
   13    8    9 1     
   14    8   21 1     
   15    8   22 1     
   16    9   14 1     
   17    9   10 1     
   18    9   23 1     
   19   10   11 am    
   20   10   24 1     
   21   11   12 2     
   22   11   13 am    
   23   13   14 am    
   24   13   25 1     
   25   14   15 2     
   26   16   17 2     
   27    1   26 1     
   28    1   27 1     
   29    3   28 1     
   30    3   29 1     
   31   12   30 1     
   32   12   31 1     
   33   15   32 1     
   34   15   33 1     
   35   16   34 1     
   36   17   35 1     
@<TRIPOS>SUBSTRUCTURE
      1 S1             1
@<TRIPOS>SET
LONE_PAIRS      STATIC     ATOMS    <user>   **** ""
10 26 27 28 29 30 31 32 33 34 35
DONOR_HYDROGENS      STATIC     ATOMS    <user>   **** ""
2 24 25
ATOM$BLUE        STATIC     ATOMS    COLORGROUP SYSTEM
10 26 27 28 29 30 31 32 33 34 35
ATOM$RED        STATIC     ATOMS    COLORGROUP SYSTEM
2 24 25
