AV-unprocessed.smi:3166|AV-procd|sdf|12094|dock8
  -GOLD-   2272017523D 1   1.00000     0.00000
 Structure written by MMmdl.
 41 42  0  0  0  0  0  0  0  0  2 V2000
  145.4316  135.9132  150.9631 C   0  0  0  0  0  0  0  0  0  0  0  0
  145.4682  135.6181  152.4719 C   0  0  1  0  0  0  0  0  0  0  0  0
  145.7397  134.1210  152.7246 C   0  0  0  0  0  0  0  0  0  0  0  0
  144.9993  133.2494  151.8277 N   0  0  0  0  0  0  0  0  0  0  0  0
  145.4819  132.2338  151.0288 C   0  0  0  0  0  0  0  0  0  0  0  0
  144.4194  131.7116  150.3485 C   0  0  0  0  0  0  0  0  0  0  0  0
  143.3154  132.4893  150.7962 C   0  0  0  0  0  0  0  0  0  0  0  0
  143.6666  133.4112  151.6782 N   0  0  0  0  0  0  0  0  0  0  0  0
  146.4927  136.4416  153.1537 N   0  3  0  0  0  0  0  0  0  0  0  0
  146.0691  137.8102  153.5229 C   0  0  0  0  0  0  0  0  0  0  0  0
  147.2171  138.8338  153.3796 C   0  0  0  0  0  0  0  0  0  0  0  0
  147.7016  138.7346  152.0520 O   0  0  0  0  0  0  0  0  0  0  0  0
  146.7401  140.2835  153.6471 C   0  0  0  0  0  0  0  0  0  0  0  0
  147.8930  141.3033  153.6391 C   0  0  0  0  0  0  0  0  0  0  0  0
  148.9979  140.9070  154.6277 C   0  0  0  0  0  0  0  0  0  0  0  0
  149.5171  139.4932  154.3328 C   0  0  0  0  0  0  0  0  0  0  0  0
  148.3731  138.4633  154.3392 C   0  0  0  0  0  0  0  0  0  0  0  0
  144.6996  135.2802  150.4607 H   0  0  0  0  0  0  0  0  0  0  0  0
  146.4011  135.7295  150.4988 H   0  0  0  0  0  0  0  0  0  0  0  0
  145.1523  136.9462  150.7577 H   0  0  0  0  0  0  0  0  0  0  0  0
  144.4922  135.8653  152.8926 H   0  0  0  0  0  0  0  0  0  0  0  0
  146.8014  133.9043  152.5994 H   0  0  0  0  0  0  0  0  0  0  0  0
  145.4874  133.8582  153.7533 H   0  0  0  0  0  0  0  0  0  0  0  0
  146.5290  131.9692  151.0094 H   0  0  0  0  0  0  0  0  0  0  0  0
  144.4293  130.9008  149.6351 H   0  0  0  0  0  0  0  0  0  0  0  0
  142.2777  132.4134  150.5066 H   0  0  0  0  0  0  0  0  0  0  0  0
  146.7340  135.9715  154.0153 H   0  0  0  0  0  0  0  0  0  0  0  0
  145.2303  138.1109  152.8949 H   0  0  0  0  0  0  0  0  0  0  0  0
  145.7062  137.8028  154.5519 H   0  0  0  0  0  0  0  0  0  0  0  0
  148.0291  137.8577  151.9177 H   0  0  0  0  0  0  0  0  0  0  0  0
  145.9920  140.5850  152.9132 H   0  0  0  0  0  0  0  0  0  0  0  0
  146.2444  140.3252  154.6181 H   0  0  0  0  0  0  0  0  0  0  0  0
  148.3111  141.3817  152.6346 H   0  0  0  0  0  0  0  0  0  0  0  0
  147.5118  142.2938  153.8891 H   0  0  0  0  0  0  0  0  0  0  0  0
  149.8184  141.6234  154.5757 H   0  0  0  0  0  0  0  0  0  0  0  0
  148.6118  140.9517  155.6469 H   0  0  0  0  0  0  0  0  0  0  0  0
  150.0221  139.4815  153.3663 H   0  0  0  0  0  0  0  0  0  0  0  0
  150.2680  139.2145  155.0727 H   0  0  0  0  0  0  0  0  0  0  0  0
  147.9844  138.3855  155.3557 H   0  0  0  0  0  0  0  0  0  0  0  0
  148.7688  137.4767  154.0940 H   0  0  0  0  0  0  0  0  0  0  0  0
  147.3189  136.4917  152.5756 H   0  0  0  0  0  0  0  0  0  0  0  0
  1  2  1  0  0  0  0
  1 18  1  0  0  0  0
  1 19  1  0  0  0  0
  1 20  1  0  0  0  0
  2  3  1  0  0  0  0
  2  9  1  0  0  0  0
  2 21  1  0  0  0  0
  3  4  1  0  0  0  0
  3 22  1  0  0  0  0
  3 23  1  0  0  0  0
  4  8  1  0  0  0  0
  4  5  1  0  0  0  0
  5  6  2  0  0  0  0
  5 24  1  0  0  0  0
  6  7  1  0  0  0  0
  6 25  1  0  0  0  0
  7  8  2  0  0  0  0
  7 26  1  0  0  0  0
  9 10  1  0  0  0  0
  9 27  1  0  0  0  0
  9 41  1  0  0  0  0
 10 11  1  0  0  0  0
 10 28  1  0  0  0  0
 10 29  1  0  0  0  0
 11 17  1  0  0  0  0
 11 12  1  0  0  0  0
 11 13  1  0  0  0  0
 12 30  1  0  0  0  0
 13 14  1  0  0  0  0
 13 31  1  0  0  0  0
 13 32  1  0  0  0  0
 14 15  1  0  0  0  0
 14 33  1  0  0  0  0
 14 34  1  0  0  0  0
 15 16  1  0  0  0  0
 15 35  1  0  0  0  0
 15 36  1  0  0  0  0
 16 17  1  0  0  0  0
 16 37  1  0  0  0  0
 16 38  1  0  0  0  0
 17 39  1  0  0  0  0
 17 40  1  0  0  0  0
M  CHG  1   9   1
M  END
> <s_m_source_file>
AV-unprocessed.smi

> <i_m_source_file_index>
3166

> <i_lp_mmshare_version>
43012

> <i_f3d_flags>
0

> <s_epik_input>
bjFbY0hdW2NIXVtjSF1uMVtDSDJdW0NAQEhdKFtDSDNdKVtOSF1bQ0gyXUMyKFtPSF0pW0NIMl1bQ0gyXVtDSDJdW0NIMl1bQ0gyXTI=

> <s_epik_cmdline>
J2VwaWtfcHl0aG9uJywgJy1waCcsICc3LjAnLCAnLXRuJywgJzgnLCAnLW1hJywgJzIwMCcsICctbWV0YWxfYmluZGluZycsICctaW1hZScsICc8aW5maWxlLm1hZT4nLCAnLW9tYWUnLCAnPG91dGZpbGUubWFlPic=

> <r_lp_tautomer_probability>
1

> <r_epik_Ionization_Penalty>
0.0111521

> <r_epik_Ionization_Penalty_Charging>
0.0111472

> <r_epik_Ionization_Penalty_Neutral>
4.96355e-06

> <r_epik_State_Penalty>
0.00856328

> <r_epik_Charging_Adjusted_Penalty>
0.0197104

> <i_epik_Tot_Q>
1

> <i_epik_Tot_abs_Q>
1

> <r_epik_Metal_State_Penalty>
0.00856387

> <b_epik_Metal_Only>
0

> <s_lp_Force_Field>
OPLS_2005

> <r_lp_Energy>
16.9358

> <b_lp_Chiralities_Consistent>
1

> <s_lp_Variant>
AV-unprocessed.smi:3166-2

> <Gold.Version>
5.8.1

> <Gold.Id.Protein>
6NUR|6NUR_protein|mol2

> <Gold.PLP.Fitness>
47.5013

> <Gold.PLP.PLP>
-32.8863

> <Gold.PLP.part.hbond>
-2.8284

> <Gold.PLP.part.metal>
0.0000

> <Gold.PLP.part.buried>
-3.2359

> <Gold.PLP.part.nonpolar>
-28.4890

> <Gold.PLP.part.repulsive>
0.1793

> <Gold.PLP.ligand.clash>
0.0000

> <Gold.PLP.ligand.torsion>
0.7305

> <Gold.PLP.Chemscore.Hbond>
3.0000

> <Gold.PLP.Chemscore.CHOScore>
2.3433

> <Gold.PLP.Chemscore.Metal>
0.0000

> <Gold.Chemscore.Hbonds>
donor molecule, donor type, donor heavy atom, donor atom, acceptor molecule, acceptor atom, score
      L1  H     9    41       P1  7948  2.00
      L1  H    12    30       P1  7948  1.00
      L1  C     5    24       P1 10747  0.36
      L1  C     7    26       P1 10186  0.80
      L1  C     7    26       P1 10952  0.62

> <Gold.PLP.Chemscore.Internal.Correction>
0.0462

> <Gold.Rescore>
     Score         DG    S(hbond)    S(metal)    S(lipo)     H(rot)  DE(clash)    DE(int)     intcor
     16.00     -16.99       1.95        0.00      90.81       2.20       0.45       0.54       ----

> <Gold.Chemscore.Fitness>
15.9991

> <Gold.Chemscore.DG>
-16.9859

> <Gold.Chemscore.ZeroCoef>
-5.4800

> <Gold.Chemscore.Hbond>
1.9495

> <Gold.Chemscore.Metal>
0.0000

> <Gold.Chemscore.Lipo>
90.8063

> <Gold.Chemscore.Internal_Hbond>
0.0000

> <Gold.Chemscore.DEClash>
0.4466

> <Gold.Chemscore.DEInternal>
0.5402

> <Gold.Chemscore.Rot>
2.1991

> <Gold.Chemscore.Internal.Correction>
   9.000000E+99

> <Gold.Chemscore.Hbonds>
donor molecule, donor type, donor heavy atom, donor atom, acceptor molecule, acceptor atom, score
      L1  H     9    41       P1  7948  1.00
      L1  H    12    30       P1  7948  1.00

> <Gold.Chemscore.Hbond.Weighted>
-6.5114

> <Gold.Chemscore.Metal.Weighted>
-0.0000

> <Gold.Chemscore.Lipo.Weighted>
-10.6243

> <Gold.Chemscore.Internal_Hbond.Weighted>
0.0000

> <Gold.Chemscore.DEClash.Weighted>
0.4466

> <Gold.Chemscore.DEInternal.Weighted>
0.5402

> <Gold.Chemscore.Rot.Weighted>
5.6298

> <Gold.Chemscore.Internal.Correction.Weighted>
   9.000000E+99

> <Gold.Protein.RotatedTorsions>
[ 6907 6896 6895 6894 ] final   67.92 input  -60.11 | X-H torsion
[ 7974 7965 7964 7962 ] final  -88.18 input  175.53 | X-H torsion
[ 8008 7997 7996 7995 ] final  -30.09 input   59.86 | X-H torsion
[ 10167 10162 10161 10158 ] final  -60.37 input  -65.29 | X-H torsion
[ 10718 10713 10712 10709 ] final  -87.68 input   66.30 | X-H torsion
[ 10763 10752 10751 10750 ] final    5.08 input  -60.55 | X-H torsion
[ 11005 11000 10999 10996 ] final -175.65 input  -57.11 | X-H torsion

> <Gold.Protein.ActiveResidues>
 VAL166  LYS551  ARG553  GLY616  TRP617  ASP618  TYR619  PRO620  LYS621  CYS622 
 ASP623  PHE694  ASN695  SER759  ASP760  ASP761  ALA762  ILE779  LEU786  VAL792 
 PHE793  MET794  SER795  GLU796  ALA797  LYS798  CYS799  TRP800  GLU811  SER814 

> <Gold.Protein.RotatedAtoms>
  152.4585  134.5237  159.9790 H   0  0  0  0  0  0  0  0  0  0  0  0  # atno 6907 bound_to 6896
  151.5292  133.3446  159.2923 H   0  0  0  0  0  0  0  0  0  0  0  0  # atno 6908 bound_to 6896
  150.8539  134.7902  159.7093 H   0  0  0  0  0  0  0  0  0  0  0  0  # atno 6909 bound_to 6896
  145.4566  140.9561  143.1993 H   0  0  0  0  0  0  0  0  0  0  0  0  # atno 7974 bound_to 7965
  154.4264  140.1801  156.1351 H   0  0  0  0  0  0  0  0  0  0  0  0  # atno 8008 bound_to 7997
  156.0036  140.3357  155.6845 H   0  0  0  0  0  0  0  0  0  0  0  0  # atno 8009 bound_to 7997
  155.6208  140.0659  157.2669 H   0  0  0  0  0  0  0  0  0  0  0  0  # atno 8010 bound_to 7997
  140.6076  143.2378  151.5786 H   0  0  0  0  0  0  0  0  0  0  0  0  # atno 10167 bound_to 10162
  155.9985  130.4808  150.4903 H   0  0  0  0  0  0  0  0  0  0  0  0  # atno 10718 bound_to 10713
  153.2637  135.6925  153.7552 H   0  0  0  0  0  0  0  0  0  0  0  0  # atno 10763 bound_to 10752
  153.6602  135.3362  155.3126 H   0  0  0  0  0  0  0  0  0  0  0  0  # atno 10764 bound_to 10752
  154.8439  135.4475  154.1636 H   0  0  0  0  0  0  0  0  0  0  0  0  # atno 10765 bound_to 10752
  140.4610  134.6255  157.4842 H   0  0  0  0  0  0  0  0  0  0  0  0  # atno 11005 bound_to 11000
  144.8028  139.6107  143.7064 LP  0  0  0  0  0  0  0  0  0  0  0  0  # atno 17320 bound_to 7965
  146.2475  139.6128  142.9450 LP  0  0  0  0  0  0  0  0  0  0  0  0  # atno 17321 bound_to 7965
  139.5336  144.2844  152.1203 LP  0  0  0  0  0  0  0  0  0  0  0  0  # atno 17342 bound_to 10162
  140.2037  144.4632  150.6419 LP  0  0  0  0  0  0  0  0  0  0  0  0  # atno 17343 bound_to 10162
  157.2899  131.0624  151.2141 LP  0  0  0  0  0  0  0  0  0  0  0  0  # atno 17370 bound_to 10713
  157.3157  130.6912  149.6241 LP  0  0  0  0  0  0  0  0  0  0  0  0  # atno 17371 bound_to 10713
  139.9945  134.6932  155.9632 LP  0  0  0  0  0  0  0  0  0  0  0  0  # atno 17394 bound_to 11000
  141.1621  133.6538  156.4355 LP  0  0  0  0  0  0  0  0  0  0  0  0  # atno 17395 bound_to 11000

$$$$
