AV-unprocessed.smi:262|AV-procd|sdf|1999|dock4
  -GOLD-   2262021193D 1   1.00000     0.00000
 Structure written by MMmdl.
 60 64  0  0  0  0  0  0  0  0  2 V2000
  149.9745  142.5783  158.4506 O   0  0  0  0  0  0  0  0  0  0  0  0
  151.1314  142.4375  157.6438 C   0  0  0  0  0  0  0  0  0  0  0  0
  150.6966  141.8015  156.2999 C   0  0  0  0  0  0  0  0  0  0  0  0
  150.2601  140.4177  156.4116 N   0  0  0  0  0  0  0  0  0  0  0  0
  149.2635  139.9322  157.2293 C   0  0  0  0  0  0  0  0  0  0  0  0
  149.0520  138.6463  157.1477 N   0  0  0  0  0  0  0  0  0  0  0  0
  149.9677  138.2162  156.1967 C   0  0  0  0  0  0  0  0  0  0  0  0
  150.2794  136.9538  155.6291 C   0  0  0  0  0  0  0  0  0  0  0  0
  149.6209  135.8298  155.9866 N   0  0  0  0  0  0  0  0  0  0  0  0
  148.1778  135.8480  155.7762 C   0  0  0  0  0  0  0  0  0  0  0  0
  147.7899  135.2931  154.3922 C   0  0  0  0  0  0  0  0  0  0  0  0
  148.4102  133.9625  154.1531 N   0  3  0  0  0  0  0  0  0  0  0  0
  148.0093  133.3367  152.8664 C   0  0  0  0  0  0  0  0  0  0  0  0
  146.4838  133.3348  152.6403 C   0  0  2  0  0  0  0  0  0  0  0  0
  145.9998  132.3457  151.5977 C   0  0  0  0  0  0  0  0  0  0  0  0
  144.6209  132.8999  151.2514 C   0  0  0  0  0  0  0  0  0  0  0  0
  144.7082  134.3092  151.4425 O   0  0  0  0  0  0  0  0  0  0  0  0
  145.9472  134.6433  152.0599 C   0  0  0  0  0  0  0  0  0  0  0  0
  149.8870  134.0095  154.3119 C   0  0  0  0  0  0  0  0  0  0  0  0
  150.2902  134.5682  155.6903 C   0  0  0  0  0  0  0  0  0  0  0  0
  151.2659  136.8988  154.6975 N   0  0  0  0  0  0  0  0  0  0  0  0
  151.9062  138.0164  154.3392 C   0  0  0  0  0  0  0  0  0  0  0  0
  151.7196  139.2631  154.7793 N   0  0  0  0  0  0  0  0  0  0  0  0
  150.7324  139.3161  155.7193 C   0  0  0  0  0  0  0  0  0  0  0  0
  151.7298  143.8381  157.4043 C   0  0  0  0  0  0  0  0  0  0  0  0
  152.3346  144.4392  158.6857 C   0  0  0  0  0  0  0  0  0  0  0  0
  153.3034  143.5512  159.2294 O   0  0  0  0  0  0  0  0  0  0  0  0
  152.7432  142.3060  159.6275 C   0  0  0  0  0  0  0  0  0  0  0  0
  152.1590  141.5732  158.4068 C   0  0  0  0  0  0  0  0  0  0  0  0
  149.2213  142.3165  157.9435 H   0  0  0  0  0  0  0  0  0  0  0  0
  149.8843  142.3781  155.8548 H   0  0  0  0  0  0  0  0  0  0  0  0
  151.5193  141.8396  155.5846 H   0  0  0  0  0  0  0  0  0  0  0  0
  148.6963  140.5668  157.8950 H   0  0  0  0  0  0  0  0  0  0  0  0
  147.7159  135.2429  156.5572 H   0  0  0  0  0  0  0  0  0  0  0  0
  147.7886  136.8598  155.8997 H   0  0  0  0  0  0  0  0  0  0  0  0
  146.7043  135.2276  154.3418 H   0  0  0  0  0  0  0  0  0  0  0  0
  148.0980  135.9830  153.6054 H   0  0  0  0  0  0  0  0  0  0  0  0
  148.5133  133.8444  152.0428 H   0  0  0  0  0  0  0  0  0  0  0  0
  148.3615  132.3040  152.8504 H   0  0  0  0  0  0  0  0  0  0  0  0
  145.9565  133.1503  153.5763 H   0  0  0  0  0  0  0  0  0  0  0  0
  146.6441  132.3710  150.7176 H   0  0  0  0  0  0  0  0  0  0  0  0
  145.9608  131.3195  151.9641 H   0  0  0  0  0  0  0  0  0  0  0  0
  144.3166  132.6525  150.2341 H   0  0  0  0  0  0  0  0  0  0  0  0
  143.8692  132.5042  151.9354 H   0  0  0  0  0  0  0  0  0  0  0  0
  145.8178  135.4161  152.8180 H   0  0  0  0  0  0  0  0  0  0  0  0
  146.6173  135.0331  151.2924 H   0  0  0  0  0  0  0  0  0  0  0  0
  150.3046  133.0086  154.1976 H   0  0  0  0  0  0  0  0  0  0  0  0
  150.3154  134.6196  153.5157 H   0  0  0  0  0  0  0  0  0  0  0  0
  151.3730  134.6914  155.7461 H   0  0  0  0  0  0  0  0  0  0  0  0
  150.0214  133.8545  156.4697 H   0  0  0  0  0  0  0  0  0  0  0  0
  152.6782  137.8961  153.5931 H   0  0  0  0  0  0  0  0  0  0  0  0
  152.5171  143.7695  156.6524 H   0  0  0  0  0  0  0  0  0  0  0  0
  150.9762  144.5121  156.9951 H   0  0  0  0  0  0  0  0  0  0  0  0
  152.8201  145.3883  158.4571 H   0  0  0  0  0  0  0  0  0  0  0  0
  151.5612  144.6510  159.4258 H   0  0  0  0  0  0  0  0  0  0  0  0
  153.5265  141.7005  160.0837 H   0  0  0  0  0  0  0  0  0  0  0  0
  151.9818  142.4644  160.3928 H   0  0  0  0  0  0  0  0  0  0  0  0
  151.7153  140.6296  158.7256 H   0  0  0  0  0  0  0  0  0  0  0  0
  152.9789  141.3156  157.7350 H   0  0  0  0  0  0  0  0  0  0  0  0
  148.0728  133.3518  154.8832 H   0  0  0  0  0  0  0  0  0  0  0  0
  1  2  1  0  0  0  0
  1 30  1  0  0  0  0
  2 29  1  0  0  0  0
  2  3  1  0  0  0  0
  2 25  1  0  0  0  0
  3  4  1  0  0  0  0
  3 31  1  0  0  0  0
  3 32  1  0  0  0  0
  4 24  1  0  0  0  0
  4  5  1  0  0  0  0
  5  6  2  0  0  0  0
  5 33  1  0  0  0  0
  6  7  1  0  0  0  0
  7 24  2  0  0  0  0
  7  8  1  0  0  0  0
  8  9  1  0  0  0  0
  8 21  2  0  0  0  0
  9 20  1  0  0  0  0
  9 10  1  0  0  0  0
 10 11  1  0  0  0  0
 10 34  1  0  0  0  0
 10 35  1  0  0  0  0
 11 12  1  0  0  0  0
 11 36  1  0  0  0  0
 11 37  1  0  0  0  0
 12 13  1  0  0  0  0
 12 19  1  0  0  0  0
 12 60  1  0  0  0  0
 13 14  1  0  0  0  0
 13 38  1  0  0  0  0
 13 39  1  0  0  0  0
 14 18  1  0  0  0  0
 14 15  1  0  0  0  0
 14 40  1  0  0  0  0
 15 16  1  0  0  0  0
 15 41  1  0  0  0  0
 15 42  1  0  0  0  0
 16 17  1  0  0  0  0
 16 43  1  0  0  0  0
 16 44  1  0  0  0  0
 17 18  1  0  0  0  0
 18 45  1  0  0  0  0
 18 46  1  0  0  0  0
 19 20  1  0  0  0  0
 19 47  1  0  0  0  0
 19 48  1  0  0  0  0
 20 49  1  0  0  0  0
 20 50  1  0  0  0  0
 21 22  1  0  0  0  0
 22 23  2  0  0  0  0
 22 51  1  0  0  0  0
 23 24  1  0  0  0  0
 25 26  1  0  0  0  0
 25 52  1  0  0  0  0
 25 53  1  0  0  0  0
 26 27  1  0  0  0  0
 26 54  1  0  0  0  0
 26 55  1  0  0  0  0
 27 28  1  0  0  0  0
 28 29  1  0  0  0  0
 28 56  1  0  0  0  0
 28 57  1  0  0  0  0
 29 58  1  0  0  0  0
 29 59  1  0  0  0  0
M  CHG  1  12   1
M  END
> <s_m_source_file>
AV-unprocessed.smi

> <i_m_source_file_index>
262

> <i_lp_mmshare_version>
43012

> <i_f3d_flags>
0

> <s_epik_input>
W0NIMl0xW0NIMl1PW0NIMl1bQ0gyXUMxKFtPSF0pW0NIMl1uKFtjSF1uMiljKGMyMyluW2NIXW5jM040W0NIMl1bQ0gyXU4oW0NIMl1bQ0gyXTQpW0NIMl1bQ0BASF01W0NIMl1bQ0gyXU9bQ0gyXTU=

> <s_epik_cmdline>
J2VwaWtfcHl0aG9uJywgJy1waCcsICc3LjAnLCAnLXRuJywgJzgnLCAnLW1hJywgJzIwMCcsICctbWV0YWxfYmluZGluZycsICctaW1hZScsICc8aW5maWxlLm1hZT4nLCAnLW9tYWUnLCAnPG91dGZpbGUubWFlPic=

> <r_lp_tautomer_probability>
1

> <r_epik_Ionization_Penalty>
0.010889

> <r_epik_Ionization_Penalty_Charging>
0.0108222

> <r_epik_Ionization_Penalty_Neutral>
6.6801e-05

> <r_epik_State_Penalty>
0.00829663

> <r_epik_Charging_Adjusted_Penalty>
0.0191189

> <i_epik_Tot_Q>
1

> <i_epik_Tot_abs_Q>
1

> <r_epik_Metal_State_Penalty>
0.00842341

> <b_epik_Metal_Only>
0

> <s_lp_Force_Field>
OPLS_2005

> <r_lp_Energy>
57.8888

> <b_lp_Chiralities_Consistent>
1

> <s_lp_Variant>
AV-unprocessed.smi:262-1

> <Gold.Version>
5.8.1

> <Gold.Id.Protein>
6NUR|6NUR_protein|mol2

> <Gold.PLP.Fitness>
49.7706

> <Gold.PLP.PLP>
-44.9145

> <Gold.PLP.part.hbond>
-2.2497

> <Gold.PLP.part.metal>
0.0000

> <Gold.PLP.part.buried>
-6.0938

> <Gold.PLP.part.nonpolar>
-37.3533

> <Gold.PLP.part.repulsive>
0.3987

> <Gold.PLP.ligand.clash>
0.0042

> <Gold.PLP.ligand.torsion>
0.5797

> <Gold.PLP.Chemscore.Hbond>
1.8491

> <Gold.PLP.Chemscore.CHOScore>
0.0000

> <Gold.PLP.Chemscore.Metal>
0.0000

> <Gold.Chemscore.Hbonds>
donor molecule, donor type, donor heavy atom, donor atom, acceptor molecule, acceptor atom, score
      P1  H  7989  7998       L1    23  0.96
      P1  H 10752 10765       L1    21  0.61

> <Gold.PLP.Chemscore.Internal.Correction>
0.4726

> <Gold.Rescore>
     Score         DG    S(hbond)    S(metal)    S(lipo)     H(rot)  DE(clash)    DE(int)     intcor
     14.03     -15.06       1.11        0.00     105.65       2.53       0.30       0.73       ----

> <Gold.Chemscore.Fitness>
14.0270

> <Gold.Chemscore.DG>
-15.0619

> <Gold.Chemscore.ZeroCoef>
-5.4800

> <Gold.Chemscore.Hbond>
1.1060

> <Gold.Chemscore.Metal>
0.0000

> <Gold.Chemscore.Lipo>
105.6544

> <Gold.Chemscore.Internal_Hbond>
0.0000

> <Gold.Chemscore.DEClash>
0.3047

> <Gold.Chemscore.DEInternal>
0.7302

> <Gold.Chemscore.Rot>
2.5288

> <Gold.Chemscore.Internal.Correction>
   9.000000E+99

> <Gold.Chemscore.Hbonds>
donor molecule, donor type, donor heavy atom, donor atom, acceptor molecule, acceptor atom, score
      P1  H  7989  7998       L1    23  0.75
      P1  H 10752 10765       L1    21  0.08

> <Gold.Chemscore.Hbond.Weighted>
-3.6941

> <Gold.Chemscore.Metal.Weighted>
-0.0000

> <Gold.Chemscore.Lipo.Weighted>
-12.3616

> <Gold.Chemscore.Internal_Hbond.Weighted>
0.0000

> <Gold.Chemscore.DEClash.Weighted>
0.3047

> <Gold.Chemscore.DEInternal.Weighted>
0.7302

> <Gold.Chemscore.Rot.Weighted>
6.4738

> <Gold.Chemscore.Internal.Correction.Weighted>
   9.000000E+99

> <Gold.Protein.RotatedTorsions>
[ 6907 6896 6895 6894 ] final -120.75 input  -60.11 | X-H torsion
[ 7974 7965 7964 7962 ] final  -14.25 input  175.53 | X-H torsion
[ 8008 7997 7996 7995 ] final -145.33 input   59.86 | X-H torsion
[ 10167 10162 10161 10158 ] final  -48.43 input  -65.29 | X-H torsion
[ 10718 10713 10712 10709 ] final  143.59 input   66.30 | X-H torsion
[ 10763 10752 10751 10750 ] final  172.35 input  -60.55 | X-H torsion
[ 11005 11000 10999 10996 ] final -152.83 input  -57.11 | X-H torsion

> <Gold.Protein.ActiveResidues>
 VAL166  LYS551  ARG553  GLY616  TRP617  ASP618  TYR619  PRO620  LYS621  CYS622 
 ASP623  PHE694  ASN695  SER759  ASP760  ASP761  ALA762  ILE779  LEU786  VAL792 
 PHE793  MET794  SER795  GLU796  ALA797  LYS798  CYS799  TRP800  GLU811  SER814 

> <Gold.Protein.RotatedAtoms>
  150.8421  133.7919  159.3056 H   0  0  0  0  0  0  0  0  0  0  0  0  # atno 6907 bound_to 6896
  151.5617  135.1063  159.9983 H   0  0  0  0  0  0  0  0  0  0  0  0  # atno 6908 bound_to 6896
  152.4483  133.7536  159.6764 H   0  0  0  0  0  0  0  0  0  0  0  0  # atno 6909 bound_to 6896
  146.2082  140.3322  142.8400 H   0  0  0  0  0  0  0  0  0  0  0  0  # atno 7974 bound_to 7965
  155.5414  140.0608  157.2869 H   0  0  0  0  0  0  0  0  0  0  0  0  # atno 8008 bound_to 7997
  154.4451  140.1918  156.0638 H   0  0  0  0  0  0  0  0  0  0  0  0  # atno 8009 bound_to 7997
  156.0582  140.3276  155.7434 H   0  0  0  0  0  0  0  0  0  0  0  0  # atno 8010 bound_to 7997
  140.6731  143.2740  151.4070 H   0  0  0  0  0  0  0  0  0  0  0  0  # atno 10167 bound_to 10162
  157.3671  131.0973  151.0862 H   0  0  0  0  0  0  0  0  0  0  0  0  # atno 10718 bound_to 10713
  154.4249  135.2758  155.1951 H   0  0  0  0  0  0  0  0  0  0  0  0  # atno 10763 bound_to 10752
  154.3881  135.6072  153.5831 H   0  0  0  0  0  0  0  0  0  0  0  0  # atno 10764 bound_to 10752
  152.9834  135.5897  154.4551 H   0  0  0  0  0  0  0  0  0  0  0  0  # atno 10765 bound_to 10752
  140.7146  134.3794  157.5193 H   0  0  0  0  0  0  0  0  0  0  0  0  # atno 11005 bound_to 11000
  144.8844  140.7443  143.5966 LP  0  0  0  0  0  0  0  0  0  0  0  0  # atno 17320 bound_to 7965
  145.3242  139.1779  143.4571 LP  0  0  0  0  0  0  0  0  0  0  0  0  # atno 17321 bound_to 7965
  139.6009  144.1298  152.2197 LP  0  0  0  0  0  0  0  0  0  0  0  0  # atno 17342 bound_to 10162
  140.0682  144.5801  150.7212 LP  0  0  0  0  0  0  0  0  0  0  0  0  # atno 17343 bound_to 10162
  157.1980  130.6382  149.5728 LP  0  0  0  0  0  0  0  0  0  0  0  0  # atno 17370 bound_to 10713
  155.9748  130.4700  150.6415 LP  0  0  0  0  0  0  0  0  0  0  0  0  # atno 17371 bound_to 10713
  139.8863  134.8913  156.2593 LP  0  0  0  0  0  0  0  0  0  0  0  0  # atno 17394 bound_to 11000
  141.0055  133.7126  156.1028 LP  0  0  0  0  0  0  0  0  0  0  0  0  # atno 17395 bound_to 11000

$$$$
