AV-unprocessed.smi:1018|AV-procd|sdf|4440|dock4
  -GOLD-   22720 2403D 1   1.00000     0.00000
 Structure written by MMmdl.
 52 53  0  0  0  0  0  0  0  0  1 V2000
  152.2744  145.0008  158.6584 C   0  0  0  0  0  0  0  0  0  0  0  0
  152.4884  143.4856  158.5810 C   0  0  2  0  0  0  0  0  0  0  0  0
  151.4121  142.7973  157.7223 C   0  0  0  0  0  0  0  0  0  0  0  0
  151.5740  141.3482  157.7757 N   0  0  0  0  0  0  0  0  0  0  0  0
  150.9091  140.6077  156.7747 C   0  0  0  0  0  0  0  0  0  0  0  0
  151.6458  139.9970  155.7325 C   0  0  0  0  0  0  0  0  0  0  0  0
  150.9655  139.2494  154.7525 C   0  0  0  0  0  0  0  0  0  0  0  0
  149.5602  139.1197  154.8432 C   0  0  0  0  0  0  0  0  0  0  0  0
  148.7585  138.3952  153.9202 N   0  0  0  0  0  0  0  0  0  0  0  0
  147.4520  138.5510  153.6455 C   0  0  0  0  0  0  0  0  0  0  0  0
  146.6937  139.3415  154.2066 O   0  0  0  0  0  0  0  0  0  0  0  0
  147.0681  137.7388  152.6521 N   0  0  0  0  0  0  0  0  0  0  0  0
  145.7246  137.6944  152.0765 C   0  0  0  0  0  0  0  0  0  0  0  0
  145.0908  136.2778  152.1257 C   0  0  0  0  0  0  0  0  0  0  0  0
  145.5959  135.5275  153.3823 C   0  0  0  0  0  0  0  0  0  0  0  0
  143.5562  136.4079  152.2383 C   0  0  0  0  0  0  0  0  0  0  0  0
  145.4446  135.4798  150.8443 C   0  0  0  0  0  0  0  0  0  0  0  0
  145.1030  136.0162  149.6681 N   0  0  0  0  0  0  0  0  0  0  0  0
  146.0264  134.3974  150.9045 O   0  0  0  0  0  0  0  0  0  0  0  0
  148.9121  139.7769  155.9075 C   0  0  0  0  0  0  0  0  0  0  0  0
  149.5605  140.4935  156.8491 N   0  0  0  0  0  0  0  0  0  0  0  0
  151.5854  140.8192  159.1376 C   0  0  0  0  0  0  0  0  0  0  0  0
  152.6300  141.5498  160.0039 C   0  0  1  0  0  0  0  0  0  0  0  0
  154.0790  141.1283  159.7003 C   0  0  0  0  0  0  0  0  0  0  0  0
  152.4481  142.9646  159.9093 O   0  0  0  0  0  0  0  0  0  0  0  0
  152.3070  145.4524  157.6666 H   0  0  0  0  0  0  0  0  0  0  0  0
  153.0481  145.4734  159.2639 H   0  0  0  0  0  0  0  0  0  0  0  0
  151.3089  145.2411  159.1046 H   0  0  0  0  0  0  0  0  0  0  0  0
  153.4718  143.3072  158.1458 H   0  0  0  0  0  0  0  0  0  0  0  0
  150.4176  143.0496  158.0932 H   0  0  0  0  0  0  0  0  0  0  0  0
  151.4726  143.1761  156.7032 H   0  0  0  0  0  0  0  0  0  0  0  0
  152.7214  140.0782  155.6811 H   0  0  0  0  0  0  0  0  0  0  0  0
  151.5348  138.7987  153.9546 H   0  0  0  0  0  0  0  0  0  0  0  0
  149.2592  137.7455  153.3317 H   0  0  0  0  0  0  0  0  0  0  0  0
  147.7574  137.1233  152.2451 H   0  0  0  0  0  0  0  0  0  0  0  0
  145.1000  138.4020  152.6233 H   0  0  0  0  0  0  0  0  0  0  0  0
  145.7501  138.0508  151.0448 H   0  0  0  0  0  0  0  0  0  0  0  0
  145.3553  136.0784  154.2922 H   0  0  0  0  0  0  0  0  0  0  0  0
  146.6770  135.3830  153.3708 H   0  0  0  0  0  0  0  0  0  0  0  0
  145.1359  134.5422  153.4716 H   0  0  0  0  0  0  0  0  0  0  0  0
  143.2711  136.9012  153.1684 H   0  0  0  0  0  0  0  0  0  0  0  0
  143.0687  135.4320  152.2263 H   0  0  0  0  0  0  0  0  0  0  0  0
  143.1344  136.9976  151.4234 H   0  0  0  0  0  0  0  0  0  0  0  0
  145.3133  135.5265  148.8106 H   0  0  0  0  0  0  0  0  0  0  0  0
  144.6326  136.9092  149.6423 H   0  0  0  0  0  0  0  0  0  0  0  0
  147.8388  139.7199  156.0148 H   0  0  0  0  0  0  0  0  0  0  0  0
  150.5927  140.9498  159.5708 H   0  0  0  0  0  0  0  0  0  0  0  0
  151.7969  139.7490  159.1352 H   0  0  0  0  0  0  0  0  0  0  0  0
  152.4383  141.2884  161.0450 H   0  0  0  0  0  0  0  0  0  0  0  0
  154.2248  140.0690  159.9129 H   0  0  0  0  0  0  0  0  0  0  0  0
  154.7838  141.6884  160.3150 H   0  0  0  0  0  0  0  0  0  0  0  0
  154.3463  141.2860  158.6557 H   0  0  0  0  0  0  0  0  0  0  0  0
  1  2  1  0  0  0  0
  1 26  1  0  0  0  0
  1 27  1  0  0  0  0
  1 28  1  0  0  0  0
  2 25  1  0  0  0  0
  2  3  1  0  0  0  0
  2 29  1  0  0  0  0
  3  4  1  0  0  0  0
  3 30  1  0  0  0  0
  3 31  1  0  0  0  0
  4  5  1  0  0  0  0
  4 22  1  0  0  0  0
  5 21  1  0  0  0  0
  5  6  2  0  0  0  0
  6  7  1  0  0  0  0
  6 32  1  0  0  0  0
  7  8  2  0  0  0  0
  7 33  1  0  0  0  0
  8  9  1  0  0  0  0
  8 20  1  0  0  0  0
  9 10  1  0  0  0  0
  9 34  1  0  0  0  0
 10 11  2  0  0  0  0
 10 12  1  0  0  0  0
 12 13  1  0  0  0  0
 12 35  1  0  0  0  0
 13 14  1  0  0  0  0
 13 36  1  0  0  0  0
 13 37  1  0  0  0  0
 14 15  1  0  0  0  0
 14 16  1  0  0  0  0
 14 17  1  0  0  0  0
 15 38  1  0  0  0  0
 15 39  1  0  0  0  0
 15 40  1  0  0  0  0
 16 41  1  0  0  0  0
 16 42  1  0  0  0  0
 16 43  1  0  0  0  0
 17 18  1  0  0  0  0
 17 19  2  0  0  0  0
 18 44  1  0  0  0  0
 18 45  1  0  0  0  0
 20 21  2  0  0  0  0
 20 46  1  0  0  0  0
 22 23  1  0  0  0  0
 22 47  1  0  0  0  0
 22 48  1  0  0  0  0
 23 24  1  0  0  0  0
 23 25  1  0  0  0  0
 23 49  1  0  0  0  0
 24 50  1  0  0  0  0
 24 51  1  0  0  0  0
 24 52  1  0  0  0  0
M  END
> <s_m_source_file>
AV-unprocessed.smi

> <i_m_source_file_index>
1018

> <i_lp_mmshare_version>
43012

> <i_f3d_flags>
0

> <s_epik_input>
W0NIM11bQ0BASF0xW0NIMl1OKFtDSDJdW0NASF0oTzEpW0NIM10pYzJbY0hdW2NIXWMoW2NIXW4yKVtOSF1DKD1PKVtOSF1bQ0gyXUMoW0NIM10pKFtDSDNdKUMoPU8pW05IMl0=

> <s_epik_cmdline>
J2VwaWtfcHl0aG9uJywgJy1waCcsICc3LjAnLCAnLXRuJywgJzgnLCAnLW1hJywgJzIwMCcsICctbWV0YWxfYmluZGluZycsICctaW1hZScsICc8aW5maWxlLm1hZT4nLCAnLW9tYWUnLCAnPG91dGZpbGUubWFlPic=

> <r_lp_tautomer_probability>
1

> <r_epik_Ionization_Penalty>
0.002562

> <r_epik_Ionization_Penalty_Charging>
0

> <r_epik_Ionization_Penalty_Neutral>
0.002562

> <r_epik_State_Penalty>
0.00175377

> <r_epik_Charging_Adjusted_Penalty>
0.00175377

> <i_epik_Tot_Q>
0

> <i_epik_Tot_abs_Q>
0

> <r_epik_Metal_State_Penalty>
-0

> <b_epik_Metal_Only>
0

> <s_lp_Force_Field>
OPLS_2005

> <r_lp_Energy>
25.7986

> <b_lp_Chiralities_Consistent>
1

> <s_lp_Variant>
AV-unprocessed.smi:1018-1

> <Gold.Version>
5.8.1

> <Gold.Id.Protein>
6NUR|6NUR_protein|mol2

> <Gold.PLP.Fitness>
54.7765

> <Gold.PLP.PLP>
-45.0174

> <Gold.PLP.part.hbond>
-4.0557

> <Gold.PLP.part.metal>
0.0000

> <Gold.PLP.part.buried>
-6.2170

> <Gold.PLP.part.nonpolar>
-36.6760

> <Gold.PLP.part.repulsive>
0.5699

> <Gold.PLP.ligand.clash>
0.0000

> <Gold.PLP.ligand.torsion>
0.8768

> <Gold.PLP.Chemscore.Hbond>
3.7020

> <Gold.PLP.Chemscore.CHOScore>
0.0000

> <Gold.PLP.Chemscore.Metal>
0.0000

> <Gold.Chemscore.Hbonds>
donor molecule, donor type, donor heavy atom, donor atom, acceptor molecule, acceptor atom, score
      L1  H     9    34       P1  7948  0.70
      L1  H    12    35       P1  7948  0.99
      L1  H    18    44       P1  7921  1.00
      L1  H    18    45       P1 10171  1.00

> <Gold.PLP.Chemscore.Internal.Correction>
0.4067

> <Gold.Rescore>
     Score         DG    S(hbond)    S(metal)    S(lipo)     H(rot)  DE(clash)    DE(int)     intcor
     22.34     -24.63       3.73        0.00     102.98       2.09       0.17       2.12       ----

> <Gold.Chemscore.Fitness>
22.3369

> <Gold.Chemscore.DG>
-24.6312

> <Gold.Chemscore.ZeroCoef>
-5.4800

> <Gold.Chemscore.Hbond>
3.7320

> <Gold.Chemscore.Metal>
0.0000

> <Gold.Chemscore.Lipo>
102.9793

> <Gold.Chemscore.Internal_Hbond>
0.0000

> <Gold.Chemscore.DEClash>
0.1721

> <Gold.Chemscore.DEInternal>
2.1222

> <Gold.Chemscore.Rot>
2.0947

> <Gold.Chemscore.Internal.Correction>
   9.000000E+99

> <Gold.Chemscore.Hbonds>
donor molecule, donor type, donor heavy atom, donor atom, acceptor molecule, acceptor atom, score
      L1  H     9    34       P1  7948  0.68
      L1  H    12    35       P1  7948  0.92
      L1  H    18    44       P1  7921  0.98
      L1  H    18    45       P1 10171  1.00

> <Gold.Chemscore.Hbond.Weighted>
-12.4650

> <Gold.Chemscore.Metal.Weighted>
-0.0000

> <Gold.Chemscore.Lipo.Weighted>
-12.0486

> <Gold.Chemscore.Internal_Hbond.Weighted>
0.0000

> <Gold.Chemscore.DEClash.Weighted>
0.1721

> <Gold.Chemscore.DEInternal.Weighted>
2.1222

> <Gold.Chemscore.Rot.Weighted>
5.3624

> <Gold.Chemscore.Internal.Correction.Weighted>
   9.000000E+99

> <Gold.Protein.RotatedTorsions>
[ 6907 6896 6895 6894 ] final  -94.00 input  -60.11 | X-H torsion
[ 7974 7965 7964 7962 ] final -119.71 input  175.53 | X-H torsion
[ 8008 7997 7996 7995 ] final  -16.10 input   59.86 | X-H torsion
[ 10167 10162 10161 10158 ] final -170.19 input  -65.29 | X-H torsion
[ 10718 10713 10712 10709 ] final  109.37 input   66.30 | X-H torsion
[ 10763 10752 10751 10750 ] final -117.82 input  -60.55 | X-H torsion
[ 11005 11000 10999 10996 ] final -155.51 input  -57.11 | X-H torsion

> <Gold.Protein.ActiveResidues>
 VAL166  LYS551  ARG553  GLY616  TRP617  ASP618  TYR619  PRO620  LYS621  CYS622 
 ASP623  PHE694  ASN695  SER759  ASP760  ASP761  ALA762  ILE779  LEU786  VAL792 
 PHE793  MET794  SER795  GLU796  ALA797  LYS798  CYS799  TRP800  GLU811  SER814 

> <Gold.Protein.RotatedAtoms>
  150.6933  134.1880  159.4273 H   0  0  0  0  0  0  0  0  0  0  0  0  # atno 6907 bound_to 6896
  151.9852  135.0006  160.0568 H   0  0  0  0  0  0  0  0  0  0  0  0  # atno 6908 bound_to 6896
  152.1719  133.4614  159.4950 H   0  0  0  0  0  0  0  0  0  0  0  0  # atno 6909 bound_to 6896
  145.0595  140.8279  143.4161 H   0  0  0  0  0  0  0  0  0  0  0  0  # atno 7974 bound_to 7965
  154.5078  140.2178  155.9215 H   0  0  0  0  0  0  0  0  0  0  0  0  # atno 8008 bound_to 7997
  156.1516  140.3160  155.8623 H   0  0  0  0  0  0  0  0  0  0  0  0  # atno 8009 bound_to 7997
  155.3928  140.0479  157.3030 H   0  0  0  0  0  0  0  0  0  0  0  0  # atno 8010 bound_to 7997
  139.5877  144.1282  152.1595 H   0  0  0  0  0  0  0  0  0  0  0  0  # atno 10167 bound_to 10162
  157.6544  131.0912  150.6443 H   0  0  0  0  0  0  0  0  0  0  0  0  # atno 10718 bound_to 10713
  154.8567  135.4296  154.2040 H   0  0  0  0  0  0  0  0  0  0  0  0  # atno 10763 bound_to 10752
  153.3081  135.6974  153.7147 H   0  0  0  0  0  0  0  0  0  0  0  0  # atno 10764 bound_to 10752
  153.6251  135.3495  155.2997 H   0  0  0  0  0  0  0  0  0  0  0  0  # atno 10765 bound_to 10752
  140.6856  134.4097  157.5223 H   0  0  0  0  0  0  0  0  0  0  0  0  # atno 11005 bound_to 11000
  145.1427  139.2562  143.5482 LP  0  0  0  0  0  0  0  0  0  0  0  0  # atno 17320 bound_to 7965
  146.3523  140.1108  142.8604 LP  0  0  0  0  0  0  0  0  0  0  0  0  # atno 17321 bound_to 7965
  140.0850  144.5669  150.7095 LP  0  0  0  0  0  0  0  0  0  0  0  0  # atno 17342 bound_to 10162
  140.7146  143.2533  151.4476 LP  0  0  0  0  0  0  0  0  0  0  0  0  # atno 17343 bound_to 10162
  156.6751  130.4551  149.5645 LP  0  0  0  0  0  0  0  0  0  0  0  0  # atno 17370 bound_to 10713
  156.1969  130.6595  151.1124 LP  0  0  0  0  0  0  0  0  0  0  0  0  # atno 17371 bound_to 10713
  139.8938  134.8721  156.2204 LP  0  0  0  0  0  0  0  0  0  0  0  0  # atno 17394 bound_to 11000
  141.0282  133.7003  156.1385 LP  0  0  0  0  0  0  0  0  0  0  0  0  # atno 17395 bound_to 11000

$$$$
