#       Name:                AV-unprocessed.smi:1824
#       Creating user name   scv26
#       Creation time:       Fri Mar 27 09:08:56 2020


#       File generated by GOLD software.
#

@<TRIPOS>MOLECULE
AV-unprocessed.smi:1824
    50    52     1
SMALL
NO_CHARGES


@<TRIPOS>ATOM
      1 ****        -5.1477   2.4402   1.0468 C.3            1 S1                 0.0000
      2 ****        -3.7554   2.3395   0.4152 C.3            1 S1                 0.0000
      3 ****        -3.1187   0.9550   0.6326 C.3            1 S1                 0.0000
      4 ****        -1.8299   0.8359  -0.0378 N.3            1 S1                 0.0000
      5 ****        -1.2209  -0.4689   0.2254 C.3            1 S1                 0.0000
      6 ****         0.2602  -0.6002  -0.1825 C.3            1 S1                 0.0000
      7 ****         1.0303   0.2334   0.6608 O.3            1 S1                 0.0000
      8 ****         0.7548  -2.0539  -0.0580 C.3            1 S1                 0.0000
      9 ****         2.1589  -2.2138  -0.4633 N.pl3          1 S1                 0.0000
     10 ****         2.6884  -2.3773  -1.7059 C.2            1 S1                 0.0000
     11 ****         4.0389  -2.4838  -1.5673 N.pl3          1 S1                 1.0000
     12 ****         4.3782  -2.3858  -0.2161 C.ar           1 S1                 0.0000
     13 ****         5.6152  -2.4365   0.4181 C.ar           1 S1                 0.0000
     14 ****         5.6155  -2.2992   1.8217 C.ar           1 S1                 0.0000
     15 ****         6.7927  -2.3424   2.4894 F              1 S1                 0.0000
     16 ****         4.4158  -2.1168   2.5415 C.ar           1 S1                 0.0000
     17 ****         4.4614  -1.9864   3.8885 F              1 S1                 0.0000
     18 ****         3.1673  -2.0675   1.8870 C.ar           1 S1                 0.0000
     19 ****         3.1754  -2.2085   0.4997 C.ar           1 S1                 0.0000
     20 ****        -2.0166   1.0957  -1.4647 C.3            1 S1                 0.0000
     21 ****        -2.6795   2.4605  -1.7387 C.3            1 S1                 0.0000
     22 ****        -1.7334   3.6511  -1.5080 C.3            1 S1                 0.0000
     23 ****        -3.8853   2.5865  -0.9835 O.3            1 S1                 0.0000
     24 ****        -5.1036   2.2727   2.1232 H              1 S1                 0.0000
     25 ****        -5.8290   1.7034   0.6205 H              1 S1                 0.0000
     26 ****        -5.5793   3.4276   0.8815 H              1 S1                 0.0000
     27 ****        -3.1211   3.1063   0.8608 H              1 S1                 0.0000
     28 ****        -2.9945   0.7843   1.7026 H              1 S1                 0.0000
     29 ****        -3.7961   0.1796   0.2706 H              1 S1                 0.0000
     30 ****        -1.2965  -0.6954   1.2902 H              1 S1                 0.0000
     31 ****        -1.8039  -1.2402  -0.2803 H              1 S1                 0.0000
     32 ****         0.4101  -0.2776  -1.2118 H              1 S1                 0.0000
     33 ****         0.6973   1.1154   0.5880 H              1 S1                 0.0000
     34 ****         0.6234  -2.4341   0.9553 H              1 S1                 0.0000
     35 ****         0.1619  -2.7017  -0.7048 H              1 S1                 0.0000
     36 ****         2.1368  -2.4155  -2.6343 H              1 S1                 0.0000
     37 ****         6.5363  -2.5735  -0.1289 H              1 S1                 0.0000
     38 ****         2.2570  -1.9209   2.4487 H              1 S1                 0.0000
     39 ****        -1.0657   1.0581  -1.9938 H              1 S1                 0.0000
     40 ****        -2.6389   0.3101  -1.8962 H              1 S1                 0.0000
     41 ****        -2.9724   2.4864  -2.7885 H              1 S1                 0.0000
     42 ****        -0.8771   3.6011  -2.1808 H              1 S1                 0.0000
     43 ****        -1.3455   3.6753  -0.4899 H              1 S1                 0.0000
     44 ****        -2.2445   4.5958  -1.6938 H              1 S1                 0.0000
     45 ****         4.6791  -2.6130  -2.3405 H              1 S1                 0.0000
     46 ****        -1.1901   1.5145   0.3230 LP             1 S1                 0.0000
     47 ****         1.9889   0.2089   0.3772 LP             1 S1                 0.0000
     48 ****         0.9546  -0.0800   1.6074 LP             1 S1                 0.0000
     49 ****        -4.2287   3.5181  -1.1024 LP             1 S1                 0.0000
     50 ****        -4.5502   1.9366  -1.3518 LP             1 S1                 0.0000
@<TRIPOS>BOND
    1    1    2 1     
    2    1   24 1     
    3    1   25 1     
    4    1   26 1     
    5    2   23 1     
    6    2    3 1     
    7    2   27 1     
    8    3    4 1     
    9    3   28 1     
   10    3   29 1     
   11    4    5 1     
   12    4   20 1     
   13    5    6 1     
   14    5   30 1     
   15    5   31 1     
   16    6    7 1     
   17    6    8 1     
   18    6   32 1     
   19    7   33 1     
   20    8    9 1     
   21    8   34 1     
   22    8   35 1     
   23    9   19 1     
   24    9   10 1     
   25   10   11 2     
   26   10   36 1     
   27   11   12 1     
   28   11   45 1     
   29   12   19 ar    
   30   12   13 ar    
   31   13   14 ar    
   32   13   37 1     
   33   14   15 1     
   34   14   16 ar    
   35   16   17 1     
   36   16   18 ar    
   37   18   19 ar    
   38   18   38 1     
   39   20   21 1     
   40   20   39 1     
   41   20   40 1     
   42   21   22 1     
   43   21   23 1     
   44   21   41 1     
   45   22   42 1     
   46   22   43 1     
   47   22   44 1     
   48    4   46 1     
   49    7   47 1     
   50    7   48 1     
   51   23   49 1     
   52   23   50 1     
@<TRIPOS>SUBSTRUCTURE
      1 S1             1
@<TRIPOS>SET
LONE_PAIRS      STATIC     ATOMS    <user>   **** ""
5 46 47 48 49 50
DONOR_HYDROGENS      STATIC     ATOMS    <user>   **** ""
2 33 45
ATOM$BLUE        STATIC     ATOMS    COLORGROUP SYSTEM
5 46 47 48 49 50
ATOM$RED        STATIC     ATOMS    COLORGROUP SYSTEM
2 33 45
