#       Name:                AV-unprocessed.smi:1426
#       Creating user name   scv26
#       Creation time:       Fri Mar 27 05:46:00 2020


#       File generated by GOLD software.
#

@<TRIPOS>MOLECULE
AV-unprocessed.smi:1426
    49    51     1
SMALL
NO_CHARGES


@<TRIPOS>ATOM
      1 ****         1.6737   1.6056   1.2249 O.2            1 S1                 0.0000
      2 ****         1.1313   0.5049   1.1263 C.2            1 S1                 0.0000
      3 ****         1.8057  -0.6505   1.0423 N.am           1 S1                 0.0000
      4 ****         3.2591  -0.7832   1.0219 C.3            1 S1                 0.0000
      5 ****         3.7994  -0.8984  -0.4159 C.3            1 S1                 0.0000
      6 ****         3.6166   0.3366  -1.2774 C.3            1 S1                 0.0000
      7 ****         4.6329   0.1001  -2.3902 C.3            1 S1                 0.0000
      8 ****         5.6869  -0.6577  -1.8026 O.3            1 S1                 0.0000
      9 ****         5.3144  -1.0812  -0.4947 C.3            1 S1                 0.0000
     10 ****        -0.1941   0.2967   1.0606 N.am           1 S1                 0.0000
     11 ****        -1.2368   1.2662   1.0425 C.ar           1 S1                 0.0000
     12 ****        -1.1263   2.5130   1.7047 C.ar           1 S1                 0.0000
     13 ****        -2.2029   3.4160   1.6520 C.ar           1 S1                 0.0000
     14 ****        -3.3580   3.0368   0.9461 C.ar           1 S1                 0.0000
     15 ****        -3.4860   1.8463   0.3262 N.ar           1 S1                 0.0000
     16 ****        -2.4516   0.9710   0.3677 C.ar           1 S1                 0.0000
     17 ****        -2.6273  -0.2803  -0.2581 N.3            1 S1                 0.0000
     18 ****        -2.9873  -1.3457   0.6737 C.3            1 S1                 0.0000
     19 ****        -3.9905  -2.2407  -0.0567 C.3            1 S1                 0.0000
     20 ****        -4.6487  -1.2842  -1.0432 C.3            1 S1                 0.0000
     21 ****        -3.4908  -0.3678  -1.4347 C.3            1 S1                 0.0000
     22 ****         1.2726  -1.5041   0.9623 H              1 S1                 0.0000
     23 ****         3.7346   0.0467   1.5478 H              1 S1                 0.0000
     24 ****         3.5174  -1.6835   1.5799 H              1 S1                 0.0000
     25 ****         3.3233  -1.7445  -0.9147 H              1 S1                 0.0000
     26 ****         2.5998   0.4546  -1.6531 H              1 S1                 0.0000
     27 ****         3.8793   1.2343  -0.7157 H              1 S1                 0.0000
     28 ****         4.1876  -0.4904  -3.1918 H              1 S1                 0.0000
     29 ****         5.0023   1.0311  -2.8207 H              1 S1                 0.0000
     30 ****         5.8195  -0.4411   0.2300 H              1 S1                 0.0000
     31 ****         5.6214  -2.1104  -0.3076 H              1 S1                 0.0000
     32 ****        -0.4866  -0.6536   0.8866 H              1 S1                 0.0000
     33 ****        -0.2431   2.7854   2.2619 H              1 S1                 0.0000
     34 ****        -2.1456   4.3747   2.1457 H              1 S1                 0.0000
     35 ****        -4.2060   3.7028   0.8857 H              1 S1                 0.0000
     36 ****        -2.1066  -1.9079   0.9856 H              1 S1                 0.0000
     37 ****        -3.4482  -0.9247   1.5693 H              1 S1                 0.0000
     38 ****        -3.4616  -3.0246  -0.6009 H              1 S1                 0.0000
     39 ****        -4.7028  -2.7176   0.6173 H              1 S1                 0.0000
     40 ****        -5.0977  -1.7907  -1.8980 H              1 S1                 0.0000
     41 ****        -5.4267  -0.7077  -0.5404 H              1 S1                 0.0000
     42 ****        -3.8417   0.5947  -1.8079 H              1 S1                 0.0000
     43 ****        -2.9108  -0.8251  -2.2369 H              1 S1                 0.0000
     44 ****         2.6713   1.6713   1.2459 LP             1 S1                 0.0000
     45 ****         1.1167   2.4340   1.2840 LP             1 S1                 0.0000
     46 ****         6.5093  -0.0917  -1.7454 LP             1 S1                 0.0000
     47 ****         5.8734  -1.4601  -2.3696 LP             1 S1                 0.0000
     48 ****        -4.3302   1.6128  -0.1563 LP             1 S1                 0.0000
     49 ****        -1.7029  -0.4076  -0.6176 LP             1 S1                 0.0000
@<TRIPOS>BOND
    1    1    2 2     
    2    2    3 am    
    3    2   10 am    
    4    3    4 1     
    5    3   22 1     
    6    4    5 1     
    7    4   23 1     
    8    4   24 1     
    9    5    9 1     
   10    5    6 1     
   11    5   25 1     
   12    6    7 1     
   13    6   26 1     
   14    6   27 1     
   15    7    8 1     
   16    7   28 1     
   17    7   29 1     
   18    8    9 1     
   19    9   30 1     
   20    9   31 1     
   21   10   11 1     
   22   10   32 1     
   23   11   16 ar    
   24   11   12 ar    
   25   12   13 ar    
   26   12   33 1     
   27   13   14 ar    
   28   13   34 1     
   29   14   15 ar    
   30   14   35 1     
   31   15   16 ar    
   32   16   17 1     
   33   17   21 1     
   34   17   18 1     
   35   18   19 1     
   36   18   36 1     
   37   18   37 1     
   38   19   20 1     
   39   19   38 1     
   40   19   39 1     
   41   20   21 1     
   42   20   40 1     
   43   20   41 1     
   44   21   42 1     
   45   21   43 1     
   46    1   44 1     
   47    1   45 1     
   48    8   46 1     
   49    8   47 1     
   50   15   48 1     
   51   17   49 1     
@<TRIPOS>SUBSTRUCTURE
      1 S1             1
@<TRIPOS>SET
LONE_PAIRS      STATIC     ATOMS    <user>   **** ""
6 44 45 46 47 48 49
DONOR_HYDROGENS      STATIC     ATOMS    <user>   **** ""
2 22 32
ATOM$BLUE        STATIC     ATOMS    COLORGROUP SYSTEM
6 44 45 46 47 48 49
ATOM$RED        STATIC     ATOMS    COLORGROUP SYSTEM
2 22 32
