AV-unprocessed.smi:655|AV-procd|sdf|3214|dock2
  -GOLD-   22720 0153D 1   1.00000     0.00000
 Structure written by MMmdl.
 35 36  0  0  0  0  0  0  0  0  1 V2000
  151.9585  145.7415  160.4326 C   0  0  0  0  0  0  0  0  0  0  0  0
  151.5411  144.3897  159.8364 C   0  0  2  0  0  0  0  0  0  0  0  0
  152.6234  143.8307  158.8966 C   0  0  0  0  0  0  0  0  0  0  0  0
  152.2157  142.4730  158.2974 C   0  0  0  0  0  0  0  0  0  0  0  0
  150.8459  142.5125  157.5734 C   0  0  1  0  0  0  0  0  0  0  0  0
  150.9454  143.3530  156.4378 O   0  0  0  0  0  0  0  0  0  0  0  0
  150.3559  141.1176  157.0867 C   0  0  0  0  0  0  0  0  0  0  0  0
  149.4087  141.1322  155.9928 N   0  0  0  0  0  0  0  0  0  0  0  0
  148.1550  141.7164  156.1034 C   0  0  0  0  0  0  0  0  0  0  0  0
  147.2472  141.7267  155.0978 C   0  0  0  0  0  0  0  0  0  0  0  0
  145.7027  142.4682  155.3186 Cl  0  0  0  0  0  0  0  0  0  0  0  0
  147.5698  141.1043  153.8149 C   0  0  0  0  0  0  0  0  0  0  0  0
  146.8237  141.0563  152.8388 O   0  0  0  0  0  0  0  0  0  0  0  0
  148.8438  140.5329  153.7459 N   0  0  0  0  0  0  0  0  0  0  0  0
  149.7846  140.5167  154.7762 C   0  0  0  0  0  0  0  0  0  0  0  0
  150.8794  139.9841  154.5944 O   0  0  0  0  0  0  0  0  0  0  0  0
  149.7730  143.1393  158.4966 C   0  0  0  0  0  0  0  0  0  0  0  0
  150.1979  144.4932  159.0932 C   0  0  0  0  0  0  0  0  0  0  0  0
  149.1069  140.0951  152.8748 H   0  0  0  0  0  0  0  0  0  0  0  0
  152.1104  146.4887  159.6529 H   0  0  0  0  0  0  0  0  0  0  0  0
  152.8889  145.6524  160.9941 H   0  0  0  0  0  0  0  0  0  0  0  0
  151.1975  146.1219  161.1146 H   0  0  0  0  0  0  0  0  0  0  0  0
  151.4167  143.6888  160.6632 H   0  0  0  0  0  0  0  0  0  0  0  0
  152.8184  144.5418  158.0928 H   0  0  0  0  0  0  0  0  0  0  0  0
  153.5632  143.7182  159.4381 H   0  0  0  0  0  0  0  0  0  0  0  0
  152.9994  142.1384  157.6164 H   0  0  0  0  0  0  0  0  0  0  0  0
  152.1750  141.7371  159.1010 H   0  0  0  0  0  0  0  0  0  0  0  0
  150.0824  143.6704  156.2203 H   0  0  0  0  0  0  0  0  0  0  0  0
  151.2006  140.5436  156.7022 H   0  0  0  0  0  0  0  0  0  0  0  0
  149.9443  140.5020  157.8900 H   0  0  0  0  0  0  0  0  0  0  0  0
  147.8815  142.1818  157.0398 H   0  0  0  0  0  0  0  0  0  0  0  0
  148.8313  143.2559  157.9579 H   0  0  0  0  0  0  0  0  0  0  0  0
  149.5629  142.4554  159.3202 H   0  0  0  0  0  0  0  0  0  0  0  0
  149.4235  144.8460  159.7752 H   0  0  0  0  0  0  0  0  0  0  0  0
  150.2694  145.2403  158.3015 H   0  0  0  0  0  0  0  0  0  0  0  0
  1  2  1  0  0  0  0
  1 20  1  0  0  0  0
  1 21  1  0  0  0  0
  1 22  1  0  0  0  0
  2 18  1  0  0  0  0
  2  3  1  0  0  0  0
  2 23  1  0  0  0  0
  3  4  1  0  0  0  0
  3 24  1  0  0  0  0
  3 25  1  0  0  0  0
  4  5  1  0  0  0  0
  4 26  1  0  0  0  0
  4 27  1  0  0  0  0
  5  6  1  0  0  0  0
  5  7  1  0  0  0  0
  5 17  1  0  0  0  0
  6 28  1  0  0  0  0
  7  8  1  0  0  0  0
  7 29  1  0  0  0  0
  7 30  1  0  0  0  0
  8 15  1  0  0  0  0
  8  9  1  0  0  0  0
  9 10  2  0  0  0  0
  9 31  1  0  0  0  0
 10 11  1  0  0  0  0
 10 12  1  0  0  0  0
 12 13  2  0  0  0  0
 12 14  1  0  0  0  0
 14 19  1  0  0  0  0
 14 15  1  0  0  0  0
 15 16  2  0  0  0  0
 17 18  1  0  0  0  0
 17 32  1  0  0  0  0
 17 33  1  0  0  0  0
 18 34  1  0  0  0  0
 18 35  1  0  0  0  0
M  END
> <s_m_source_file>
AV-unprocessed.smi

> <i_m_source_file_index>
655

> <i_lp_mmshare_version>
43012

> <i_f3d_flags>
0

> <s_epik_input>
W0NIMl0xW0NIMl1bQ0BIXShbQ0gzXSlbQ0gyXVtDSDJdW0NAQF0xKFtPSF0pW0NIMl1uMltjSF1jKENsKWMoPU8pW25IXWMyPU8=

> <s_epik_cmdline>
J2VwaWtfcHl0aG9uJywgJy1waCcsICc3LjAnLCAnLXRuJywgJzgnLCAnLW1hJywgJzIwMCcsICctbWV0YWxfYmluZGluZycsICctaW1hZScsICc8aW5maWxlLm1hZT4nLCAnLW9tYWUnLCAnPG91dGZpbGUubWFlPic=

> <r_lp_tautomer_probability>
0.999537

> <r_epik_Ionization_Penalty>
0.0114762

> <r_epik_Ionization_Penalty_Charging>
0.0114753

> <r_epik_Ionization_Penalty_Neutral>
8.25878e-07

> <r_epik_State_Penalty>
0.00883314

> <r_epik_Charging_Adjusted_Penalty>
0.0203085

> <i_epik_Tot_Q>
0

> <i_epik_Tot_abs_Q>
0

> <r_epik_Metal_State_Penalty>
1.64347

> <b_epik_Metal_Only>
0

> <s_lp_Force_Field>
OPLS_2005

> <r_lp_Energy>
18.0938

> <b_lp_Chiralities_Consistent>
1

> <s_lp_Variant>
AV-unprocessed.smi:655-1

> <Gold.Version>
5.8.1

> <Gold.Id.Protein>
6NUR|6NUR_protein|mol2

> <Gold.PLP.Fitness>
43.1846

> <Gold.PLP.PLP>
-34.9062

> <Gold.PLP.part.hbond>
-3.0000

> <Gold.PLP.part.metal>
0.0000

> <Gold.PLP.part.buried>
-3.8673

> <Gold.PLP.part.nonpolar>
-28.7887

> <Gold.PLP.part.repulsive>
0.4436

> <Gold.PLP.ligand.clash>
0.0000

> <Gold.PLP.ligand.torsion>
0.3518

> <Gold.PLP.Chemscore.Hbond>
2.9920

> <Gold.PLP.Chemscore.CHOScore>
0.0000

> <Gold.PLP.Chemscore.Metal>
0.0000

> <Gold.Chemscore.Hbonds>
donor molecule, donor type, donor heavy atom, donor atom, acceptor molecule, acceptor atom, score
      L1  H     6    28       P1  8028  1.00
      L1  H    14    19       P1  7957  1.00
      P1  H  7989  7998       L1    16  1.00

> <Gold.PLP.Chemscore.Internal.Correction>
0.0062

> <Gold.Rescore>
     Score         DG    S(hbond)    S(metal)    S(lipo)     H(rot)  DE(clash)    DE(int)     intcor
     19.43     -19.83       2.85        0.00      81.55       1.84       0.04       0.36       ----

> <Gold.Chemscore.Fitness>
19.4256

> <Gold.Chemscore.DG>
-19.8302

> <Gold.Chemscore.ZeroCoef>
-5.4800

> <Gold.Chemscore.Hbond>
2.8518

> <Gold.Chemscore.Metal>
0.0000

> <Gold.Chemscore.Lipo>
81.5533

> <Gold.Chemscore.Internal_Hbond>
0.0000

> <Gold.Chemscore.DEClash>
0.0437

> <Gold.Chemscore.DEInternal>
0.3609

> <Gold.Chemscore.Rot>
1.8424

> <Gold.Chemscore.Internal.Correction>
   9.000000E+99

> <Gold.Chemscore.Hbonds>
donor molecule, donor type, donor heavy atom, donor atom, acceptor molecule, acceptor atom, score
      L1  H     6    28       P1  8028  0.99
      L1  H    14    19       P1  7957  0.99
      P1  H  7989  7998       L1    16  0.54

> <Gold.Chemscore.Hbond.Weighted>
-9.5249

> <Gold.Chemscore.Metal.Weighted>
-0.0000

> <Gold.Chemscore.Lipo.Weighted>
-9.5417

> <Gold.Chemscore.Internal_Hbond.Weighted>
0.0000

> <Gold.Chemscore.DEClash.Weighted>
0.0437

> <Gold.Chemscore.DEInternal.Weighted>
0.3609

> <Gold.Chemscore.Rot.Weighted>
4.7164

> <Gold.Chemscore.Internal.Correction.Weighted>
   9.000000E+99

> <Gold.Protein.RotatedTorsions>
[ 6907 6896 6895 6894 ] final  -10.48 input  -60.11 | X-H torsion
[ 7974 7965 7964 7962 ] final  167.23 input  175.53 | X-H torsion
[ 8008 7997 7996 7995 ] final  -51.23 input   59.86 | X-H torsion
[ 10167 10162 10161 10158 ] final   28.10 input  -65.29 | X-H torsion
[ 10718 10713 10712 10709 ] final  -85.50 input   66.30 | X-H torsion
[ 10763 10752 10751 10750 ] final -170.88 input  -60.55 | X-H torsion
[ 11005 11000 10999 10996 ] final   -6.68 input  -57.11 | X-H torsion

> <Gold.Protein.ActiveResidues>
 VAL166  LYS551  ARG553  GLY616  TRP617  ASP618  TYR619  PRO620  LYS621  CYS622 
 ASP623  PHE694  ASN695  SER759  ASP760  ASP761  ALA762  ILE779  LEU786  VAL792 
 PHE793  MET794  SER795  GLU796  ALA797  LYS798  CYS799  TRP800  GLU811  SER814 

> <Gold.Protein.RotatedAtoms>
  151.4012  135.0971  159.9556 H   0  0  0  0  0  0  0  0  0  0  0  0  # atno 6907 bound_to 6896
  152.5049  133.8886  159.7393 H   0  0  0  0  0  0  0  0  0  0  0  0  # atno 6908 bound_to 6896
  150.9361  133.6654  159.2829 H   0  0  0  0  0  0  0  0  0  0  0  0  # atno 6909 bound_to 6896
  144.7432  139.8730  143.6390 H   0  0  0  0  0  0  0  0  0  0  0  0  # atno 7974 bound_to 7965
  154.4078  140.1253  156.4795 H   0  0  0  0  0  0  0  0  0  0  0  0  # atno 8008 bound_to 7997
  155.7099  140.3494  155.4950 H   0  0  0  0  0  0  0  0  0  0  0  0  # atno 8009 bound_to 7997
  155.9309  140.1069  157.1123 H   0  0  0  0  0  0  0  0  0  0  0  0  # atno 8010 bound_to 7997
  140.4882  144.0509  150.6288 H   0  0  0  0  0  0  0  0  0  0  0  0  # atno 10167 bound_to 10162
  155.9996  130.4733  150.4572 H   0  0  0  0  0  0  0  0  0  0  0  0  # atno 10718 bound_to 10713
  154.6367  135.2893  155.0153 H   0  0  0  0  0  0  0  0  0  0  0  0  # atno 10763 bound_to 10752
  154.1294  135.6536  153.4923 H   0  0  0  0  0  0  0  0  0  0  0  0  # atno 10764 bound_to 10752
  153.0306  135.5306  154.7216 H   0  0  0  0  0  0  0  0  0  0  0  0  # atno 10765 bound_to 10752
  140.7046  133.8960  155.8707 H   0  0  0  0  0  0  0  0  0  0  0  0  # atno 11005 bound_to 11000
  146.1266  139.4293  143.0195 LP  0  0  0  0  0  0  0  0  0  0  0  0  # atno 17320 bound_to 7965
  145.7225  141.0070  143.1395 LP  0  0  0  0  0  0  0  0  0  0  0  0  # atno 17321 bound_to 7965
  140.3771  143.2823  152.0213 LP  0  0  0  0  0  0  0  0  0  0  0  0  # atno 17342 bound_to 10162
  139.4846  144.6184  151.7301 LP  0  0  0  0  0  0  0  0  0  0  0  0  # atno 17343 bound_to 10162
  157.2600  131.0565  151.2326 LP  0  0  0  0  0  0  0  0  0  0  0  0  # atno 17370 bound_to 10713
  157.3444  130.7050  149.6402 LP  0  0  0  0  0  0  0  0  0  0  0  0  # atno 17371 bound_to 10713
  141.0135  134.0988  157.4196 LP  0  0  0  0  0  0  0  0  0  0  0  0  # atno 17394 bound_to 11000
  139.8887  135.0100  156.6639 LP  0  0  0  0  0  0  0  0  0  0  0  0  # atno 17395 bound_to 11000

$$$$
