#       Name:                AV-unprocessed.smi:2365
#       Creating user name   scv26
#       Creation time:       Fri Mar 27 13:05:53 2020


#       File generated by GOLD software.
#

@<TRIPOS>MOLECULE
AV-unprocessed.smi:2365
    34    35     1
SMALL
NO_CHARGES


@<TRIPOS>ATOM
      1 ****        -3.0526   3.0631  -0.0724 C.3            1 S1                 0.0000
      2 ****        -2.9445   1.5363  -0.0077 C.3            1 S1                 0.0000
      3 ****        -2.9673   0.8508  -1.3691 C.3            1 S1                 0.0000
      4 ****        -2.3553  -0.4971  -1.0450 C.3            1 S1                 0.0000
      5 ****        -1.3852  -0.1849   0.1092 C.3            1 S1                 0.0000
      6 ****         0.0950  -0.2333  -0.2881 C.2            1 S1                 0.0000
      7 ****         0.4562   0.2361  -1.3674 O.2            1 S1                 0.0000
      8 ****         0.9171  -0.8138   0.6048 N.am           1 S1                 0.0000
      9 ****         2.3244  -1.0056   0.5207 C.ar           1 S1                 0.0000
     10 ****         3.1805  -0.1700  -0.2388 C.ar           1 S1                 0.0000
     11 ****         4.5185  -0.3355  -0.3041 N.ar           1 S1                 0.0000
     12 ****         5.0666  -1.3480   0.3984 C.ar           1 S1                 0.0000
     13 ****         4.3155  -2.2293   1.1998 C.ar           1 S1                 0.0000
     14 ****         5.1094  -3.4907   2.0739 Cl             1 S1                 0.0000
     15 ****         2.9164  -2.0518   1.2663 C.ar           1 S1                 0.0000
     16 ****         1.9448  -3.1030   2.2408 Cl             1 S1                 0.0000
     17 ****        -1.6874   1.1461   0.5250 O.3            1 S1                 0.0000
     18 ****        -4.0038   3.3696  -0.5077 H              1 S1                 0.0000
     19 ****        -2.2530   3.4910  -0.6778 H              1 S1                 0.0000
     20 ****        -2.9852   3.4999   0.9241 H              1 S1                 0.0000
     21 ****        -3.7336   1.1289   0.6268 H              1 S1                 0.0000
     22 ****        -3.9688   0.7743  -1.7931 H              1 S1                 0.0000
     23 ****        -2.3339   1.3862  -2.0780 H              1 S1                 0.0000
     24 ****        -3.1292  -1.1827  -0.6977 H              1 S1                 0.0000
     25 ****        -1.8834  -0.9545  -1.9157 H              1 S1                 0.0000
     26 ****        -1.5737  -0.8687   0.9387 H              1 S1                 0.0000
     27 ****         0.4699  -1.2311   1.4084 H              1 S1                 0.0000
     28 ****         2.8046   0.6724  -0.7983 H              1 S1                 0.0000
     29 ****         6.1387  -1.4542   0.3236 H              1 S1                 0.0000
     30 ****        -0.2154   0.6480  -1.9833 LP             1 S1                 0.0000
     31 ****         1.4211   0.2054  -1.6282 LP             1 S1                 0.0000
     32 ****         5.0864   0.2744  -0.8568 LP             1 S1                 0.0000
     33 ****        -1.7230   1.1830   1.5237 LP             1 S1                 0.0000
     34 ****        -0.9778   1.7678   0.1935 LP             1 S1                 0.0000
@<TRIPOS>BOND
    1    1    2 1     
    2    1   18 1     
    3    1   19 1     
    4    1   20 1     
    5    2   17 1     
    6    2    3 1     
    7    2   21 1     
    8    3    4 1     
    9    3   22 1     
   10    3   23 1     
   11    4    5 1     
   12    4   24 1     
   13    4   25 1     
   14    5    6 1     
   15    5   17 1     
   16    5   26 1     
   17    6    7 2     
   18    6    8 am    
   19    8    9 1     
   20    8   27 1     
   21    9   15 ar    
   22    9   10 ar    
   23   10   11 ar    
   24   10   28 1     
   25   11   12 ar    
   26   12   13 ar    
   27   12   29 1     
   28   13   14 1     
   29   13   15 ar    
   30   15   16 1     
   31    7   30 1     
   32    7   31 1     
   33   11   32 1     
   34   17   33 1     
   35   17   34 1     
@<TRIPOS>SUBSTRUCTURE
      1 S1             1
@<TRIPOS>SET
LONE_PAIRS      STATIC     ATOMS    <user>   **** ""
5 30 31 32 33 34
DONOR_HYDROGENS      STATIC     ATOMS    <user>   **** ""
1 27
ATOM$BLUE        STATIC     ATOMS    COLORGROUP SYSTEM
5 30 31 32 33 34
ATOM$RED        STATIC     ATOMS    COLORGROUP SYSTEM
1 27
