AV-unprocessed.smi:1376|AV-procd|sdf|5590|dock6
  -GOLD-   22720 5193D 1   1.00000     0.00000
 Structure written by MMmdl.
 42 43  0  0  0  0  0  0  0  0  1 V2000
  151.5998  141.3000  157.0342 O   0  0  0  0  0  0  0  0  0  0  0  0
  150.9889  142.3690  156.9992 C   0  0  0  0  0  0  0  0  0  0  0  0
  151.6266  143.6568  157.5392 C   0  0  0  0  0  0  0  0  0  0  0  0
  151.9048  143.6066  158.9843 N   0  0  0  0  0  0  0  0  0  0  0  0
  152.6116  142.4856  159.4638 C   0  0  0  0  0  0  0  0  0  0  0  0
  152.9181  142.3417  160.7627 C   0  0  0  0  0  0  0  0  0  0  0  0
  152.5039  143.3763  161.6803 C   0  0  0  0  0  0  0  0  0  0  0  0
  151.8232  144.4504  161.2332 C   0  0  0  0  0  0  0  0  0  0  0  0
  151.4820  144.6096  159.8147 C   0  0  0  0  0  0  0  0  0  0  0  0
  150.8561  145.5850  159.3984 O   0  0  0  0  0  0  0  0  0  0  0  0
  149.7590  142.4966  156.4783 N   0  0  0  0  0  0  0  0  0  0  0  0
  148.9682  141.4129  155.9020 C   0  0  2  0  0  0  0  0  0  0  0  0
  148.5987  141.7318  154.4393 C   0  0  0  0  0  0  0  0  0  0  0  0
  147.6995  140.6408  153.8385 C   0  0  0  0  0  0  0  0  0  0  0  0
  146.4391  140.4194  154.6915 C   0  0  0  0  0  0  0  0  0  0  0  0
  146.7881  140.0975  156.1557 C   0  0  1  0  0  0  0  0  0  0  0  0
  147.4159  138.8202  156.1795 O   0  0  0  0  0  0  0  0  0  0  0  0
  147.4794  138.2080  157.4604 C   0  0  0  0  0  0  0  0  0  0  0  0
  148.8544  137.5531  157.6388 C   0  0  0  0  0  0  0  0  0  0  0  0
  149.7925  138.4990  157.6648 F   0  0  0  0  0  0  0  0  0  0  0  0
  148.8974  136.8770  158.7866 F   0  0  0  0  0  0  0  0  0  0  0  0
  149.1068  136.7279  156.6232 F   0  0  0  0  0  0  0  0  0  0  0  0
  147.7007  141.1927  156.7497 C   0  0  0  0  0  0  0  0  0  0  0  0
  152.5454  143.8393  156.9803 H   0  0  0  0  0  0  0  0  0  0  0  0
  150.9811  144.5071  157.3109 H   0  0  0  0  0  0  0  0  0  0  0  0
  152.8777  141.7543  158.7143 H   0  0  0  0  0  0  0  0  0  0  0  0
  153.4566  141.4734  161.1126 H   0  0  0  0  0  0  0  0  0  0  0  0
  152.7398  143.2882  162.7306 H   0  0  0  0  0  0  0  0  0  0  0  0
  151.5208  145.2143  161.9344 H   0  0  0  0  0  0  0  0  0  0  0  0
  149.3364  143.4136  156.4843 H   0  0  0  0  0  0  0  0  0  0  0  0
  149.5556  140.4926  155.9261 H   0  0  0  0  0  0  0  0  0  0  0  0
  148.0833  142.6922  154.3890 H   0  0  0  0  0  0  0  0  0  0  0  0
  149.5012  141.8339  153.8353 H   0  0  0  0  0  0  0  0  0  0  0  0
  147.4159  140.9121  152.8213 H   0  0  0  0  0  0  0  0  0  0  0  0
  148.2603  139.7082  153.7632 H   0  0  0  0  0  0  0  0  0  0  0  0
  145.8198  141.3166  154.6565 H   0  0  0  0  0  0  0  0  0  0  0  0
  145.8376  139.6154  154.2660 H   0  0  0  0  0  0  0  0  0  0  0  0
  145.8566  140.0514  156.7222 H   0  0  0  0  0  0  0  0  0  0  0  0
  147.3200  138.9426  158.2494 H   0  0  0  0  0  0  0  0  0  0  0  0
  146.6977  137.4527  157.5532 H   0  0  0  0  0  0  0  0  0  0  0  0
  147.9732  140.9554  157.7777 H   0  0  0  0  0  0  0  0  0  0  0  0
  147.1374  142.1257  156.8012 H   0  0  0  0  0  0  0  0  0  0  0  0
  1  2  2  0  0  0  0
  2  3  1  0  0  0  0
  2 11  1  0  0  0  0
  3  4  1  0  0  0  0
  3 24  1  0  0  0  0
  3 25  1  0  0  0  0
  4  9  1  0  0  0  0
  4  5  1  0  0  0  0
  5  6  2  0  0  0  0
  5 26  1  0  0  0  0
  6  7  1  0  0  0  0
  6 27  1  0  0  0  0
  7  8  2  0  0  0  0
  7 28  1  0  0  0  0
  8  9  1  0  0  0  0
  8 29  1  0  0  0  0
  9 10  2  0  0  0  0
 11 12  1  0  0  0  0
 11 30  1  0  0  0  0
 12 23  1  0  0  0  0
 12 13  1  0  0  0  0
 12 31  1  0  0  0  0
 13 14  1  0  0  0  0
 13 32  1  0  0  0  0
 13 33  1  0  0  0  0
 14 15  1  0  0  0  0
 14 34  1  0  0  0  0
 14 35  1  0  0  0  0
 15 16  1  0  0  0  0
 15 36  1  0  0  0  0
 15 37  1  0  0  0  0
 16 17  1  0  0  0  0
 16 23  1  0  0  0  0
 16 38  1  0  0  0  0
 17 18  1  0  0  0  0
 18 19  1  0  0  0  0
 18 39  1  0  0  0  0
 18 40  1  0  0  0  0
 19 20  1  0  0  0  0
 19 21  1  0  0  0  0
 19 22  1  0  0  0  0
 23 41  1  0  0  0  0
 23 42  1  0  0  0  0
M  END
> <s_m_source_file>
AV-unprocessed.smi

> <i_m_source_file_index>
1376

> <i_lp_mmshare_version>
43012

> <i_f3d_flags>
0

> <s_epik_input>
Tz1jMVtjSF1bY0hdW2NIXVtjSF1uMVtDSDJdQyg9TylbTkhdW0NAQEhdMltDSDJdW0NIMl1bQ0gyXVtDQEhdKFtDSDJdMilPW0NIMl1DKEYpKEYpRg==

> <s_epik_cmdline>
J2VwaWtfcHl0aG9uJywgJy1waCcsICc3LjAnLCAnLXRuJywgJzgnLCAnLW1hJywgJzIwMCcsICctbWV0YWxfYmluZGluZycsICctaW1hZScsICc8aW5maWxlLm1hZT4nLCAnLW9tYWUnLCAnPG91dGZpbGUubWFlPic=

> <r_lp_tautomer_probability>
1

> <r_epik_Ionization_Penalty>
4.08567e-07

> <r_epik_Ionization_Penalty_Charging>
3.90028e-07

> <r_epik_Ionization_Penalty_Neutral>
1.85393e-08

> <r_epik_State_Penalty>
-0

> <r_epik_Charging_Adjusted_Penalty>
3.90028e-07

> <i_epik_Tot_Q>
0

> <i_epik_Tot_abs_Q>
0

> <r_epik_Metal_State_Penalty>
-0

> <b_epik_Metal_Only>
0

> <s_lp_Force_Field>
OPLS_2005

> <r_lp_Energy>
21.1399

> <b_lp_Chiralities_Consistent>
1

> <s_lp_Variant>
AV-unprocessed.smi:1376-1

> <Gold.Version>
5.8.1

> <Gold.Id.Protein>
6NUR|6NUR_protein|mol2

> <Gold.PLP.Fitness>
44.9699

> <Gold.PLP.PLP>
-42.9839

> <Gold.PLP.part.hbond>
-2.3849

> <Gold.PLP.part.metal>
0.0000

> <Gold.PLP.part.buried>
-3.9454

> <Gold.PLP.part.nonpolar>
-36.5861

> <Gold.PLP.part.repulsive>
0.2702

> <Gold.PLP.ligand.clash>
0.0000

> <Gold.PLP.ligand.torsion>
0.5352

> <Gold.PLP.Chemscore.Hbond>
1.0000

> <Gold.PLP.Chemscore.CHOScore>
0.0000

> <Gold.PLP.Chemscore.Metal>
0.0000

> <Gold.Chemscore.Hbonds>
donor molecule, donor type, donor heavy atom, donor atom, acceptor molecule, acceptor atom, score
      L1  H    11    30       P1  8028  0.98

> <Gold.PLP.Chemscore.Internal.Correction>
0.0564

> <Gold.Rescore>
     Score         DG    S(hbond)    S(metal)    S(lipo)     H(rot)  DE(clash)    DE(int)     intcor
     11.82     -12.92       0.89        0.00      85.82       2.18       0.07       1.03       ----

> <Gold.Chemscore.Fitness>
11.8176

> <Gold.Chemscore.DG>
-12.9166

> <Gold.Chemscore.ZeroCoef>
-5.4800

> <Gold.Chemscore.Hbond>
0.8910

> <Gold.Chemscore.Metal>
0.0000

> <Gold.Chemscore.Lipo>
85.8182

> <Gold.Chemscore.Internal_Hbond>
0.0000

> <Gold.Chemscore.DEClash>
0.0730

> <Gold.Chemscore.DEInternal>
1.0260

> <Gold.Chemscore.Rot>
2.1797

> <Gold.Chemscore.Internal.Correction>
   9.000000E+99

> <Gold.Chemscore.Hbonds>
donor molecule, donor type, donor heavy atom, donor atom, acceptor molecule, acceptor atom, score
      L1  H    11    30       P1  8028  0.92

> <Gold.Chemscore.Hbond.Weighted>
-2.9760

> <Gold.Chemscore.Metal.Weighted>
-0.0000

> <Gold.Chemscore.Lipo.Weighted>
-10.0407

> <Gold.Chemscore.Internal_Hbond.Weighted>
0.0000

> <Gold.Chemscore.DEClash.Weighted>
0.0730

> <Gold.Chemscore.DEInternal.Weighted>
1.0260

> <Gold.Chemscore.Rot.Weighted>
5.5802

> <Gold.Chemscore.Internal.Correction.Weighted>
   9.000000E+99

> <Gold.Protein.RotatedTorsions>
[ 6907 6896 6895 6894 ] final  115.08 input  -60.11 | X-H torsion
[ 7974 7965 7964 7962 ] final  -71.97 input  175.53 | X-H torsion
[ 8008 7997 7996 7995 ] final   56.39 input   59.86 | X-H torsion
[ 10167 10162 10161 10158 ] final  -78.92 input  -65.29 | X-H torsion
[ 10718 10713 10712 10709 ] final -173.78 input   66.30 | X-H torsion
[ 10763 10752 10751 10750 ] final  -18.29 input  -60.55 | X-H torsion
[ 11005 11000 10999 10996 ] final -106.66 input  -57.11 | X-H torsion

> <Gold.Protein.ActiveResidues>
 VAL166  LYS551  ARG553  GLY616  TRP617  ASP618  TYR619  PRO620  LYS621  CYS622 
 ASP623  PHE694  ASN695  SER759  ASP760  ASP761  ALA762  ILE779  LEU786  VAL792 
 PHE793  MET794  SER795  GLU796  ALA797  LYS798  CYS799  TRP800  GLU811  SER814 

> <Gold.Protein.RotatedAtoms>
  152.4763  133.8147  159.7021 H   0  0  0  0  0  0  0  0  0  0  0  0  # atno 6907 bound_to 6896
  150.8783  133.7398  159.2946 H   0  0  0  0  0  0  0  0  0  0  0  0  # atno 6908 bound_to 6896
  151.4911  135.1061  159.9856 H   0  0  0  0  0  0  0  0  0  0  0  0  # atno 6909 bound_to 6896
  145.6712  140.9220  143.0882 H   0  0  0  0  0  0  0  0  0  0  0  0  # atno 7974 bound_to 7965
  155.5167  140.3478  155.4399 H   0  0  0  0  0  0  0  0  0  0  0  0  # atno 8008 bound_to 7997
  156.0812  140.1387  156.9737 H   0  0  0  0  0  0  0  0  0  0  0  0  # atno 8009 bound_to 7997
  154.4581  140.0945  156.6791 H   0  0  0  0  0  0  0  0  0  0  0  0  # atno 8010 bound_to 7997
  140.4639  143.2445  151.8307 H   0  0  0  0  0  0  0  0  0  0  0  0  # atno 10167 bound_to 10162
  156.7753  130.9463  151.3120 H   0  0  0  0  0  0  0  0  0  0  0  0  # atno 10718 bound_to 10713
  153.5870  135.7003  153.5439 H   0  0  0  0  0  0  0  0  0  0  0  0  # atno 10763 bound_to 10752
  153.3211  135.4073  155.1417 H   0  0  0  0  0  0  0  0  0  0  0  0  # atno 10764 bound_to 10752
  154.8607  135.3696  154.5400 H   0  0  0  0  0  0  0  0  0  0  0  0  # atno 10765 bound_to 10752
  141.0993  133.8913  157.1882 H   0  0  0  0  0  0  0  0  0  0  0  0  # atno 11005 bound_to 11000
  144.7056  139.8574  143.7431 LP  0  0  0  0  0  0  0  0  0  0  0  0  # atno 17320 bound_to 7965
  146.1044  139.4042  143.0327 LP  0  0  0  0  0  0  0  0  0  0  0  0  # atno 17321 bound_to 7965
  139.4809  144.4974  151.9105 LP  0  0  0  0  0  0  0  0  0  0  0  0  # atno 17342 bound_to 10162
  140.4060  144.2431  150.5891 LP  0  0  0  0  0  0  0  0  0  0  0  0  # atno 17343 bound_to 10162
  157.6672  130.9018  149.9958 LP  0  0  0  0  0  0  0  0  0  0  0  0  # atno 17370 bound_to 10713
  156.1252  130.3644  149.9821 LP  0  0  0  0  0  0  0  0  0  0  0  0  # atno 17371 bound_to 10713
  139.9840  135.0088  156.9817 LP  0  0  0  0  0  0  0  0  0  0  0  0  # atno 17394 bound_to 11000
  140.5061  134.1048  155.7260 LP  0  0  0  0  0  0  0  0  0  0  0  0  # atno 17395 bound_to 11000

$$$$
