AV-unprocessed.smi:1374|AV-procd|sdf|5588|dock6
  -GOLD-   22720 5193D 1   1.00000     0.00000
 Structure written by MMmdl.
 42 43  0  0  0  0  0  0  0  0  2 V2000
  152.4803  143.6130  160.2674 C   0  0  0  0  0  0  0  0  0  0  0  0
  152.8154  143.9421  158.8089 C   0  0  0  0  0  0  0  0  0  0  0  0
  151.7700  143.3917  157.8247 C   0  0  0  0  0  0  0  0  0  0  0  0
  151.4982  141.8771  157.9586 C   0  0  0  0  0  0  0  0  0  0  0  0
  150.7700  141.3172  156.7969 N   0  0  0  0  0  0  0  0  0  0  0  0
  149.4491  141.7703  156.5345 C   0  0  0  0  0  0  0  0  0  0  0  0
  148.8768  142.7074  157.3830 N   0  0  0  0  0  0  0  0  0  0  0  0
  148.7792  141.3206  155.4395 C   0  0  0  0  0  0  0  0  0  0  0  0
  147.4698  141.7515  155.1331 N   0  0  0  0  0  0  0  0  0  0  0  0
  147.2800  142.3799  153.8210 C   0  0  0  0  0  0  0  0  0  0  0  0
  146.4076  141.6697  155.9877 C   0  0  0  0  0  0  0  0  0  0  0  0
  146.4728  140.9922  157.0164 O   0  0  0  0  0  0  0  0  0  0  0  0
  145.2154  142.4530  155.6475 C   0  0  0  0  0  0  0  0  0  0  0  0
  144.0017  141.8624  155.7353 C   0  0  0  0  0  0  0  0  0  0  0  0
  142.8161  142.5094  155.4894 O   0  0  0  0  0  0  0  0  0  0  0  0
  142.9215  143.9229  155.3621 C   0  0  0  0  0  0  0  0  0  0  0  0
  144.1929  144.3030  154.5902 C   0  0  0  0  0  0  0  0  0  0  0  0
  145.3331  143.7655  155.2478 O   0  0  0  0  0  0  0  0  0  0  0  0
  149.4210  140.3157  154.5806 C   0  0  0  0  0  0  0  0  0  0  0  0
  148.8188  139.8505  153.6127 O   0  0  0  0  0  0  0  0  0  0  0  0
  150.6828  139.9256  154.8982 N   0  5  0  0  0  0  0  0  0  0  0  0
  151.3717  140.4035  155.9730 C   0  0  0  0  0  0  0  0  0  0  0  0
  152.5229  140.0373  156.2129 O   0  0  0  0  0  0  0  0  0  0  0  0
  153.2336  144.0235  160.9398 H   0  0  0  0  0  0  0  0  0  0  0  0
  152.4401  142.5355  160.4293 H   0  0  0  0  0  0  0  0  0  0  0  0
  151.5154  144.0328  160.5533 H   0  0  0  0  0  0  0  0  0  0  0  0
  152.8914  145.0245  158.7040 H   0  0  0  0  0  0  0  0  0  0  0  0
  153.7977  143.5372  158.5638 H   0  0  0  0  0  0  0  0  0  0  0  0
  150.8298  143.9233  157.9740 H   0  0  0  0  0  0  0  0  0  0  0  0
  152.0836  143.6244  156.8070 H   0  0  0  0  0  0  0  0  0  0  0  0
  152.4425  141.3616  158.1381 H   0  0  0  0  0  0  0  0  0  0  0  0
  150.9333  141.6876  158.8718 H   0  0  0  0  0  0  0  0  0  0  0  0
  149.3752  143.0742  158.1808 H   0  0  0  0  0  0  0  0  0  0  0  0
  147.9051  142.9695  157.3022 H   0  0  0  0  0  0  0  0  0  0  0  0
  146.5221  141.8486  153.2438 H   0  0  0  0  0  0  0  0  0  0  0  0
  148.1987  142.3846  153.2328 H   0  0  0  0  0  0  0  0  0  0  0  0
  146.9638  143.4182  153.9319 H   0  0  0  0  0  0  0  0  0  0  0  0
  143.8392  140.8362  156.0327 H   0  0  0  0  0  0  0  0  0  0  0  0
  142.0368  144.3020  154.8505 H   0  0  0  0  0  0  0  0  0  0  0  0
  142.9340  144.3704  156.3568 H   0  0  0  0  0  0  0  0  0  0  0  0
  144.1533  143.9226  153.5684 H   0  0  0  0  0  0  0  0  0  0  0  0
  144.2954  145.3864  154.5261 H   0  0  0  0  0  0  0  0  0  0  0  0
  1  2  1  0  0  0  0
  1 24  1  0  0  0  0
  1 25  1  0  0  0  0
  1 26  1  0  0  0  0
  2  3  1  0  0  0  0
  2 27  1  0  0  0  0
  2 28  1  0  0  0  0
  3  4  1  0  0  0  0
  3 29  1  0  0  0  0
  3 30  1  0  0  0  0
  4  5  1  0  0  0  0
  4 31  1  0  0  0  0
  4 32  1  0  0  0  0
  5 22  1  0  0  0  0
  5  6  1  0  0  0  0
  6  7  1  0  0  0  0
  6  8  2  0  0  0  0
  7 33  1  0  0  0  0
  7 34  1  0  0  0  0
  8  9  1  0  0  0  0
  8 19  1  0  0  0  0
  9 10  1  0  0  0  0
  9 11  1  0  0  0  0
 10 35  1  0  0  0  0
 10 36  1  0  0  0  0
 10 37  1  0  0  0  0
 11 12  2  0  0  0  0
 11 13  1  0  0  0  0
 13 18  1  0  0  0  0
 13 14  2  0  0  0  0
 14 15  1  0  0  0  0
 14 38  1  0  0  0  0
 15 16  1  0  0  0  0
 16 17  1  0  0  0  0
 16 39  1  0  0  0  0
 16 40  1  0  0  0  0
 17 18  1  0  0  0  0
 17 41  1  0  0  0  0
 17 42  1  0  0  0  0
 19 20  2  0  0  0  0
 19 21  1  0  0  0  0
 21 22  1  0  0  0  0
 22 23  2  0  0  0  0
M  CHG  1  21  -1
M  END
> <s_m_source_file>
AV-unprocessed.smi

> <i_m_source_file_index>
1374

> <i_lp_mmshare_version>
43012

> <i_f3d_flags>
0

> <s_epik_input>
W0NIM11bQ0gyXVtDSDJdW0NIMl1uMWMoW05IMl0pYyhjKD1PKVtuSF1jMT1PKU4oW0NIM10pQyg9TylDMj1bQ0hdT1tDSDJdW0NIMl1PMg==

> <s_epik_cmdline>
J2VwaWtfcHl0aG9uJywgJy1waCcsICc3LjAnLCAnLXRuJywgJzgnLCAnLW1hJywgJzIwMCcsICctbWV0YWxfYmluZGluZycsICctaW1hZScsICc8aW5maWxlLm1hZT4nLCAnLW9tYWUnLCAnPG91dGZpbGUubWFlPic=

> <r_lp_tautomer_probability>
1

> <r_epik_Ionization_Penalty>
6.1831

> <r_epik_Ionization_Penalty_Charging>
0.183564

> <r_epik_Ionization_Penalty_Neutral>
5.99954

> <r_epik_State_Penalty>
5.99952

> <r_epik_Charging_Adjusted_Penalty>
6.18308

> <i_epik_Tot_Q>
-1

> <i_epik_Tot_abs_Q>
1

> <r_epik_Metal_State_Penalty>
1.93002

> <b_epik_Metal_Only>
1

> <s_epik_Chemistry_Notes>
This compound has an imine and may undergo hydrolysis.

> <s_lp_Force_Field>
OPLS_2005

> <r_lp_Energy>
38.087

> <b_lp_Chiralities_Consistent>
1

> <s_lp_Variant>
AV-unprocessed.smi:1374-2

> <Gold.Version>
5.8.1

> <Gold.Id.Protein>
6NUR|6NUR_protein|mol2

> <Gold.PLP.Fitness>
40.3239

> <Gold.PLP.PLP>
-35.0731

> <Gold.PLP.part.hbond>
-3.0000

> <Gold.PLP.part.metal>
0.0000

> <Gold.PLP.part.buried>
-5.8276

> <Gold.PLP.part.nonpolar>
-30.2067

> <Gold.PLP.part.repulsive>
4.0255

> <Gold.PLP.ligand.clash>
0.0000

> <Gold.PLP.ligand.torsion>
2.0178

> <Gold.PLP.Chemscore.Hbond>
1.9500

> <Gold.PLP.Chemscore.CHOScore>
0.0000

> <Gold.PLP.Chemscore.Metal>
0.0000

> <Gold.Chemscore.Hbonds>
donor molecule, donor type, donor heavy atom, donor atom, acceptor molecule, acceptor atom, score
      P1  H  7989  7998       L1    21  0.86
      P1  H  7997  8008       L1    23  1.00

> <Gold.PLP.Chemscore.Internal.Correction>
3.4363

> <Gold.Rescore>
     Score         DG    S(hbond)    S(metal)    S(lipo)     H(rot)  DE(clash)    DE(int)     intcor
      9.24     -13.02       0.99        0.00      68.33       1.47       0.11       3.67       ----

> <Gold.Chemscore.Fitness>
9.2413

> <Gold.Chemscore.DG>
-13.0189

> <Gold.Chemscore.ZeroCoef>
-5.4800

> <Gold.Chemscore.Hbond>
0.9915

> <Gold.Chemscore.Metal>
0.0000

> <Gold.Chemscore.Lipo>
68.3290

> <Gold.Chemscore.Internal_Hbond>
0.0000

> <Gold.Chemscore.DEClash>
0.1057

> <Gold.Chemscore.DEInternal>
3.6719

> <Gold.Chemscore.Rot>
1.4715

> <Gold.Chemscore.Internal.Correction>
   9.000000E+99

> <Gold.Chemscore.Hbonds>
donor molecule, donor type, donor heavy atom, donor atom, acceptor molecule, acceptor atom, score
      P1  H  7989  7998       L1    21  0.04
      P1  H  7997  8008       L1    23  0.99

> <Gold.Chemscore.Hbond.Weighted>
-3.3115

> <Gold.Chemscore.Metal.Weighted>
-0.0000

> <Gold.Chemscore.Lipo.Weighted>
-7.9945

> <Gold.Chemscore.Internal_Hbond.Weighted>
0.0000

> <Gold.Chemscore.DEClash.Weighted>
0.1057

> <Gold.Chemscore.DEInternal.Weighted>
3.6719

> <Gold.Chemscore.Rot.Weighted>
3.7671

> <Gold.Chemscore.Internal.Correction.Weighted>
   9.000000E+99

> <Gold.Protein.RotatedTorsions>
[ 6907 6896 6895 6894 ] final  172.81 input  -60.11 | X-H torsion
[ 7974 7965 7964 7962 ] final -167.20 input  175.53 | X-H torsion
[ 8008 7997 7996 7995 ] final  -33.33 input   59.86 | X-H torsion
[ 10167 10162 10161 10158 ] final  -89.79 input  -65.29 | X-H torsion
[ 10718 10713 10712 10709 ] final   -2.48 input   66.30 | X-H torsion
[ 10763 10752 10751 10750 ] final -113.29 input  -60.55 | X-H torsion
[ 11005 11000 10999 10996 ] final   -5.47 input  -57.11 | X-H torsion

> <Gold.Protein.ActiveResidues>
 VAL166  LYS551  ARG553  GLY616  TRP617  ASP618  TYR619  PRO620  LYS621  CYS622 
 ASP623  PHE694  ASN695  SER759  ASP760  ASP761  ALA762  ILE779  LEU786  VAL792 
 PHE793  MET794  SER795  GLU796  ALA797  LYS798  CYS799  TRP800  GLU811  SER814 

> <Gold.Protein.RotatedAtoms>
  151.7783  133.3347  159.3463 H   0  0  0  0  0  0  0  0  0  0  0  0  # atno 6907 bound_to 6896
  150.7436  134.5955  159.6019 H   0  0  0  0  0  0  0  0  0  0  0  0  # atno 6908 bound_to 6896
  152.3294  134.7281  160.0345 H   0  0  0  0  0  0  0  0  0  0  0  0  # atno 6909 bound_to 6896
  144.7228  140.2554  143.6272 H   0  0  0  0  0  0  0  0  0  0  0  0  # atno 7974 bound_to 7965
  154.4152  140.1713  156.1870 H   0  0  0  0  0  0  0  0  0  0  0  0  # atno 8008 bound_to 7997
  155.9634  140.3391  155.6487 H   0  0  0  0  0  0  0  0  0  0  0  0  # atno 8009 bound_to 7997
  155.6718  140.0712  157.2508 H   0  0  0  0  0  0  0  0  0  0  0  0  # atno 8010 bound_to 7997
  140.3613  143.2840  151.9611 H   0  0  0  0  0  0  0  0  0  0  0  0  # atno 10167 bound_to 10162
  156.7903  130.5359  149.5737 H   0  0  0  0  0  0  0  0  0  0  0  0  # atno 10718 bound_to 10713
  154.8389  135.4459  154.1326 H   0  0  0  0  0  0  0  0  0  0  0  0  # atno 10763 bound_to 10752
  153.2532  135.6929  153.7663 H   0  0  0  0  0  0  0  0  0  0  0  0  # atno 10764 bound_to 10752
  153.6967  135.3378  155.3191 H   0  0  0  0  0  0  0  0  0  0  0  0  # atno 10765 bound_to 10752
  140.6914  133.9067  155.8621 H   0  0  0  0  0  0  0  0  0  0  0  0  # atno 11005 bound_to 11000
  145.8187  139.2034  143.1950 LP  0  0  0  0  0  0  0  0  0  0  0  0  # atno 17320 bound_to 7965
  146.0532  140.8047  142.9771 LP  0  0  0  0  0  0  0  0  0  0  0  0  # atno 17321 bound_to 7965
  139.4814  144.5990  151.7639 LP  0  0  0  0  0  0  0  0  0  0  0  0  # atno 17342 bound_to 10162
  140.5124  144.1005  150.5999 LP  0  0  0  0  0  0  0  0  0  0  0  0  # atno 17343 bound_to 10162
  156.1163  130.6077  151.0126 LP  0  0  0  0  0  0  0  0  0  0  0  0  # atno 17370 bound_to 10713
  157.6604  131.0882  150.7852 LP  0  0  0  0  0  0  0  0  0  0  0  0  # atno 17371 bound_to 10713
  141.0238  134.0852  157.4091 LP  0  0  0  0  0  0  0  0  0  0  0  0  # atno 17394 bound_to 11000
  139.8922  135.0123  156.6834 LP  0  0  0  0  0  0  0  0  0  0  0  0  # atno 17395 bound_to 11000

$$$$
