AV-unprocessed.smi:2099|AV-procd|sdf|8572|dock2
  -GOLD-   2272011303D 1   1.00000     0.00000
 Structure written by MMmdl.
 31 32  0  0  0  0  0  0  0  0  2 V2000
  152.1244  141.9148  158.9325 C   0  0  0  0  0  0  0  0  0  0  0  0
  151.7045  140.6670  158.1429 C   0  0  2  0  0  0  0  0  0  0  0  0
  150.2358  140.7583  157.6866 C   0  0  0  0  0  0  0  0  0  0  0  0
  149.8079  139.5070  156.9000 C   0  0  0  0  0  0  0  0  0  0  0  0
  150.0445  138.2073  157.6988 C   0  0  2  0  0  0  0  0  0  0  0  0
  149.1344  138.1036  158.8395 N   0  0  0  0  0  0  0  0  0  0  0  0
  148.7797  136.9774  159.4747 C   0  0  0  0  0  0  0  0  0  0  0  0
  149.2397  135.8928  159.1102 O   0  0  0  0  0  0  0  0  0  0  0  0
  147.9087  137.1779  160.4899 N   0  5  0  0  0  0  0  0  0  0  0  0
  147.2864  136.1316  161.0573 C   0  0  0  0  0  0  0  0  0  0  0  0
  146.5876  135.2357  160.3417 N   0  0  0  0  0  0  0  0  0  0  0  0
  146.0311  134.2299  161.1203 N   0  0  0  0  0  0  0  0  0  0  0  0
  146.3329  134.3899  162.4088 C   0  0  0  0  0  0  0  0  0  0  0  0
  147.3257  135.7813  162.7877 S   0  0  0  0  0  0  0  0  0  0  0  0
  151.5068  138.1245  158.1781 C   0  0  0  0  0  0  0  0  0  0  0  0
  151.9370  139.3804  158.9583 C   0  0  0  0  0  0  0  0  0  0  0  0
  151.5354  142.0233  159.8440 H   0  0  0  0  0  0  0  0  0  0  0  0
  151.9892  142.8192  158.3386 H   0  0  0  0  0  0  0  0  0  0  0  0
  153.1751  141.8632  159.2190 H   0  0  0  0  0  0  0  0  0  0  0  0
  152.3303  140.6168  157.2508 H   0  0  0  0  0  0  0  0  0  0  0  0
  149.5856  140.8852  158.5534 H   0  0  0  0  0  0  0  0  0  0  0  0
  150.0931  141.6431  157.0655 H   0  0  0  0  0  0  0  0  0  0  0  0
  148.7614  139.5923  156.6062 H   0  0  0  0  0  0  0  0  0  0  0  0
  150.3764  139.4609  155.9704 H   0  0  0  0  0  0  0  0  0  0  0  0
  149.8594  137.3548  157.0430 H   0  0  0  0  0  0  0  0  0  0  0  0
  148.7322  138.9661  159.1757 H   0  0  0  0  0  0  0  0  0  0  0  0
  145.9716  133.6823  163.1401 H   0  0  0  0  0  0  0  0  0  0  0  0
  151.6525  137.2351  158.7924 H   0  0  0  0  0  0  0  0  0  0  0  0
  152.1593  138.0037  157.3124 H   0  0  0  0  0  0  0  0  0  0  0  0
  152.9903  139.2965  159.2279 H   0  0  0  0  0  0  0  0  0  0  0  0
  151.3855  139.4342  159.8978 H   0  0  0  0  0  0  0  0  0  0  0  0
  1  2  1  0  0  0  0
  1 17  1  0  0  0  0
  1 18  1  0  0  0  0
  1 19  1  0  0  0  0
  2 16  1  0  0  0  0
  2  3  1  0  0  0  0
  2 20  1  0  0  0  0
  3  4  1  0  0  0  0
  3 21  1  0  0  0  0
  3 22  1  0  0  0  0
  4  5  1  0  0  0  0
  4 23  1  0  0  0  0
  4 24  1  0  0  0  0
  5  6  1  0  0  0  0
  5 15  1  0  0  0  0
  5 25  1  0  0  0  0
  6  7  1  0  0  0  0
  6 26  1  0  0  0  0
  7  8  2  0  0  0  0
  7  9  1  0  0  0  0
  9 10  1  0  0  0  0
 10 14  1  0  0  0  0
 10 11  2  0  0  0  0
 11 12  1  0  0  0  0
 12 13  2  0  0  0  0
 13 14  1  0  0  0  0
 13 27  1  0  0  0  0
 15 16  1  0  0  0  0
 15 28  1  0  0  0  0
 15 29  1  0  0  0  0
 16 30  1  0  0  0  0
 16 31  1  0  0  0  0
M  CHG  1   9  -1
M  END
> <s_m_source_file>
AV-unprocessed.smi

> <i_m_source_file_index>
2099

> <i_lp_mmshare_version>
43012

> <i_f3d_flags>
0

> <s_epik_input>
W0NIM11bQ0BASF0xW0NIMl1bQ0gyXVtDQEhdKFtDSDJdW0NIMl0xKVtOSF1DKD1PKVtOSF1jMm5uW2NIXXMy

> <s_epik_cmdline>
J2VwaWtfcHl0aG9uJywgJy1waCcsICc3LjAnLCAnLXRuJywgJzgnLCAnLW1hJywgJzIwMCcsICctbWV0YWxfYmluZGluZycsICctaW1hZScsICc8aW5maWxlLm1hZT4nLCAnLW9tYWUnLCAnPG91dGZpbGUubWFlPic=

> <r_lp_tautomer_probability>
1

> <r_epik_Ionization_Penalty>
4.54895

> <r_epik_Ionization_Penalty_Charging>
4.4996

> <r_epik_Ionization_Penalty_Neutral>
0.0493438

> <r_epik_State_Penalty>
4.4993

> <r_epik_Charging_Adjusted_Penalty>
8.99891

> <i_epik_Tot_Q>
-1

> <i_epik_Tot_abs_Q>
1

> <r_epik_Metal_State_Penalty>
0.819079

> <b_epik_Metal_Only>
1

> <s_lp_Force_Field>
OPLS_2005

> <r_lp_Energy>
5.8403

> <b_lp_Chiralities_Consistent>
1

> <s_lp_Variant>
AV-unprocessed.smi:2099-4

> <Gold.Version>
5.8.1

> <Gold.Id.Protein>
6NUR|6NUR_protein|mol2

> <Gold.PLP.Fitness>
36.5985

> <Gold.PLP.PLP>
-25.8040

> <Gold.PLP.part.hbond>
-3.0000

> <Gold.PLP.part.metal>
0.0000

> <Gold.PLP.part.buried>
-4.3659

> <Gold.PLP.part.nonpolar>
-19.2960

> <Gold.PLP.part.repulsive>
0.2233

> <Gold.PLP.ligand.clash>
0.0000

> <Gold.PLP.ligand.torsion>
0.8153

> <Gold.PLP.Chemscore.Hbond>
4.1360

> <Gold.PLP.Chemscore.CHOScore>
0.0000

> <Gold.PLP.Chemscore.Metal>
0.0000

> <Gold.Chemscore.Hbonds>
donor molecule, donor type, donor heavy atom, donor atom, acceptor molecule, acceptor atom, score
      P1  H  6896  6908       L1     8  1.00
      P1  H  6931  6943       L1     9  1.30
      P1  H  6934  6947       L1     9  1.63

> <Gold.PLP.Chemscore.Internal.Correction>
0.0170

> <Gold.Rescore>
     Score         DG    S(hbond)    S(metal)    S(lipo)     H(rot)  DE(clash)    DE(int)     intcor
     14.84     -15.77       2.05        0.00      51.35       1.00       0.01       0.91       ----

> <Gold.Chemscore.Fitness>
14.8425

> <Gold.Chemscore.DG>
-15.7714

> <Gold.Chemscore.ZeroCoef>
-5.4800

> <Gold.Chemscore.Hbond>
2.0488

> <Gold.Chemscore.Metal>
0.0000

> <Gold.Chemscore.Lipo>
51.3542

> <Gold.Chemscore.Internal_Hbond>
0.0000

> <Gold.Chemscore.DEClash>
0.0149

> <Gold.Chemscore.DEInternal>
0.9141

> <Gold.Chemscore.Rot>
1.0000

> <Gold.Chemscore.Internal.Correction>
   9.000000E+99

> <Gold.Chemscore.Hbonds>
donor molecule, donor type, donor heavy atom, donor atom, acceptor molecule, acceptor atom, score
      P1  H  6896  6908       L1     8  0.94
      P1  H  6931  6943       L1     9  0.20
      P1  H  6934  6947       L1     9  0.71

> <Gold.Chemscore.Hbond.Weighted>
-6.8430

> <Gold.Chemscore.Metal.Weighted>
-0.0000

> <Gold.Chemscore.Lipo.Weighted>
-6.0084

> <Gold.Chemscore.Internal_Hbond.Weighted>
0.0000

> <Gold.Chemscore.DEClash.Weighted>
0.0149

> <Gold.Chemscore.DEInternal.Weighted>
0.9141

> <Gold.Chemscore.Rot.Weighted>
2.5600

> <Gold.Chemscore.Internal.Correction.Weighted>
   9.000000E+99

> <Gold.Protein.RotatedTorsions>
[ 6907 6896 6895 6894 ] final  164.50 input  -60.11 | X-H torsion
[ 7974 7965 7964 7962 ] final   17.67 input  175.53 | X-H torsion
[ 8008 7997 7996 7995 ] final  148.21 input   59.86 | X-H torsion
[ 10167 10162 10161 10158 ] final -126.51 input  -65.29 | X-H torsion
[ 10718 10713 10712 10709 ] final  -67.48 input   66.30 | X-H torsion
[ 10763 10752 10751 10750 ] final -164.86 input  -60.55 | X-H torsion
[ 11005 11000 10999 10996 ] final  -13.06 input  -57.11 | X-H torsion

> <Gold.Protein.ActiveResidues>
 VAL166  LYS551  ARG553  GLY616  TRP617  ASP618  TYR619  PRO620  LYS621  CYS622 
 ASP623  PHE694  ASN695  SER759  ASP760  ASP761  ALA762  ILE779  LEU786  VAL792 
 PHE793  MET794  SER795  GLU796  ALA797  LYS798  CYS799  TRP800  GLU811  SER814 

> <Gold.Protein.RotatedAtoms>
  151.9089  133.3556  159.3856 H   0  0  0  0  0  0  0  0  0  0  0  0  # atno 6907 bound_to 6896
  150.7062  134.4752  159.5453 H   0  0  0  0  0  0  0  0  0  0  0  0  # atno 6908 bound_to 6896
  152.2354  134.8281  160.0518 H   0  0  0  0  0  0  0  0  0  0  0  0  # atno 6909 bound_to 6896
  146.2211  139.8569  142.8612 H   0  0  0  0  0  0  0  0  0  0  0  0  # atno 7974 bound_to 7965
  156.2799  140.2135  156.5662 H   0  0  0  0  0  0  0  0  0  0  0  0  # atno 8008 bound_to 7997
  154.7172  140.0506  157.0629 H   0  0  0  0  0  0  0  0  0  0  0  0  # atno 8009 bound_to 7997
  155.0526  140.3158  155.4690 H   0  0  0  0  0  0  0  0  0  0  0  0  # atno 8010 bound_to 7997
  139.9707  143.5848  152.2413 H   0  0  0  0  0  0  0  0  0  0  0  0  # atno 10167 bound_to 10162
  156.0555  130.4278  150.1860 H   0  0  0  0  0  0  0  0  0  0  0  0  # atno 10718 bound_to 10713
  154.6988  135.2984  154.9372 H   0  0  0  0  0  0  0  0  0  0  0  0  # atno 10763 bound_to 10752
  154.0311  135.6670  153.4785 H   0  0  0  0  0  0  0  0  0  0  0  0  # atno 10764 bound_to 10752
  153.0665  135.5085  154.8120 H   0  0  0  0  0  0  0  0  0  0  0  0  # atno 10765 bound_to 10752
  140.7722  133.8429  155.9217 H   0  0  0  0  0  0  0  0  0  0  0  0  # atno 11005 bound_to 11000
  145.2744  141.0119  143.3753 LP  0  0  0  0  0  0  0  0  0  0  0  0  # atno 17320 bound_to 7965
  144.9198  139.4425  143.6546 LP  0  0  0  0  0  0  0  0  0  0  0  0  # atno 17321 bound_to 7965
  139.6483  144.7659  151.2199 LP  0  0  0  0  0  0  0  0  0  0  0  0  # atno 17342 bound_to 10162
  140.7523  143.6202  150.8520 LP  0  0  0  0  0  0  0  0  0  0  0  0  # atno 17343 bound_to 10162
  156.9937  130.9901  151.3408 LP  0  0  0  0  0  0  0  0  0  0  0  0  # atno 17370 bound_to 10713
  157.5521  130.8189  149.8159 LP  0  0  0  0  0  0  0  0  0  0  0  0  # atno 17371 bound_to 10713
  140.9563  134.1714  157.4689 LP  0  0  0  0  0  0  0  0  0  0  0  0  # atno 17394 bound_to 11000
  139.8754  134.9928  156.5614 LP  0  0  0  0  0  0  0  0  0  0  0  0  # atno 17395 bound_to 11000

$$$$
