AV-unprocessed.smi:3062|AV-procd|sdf|11684|dock4
  -GOLD-   2272017 93D 1   1.00000     0.00000
 Structure written by MMmdl.
 39 40  0  0  0  0  0  0  0  0  1 V2000
  146.2176  137.3973  162.4632 C   0  0  0  0  0  0  0  0  0  0  0  0
  146.9259  136.5323  161.4555 C   0  0  0  0  0  0  0  0  0  0  0  0
  147.6171  137.1429  160.5500 N   0  0  0  0  0  0  0  0  0  0  0  0
  148.3082  136.4447  159.5799 N   0  0  0  0  0  0  0  0  0  0  0  0
  149.0346  137.3009  158.6348 C   0  0  0  0  0  0  0  0  0  0  0  0
  150.5662  137.1428  158.7608 C   0  0  1  0  0  0  0  0  0  0  0  0
  150.9883  135.9343  158.1617 O   0  0  0  0  0  0  0  0  0  0  0  0
  151.3443  138.2897  158.0954 C   0  0  0  0  0  0  0  0  0  0  0  0
  150.8125  139.5358  158.5150 O   0  0  0  0  0  0  0  0  0  0  0  0
  151.5488  140.6460  158.0296 C   0  0  0  0  0  0  0  0  0  0  0  0
  152.2536  141.2778  159.1896 C   0  0  0  0  0  0  0  0  0  0  0  0
  152.2060  142.5994  159.5544 C   0  0  0  0  0  0  0  0  0  0  0  0
  152.9936  142.8970  160.7054 C   0  0  0  0  0  0  0  0  0  0  0  0
  153.6383  141.7979  161.2065 C   0  0  0  0  0  0  0  0  0  0  0  0
  153.2917  140.3714  160.2688 S   0  0  0  0  0  0  0  0  0  0  0  0
  148.3393  135.0854  159.4748 C   0  0  0  0  0  0  0  0  0  0  0  0
  148.9700  134.5035  158.5907 O   0  0  0  0  0  0  0  0  0  0  0  0
  147.5540  134.3994  160.5034 C   0  0  0  0  0  0  0  0  0  0  0  0
  147.5611  132.9738  160.4322 C   0  0  0  0  0  0  0  0  0  0  0  0
  147.5609  131.8166  160.3944 N   0  0  0  0  0  0  0  0  0  0  0  0
  146.8673  135.0740  161.4593 C   0  0  0  0  0  0  0  0  0  0  0  0
  146.0387  134.4085  162.5497 C   0  0  0  0  0  0  0  0  0  0  0  0
  146.4968  137.1174  163.4788 H   0  0  0  0  0  0  0  0  0  0  0  0
  145.1365  137.2943  162.3678 H   0  0  0  0  0  0  0  0  0  0  0  0
  146.4614  138.4534  162.3363 H   0  0  0  0  0  0  0  0  0  0  0  0
  148.7151  137.1057  157.6090 H   0  0  0  0  0  0  0  0  0  0  0  0
  148.7578  138.3402  158.8208 H   0  0  0  0  0  0  0  0  0  0  0  0
  150.8589  137.1053  159.8106 H   0  0  0  0  0  0  0  0  0  0  0  0
  151.4106  135.4069  158.8226 H   0  0  0  0  0  0  0  0  0  0  0  0
  152.3915  138.2337  158.3962 H   0  0  0  0  0  0  0  0  0  0  0  0
  151.3175  138.2001  157.0079 H   0  0  0  0  0  0  0  0  0  0  0  0
  152.2757  140.3231  157.2833 H   0  0  0  0  0  0  0  0  0  0  0  0
  150.8799  141.3674  157.5577 H   0  0  0  0  0  0  0  0  0  0  0  0
  151.6358  143.3579  159.0385 H   0  0  0  0  0  0  0  0  0  0  0  0
  153.0589  143.8924  161.1195 H   0  0  0  0  0  0  0  0  0  0  0  0
  154.2930  141.7387  162.0635 H   0  0  0  0  0  0  0  0  0  0  0  0
  145.9697  133.3294  162.4148 H   0  0  0  0  0  0  0  0  0  0  0  0
  145.0207  134.7996  162.5551 H   0  0  0  0  0  0  0  0  0  0  0  0
  146.4832  134.5914  163.5285 H   0  0  0  0  0  0  0  0  0  0  0  0
  1  2  1  0  0  0  0
  1 23  1  0  0  0  0
  1 24  1  0  0  0  0
  1 25  1  0  0  0  0
  2 21  1  0  0  0  0
  2  3  2  0  0  0  0
  3  4  1  0  0  0  0
  4  5  1  0  0  0  0
  4 16  1  0  0  0  0
  5  6  1  0  0  0  0
  5 26  1  0  0  0  0
  5 27  1  0  0  0  0
  6  7  1  0  0  0  0
  6  8  1  0  0  0  0
  6 28  1  0  0  0  0
  7 29  1  0  0  0  0
  8  9  1  0  0  0  0
  8 30  1  0  0  0  0
  8 31  1  0  0  0  0
  9 10  1  0  0  0  0
 10 11  1  0  0  0  0
 10 32  1  0  0  0  0
 10 33  1  0  0  0  0
 11 15  1  0  0  0  0
 11 12  2  0  0  0  0
 12 13  1  0  0  0  0
 12 34  1  0  0  0  0
 13 14  2  0  0  0  0
 13 35  1  0  0  0  0
 14 15  1  0  0  0  0
 14 36  1  0  0  0  0
 16 17  2  0  0  0  0
 16 18  1  0  0  0  0
 18 19  1  0  0  0  0
 18 21  2  0  0  0  0
 19 20  3  0  0  0  0
 21 22  1  0  0  0  0
 22 37  1  0  0  0  0
 22 38  1  0  0  0  0
 22 39  1  0  0  0  0
M  END
> <s_m_source_file>
AV-unprocessed.smi

> <i_m_source_file_index>
3062

> <i_lp_mmshare_version>
43012

> <i_f3d_flags>
0

> <s_epik_input>
TiNDYyhjMVtDSDNdKWMoPU8pbihuYzFbQ0gzXSlbQ0gyXVtDQEhdKFtPSF0pW0NIMl1PW0NIMl1jMltjSF1bY0hdW2NIXXMy

> <s_epik_cmdline>
J2VwaWtfcHl0aG9uJywgJy1waCcsICc3LjAnLCAnLXRuJywgJzgnLCAnLW1hJywgJzIwMCcsICctbWV0YWxfYmluZGluZycsICctaW1hZScsICc8aW5maWxlLm1hZT4nLCAnLW9tYWUnLCAnPG91dGZpbGUubWFlPic=

> <r_lp_tautomer_probability>
1

> <r_epik_Ionization_Penalty>
6.86395e-08

> <r_epik_Ionization_Penalty_Charging>
2.24757e-10

> <r_epik_Ionization_Penalty_Neutral>
6.84147e-08

> <r_epik_State_Penalty>
-0

> <r_epik_Charging_Adjusted_Penalty>
2.24757e-10

> <i_epik_Tot_Q>
0

> <i_epik_Tot_abs_Q>
0

> <r_epik_Metal_State_Penalty>
-0

> <b_epik_Metal_Only>
0

> <s_lp_Force_Field>
OPLS_2005

> <r_lp_Energy>
25.5383

> <b_lp_Chiralities_Consistent>
1

> <s_lp_Variant>
AV-unprocessed.smi:3062-2

> <Gold.Version>
5.8.1

> <Gold.Id.Protein>
6NUR|6NUR_protein|mol2

> <Gold.PLP.Fitness>
50.1474

> <Gold.PLP.PLP>
-43.0374

> <Gold.PLP.part.hbond>
-4.0000

> <Gold.PLP.part.metal>
0.0000

> <Gold.PLP.part.buried>
-4.0537

> <Gold.PLP.part.nonpolar>
-35.8082

> <Gold.PLP.part.repulsive>
0.0000

> <Gold.PLP.ligand.clash>
0.0000

> <Gold.PLP.ligand.torsion>
0.6229

> <Gold.PLP.Chemscore.Hbond>
2.7600

> <Gold.PLP.Chemscore.CHOScore>
0.0000

> <Gold.PLP.Chemscore.Metal>
0.0000

> <Gold.Chemscore.Hbonds>
donor molecule, donor type, donor heavy atom, donor atom, acceptor molecule, acceptor atom, score
      P1  H  6896  6908       L1    17  1.00
      P1  H  6931  6943       L1     3  0.34
      P1  H  6934  6947       L1     3  0.98

> <Gold.PLP.Chemscore.Internal.Correction>
0.0758

> <Gold.Rescore>
     Score         DG    S(hbond)    S(metal)    S(lipo)     H(rot)  DE(clash)    DE(int)     intcor
     12.45     -14.87       0.95        0.00     108.02       2.51       0.02       2.40       ----

> <Gold.Chemscore.Fitness>
12.4478

> <Gold.Chemscore.DG>
-14.8687

> <Gold.Chemscore.ZeroCoef>
-5.4800

> <Gold.Chemscore.Hbond>
0.9522

> <Gold.Chemscore.Metal>
0.0000

> <Gold.Chemscore.Lipo>
108.0249

> <Gold.Chemscore.Internal_Hbond>
0.0000

> <Gold.Chemscore.DEClash>
0.0202

> <Gold.Chemscore.DEInternal>
2.4007

> <Gold.Chemscore.Rot>
2.5119

> <Gold.Chemscore.Internal.Correction>
   9.000000E+99

> <Gold.Chemscore.Hbonds>
donor molecule, donor type, donor heavy atom, donor atom, acceptor molecule, acceptor atom, score
      P1  H  6896  6908       L1    17  0.35
      P1  H  6931  6943       L1     3  0.06
      P1  H  6934  6947       L1     3  0.32

> <Gold.Chemscore.Hbond.Weighted>
-3.1803

> <Gold.Chemscore.Metal.Weighted>
-0.0000

> <Gold.Chemscore.Lipo.Weighted>
-12.6389

> <Gold.Chemscore.Internal_Hbond.Weighted>
0.0000

> <Gold.Chemscore.DEClash.Weighted>
0.0202

> <Gold.Chemscore.DEInternal.Weighted>
2.4007

> <Gold.Chemscore.Rot.Weighted>
6.4305

> <Gold.Chemscore.Internal.Correction.Weighted>
   9.000000E+99

> <Gold.Protein.RotatedTorsions>
[ 6907 6896 6895 6894 ] final  148.88 input  -60.11 | X-H torsion
[ 7974 7965 7964 7962 ] final   79.82 input  175.53 | X-H torsion
[ 8008 7997 7996 7995 ] final  -58.83 input   59.86 | X-H torsion
[ 10167 10162 10161 10158 ] final -152.20 input  -65.29 | X-H torsion
[ 10718 10713 10712 10709 ] final -120.24 input   66.30 | X-H torsion
[ 10763 10752 10751 10750 ] final -158.62 input  -60.55 | X-H torsion
[ 11005 11000 10999 10996 ] final -119.27 input  -57.11 | X-H torsion

> <Gold.Protein.ActiveResidues>
 VAL166  LYS551  ARG553  GLY616  TRP617  ASP618  TYR619  PRO620  LYS621  CYS622 
 ASP623  PHE694  ASN695  SER759  ASP760  ASP761  ALA762  ILE779  LEU786  VAL792 
 PHE793  MET794  SER795  GLU796  ALA797  LYS798  CYS799  TRP800  GLU811  SER814 

> <Gold.Protein.RotatedAtoms>
  152.1355  133.4433  159.4741 H   0  0  0  0  0  0  0  0  0  0  0  0  # atno 6907 bound_to 6896
  150.6881  134.2368  159.4465 H   0  0  0  0  0  0  0  0  0  0  0  0  # atno 6908 bound_to 6896
  152.0255  134.9797  160.0622 H   0  0  0  0  0  0  0  0  0  0  0  0  # atno 6909 bound_to 6896
  145.6593  139.2467  143.1932 H   0  0  0  0  0  0  0  0  0  0  0  0  # atno 7974 bound_to 7965
  154.4325  140.1075  156.6019 H   0  0  0  0  0  0  0  0  0  0  0  0  # atno 8008 bound_to 7997
  155.5902  140.3492  155.4545 H   0  0  0  0  0  0  0  0  0  0  0  0  # atno 8009 bound_to 7997
  156.0252  140.1248  157.0305 H   0  0  0  0  0  0  0  0  0  0  0  0  # atno 8010 bound_to 7997
  139.7201  143.8970  152.2500 H   0  0  0  0  0  0  0  0  0  0  0  0  # atno 10167 bound_to 10162
  156.1243  130.6347  150.9516 H   0  0  0  0  0  0  0  0  0  0  0  0  # atno 10718 bound_to 10713
  154.7542  135.3100  154.8501 H   0  0  0  0  0  0  0  0  0  0  0  0  # atno 10763 bound_to 10752
  153.9280  135.6788  153.4750 H   0  0  0  0  0  0  0  0  0  0  0  0  # atno 10764 bound_to 10752
  153.1138  135.4854  154.9010 H   0  0  0  0  0  0  0  0  0  0  0  0  # atno 10765 bound_to 10752
  141.0227  134.0099  157.3259 H   0  0  0  0  0  0  0  0  0  0  0  0  # atno 11005 bound_to 11000
  146.1139  140.7394  142.9490 LP  0  0  0  0  0  0  0  0  0  0  0  0  # atno 17320 bound_to 7965
  144.7095  140.3982  143.7092 LP  0  0  0  0  0  0  0  0  0  0  0  0  # atno 17321 bound_to 7965
  139.8864  144.6990  150.8820 LP  0  0  0  0  0  0  0  0  0  0  0  0  # atno 17342 bound_to 10162
  140.7752  143.3621  151.1809 LP  0  0  0  0  0  0  0  0  0  0  0  0  # atno 17343 bound_to 10162
  157.6425  131.0908  150.8221 LP  0  0  0  0  0  0  0  0  0  0  0  0  # atno 17370 bound_to 10713
  156.8313  130.5017  149.5331 LP  0  0  0  0  0  0  0  0  0  0  0  0  # atno 17371 bound_to 10713
  139.9156  135.0196  156.7869 LP  0  0  0  0  0  0  0  0  0  0  0  0  # atno 17394 bound_to 11000
  140.6544  133.9702  155.7772 LP  0  0  0  0  0  0  0  0  0  0  0  0  # atno 17395 bound_to 11000

$$$$
