AV-unprocessed.smi:136|AV-procd|sdf|1172|dock6
  -GOLD-   2262018323D 1   1.00000     0.00000
 Structure written by MMmdl.
 54 58  0  0  0  0  0  0  0  0  1 V2000
  156.3926  138.6141  158.2498 O   0  0  0  0  0  0  0  0  0  0  0  0
  155.6252  137.6503  158.2154 C   0  0  0  0  0  0  0  0  0  0  0  0
  154.2448  137.7416  158.9010 C   0  0  0  0  0  0  0  0  0  0  0  0
  153.4225  138.8755  158.4257 N   0  0  0  0  0  0  0  0  0  0  0  0
  152.7925  138.7755  157.1606 C   0  0  0  0  0  0  0  0  0  0  0  0
  152.9149  137.7671  156.4638 O   0  0  0  0  0  0  0  0  0  0  0  0
  152.0090  139.9365  156.7542 C   0  0  0  0  0  0  0  0  0  0  0  0
  151.3589  139.9218  155.5781 F   0  0  0  0  0  0  0  0  0  0  0  0
  151.9225  141.0278  157.5424 C   0  0  0  0  0  0  0  0  0  0  0  0
  152.5631  141.1216  158.7655 N   0  0  0  0  0  0  0  0  0  0  0  0
  152.4562  142.3546  159.6399 C   0  0  1  0  0  0  0  0  0  0  0  0
  153.0263  143.5897  158.9140 C   0  0  0  0  0  0  0  0  0  0  0  0
  151.8911  144.5907  159.0054 C   0  0  0  0  0  0  0  0  0  0  0  0
  150.6721  143.6831  159.0654 C   0  0  0  0  0  0  0  0  0  0  0  0
  151.1116  142.6302  159.9127 O   0  0  0  0  0  0  0  0  0  0  0  0
  153.3240  140.0301  159.2380 C   0  0  0  0  0  0  0  0  0  0  0  0
  153.8936  140.0892  160.3301 O   0  0  0  0  0  0  0  0  0  0  0  0
  155.9560  136.4955  157.5954 N   0  0  0  0  0  0  0  0  0  0  0  0
  155.1781  135.3846  157.6304 N   0  0  0  0  0  0  0  0  0  0  0  0
  155.7925  134.4078  157.0736 C   0  0  0  0  0  0  0  0  0  0  0  0
  155.2394  133.0428  156.9319 C   0  0  0  0  0  0  0  0  0  0  0  0
  153.9252  132.7765  157.3788 C   0  0  0  0  0  0  0  0  0  0  0  0
  153.3979  131.4772  157.2450 C   0  0  0  0  0  0  0  0  0  0  0  0
  154.1766  130.4525  156.6706 C   0  0  0  0  0  0  0  0  0  0  0  0
  153.5251  128.8629  156.5105 Cl  0  0  0  0  0  0  0  0  0  0  0  0
  155.4866  130.7236  156.2272 C   0  0  0  0  0  0  0  0  0  0  0  0
  156.0250  132.0191  156.3560 C   0  0  0  0  0  0  0  0  0  0  0  0
  157.1458  134.7637  156.5570 C   0  0  0  0  0  0  0  0  0  0  0  0
  157.2252  136.2543  156.8974 C   0  0  1  0  0  0  0  0  0  0  0  0
  157.4099  137.1219  155.6874 C   0  0  0  0  0  0  0  0  0  0  0  0
  158.4407  137.2940  154.8054 C   0  0  0  0  0  0  0  0  0  0  0  0
  157.9995  138.2548  153.8540 C   0  0  0  0  0  0  0  0  0  0  0  0
  156.7288  138.5936  154.2225 C   0  0  0  0  0  0  0  0  0  0  0  0
  156.3521  137.9086  155.3357 O   0  0  0  0  0  0  0  0  0  0  0  0
  153.7205  136.7958  158.7544 H   0  0  0  0  0  0  0  0  0  0  0  0
  154.3892  137.8006  159.9810 H   0  0  0  0  0  0  0  0  0  0  0  0
  151.3224  141.8498  157.1836 H   0  0  0  0  0  0  0  0  0  0  0  0
  152.9738  142.1006  160.5666 H   0  0  0  0  0  0  0  0  0  0  0  0
  153.9416  143.9364  159.3944 H   0  0  0  0  0  0  0  0  0  0  0  0
  153.2416  143.3520  157.8710 H   0  0  0  0  0  0  0  0  0  0  0  0
  151.9721  145.1678  159.9274 H   0  0  0  0  0  0  0  0  0  0  0  0
  151.8655  145.2863  158.1661 H   0  0  0  0  0  0  0  0  0  0  0  0
  149.7916  144.1830  159.4690 H   0  0  0  0  0  0  0  0  0  0  0  0
  150.4270  143.2951  158.0759 H   0  0  0  0  0  0  0  0  0  0  0  0
  153.3118  133.5487  157.8205 H   0  0  0  0  0  0  0  0  0  0  0  0
  152.3940  131.2682  157.5841 H   0  0  0  0  0  0  0  0  0  0  0  0
  156.0815  129.9365  155.7873 H   0  0  0  0  0  0  0  0  0  0  0  0
  157.0318  132.2007  156.0104 H   0  0  0  0  0  0  0  0  0  0  0  0
  157.9254  134.1954  157.0657 H   0  0  0  0  0  0  0  0  0  0  0  0
  157.2189  134.5781  155.4843 H   0  0  0  0  0  0  0  0  0  0  0  0
  158.0467  136.4242  157.5957 H   0  0  0  0  0  0  0  0  0  0  0  0
  159.3960  136.7917  154.8427 H   0  0  0  0  0  0  0  0  0  0  0  0
  158.5418  138.6475  153.0067 H   0  0  0  0  0  0  0  0  0  0  0  0
  155.9865  139.2696  153.8242 H   0  0  0  0  0  0  0  0  0  0  0  0
  1  2  2  0  0  0  0
  2  3  1  0  0  0  0
  2 18  1  0  0  0  0
  3  4  1  0  0  0  0
  3 35  1  0  0  0  0
  3 36  1  0  0  0  0
  4 16  1  0  0  0  0
  4  5  1  0  0  0  0
  5  6  2  0  0  0  0
  5  7  1  0  0  0  0
  7  8  1  0  0  0  0
  7  9  2  0  0  0  0
  9 10  1  0  0  0  0
  9 37  1  0  0  0  0
 10 11  1  0  0  0  0
 10 16  1  0  0  0  0
 11 15  1  0  0  0  0
 11 12  1  0  0  0  0
 11 38  1  0  0  0  0
 12 13  1  0  0  0  0
 12 39  1  0  0  0  0
 12 40  1  0  0  0  0
 13 14  1  0  0  0  0
 13 41  1  0  0  0  0
 13 42  1  0  0  0  0
 14 15  1  0  0  0  0
 14 43  1  0  0  0  0
 14 44  1  0  0  0  0
 16 17  2  0  0  0  0
 18 29  1  0  0  0  0
 18 19  1  0  0  0  0
 19 20  2  0  0  0  0
 20 21  1  0  0  0  0
 20 28  1  0  0  0  0
 21 27  1  0  0  0  0
 21 22  2  0  0  0  0
 22 23  1  0  0  0  0
 22 45  1  0  0  0  0
 23 24  2  0  0  0  0
 23 46  1  0  0  0  0
 24 25  1  0  0  0  0
 24 26  1  0  0  0  0
 26 27  2  0  0  0  0
 26 47  1  0  0  0  0
 27 48  1  0  0  0  0
 28 29  1  0  0  0  0
 28 49  1  0  0  0  0
 28 50  1  0  0  0  0
 29 30  1  0  0  0  0
 29 51  1  0  0  0  0
 30 34  1  0  0  0  0
 30 31  2  0  0  0  0
 31 32  1  0  0  0  0
 31 52  1  0  0  0  0
 32 33  2  0  0  0  0
 32 53  1  0  0  0  0
 33 34  1  0  0  0  0
 33 54  1  0  0  0  0
M  END
> <s_m_source_file>
AV-unprocessed.smi

> <i_m_source_file_index>
136

> <i_lp_mmshare_version>
43012

> <i_f3d_flags>
0

> <s_epik_input>
bzFbY0hdW2NIXVtjSF1jMVtDQEBIXTJbQ0gyXUMoYzNbY0hdW2NIXWMoQ2wpW2NIXVtjSF0zKT1OTjJDKD1PKVtDSDJdbjRjKD1PKWMoRilbY0hdbihjND1PKVtDQEBIXTVbQ0gyXVtDSDJdW0NIMl1PNQ==

> <s_epik_cmdline>
J2VwaWtfcHl0aG9uJywgJy1waCcsICc3LjAnLCAnLXRuJywgJzgnLCAnLW1hJywgJzIwMCcsICctbWV0YWxfYmluZGluZycsICctaW1hZScsICc8aW5maWxlLm1hZT4nLCAnLW9tYWUnLCAnPG91dGZpbGUubWFlPic=

> <r_lp_tautomer_probability>
1

> <r_epik_Ionization_Penalty>
2.55467e-08

> <r_epik_Ionization_Penalty_Charging>
4.85705e-09

> <r_epik_Ionization_Penalty_Neutral>
2.06897e-08

> <r_epik_State_Penalty>
-0

> <r_epik_Charging_Adjusted_Penalty>
4.85705e-09

> <i_epik_Tot_Q>
0

> <i_epik_Tot_abs_Q>
0

> <r_epik_Metal_State_Penalty>
-0

> <b_epik_Metal_Only>
0

> <s_epik_Chemistry_Notes>
This compound has an imine and may undergo hydrolysis. This compound contains an acetal/aminal-like group ( X-CH(R)-Y where X, Y are N, S, or O) that may be acid/base labile, releasing an aldehyde.

> <s_lp_Force_Field>
OPLS_2005

> <r_lp_Energy>
41.711

> <b_lp_Chiralities_Consistent>
1

> <s_lp_Variant>
AV-unprocessed.smi:136-2

> <Gold.Version>
5.8.1

> <Gold.Id.Protein>
6NUR|6NUR_protein|mol2

> <Gold.PLP.Fitness>
50.0580

> <Gold.PLP.PLP>
-47.7049

> <Gold.PLP.part.hbond>
-3.0000

> <Gold.PLP.part.metal>
0.0000

> <Gold.PLP.part.buried>
-5.3683

> <Gold.PLP.part.nonpolar>
-39.9406

> <Gold.PLP.part.repulsive>
0.0995

> <Gold.PLP.ligand.clash>
0.0000

> <Gold.PLP.ligand.torsion>
0.3592

> <Gold.PLP.Chemscore.Hbond>
1.0000

> <Gold.PLP.Chemscore.CHOScore>
0.0000

> <Gold.PLP.Chemscore.Metal>
0.0000

> <Gold.Chemscore.Hbonds>
donor molecule, donor type, donor heavy atom, donor atom, acceptor molecule, acceptor atom, score
      P1  H  7997  8009       L1     1  1.00

> <Gold.PLP.Chemscore.Internal.Correction>
0.0714

> <Gold.Rescore>
     Score         DG    S(hbond)    S(metal)    S(lipo)     H(rot)  DE(clash)    DE(int)     intcor
     14.65     -17.86       0.89        0.00     119.86       1.81       0.10       3.11       ----

> <Gold.Chemscore.Fitness>
14.6537

> <Gold.Chemscore.DG>
-17.8572

> <Gold.Chemscore.ZeroCoef>
-5.4800

> <Gold.Chemscore.Hbond>
0.8912

> <Gold.Chemscore.Metal>
0.0000

> <Gold.Chemscore.Lipo>
119.8551

> <Gold.Chemscore.Internal_Hbond>
0.0000

> <Gold.Chemscore.DEClash>
0.0964

> <Gold.Chemscore.DEInternal>
3.1071

> <Gold.Chemscore.Rot>
1.8056

> <Gold.Chemscore.Internal.Correction>
   9.000000E+99

> <Gold.Chemscore.Hbonds>
donor molecule, donor type, donor heavy atom, donor atom, acceptor molecule, acceptor atom, score
      P1  H  7997  8009       L1     1  0.73

> <Gold.Chemscore.Hbond.Weighted>
-2.9765

> <Gold.Chemscore.Metal.Weighted>
-0.0000

> <Gold.Chemscore.Lipo.Weighted>
-14.0230

> <Gold.Chemscore.Internal_Hbond.Weighted>
0.0000

> <Gold.Chemscore.DEClash.Weighted>
0.0964

> <Gold.Chemscore.DEInternal.Weighted>
3.1071

> <Gold.Chemscore.Rot.Weighted>
4.6223

> <Gold.Chemscore.Internal.Correction.Weighted>
   9.000000E+99

> <Gold.Protein.RotatedTorsions>
[ 6907 6896 6895 6894 ] final -146.93 input  -60.11 | X-H torsion
[ 7974 7965 7964 7962 ] final  -55.09 input  175.53 | X-H torsion
[ 8008 7997 7996 7995 ] final   87.78 input   59.86 | X-H torsion
[ 10167 10162 10161 10158 ] final   72.93 input  -65.29 | X-H torsion
[ 10718 10713 10712 10709 ] final -131.77 input   66.30 | X-H torsion
[ 10763 10752 10751 10750 ] final   -5.21 input  -60.55 | X-H torsion
[ 11005 11000 10999 10996 ] final  -48.23 input  -57.11 | X-H torsion

> <Gold.Protein.ActiveResidues>
 VAL166  LYS551  ARG553  GLY616  TRP617  ASP618  TYR619  PRO620  LYS621  CYS622 
 ASP623  PHE694  ASN695  SER759  ASP760  ASP761  ALA762  ILE779  LEU786  VAL792 
 PHE793  MET794  SER795  GLU796  ALA797  LYS798  CYS799  TRP800  GLU811  SER814 

> <Gold.Protein.RotatedAtoms>
  151.1485  133.4923  159.2595 H   0  0  0  0  0  0  0  0  0  0  0  0  # atno 6907 bound_to 6896
  151.1579  135.0259  159.8707 H   0  0  0  0  0  0  0  0  0  0  0  0  # atno 6908 bound_to 6896
  152.5463  134.1362  159.8513 H   0  0  0  0  0  0  0  0  0  0  0  0  # atno 6909 bound_to 6896
  145.8782  140.8165  142.9853 H   0  0  0  0  0  0  0  0  0  0  0  0  # atno 7974 bound_to 7965
  155.9796  140.3378  155.6651 H   0  0  0  0  0  0  0  0  0  0  0  0  # atno 8008 bound_to 7997
  155.6566  140.0711  157.2587 H   0  0  0  0  0  0  0  0  0  0  0  0  # atno 8009 bound_to 7997
  154.4188  140.1716  156.1719 H   0  0  0  0  0  0  0  0  0  0  0  0  # atno 8010 bound_to 7997
  140.0300  144.5473  150.7515 H   0  0  0  0  0  0  0  0  0  0  0  0  # atno 10167 bound_to 10162
  156.2278  130.7019  151.0826 H   0  0  0  0  0  0  0  0  0  0  0  0  # atno 10718 bound_to 10713
  153.3955  135.7003  153.6464 H   0  0  0  0  0  0  0  0  0  0  0  0  # atno 10763 bound_to 10752
  153.5019  135.3650  155.2544 H   0  0  0  0  0  0  0  0  0  0  0  0  # atno 10764 bound_to 10752
  154.8706  135.4114  154.3279 H   0  0  0  0  0  0  0  0  0  0  0  0  # atno 10765 bound_to 10752
  141.0688  133.6685  156.3412 H   0  0  0  0  0  0  0  0  0  0  0  0  # atno 11005 bound_to 11000
  144.6726  140.1342  143.7441 LP  0  0  0  0  0  0  0  0  0  0  0  0  # atno 17320 bound_to 7965
  145.9056  139.2456  143.1468 LP  0  0  0  0  0  0  0  0  0  0  0  0  # atno 17321 bound_to 7965
  140.7306  143.2685  151.3965 LP  0  0  0  0  0  0  0  0  0  0  0  0  # atno 17342 bound_to 10162
  139.6083  144.1152  152.2272 LP  0  0  0  0  0  0  0  0  0  0  0  0  # atno 17343 bound_to 10162
  157.7119  131.0730  150.6470 LP  0  0  0  0  0  0  0  0  0  0  0  0  # atno 17370 bound_to 10713
  156.6536  130.4492  149.5711 LP  0  0  0  0  0  0  0  0  0  0  0  0  # atno 17371 bound_to 10713
  140.5716  134.5834  157.5459 LP  0  0  0  0  0  0  0  0  0  0  0  0  # atno 17394 bound_to 11000
  139.9503  134.7629  156.0464 LP  0  0  0  0  0  0  0  0  0  0  0  0  # atno 17395 bound_to 11000

$$$$
