#       Name:                AV-unprocessed.smi:3325
#       Creating user name   scv26
#       Creation time:       Fri Mar 27 19:13:15 2020


#       File generated by GOLD software.
#

@<TRIPOS>MOLECULE
AV-unprocessed.smi:3325
    48    49     1
SMALL
NO_CHARGES


@<TRIPOS>ATOM
      1 ****        -3.0531  -2.4346   3.7447 C.3            1 S1                 0.0000
      2 ****        -3.1612  -1.0530   3.0824 C.3            1 S1                 0.0000
      3 ****        -3.5358  -1.1291   1.5950 C.3            1 S1                 0.0000
      4 ****        -1.9263  -0.2331   3.2997 C.2            1 S1                 0.0000
      5 ****        -1.9731   0.9249   3.9482 N.2            1 S1                 0.0000
      6 ****        -0.6447   1.3718   3.9153 O.3            1 S1                 0.0000
      7 ****         0.0507   0.4128   3.2597 C.2            1 S1                 0.0000
      8 ****         1.5059   0.6253   3.0008 C.3            1 S1                 0.0000
      9 ****         1.7757   1.4446   1.7298 C.3            1 S1                 0.0000
     10 ****         1.2906   0.7494   0.5198 N.4            1 S1                 1.0000
     11 ****         1.4970   1.5024  -0.7331 C.3            1 S1                 0.0000
     12 ****         0.9856   0.7190  -1.9561 C.3            1 S1                 0.0000
     13 ****         1.8188  -0.5551  -2.2188 C.3            1 S1                 0.0000
     14 ****         1.3124  -1.3220  -3.4512 C.3            1 S1                 0.0000
     15 ****         1.2930  -0.4245  -4.6974 C.3            1 S1                 0.0000
     16 ****         0.4671   0.8462  -4.4495 C.3            1 S1                 0.0000
     17 ****         0.9765   1.6094  -3.2157 C.3            1 S1                 0.0000
     18 ****        -0.6996  -0.5985   2.8308 N.2            1 S1                 0.0000
     19 ****        -2.8572  -2.3435   4.8136 H              1 S1                 0.0000
     20 ****        -2.2470  -3.0239   3.3068 H              1 S1                 0.0000
     21 ****        -3.9780  -2.9993   3.6260 H              1 S1                 0.0000
     22 ****        -3.9843  -0.5382   3.5812 H              1 S1                 0.0000
     23 ****        -3.6805  -0.1328   1.1760 H              1 S1                 0.0000
     24 ****        -4.4631  -1.6845   1.4518 H              1 S1                 0.0000
     25 ****        -2.7585  -1.6260   1.0137 H              1 S1                 0.0000
     26 ****         1.9386   1.1324   3.8639 H              1 S1                 0.0000
     27 ****         1.9975  -0.3462   2.9354 H              1 S1                 0.0000
     28 ****         1.2944   2.4206   1.8072 H              1 S1                 0.0000
     29 ****         2.8470   1.6222   1.6295 H              1 S1                 0.0000
     30 ****         1.7704  -0.1364   0.4435 H              1 S1                 0.0000
     31 ****         0.9647   2.4514  -0.6530 H              1 S1                 0.0000
     32 ****         2.5553   1.7397  -0.8502 H              1 S1                 0.0000
     33 ****        -0.0451   0.4192  -1.7581 H              1 S1                 0.0000
     34 ****         2.8665  -0.2875  -2.3651 H              1 S1                 0.0000
     35 ****         1.7887  -1.2150  -1.3514 H              1 S1                 0.0000
     36 ****         1.9432  -2.1930  -3.6318 H              1 S1                 0.0000
     37 ****         0.3085  -1.7026  -3.2586 H              1 S1                 0.0000
     38 ****         2.3138  -0.1502  -4.9672 H              1 S1                 0.0000
     39 ****         0.8853  -0.9741  -5.5463 H              1 S1                 0.0000
     40 ****         0.5054   1.4909  -5.3282 H              1 S1                 0.0000
     41 ****        -0.5810   0.5794  -4.3083 H              1 S1                 0.0000
     42 ****         0.3498   2.4862  -3.0497 H              1 S1                 0.0000
     43 ****         1.9826   1.9832  -3.4109 H              1 S1                 0.0000
     44 ****         0.3018   0.5706   0.6261 H              1 S1                 0.0000
     45 ****        -2.7666   1.3716   4.3614 LP             1 S1                 0.0000
     46 ****        -0.2919   1.4843   4.8442 LP             1 S1                 0.0000
     47 ****        -0.5821   2.2425   3.4274 LP             1 S1                 0.0000
     48 ****        -0.4352  -1.4078   2.3063 LP             1 S1                 0.0000
@<TRIPOS>BOND
    1    1    2 1     
    2    1   19 1     
    3    1   20 1     
    4    1   21 1     
    5    2    3 1     
    6    2    4 1     
    7    2   22 1     
    8    3   23 1     
    9    3   24 1     
   10    3   25 1     
   11    4   18 1     
   12    4    5 2     
   13    5    6 1     
   14    6    7 1     
   15    7    8 1     
   16    7   18 2     
   17    8    9 1     
   18    8   26 1     
   19    8   27 1     
   20    9   10 1     
   21    9   28 1     
   22    9   29 1     
   23   10   11 1     
   24   10   30 1     
   25   10   44 1     
   26   11   12 1     
   27   11   31 1     
   28   11   32 1     
   29   12   17 1     
   30   12   13 1     
   31   12   33 1     
   32   13   14 1     
   33   13   34 1     
   34   13   35 1     
   35   14   15 1     
   36   14   36 1     
   37   14   37 1     
   38   15   16 1     
   39   15   38 1     
   40   15   39 1     
   41   16   17 1     
   42   16   40 1     
   43   16   41 1     
   44   17   42 1     
   45   17   43 1     
   46    5   45 1     
   47    6   46 1     
   48    6   47 1     
   49   18   48 1     
@<TRIPOS>SUBSTRUCTURE
      1 S1             1
@<TRIPOS>SET
LONE_PAIRS      STATIC     ATOMS    <user>   **** ""
4 45 46 47 48
DONOR_HYDROGENS      STATIC     ATOMS    <user>   **** ""
2 30 44
ATOM$BLUE        STATIC     ATOMS    COLORGROUP SYSTEM
4 45 46 47 48
ATOM$RED        STATIC     ATOMS    COLORGROUP SYSTEM
2 30 44
