AV-unprocessed.smi:580|AV-procd|sdf|2989|dock8
  -GOLD-   2262023493D 1   1.00000     0.00000
 Structure written by MMmdl.
 36 37  0  0  0  0  0  0  0  0  1 V2000
  147.0498  139.0891  152.7655 C   0  0  0  0  0  0  0  0  0  0  0  0
  148.0662  139.7915  153.5990 C   0  0  0  0  0  0  0  0  0  0  0  0
  148.0104  140.8986  154.3984 C   0  0  0  0  0  0  0  0  0  0  0  0
  149.3383  141.0046  154.8908 C   0  0  0  0  0  0  0  0  0  0  0  0
  149.7052  142.0494  155.7772 N   0  0  0  0  0  0  0  0  0  0  0  0
  150.6492  142.0171  156.7333 C   0  0  0  0  0  0  0  0  0  0  0  0
  151.3592  141.0458  156.9961 O   0  0  0  0  0  0  0  0  0  0  0  0
  150.7240  143.1872  157.3847 N   0  0  0  0  0  0  0  0  0  0  0  0
  151.6320  143.4775  158.4906 C   0  0  2  0  0  0  0  0  0  0  0  0
  151.7440  142.2626  159.4328 C   0  0  0  0  0  0  0  0  0  0  0  0
  152.6386  142.5706  160.6443 C   0  0  0  0  0  0  0  0  0  0  0  0
  152.1470  143.8109  161.4147 C   0  0  1  0  0  0  0  0  0  0  0  0
  153.0504  144.1185  162.6174 C   0  0  0  0  0  0  0  0  0  0  0  0
  152.0368  145.0215  160.4678 C   0  0  0  0  0  0  0  0  0  0  0  0
  151.1367  144.7155  159.2597 C   0  0  0  0  0  0  0  0  0  0  0  0
  150.1332  140.0501  154.4319 N   0  0  0  0  0  0  0  0  0  0  0  0
  149.3221  139.2679  153.6013 O   0  0  0  0  0  0  0  0  0  0  0  0
  146.0451  139.4444  152.9945 H   0  0  0  0  0  0  0  0  0  0  0  0
  147.0766  138.0142  152.9455 H   0  0  0  0  0  0  0  0  0  0  0  0
  147.2360  139.2598  151.7050 H   0  0  0  0  0  0  0  0  0  0  0  0
  147.1556  141.5276  154.5978 H   0  0  0  0  0  0  0  0  0  0  0  0
  149.1892  142.9111  155.6769 H   0  0  0  0  0  0  0  0  0  0  0  0
  150.1023  143.9305  157.1017 H   0  0  0  0  0  0  0  0  0  0  0  0
  152.6216  143.7046  158.0887 H   0  0  0  0  0  0  0  0  0  0  0  0
  150.7520  141.9717  159.7810 H   0  0  0  0  0  0  0  0  0  0  0  0
  152.1454  141.4035  158.8939 H   0  0  0  0  0  0  0  0  0  0  0  0
  152.6628  141.7051  161.3073 H   0  0  0  0  0  0  0  0  0  0  0  0
  153.6636  142.7280  160.3058 H   0  0  0  0  0  0  0  0  0  0  0  0
  151.1497  143.5940  161.8001 H   0  0  0  0  0  0  0  0  0  0  0  0
  154.0695  144.3428  162.3007 H   0  0  0  0  0  0  0  0  0  0  0  0
  153.0935  143.2714  163.3025 H   0  0  0  0  0  0  0  0  0  0  0  0
  152.6791  144.9771  163.1779 H   0  0  0  0  0  0  0  0  0  0  0  0
  151.6420  145.8830  161.0077 H   0  0  0  0  0  0  0  0  0  0  0  0
  153.0294  145.3067  160.1165 H   0  0  0  0  0  0  0  0  0  0  0  0
  151.1080  145.5807  158.5961 H   0  0  0  0  0  0  0  0  0  0  0  0
  150.1134  144.5551  159.6033 H   0  0  0  0  0  0  0  0  0  0  0  0
  1  2  1  0  0  0  0
  1 18  1  0  0  0  0
  1 19  1  0  0  0  0
  1 20  1  0  0  0  0
  2 17  1  0  0  0  0
  2  3  2  0  0  0  0
  3  4  1  0  0  0  0
  3 21  1  0  0  0  0
  4  5  1  0  0  0  0
  4 16  2  0  0  0  0
  5  6  1  0  0  0  0
  5 22  1  0  0  0  0
  6  7  2  0  0  0  0
  6  8  1  0  0  0  0
  8  9  1  0  0  0  0
  8 23  1  0  0  0  0
  9 15  1  0  0  0  0
  9 10  1  0  0  0  0
  9 24  1  0  0  0  0
 10 11  1  0  0  0  0
 10 25  1  0  0  0  0
 10 26  1  0  0  0  0
 11 12  1  0  0  0  0
 11 27  1  0  0  0  0
 11 28  1  0  0  0  0
 12 13  1  0  0  0  0
 12 14  1  0  0  0  0
 12 29  1  0  0  0  0
 13 30  1  0  0  0  0
 13 31  1  0  0  0  0
 13 32  1  0  0  0  0
 14 15  1  0  0  0  0
 14 33  1  0  0  0  0
 14 34  1  0  0  0  0
 15 35  1  0  0  0  0
 15 36  1  0  0  0  0
 16 17  1  0  0  0  0
M  END
> <s_m_source_file>
AV-unprocessed.smi

> <i_m_source_file_index>
580

> <i_lp_mmshare_version>
43012

> <i_f3d_flags>
0

> <s_epik_input>
W0NIM11jMVtjSF1jKG5vMSlbTkhdQyg9TylbTkhdW0NAQEhdMltDSDJdW0NIMl1bQ0BASF0oW0NIM10pW0NIMl1bQ0gyXTI=

> <s_epik_cmdline>
J2VwaWtfcHl0aG9uJywgJy1waCcsICc3LjAnLCAnLXRuJywgJzgnLCAnLW1hJywgJzIwMCcsICctbWV0YWxfYmluZGluZycsICctaW1hZScsICc8aW5maWxlLm1hZT4nLCAnLW9tYWUnLCAnPG91dGZpbGUubWFlPic=

> <r_lp_tautomer_probability>
1

> <r_epik_Ionization_Penalty>
2.357e-05

> <r_epik_Ionization_Penalty_Charging>
0

> <r_epik_Ionization_Penalty_Neutral>
2.357e-05

> <r_epik_State_Penalty>
-0

> <r_epik_Charging_Adjusted_Penalty>
0

> <i_epik_Tot_Q>
0

> <i_epik_Tot_abs_Q>
0

> <r_epik_Metal_State_Penalty>
-0

> <b_epik_Metal_Only>
0

> <s_lp_Force_Field>
OPLS_2005

> <r_lp_Energy>
6.68451

> <b_lp_Chiralities_Consistent>
1

> <s_lp_Variant>
AV-unprocessed.smi:580-1

> <Gold.Version>
5.8.1

> <Gold.Id.Protein>
6NUR|6NUR_protein|mol2

> <Gold.PLP.Fitness>
42.9605

> <Gold.PLP.PLP>
-34.8893

> <Gold.PLP.part.hbond>
-3.0000

> <Gold.PLP.part.metal>
0.0000

> <Gold.PLP.part.buried>
-5.2552

> <Gold.PLP.part.nonpolar>
-30.0280

> <Gold.PLP.part.repulsive>
3.9727

> <Gold.PLP.ligand.clash>
0.0000

> <Gold.PLP.ligand.torsion>
0.4538

> <Gold.PLP.Chemscore.Hbond>
2.9920

> <Gold.PLP.Chemscore.CHOScore>
0.0000

> <Gold.PLP.Chemscore.Metal>
0.0000

> <Gold.Chemscore.Hbonds>
donor molecule, donor type, donor heavy atom, donor atom, acceptor molecule, acceptor atom, score
      L1  H     5    22       P1  8028  1.00
      L1  H     8    23       P1  8028  0.99
      P1  H  7989  7998       L1    16  1.00

> <Gold.PLP.Chemscore.Internal.Correction>
0.0029

> <Gold.Rescore>
     Score         DG    S(hbond)    S(metal)    S(lipo)     H(rot)  DE(clash)    DE(int)     intcor
     18.12     -23.30       2.69        0.00      97.38       1.00       3.19       1.99       ----

> <Gold.Chemscore.Fitness>
18.1224

> <Gold.Chemscore.DG>
-23.2962

> <Gold.Chemscore.ZeroCoef>
-5.4800

> <Gold.Chemscore.Hbond>
2.6894

> <Gold.Chemscore.Metal>
0.0000

> <Gold.Chemscore.Lipo>
97.3822

> <Gold.Chemscore.Internal_Hbond>
0.0000

> <Gold.Chemscore.DEClash>
3.1873

> <Gold.Chemscore.DEInternal>
1.9865

> <Gold.Chemscore.Rot>
1.0000

> <Gold.Chemscore.Internal.Correction>
   9.000000E+99

> <Gold.Chemscore.Hbonds>
donor molecule, donor type, donor heavy atom, donor atom, acceptor molecule, acceptor atom, score
      L1  H     5    22       P1  8028  0.99
      L1  H     8    23       P1  8028  0.82
      P1  H  7989  7998       L1    16  0.58

> <Gold.Chemscore.Hbond.Weighted>
-8.9825

> <Gold.Chemscore.Metal.Weighted>
-0.0000

> <Gold.Chemscore.Lipo.Weighted>
-11.3937

> <Gold.Chemscore.Internal_Hbond.Weighted>
0.0000

> <Gold.Chemscore.DEClash.Weighted>
3.1873

> <Gold.Chemscore.DEInternal.Weighted>
1.9865

> <Gold.Chemscore.Rot.Weighted>
2.5600

> <Gold.Chemscore.Internal.Correction.Weighted>
   9.000000E+99

> <Gold.Protein.RotatedTorsions>
[ 6907 6896 6895 6894 ] final  165.76 input  -60.11 | X-H torsion
[ 7974 7965 7964 7962 ] final  144.61 input  175.53 | X-H torsion
[ 8008 7997 7996 7995 ] final  -41.41 input   59.86 | X-H torsion
[ 10167 10162 10161 10158 ] final -175.21 input  -65.29 | X-H torsion
[ 10718 10713 10712 10709 ] final -131.75 input   66.30 | X-H torsion
[ 10763 10752 10751 10750 ] final   70.03 input  -60.55 | X-H torsion
[ 11005 11000 10999 10996 ] final   68.37 input  -57.11 | X-H torsion

> <Gold.Protein.ActiveResidues>
 VAL166  LYS551  ARG553  GLY616  TRP617  ASP618  TYR619  PRO620  LYS621  CYS622 
 ASP623  PHE694  ASN695  SER759  ASP760  ASP761  ALA762  ILE779  LEU786  VAL792 
 PHE793  MET794  SER795  GLU796  ALA797  LYS798  CYS799  TRP800  GLU811  SER814 

> <Gold.Protein.RotatedAtoms>
  151.8895  133.3513  159.3793 H   0  0  0  0  0  0  0  0  0  0  0  0  # atno 6907 bound_to 6896
  150.7107  134.4938  159.5538 H   0  0  0  0  0  0  0  0  0  0  0  0  # atno 6908 bound_to 6896
  152.2505  134.8137  160.0497 H   0  0  0  0  0  0  0  0  0  0  0  0  # atno 6909 bound_to 6896
  144.8821  139.5683  143.5838 H   0  0  0  0  0  0  0  0  0  0  0  0  # atno 7974 bound_to 7965
  154.4004  140.1500  156.3187 H   0  0  0  0  0  0  0  0  0  0  0  0  # atno 8008 bound_to 7997
  155.8549  140.3456  155.5696 H   0  0  0  0  0  0  0  0  0  0  0  0  # atno 8009 bound_to 7997
  155.7943  140.0861  157.1982 H   0  0  0  0  0  0  0  0  0  0  0  0  # atno 8010 bound_to 7997
  139.5593  144.1910  152.1212 H   0  0  0  0  0  0  0  0  0  0  0  0  # atno 10167 bound_to 10162
  156.2276  130.7017  151.0823 H   0  0  0  0  0  0  0  0  0  0  0  0  # atno 10718 bound_to 10713
  153.0319  135.5189  154.7378 H   0  0  0  0  0  0  0  0  0  0  0  0  # atno 10763 bound_to 10752
  154.6387  135.2909  155.0132 H   0  0  0  0  0  0  0  0  0  0  0  0  # atno 10764 bound_to 10752
  154.1058  135.6629  153.4928 H   0  0  0  0  0  0  0  0  0  0  0  0  # atno 10765 bound_to 10752
  139.9715  134.6892  156.0437 H   0  0  0  0  0  0  0  0  0  0  0  0  # atno 11005 bound_to 11000
  146.3001  139.7400  142.9097 LP  0  0  0  0  0  0  0  0  0  0  0  0  # atno 17320 bound_to 7965
  145.3935  141.0375  143.3111 LP  0  0  0  0  0  0  0  0  0  0  0  0  # atno 17321 bound_to 7965
  140.1420  144.5193  150.6738 LP  0  0  0  0  0  0  0  0  0  0  0  0  # atno 17342 bound_to 10162
  140.6870  143.2355  151.5232 LP  0  0  0  0  0  0  0  0  0  0  0  0  # atno 17343 bound_to 10162
  157.7118  131.0730  150.6474 LP  0  0  0  0  0  0  0  0  0  0  0  0  # atno 17370 bound_to 10713
  156.6540  130.4493  149.5709 LP  0  0  0  0  0  0  0  0  0  0  0  0  # atno 17371 bound_to 10713
  141.1395  133.6568  156.3688 LP  0  0  0  0  0  0  0  0  0  0  0  0  # atno 17394 bound_to 11000
  140.5283  134.6238  157.5341 LP  0  0  0  0  0  0  0  0  0  0  0  0  # atno 17395 bound_to 11000

$$$$
