#       Name:                AV-unprocessed.smi:2706
#       Creating user name   scv26
#       Creation time:       Fri Mar 27 14:49:06 2020


#       File generated by GOLD software.
#

@<TRIPOS>MOLECULE
AV-unprocessed.smi:2706
    46    49     1
SMALL
NO_CHARGES


@<TRIPOS>ATOM
      1 ****        -5.5901   0.4020  -4.2091 C.3            1 S1                 0.0000
      2 ****        -4.6594   0.6385  -3.1130 N.pl3          1 S1                 0.0000
      3 ****        -5.1161   1.3028  -1.8971 C.3            1 S1                 0.0000
      4 ****        -3.3678   0.0720  -3.1594 C.ar           1 S1                 0.0000
      5 ****        -2.8722  -0.6372  -4.2791 C.ar           1 S1                 0.0000
      6 ****        -1.5702  -1.1718  -4.2428 C.ar           1 S1                 0.0000
      7 ****        -0.7765  -0.9941  -3.0929 C.ar           1 S1                 0.0000
      8 ****        -1.3020  -0.2788  -1.9879 C.ar           1 S1                 0.0000
      9 ****        -0.6127  -0.0262  -0.7686 N.am           1 S1                 0.0000
     10 ****         0.6203  -0.4030  -0.3841 C.2            1 S1                 0.0000
     11 ****         1.4091  -1.0652  -1.0573 O.2            1 S1                 0.0000
     12 ****         0.8946   0.0386   0.8517 N.am           1 S1                 0.0000
     13 ****         2.1140  -0.1815   1.5603 C.3            1 S1                 0.0000
     14 ****         2.0122  -0.3791   3.0587 C.3            1 S1                 0.0000
     15 ****         3.1167  -0.8531   4.0006 C.3            1 S1                 0.0000
     16 ****         4.3540  -1.3364   3.2160 C.3            1 S1                 0.0000
     17 ****         4.9227  -0.0181   2.6457 C.3            1 S1                 0.0000
     18 ****         3.9303   1.0330   3.1845 C.3            1 S1                 0.0000
     19 ****         3.6340   0.4645   4.5688 C.3            1 S1                 0.0000
     20 ****         2.5715   0.9173   2.4975 C.3            1 S1                 0.0000
     21 ****        -2.5593   0.2132  -2.0803 N.pl3          1 S1                 1.0000
     22 ****        -5.7487  -0.6674  -4.3529 H              1 S1                 0.0000
     23 ****        -5.2067   0.8267  -5.1375 H              1 S1                 0.0000
     24 ****        -6.5602   0.8585  -4.0113 H              1 S1                 0.0000
     25 ****        -5.1415   0.5999  -1.0638 H              1 S1                 0.0000
     26 ****        -6.1196   1.7106  -2.0213 H              1 S1                 0.0000
     27 ****        -4.4533   2.1287  -1.6370 H              1 S1                 0.0000
     28 ****        -3.4694  -0.7794  -5.1673 H              1 S1                 0.0000
     29 ****        -1.1824  -1.7146  -5.0924 H              1 S1                 0.0000
     30 ****         0.2165  -1.4140  -3.0932 H              1 S1                 0.0000
     31 ****        -1.1314   0.5123  -0.0906 H              1 S1                 0.0000
     32 ****         0.1877   0.5749   1.3333 H              1 S1                 0.0000
     33 ****         2.8812  -0.7400   1.0296 H              1 S1                 0.0000
     34 ****         1.0255  -0.3079   3.5137 H              1 S1                 0.0000
     35 ****         2.7511  -1.5635   4.7424 H              1 S1                 0.0000
     36 ****         5.0767  -1.8038   3.8864 H              1 S1                 0.0000
     37 ****         4.1034  -2.0655   2.4450 H              1 S1                 0.0000
     38 ****         5.9254   0.1634   3.0352 H              1 S1                 0.0000
     39 ****         4.9891  -0.0152   1.5574 H              1 S1                 0.0000
     40 ****         4.3111   2.0547   3.1785 H              1 S1                 0.0000
     41 ****         2.8735   1.0278   5.1129 H              1 S1                 0.0000
     42 ****         4.5191   0.3554   5.1989 H              1 S1                 0.0000
     43 ****         1.9316   1.7916   2.6049 H              1 S1                 0.0000
     44 ****        -2.9313   0.7276  -1.2823 H              1 S1                 0.0000
     45 ****         1.1510  -1.3695  -1.9742 LP             1 S1                 0.0000
     46 ****         2.3083  -1.2990  -0.6875 LP             1 S1                 0.0000
@<TRIPOS>BOND
    1    1    2 1     
    2    1   22 1     
    3    1   23 1     
    4    1   24 1     
    5    2    3 1     
    6    2    4 1     
    7    3   25 1     
    8    3   26 1     
    9    3   27 1     
   10    4   21 ar    
   11    4    5 ar    
   12    5    6 ar    
   13    5   28 1     
   14    6    7 ar    
   15    6   29 1     
   16    7    8 ar    
   17    7   30 1     
   18    8    9 1     
   19    8   21 ar    
   20    9   10 am    
   21    9   31 1     
   22   10   11 2     
   23   10   12 am    
   24   12   13 1     
   25   12   32 1     
   26   13   20 1     
   27   13   14 1     
   28   13   33 1     
   29   14   20 1     
   30   14   15 1     
   31   14   34 1     
   32   15   19 1     
   33   15   16 1     
   34   15   35 1     
   35   16   17 1     
   36   16   36 1     
   37   16   37 1     
   38   17   18 1     
   39   17   38 1     
   40   17   39 1     
   41   18   19 1     
   42   18   20 1     
   43   18   40 1     
   44   19   41 1     
   45   19   42 1     
   46   20   43 1     
   47   21   44 1     
   48   11   45 1     
   49   11   46 1     
@<TRIPOS>SUBSTRUCTURE
      1 S1             1
@<TRIPOS>SET
LONE_PAIRS      STATIC     ATOMS    <user>   **** ""
2 45 46
DONOR_HYDROGENS      STATIC     ATOMS    <user>   **** ""
3 31 32 44
ATOM$BLUE        STATIC     ATOMS    COLORGROUP SYSTEM
2 45 46
ATOM$RED        STATIC     ATOMS    COLORGROUP SYSTEM
3 31 32 44
