AV-unprocessed.smi:2410|AV-procd|sdf|9529|dock1
  -GOLD-   2272013163D 1   1.00000     0.00000
 Structure written by MMmdl.
 47 49  0  0  0  0  0  0  0  0  2 V2000
  151.9894  145.2647  160.7261 C   0  0  0  0  0  0  0  0  0  0  0  0
  151.8473  144.0858  159.7786 C   0  0  0  0  0  0  0  0  0  0  0  0
  151.2362  144.3001  158.5221 C   0  0  0  0  0  0  0  0  0  0  0  0
  151.1216  143.2025  157.6771 C   0  0  0  0  0  0  0  0  0  0  0  0
  150.5778  143.0839  156.3958 N   0  3  0  0  0  0  0  0  0  0  0  0
  150.6965  141.7958  155.9687 C   0  0  0  0  0  0  0  0  0  0  0  0
  151.3072  141.0911  156.9595 N   0  0  0  0  0  0  0  0  0  0  0  0
  151.6778  139.6722  157.0280 C   0  0  0  0  0  0  0  0  0  0  0  0
  151.0350  138.8378  155.9032 C   0  0  1  0  0  0  0  0  0  0  0  0
  151.6173  139.2293  154.6751 O   0  0  0  0  0  0  0  0  0  0  0  0
  151.2618  137.3243  156.1086 C   0  0  0  0  0  0  0  0  0  0  0  0
  149.9960  136.5992  156.3054 N   0  0  0  0  0  0  0  0  0  0  0  0
  149.2208  136.3755  155.1563 C   0  0  0  0  0  0  0  0  0  0  0  0
  148.0924  135.7469  155.2106 N   0  0  0  0  0  0  0  0  0  0  0  0
  147.6149  135.2752  156.4371 C   0  0  0  0  0  0  0  0  0  0  0  0
  146.2836  134.5470  156.3858 C   0  0  0  0  0  0  0  0  0  0  0  0
  148.3130  135.4691  157.5893 C   0  0  0  0  0  0  0  0  0  0  0  0
  147.8419  134.9801  158.9531 C   0  0  0  0  0  0  0  0  0  0  0  0
  149.5966  136.1877  157.5439 C   0  0  0  0  0  0  0  0  0  0  0  0
  150.2735  136.4144  158.5495 O   0  0  0  0  0  0  0  0  0  0  0  0
  151.5908  141.9268  158.0442 C   0  0  0  0  0  0  0  0  0  0  0  0
  152.1937  141.6970  159.2783 C   0  0  0  0  0  0  0  0  0  0  0  0
  152.3184  142.8002  160.1524 C   0  0  0  0  0  0  0  0  0  0  0  0
  152.9726  142.5799  161.5057 C   0  0  0  0  0  0  0  0  0  0  0  0
  151.6051  146.1833  160.2814 H   0  0  0  0  0  0  0  0  0  0  0  0
  153.0370  145.4308  160.9780 H   0  0  0  0  0  0  0  0  0  0  0  0
  151.4352  145.0832  161.6474 H   0  0  0  0  0  0  0  0  0  0  0  0
  150.8741  145.2753  158.2313 H   0  0  0  0  0  0  0  0  0  0  0  0
  150.3640  141.4044  155.0181 H   0  0  0  0  0  0  0  0  0  0  0  0
  152.7660  139.6072  156.9844 H   0  0  0  0  0  0  0  0  0  0  0  0
  151.3845  139.2964  158.0092 H   0  0  0  0  0  0  0  0  0  0  0  0
  149.9682  139.0595  155.8625 H   0  0  0  0  0  0  0  0  0  0  0  0
  152.4629  138.8146  154.5968 H   0  0  0  0  0  0  0  0  0  0  0  0
  151.8599  136.9089  155.2946 H   0  0  0  0  0  0  0  0  0  0  0  0
  151.8778  137.1655  156.9956 H   0  0  0  0  0  0  0  0  0  0  0  0
  149.6339  136.7690  154.2260 H   0  0  0  0  0  0  0  0  0  0  0  0
  146.3960  133.5200  156.7341 H   0  0  0  0  0  0  0  0  0  0  0  0
  145.8874  134.5138  155.3700 H   0  0  0  0  0  0  0  0  0  0  0  0
  145.5479  135.0506  157.0137 H   0  0  0  0  0  0  0  0  0  0  0  0
  147.7297  135.8231  159.6361 H   0  0  0  0  0  0  0  0  0  0  0  0
  148.5736  134.2931  159.3796 H   0  0  0  0  0  0  0  0  0  0  0  0
  146.8865  134.4593  158.9161 H   0  0  0  0  0  0  0  0  0  0  0  0
  152.5511  140.7176  159.5621 H   0  0  0  0  0  0  0  0  0  0  0  0
  153.2435  141.5337  161.6517 H   0  0  0  0  0  0  0  0  0  0  0  0
  152.2953  142.8630  162.3115 H   0  0  0  0  0  0  0  0  0  0  0  0
  153.8818  143.1753  161.5907 H   0  0  0  0  0  0  0  0  0  0  0  0
  150.1554  143.8252  155.8513 H   0  0  0  0  0  0  0  0  0  0  0  0
  1  2  1  0  0  0  0
  1 25  1  0  0  0  0
  1 26  1  0  0  0  0
  1 27  1  0  0  0  0
  2 23  1  0  0  0  0
  2  3  2  0  0  0  0
  3  4  1  0  0  0  0
  3 28  1  0  0  0  0
  4 21  2  0  0  0  0
  4  5  1  0  0  0  0
  5  6  2  0  0  0  0
  5 47  1  0  0  0  0
  6  7  1  0  0  0  0
  6 29  1  0  0  0  0
  7  8  1  0  0  0  0
  7 21  1  0  0  0  0
  8  9  1  0  0  0  0
  8 30  1  0  0  0  0
  8 31  1  0  0  0  0
  9 10  1  0  0  0  0
  9 11  1  0  0  0  0
  9 32  1  0  0  0  0
 10 33  1  0  0  0  0
 11 12  1  0  0  0  0
 11 34  1  0  0  0  0
 11 35  1  0  0  0  0
 12 19  1  0  0  0  0
 12 13  1  0  0  0  0
 13 14  2  0  0  0  0
 13 36  1  0  0  0  0
 14 15  1  0  0  0  0
 15 16  1  0  0  0  0
 15 17  2  0  0  0  0
 16 37  1  0  0  0  0
 16 38  1  0  0  0  0
 16 39  1  0  0  0  0
 17 18  1  0  0  0  0
 17 19  1  0  0  0  0
 18 40  1  0  0  0  0
 18 41  1  0  0  0  0
 18 42  1  0  0  0  0
 19 20  2  0  0  0  0
 21 22  1  0  0  0  0
 22 23  2  0  0  0  0
 22 43  1  0  0  0  0
 23 24  1  0  0  0  0
 24 44  1  0  0  0  0
 24 45  1  0  0  0  0
 24 46  1  0  0  0  0
M  CHG  1   5   1
M  END
> <s_m_source_file>
AV-unprocessed.smi

> <i_m_source_file_index>
2410

> <i_lp_mmshare_version>
43012

> <i_f3d_flags>
0

> <s_epik_input>
W0NIM11jKFtjSF0xKWMoW0NIM10pW2NIXWMoYzEyKW4oW2NIXW4yKVtDSDJdW0NASF0oW09IXSlbQ0gyXW4zW2NIXW5jKFtDSDNdKWMoW0NIM10pYzM9Tw==

> <s_epik_cmdline>
J2VwaWtfcHl0aG9uJywgJy1waCcsICc3LjAnLCAnLXRuJywgJzgnLCAnLW1hJywgJzIwMCcsICctbWV0YWxfYmluZGluZycsICctaW1hZScsICc8aW5maWxlLm1hZT4nLCAnLW9tYWUnLCAnPG91dGZpbGUubWFlPic=

> <r_lp_tautomer_probability>
1

> <r_epik_Ionization_Penalty>
1.03571

> <r_epik_Ionization_Penalty_Charging>
1.03568

> <r_epik_Ionization_Penalty_Neutral>
3.18232e-05

> <r_epik_State_Penalty>
1.08724

> <r_epik_Charging_Adjusted_Penalty>
2.12292

> <i_epik_Tot_Q>
1

> <i_epik_Tot_abs_Q>
1

> <r_epik_Metal_State_Penalty>
1.18374

> <b_epik_Metal_Only>
0

> <s_lp_Force_Field>
OPLS_2005

> <r_lp_Energy>
24.5117

> <b_lp_Chiralities_Consistent>
1

> <s_lp_Variant>
AV-unprocessed.smi:2410-4

> <Gold.Version>
5.8.1

> <Gold.Id.Protein>
6NUR|6NUR_protein|mol2

> <Gold.PLP.Fitness>
52.3935

> <Gold.PLP.PLP>
-39.6714

> <Gold.PLP.part.hbond>
-2.7712

> <Gold.PLP.part.metal>
0.0000

> <Gold.PLP.part.buried>
-6.7284

> <Gold.PLP.part.nonpolar>
-31.5614

> <Gold.PLP.part.repulsive>
0.1695

> <Gold.PLP.ligand.clash>
0.0000

> <Gold.PLP.ligand.torsion>
1.1313

> <Gold.PLP.Chemscore.Hbond>
3.9760

> <Gold.PLP.Chemscore.CHOScore>
1.0000

> <Gold.PLP.Chemscore.Metal>
0.0000

> <Gold.Chemscore.Hbonds>
donor molecule, donor type, donor heavy atom, donor atom, acceptor molecule, acceptor atom, score
      L1  H     5    47       P1  8028  1.86
      P1  H  6896  6909       L1    20  1.00
      P1  H  7989  7998       L1    10  1.00
      L1  C    13    36       P1  7948  0.98

> <Gold.PLP.Chemscore.Internal.Correction>
0.0567

> <Gold.Rescore>
     Score         DG    S(hbond)    S(metal)    S(lipo)     H(rot)  DE(clash)    DE(int)     intcor
     19.43     -20.70       2.70        0.00     105.61       2.41       0.21       1.07       ----

> <Gold.Chemscore.Fitness>
19.4292

> <Gold.Chemscore.DG>
-20.7010

> <Gold.Chemscore.ZeroCoef>
-5.4800

> <Gold.Chemscore.Hbond>
2.7013

> <Gold.Chemscore.Metal>
0.0000

> <Gold.Chemscore.Lipo>
105.6071

> <Gold.Chemscore.Internal_Hbond>
0.0000

> <Gold.Chemscore.DEClash>
0.2052

> <Gold.Chemscore.DEInternal>
1.0665

> <Gold.Chemscore.Rot>
2.4052

> <Gold.Chemscore.Internal.Correction>
   9.000000E+99

> <Gold.Chemscore.Hbonds>
donor molecule, donor type, donor heavy atom, donor atom, acceptor molecule, acceptor atom, score
      L1  H     5    47       P1  8028  0.87
      P1  H  6896  6909       L1    20  0.89
      P1  H  7989  7998       L1    10  0.57

> <Gold.Chemscore.Hbond.Weighted>
-9.0222

> <Gold.Chemscore.Metal.Weighted>
-0.0000

> <Gold.Chemscore.Lipo.Weighted>
-12.3560

> <Gold.Chemscore.Internal_Hbond.Weighted>
0.0000

> <Gold.Chemscore.DEClash.Weighted>
0.2052

> <Gold.Chemscore.DEInternal.Weighted>
1.0665

> <Gold.Chemscore.Rot.Weighted>
6.1573

> <Gold.Chemscore.Internal.Correction.Weighted>
   9.000000E+99

> <Gold.Protein.RotatedTorsions>
[ 6907 6896 6895 6894 ] final   70.63 input  -60.11 | X-H torsion
[ 7974 7965 7964 7962 ] final  -35.44 input  175.53 | X-H torsion
[ 8008 7997 7996 7995 ] final  177.03 input   59.86 | X-H torsion
[ 10167 10162 10161 10158 ] final -149.57 input  -65.29 | X-H torsion
[ 10718 10713 10712 10709 ] final  103.81 input   66.30 | X-H torsion
[ 10763 10752 10751 10750 ] final   96.08 input  -60.55 | X-H torsion
[ 11005 11000 10999 10996 ] final -133.43 input  -57.11 | X-H torsion

> <Gold.Protein.ActiveResidues>
 VAL166  LYS551  ARG553  GLY616  TRP617  ASP618  TYR619  PRO620  LYS621  CYS622 
 ASP623  PHE694  ASN695  SER759  ASP760  ASP761  ALA762  ILE779  LEU786  VAL792 
 PHE793  MET794  SER795  GLU796  ALA797  LYS798  CYS799  TRP800  GLU811  SER814 

> <Gold.Protein.RotatedAtoms>
  152.4761  134.4840  159.9674 H   0  0  0  0  0  0  0  0  0  0  0  0  # atno 6907 bound_to 6896
  151.4856  133.3530  159.2853 H   0  0  0  0  0  0  0  0  0  0  0  0  # atno 6908 bound_to 6896
  150.8800  134.8217  159.7279 H   0  0  0  0  0  0  0  0  0  0  0  0  # atno 6909 bound_to 6896
  146.0746  140.6160  142.8937 H   0  0  0  0  0  0  0  0  0  0  0  0  # atno 7974 bound_to 7965
  156.0701  140.1369  156.9838 H   0  0  0  0  0  0  0  0  0  0  0  0  # atno 8008 bound_to 7997
  154.4527  140.0973  156.6718 H   0  0  0  0  0  0  0  0  0  0  0  0  # atno 8009 bound_to 7997
  155.5241  140.3457  155.4415 H   0  0  0  0  0  0  0  0  0  0  0  0  # atno 8010 bound_to 7997
  139.7431  143.8632  152.2567 H   0  0  0  0  0  0  0  0  0  0  0  0  # atno 10167 bound_to 10162
  157.6760  131.0788  150.5612 H   0  0  0  0  0  0  0  0  0  0  0  0  # atno 10718 bound_to 10713
  153.2608  135.4231  155.0891 H   0  0  0  0  0  0  0  0  0  0  0  0  # atno 10763 bound_to 10752
  154.8419  135.3448  154.6381 H   0  0  0  0  0  0  0  0  0  0  0  0  # atno 10764 bound_to 10752
  153.6801  135.7039  153.5177 H   0  0  0  0  0  0  0  0  0  0  0  0  # atno 10765 bound_to 10752
  140.9081  134.1603  157.4410 H   0  0  0  0  0  0  0  0  0  0  0  0  # atno 11005 bound_to 11000
  144.7253  140.4505  143.6978 LP  0  0  0  0  0  0  0  0  0  0  0  0  # atno 17320 bound_to 7965
  145.6330  139.1539  143.2958 LP  0  0  0  0  0  0  0  0  0  0  0  0  # atno 17321 bound_to 7965
  139.8588  144.7127  150.9124 LP  0  0  0  0  0  0  0  0  0  0  0  0  # atno 17342 bound_to 10162
  140.7788  143.3835  151.1435 LP  0  0  0  0  0  0  0  0  0  0  0  0  # atno 17343 bound_to 10162
  156.5915  130.4330  149.5934 LP  0  0  0  0  0  0  0  0  0  0  0  0  # atno 17370 bound_to 10713
  156.2579  130.6945  151.1705 LP  0  0  0  0  0  0  0  0  0  0  0  0  # atno 17371 bound_to 10713
  139.8753  134.9925  156.5599 LP  0  0  0  0  0  0  0  0  0  0  0  0  # atno 17394 bound_to 11000
  140.8145  133.8403  155.8839 LP  0  0  0  0  0  0  0  0  0  0  0  0  # atno 17395 bound_to 11000

$$$$
