AV-unprocessed.smi:99|AV-procd|sdf|875|dock2
  -GOLD-   2262017343D 1   1.00000     0.00000
 Structure written by MMmdl.
 53 56  0  0  0  0  0  0  0  0  1 V2000
  147.1122  132.5621  153.9512 O   0  0  0  0  0  0  0  0  0  0  0  0
  146.4694  133.4467  153.3829 C   0  0  0  0  0  0  0  0  0  0  0  0
  146.3391  134.6991  153.8550 O   0  0  0  0  0  0  0  0  0  0  0  0
  146.8425  135.0555  155.1344 C   0  0  0  0  0  0  0  0  0  0  0  0
  148.3563  135.3073  155.0382 C   0  0  2  0  0  0  0  0  0  0  0  0
  149.0341  134.1381  154.5992 O   0  0  0  0  0  0  0  0  0  0  0  0
  150.2888  134.0305  155.1988 C   0  0  2  0  0  0  0  0  0  0  0  0
  150.3409  132.6618  155.8637 N   0  0  0  0  0  0  0  0  0  0  0  0
  149.5494  131.5837  155.4762 C   0  0  0  0  0  0  0  0  0  0  0  0
  149.6771  130.3391  155.9932 C   0  0  0  0  0  0  0  0  0  0  0  0
  150.6951  130.0539  156.9962 C   0  0  0  0  0  0  0  0  0  0  0  0
  150.8858  128.9601  157.5229 O   0  0  0  0  0  0  0  0  0  0  0  0
  151.4923  131.1486  157.3347 N   0  0  0  0  0  0  0  0  0  0  0  0
  151.3757  132.4328  156.8014 C   0  0  0  0  0  0  0  0  0  0  0  0
  152.1652  133.3095  157.1514 O   0  0  0  0  0  0  0  0  0  0  0  0
  150.4785  135.2382  156.1453 C   0  0  1  0  0  0  0  0  0  0  0  0
  151.3163  136.2250  155.5773 O   0  0  0  0  0  0  0  0  0  0  0  0
  149.0674  135.7959  156.3078 C   0  0  2  0  0  0  0  0  0  0  0  0
  148.4578  135.2944  157.4920 O   0  0  0  0  0  0  0  0  0  0  0  0
  148.8887  135.6686  158.7159 C   0  0  0  0  0  0  0  0  0  0  0  0
  149.8639  136.3971  158.9073 O   0  0  0  0  0  0  0  0  0  0  0  0
  148.0515  135.1092  159.8147 C   0  0  0  0  0  0  0  0  0  0  0  0
  147.9871  135.7852  161.0551 C   0  0  0  0  0  0  0  0  0  0  0  0
  147.1978  135.2790  162.1064 C   0  0  0  0  0  0  0  0  0  0  0  0
  146.4671  134.0890  161.9313 C   0  0  0  0  0  0  0  0  0  0  0  0
  146.5298  133.4031  160.7046 C   0  0  0  0  0  0  0  0  0  0  0  0
  147.3182  133.9086  159.6536 C   0  0  0  0  0  0  0  0  0  0  0  0
  145.7698  133.2540  152.0807 C   0  0  0  0  0  0  0  0  0  0  0  0
  145.0960  134.3454  151.4859 C   0  0  0  0  0  0  0  0  0  0  0  0
  144.4068  134.1840  150.2683 C   0  0  0  0  0  0  0  0  0  0  0  0
  144.3869  132.9304  149.6295 C   0  0  0  0  0  0  0  0  0  0  0  0
  145.0602  131.8387  150.2073 C   0  0  0  0  0  0  0  0  0  0  0  0
  145.7500  131.9982  151.4246 C   0  0  0  0  0  0  0  0  0  0  0  0
  152.2252  130.9943  158.0118 H   0  0  0  0  0  0  0  0  0  0  0  0
  146.3315  135.9592  155.4677 H   0  0  0  0  0  0  0  0  0  0  0  0
  146.6459  134.2769  155.8730 H   0  0  0  0  0  0  0  0  0  0  0  0
  148.5270  136.0624  154.2699 H   0  0  0  0  0  0  0  0  0  0  0  0
  151.0750  134.0071  154.4411 H   0  0  0  0  0  0  0  0  0  0  0  0
  148.7832  131.6954  154.7312 H   0  0  0  0  0  0  0  0  0  0  0  0
  149.0267  129.5455  155.6543 H   0  0  0  0  0  0  0  0  0  0  0  0
  150.9565  134.9625  157.0834 H   0  0  0  0  0  0  0  0  0  0  0  0
  150.9792  137.0766  155.8102 H   0  0  0  0  0  0  0  0  0  0  0  0
  149.0628  136.8871  156.3295 H   0  0  0  0  0  0  0  0  0  0  0  0
  148.5372  136.7022  161.2113 H   0  0  0  0  0  0  0  0  0  0  0  0
  147.1523  135.8058  163.0481 H   0  0  0  0  0  0  0  0  0  0  0  0
  145.8611  133.7018  162.7371 H   0  0  0  0  0  0  0  0  0  0  0  0
  145.9728  132.4877  160.5675 H   0  0  0  0  0  0  0  0  0  0  0  0
  147.3511  133.3555  158.7279 H   0  0  0  0  0  0  0  0  0  0  0  0
  145.0918  135.3151  151.9625 H   0  0  0  0  0  0  0  0  0  0  0  0
  143.8905  135.0231  149.8259 H   0  0  0  0  0  0  0  0  0  0  0  0
  143.8571  132.8069  148.6964 H   0  0  0  0  0  0  0  0  0  0  0  0
  145.0475  130.8766  149.7168 H   0  0  0  0  0  0  0  0  0  0  0  0
  146.2567  131.1401  151.8417 H   0  0  0  0  0  0  0  0  0  0  0  0
  1  2  2  0  0  0  0
  2  3  1  0  0  0  0
  2 28  1  0  0  0  0
  3  4  1  0  0  0  0
  4  5  1  0  0  0  0
  4 35  1  0  0  0  0
  4 36  1  0  0  0  0
  5 18  1  0  0  0  0
  5  6  1  0  0  0  0
  5 37  1  0  0  0  0
  6  7  1  0  0  0  0
  7  8  1  0  0  0  0
  7 16  1  0  0  0  0
  7 38  1  0  0  0  0
  8 14  1  0  0  0  0
  8  9  1  0  0  0  0
  9 10  2  0  0  0  0
  9 39  1  0  0  0  0
 10 11  1  0  0  0  0
 10 40  1  0  0  0  0
 11 12  2  0  0  0  0
 11 13  1  0  0  0  0
 13 34  1  0  0  0  0
 13 14  1  0  0  0  0
 14 15  2  0  0  0  0
 16 17  1  0  0  0  0
 16 18  1  0  0  0  0
 16 41  1  0  0  0  0
 17 42  1  0  0  0  0
 18 19  1  0  0  0  0
 18 43  1  0  0  0  0
 19 20  1  0  0  0  0
 20 21  2  0  0  0  0
 20 22  1  0  0  0  0
 22 27  1  0  0  0  0
 22 23  2  0  0  0  0
 23 24  1  0  0  0  0
 23 44  1  0  0  0  0
 24 25  2  0  0  0  0
 24 45  1  0  0  0  0
 25 26  1  0  0  0  0
 25 46  1  0  0  0  0
 26 27  2  0  0  0  0
 26 47  1  0  0  0  0
 27 48  1  0  0  0  0
 28 33  1  0  0  0  0
 28 29  2  0  0  0  0
 29 30  1  0  0  0  0
 29 49  1  0  0  0  0
 30 31  2  0  0  0  0
 30 50  1  0  0  0  0
 31 32  1  0  0  0  0
 31 51  1  0  0  0  0
 32 33  2  0  0  0  0
 32 52  1  0  0  0  0
 33 53  1  0  0  0  0
M  END
> <s_m_source_file>
AV-unprocessed.smi

> <i_m_source_file_index>
99

> <i_lp_mmshare_version>
43012

> <i_f3d_flags>
0

> <s_epik_input>
W2NIXTFbY0hdW2NIXVtjSF1bY0hdYzFDKD1PKU9bQ0gyXVtDQEBIXTJPW0NAQEhdKG4zW2NIXVtjSF1jKD1PKVtuSF1jMz1PKVtDQEBIXShbT0hdKVtDQEhdMk9DKD1PKWM0W2NIXVtjSF1bY0hdW2NIXVtjSF00

> <s_epik_cmdline>
J2VwaWtfcHl0aG9uJywgJy1waCcsICc3LjAnLCAnLXRuJywgJzgnLCAnLW1hJywgJzIwMCcsICctbWV0YWxfYmluZGluZycsICctaW1hZScsICc8aW5maWxlLm1hZT4nLCAnLW9tYWUnLCAnPG91dGZpbGUubWFlPic=

> <r_lp_tautomer_probability>
1

> <r_epik_Ionization_Penalty>
0.00454555

> <r_epik_Ionization_Penalty_Charging>
0.0045191

> <r_epik_Ionization_Penalty_Neutral>
2.64449e-05

> <r_epik_State_Penalty>
-0

> <r_epik_Charging_Adjusted_Penalty>
0.0045191

> <i_epik_Tot_Q>
0

> <i_epik_Tot_abs_Q>
0

> <r_epik_Metal_State_Penalty>
1.27877

> <b_epik_Metal_Only>
0

> <s_epik_Chemistry_Notes>
This compound has an ester and may undergo hydrolysis at high or low pH. This compound contains an acetal/aminal-like group ( X-CH(R)-Y where X, Y are N, S, or O) that may be acid/base labile, releasing an aldehyde.

> <s_lp_Force_Field>
OPLS_2005

> <r_lp_Energy>
29.5489

> <b_lp_Chiralities_Consistent>
1

> <s_lp_Variant>
AV-unprocessed.smi:99-11

> <Gold.Version>
5.8.1

> <Gold.Id.Protein>
6NUR|6NUR_protein|mol2

> <Gold.PLP.Fitness>
47.5946

> <Gold.PLP.PLP>
-42.8124

> <Gold.PLP.part.hbond>
-3.0000

> <Gold.PLP.part.metal>
0.0000

> <Gold.PLP.part.buried>
-6.3412

> <Gold.PLP.part.nonpolar>
-34.1325

> <Gold.PLP.part.repulsive>
0.3344

> <Gold.PLP.ligand.clash>
0.0000

> <Gold.PLP.ligand.torsion>
0.9754

> <Gold.PLP.Chemscore.Hbond>
2.1136

> <Gold.PLP.Chemscore.CHOScore>
0.0000

> <Gold.PLP.Chemscore.Metal>
0.0000

> <Gold.Chemscore.Hbonds>
donor molecule, donor type, donor heavy atom, donor atom, acceptor molecule, acceptor atom, score
      P1  H  6896  6907       L1    15  0.11
      P1  H  6896  6908       L1    21  0.94
      P1  H 10752 10763       L1    17  1.00

> <Gold.PLP.Chemscore.Internal.Correction>
0.3924

> <Gold.Rescore>
     Score         DG    S(hbond)    S(metal)    S(lipo)     H(rot)  DE(clash)    DE(int)     intcor
     13.80     -16.80       2.52        0.00      94.61       3.19       0.09       2.91       ----

> <Gold.Chemscore.Fitness>
13.8030

> <Gold.Chemscore.DG>
-16.8030

> <Gold.Chemscore.ZeroCoef>
-5.4800

> <Gold.Chemscore.Hbond>
2.5210

> <Gold.Chemscore.Metal>
0.0000

> <Gold.Chemscore.Lipo>
94.6145

> <Gold.Chemscore.Internal_Hbond>
0.0000

> <Gold.Chemscore.DEClash>
0.0901

> <Gold.Chemscore.DEInternal>
2.9099

> <Gold.Chemscore.Rot>
3.1903

> <Gold.Chemscore.Internal.Correction>
   9.000000E+99

> <Gold.Chemscore.Hbonds>
donor molecule, donor type, donor heavy atom, donor atom, acceptor molecule, acceptor atom, score
      P1  H  6896  6907       L1    15  0.01
      P1  H  6896  6908       L1    21  0.19
      P1  H 10752 10763       L1    17  0.86

> <Gold.Chemscore.Hbond.Weighted>
-8.4202

> <Gold.Chemscore.Metal.Weighted>
-0.0000

> <Gold.Chemscore.Lipo.Weighted>
-11.0699

> <Gold.Chemscore.Internal_Hbond.Weighted>
0.0000

> <Gold.Chemscore.DEClash.Weighted>
0.0901

> <Gold.Chemscore.DEInternal.Weighted>
2.9099

> <Gold.Chemscore.Rot.Weighted>
8.1671

> <Gold.Chemscore.Internal.Correction.Weighted>
   9.000000E+99

> <Gold.Protein.RotatedTorsions>
[ 6907 6896 6895 6894 ] final -149.31 input  -60.11 | X-H torsion
[ 7974 7965 7964 7962 ] final  -13.89 input  175.53 | X-H torsion
[ 8008 7997 7996 7995 ] final  -92.52 input   59.86 | X-H torsion
[ 10167 10162 10161 10158 ] final  150.62 input  -65.29 | X-H torsion
[ 10718 10713 10712 10709 ] final  -17.47 input   66.30 | X-H torsion
[ 10763 10752 10751 10750 ] final   77.58 input  -60.55 | X-H torsion
[ 11005 11000 10999 10996 ] final  -42.35 input  -57.11 | X-H torsion

> <Gold.Protein.ActiveResidues>
 VAL166  LYS551  ARG553  GLY616  TRP617  ASP618  TYR619  PRO620  LYS621  CYS622 
 ASP623  PHE694  ASN695  SER759  ASP760  ASP761  ALA762  ILE779  LEU786  VAL792 
 PHE793  MET794  SER795  GLU796  ALA797  LYS798  CYS799  TRP800  GLU811  SER814 

> <Gold.Protein.RotatedAtoms>
  151.1823  133.4717  159.2593 H   0  0  0  0  0  0  0  0  0  0  0  0  # atno 6907 bound_to 6896
  151.1246  135.0098  159.8564 H   0  0  0  0  0  0  0  0  0  0  0  0  # atno 6908 bound_to 6896
  152.5457  134.1731  159.8658 H   0  0  0  0  0  0  0  0  0  0  0  0  # atno 6909 bound_to 6896
  146.2096  140.3268  142.8395 H   0  0  0  0  0  0  0  0  0  0  0  0  # atno 7974 bound_to 7965
  154.7241  140.0508  157.0666 H   0  0  0  0  0  0  0  0  0  0  0  0  # atno 8008 bound_to 7997
  155.0388  140.3166  155.4713 H   0  0  0  0  0  0  0  0  0  0  0  0  # atno 8009 bound_to 7997
  156.2824  140.2136  156.5511 H   0  0  0  0  0  0  0  0  0  0  0  0  # atno 8010 bound_to 7997
  139.4848  144.5507  151.7405 H   0  0  0  0  0  0  0  0  0  0  0  0  # atno 10167 bound_to 10162
  156.5732  130.4755  149.6353 H   0  0  0  0  0  0  0  0  0  0  0  0  # atno 10718 bound_to 10713
  153.0809  135.4909  154.8501 H   0  0  0  0  0  0  0  0  0  0  0  0  # atno 10763 bound_to 10752
  154.7149  135.3027  154.9141 H   0  0  0  0  0  0  0  0  0  0  0  0  # atno 10764 bound_to 10752
  153.9823  135.6788  153.4803 H   0  0  0  0  0  0  0  0  0  0  0  0  # atno 10765 bound_to 10752
  141.0309  133.6820  156.2582 H   0  0  0  0  0  0  0  0  0  0  0  0  # atno 11005 bound_to 11000
  144.8880  140.7487  143.5944 LP  0  0  0  0  0  0  0  0  0  0  0  0  # atno 17320 bound_to 7965
  145.3190  139.1794  143.4598 LP  0  0  0  0  0  0  0  0  0  0  0  0  # atno 17321 bound_to 7965
  140.5061  144.1096  150.5983 LP  0  0  0  0  0  0  0  0  0  0  0  0  # atno 17342 bound_to 10162
  140.4006  143.2706  151.9953 LP  0  0  0  0  0  0  0  0  0  0  0  0  # atno 17343 bound_to 10162
  156.2697  130.7009  151.1803 LP  0  0  0  0  0  0  0  0  0  0  0  0  # atno 17370 bound_to 10713
  157.7343  131.0582  150.5529 LP  0  0  0  0  0  0  0  0  0  0  0  0  # atno 17371 bound_to 10713
  140.6408  134.5168  157.5569 LP  0  0  0  0  0  0  0  0  0  0  0  0  # atno 17394 bound_to 11000
  139.9207  134.8154  156.1220 LP  0  0  0  0  0  0  0  0  0  0  0  0  # atno 17395 bound_to 11000

$$$$
