AV-unprocessed.smi:560|AV-procd|sdf|2928|dock4
  -GOLD-   2262023423D 1   1.00000     0.00000
 Structure written by MMmdl.
 42 43  0  0  0  0  0  0  0  0  2 V2000
  151.9368  144.6812  158.0305 C   0  0  0  0  0  0  0  0  0  0  0  0
  152.0956  143.1566  158.2018 C   0  0  2  0  0  0  0  0  0  0  0  0
  150.8176  142.3734  157.8527 C   0  0  0  0  0  0  0  0  0  0  0  0
  149.8448  142.3796  158.6083 O   0  0  0  0  0  0  0  0  0  0  0  0
  150.8325  141.6989  156.6911 N   0  0  0  0  0  0  0  0  0  0  0  0
  149.7429  140.8719  156.1838 C   0  0  2  0  0  0  0  0  0  0  0  0
  150.2763  139.7891  155.2266 C   0  0  0  0  0  0  0  0  0  0  0  0
  149.1245  138.9851  154.6027 C   0  0  0  0  0  0  0  0  0  0  0  0
  148.1713  139.8797  153.8931 N   0  3  1  0  0  0  0  0  0  0  0  0
  147.1164  139.1360  153.1552 C   0  0  0  0  0  0  0  0  0  0  0  0
  146.1489  138.3389  154.0440 C   0  0  0  0  0  0  0  0  0  0  0  0
  144.8631  138.7042  154.1004 N   0  0  0  0  0  0  0  0  0  0  0  0
  146.5717  137.3806  154.6852 O   0  0  0  0  0  0  0  0  0  0  0  0
  147.6074  140.9036  154.8096 C   0  0  0  0  0  0  0  0  0  0  0  0
  148.7215  141.7524  155.4456 C   0  0  0  0  0  0  0  0  0  0  0  0
  152.5659  142.8122  159.5396 N   0  0  0  0  0  0  0  0  0  0  0  0
  153.6881  142.0866  159.8851 C   0  0  0  0  0  0  0  0  0  0  0  0
  153.7152  141.9956  161.2472 C   0  0  0  0  0  0  0  0  0  0  0  0
  152.5497  142.7010  161.6562 C   0  0  0  0  0  0  0  0  0  0  0  0
  151.8608  143.1817  160.6343 N   0  0  0  0  0  0  0  0  0  0  0  0
  151.6539  144.9362  157.0086 H   0  0  0  0  0  0  0  0  0  0  0  0
  152.8738  145.1955  158.2457 H   0  0  0  0  0  0  0  0  0  0  0  0
  151.1759  145.0896  158.6970 H   0  0  0  0  0  0  0  0  0  0  0  0
  152.8628  142.8308  157.4975 H   0  0  0  0  0  0  0  0  0  0  0  0
  151.6691  141.7503  156.1279 H   0  0  0  0  0  0  0  0  0  0  0  0
  149.2392  140.3909  157.0246 H   0  0  0  0  0  0  0  0  0  0  0  0
  150.8676  140.2512  154.4343 H   0  0  0  0  0  0  0  0  0  0  0  0
  150.9474  139.1120  155.7564 H   0  0  0  0  0  0  0  0  0  0  0  0
  149.5353  138.2468  153.9137 H   0  0  0  0  0  0  0  0  0  0  0  0
  148.5947  138.4286  155.3777 H   0  0  0  0  0  0  0  0  0  0  0  0
  146.5547  139.8194  152.5162 H   0  0  0  0  0  0  0  0  0  0  0  0
  147.5831  138.4088  152.4896 H   0  0  0  0  0  0  0  0  0  0  0  0
  144.2047  138.1979  154.6730 H   0  0  0  0  0  0  0  0  0  0  0  0
  144.5512  139.4976  153.5577 H   0  0  0  0  0  0  0  0  0  0  0  0
  146.9312  141.5593  154.2597 H   0  0  0  0  0  0  0  0  0  0  0  0
  147.0153  140.4142  155.5848 H   0  0  0  0  0  0  0  0  0  0  0  0
  148.2843  142.4760  156.1347 H   0  0  0  0  0  0  0  0  0  0  0  0
  149.2229  142.3302  154.6674 H   0  0  0  0  0  0  0  0  0  0  0  0
  154.3682  141.6997  159.1405 H   0  0  0  0  0  0  0  0  0  0  0  0
  154.4550  141.5006  161.8586 H   0  0  0  0  0  0  0  0  0  0  0  0
  152.1847  142.8745  162.6578 H   0  0  0  0  0  0  0  0  0  0  0  0
  148.6986  140.3874  153.1976 H   0  0  0  0  0  0  0  0  0  0  0  0
  1  2  1  0  0  0  0
  1 21  1  0  0  0  0
  1 22  1  0  0  0  0
  1 23  1  0  0  0  0
  2  3  1  0  0  0  0
  2 16  1  0  0  0  0
  2 24  1  0  0  0  0
  3  4  2  0  0  0  0
  3  5  1  0  0  0  0
  5  6  1  0  0  0  0
  5 25  1  0  0  0  0
  6 15  1  0  0  0  0
  6  7  1  0  0  0  0
  6 26  1  0  0  0  0
  7  8  1  0  0  0  0
  7 27  1  0  0  0  0
  7 28  1  0  0  0  0
  8  9  1  0  0  0  0
  8 29  1  0  0  0  0
  8 30  1  0  0  0  0
  9 10  1  0  0  0  0
  9 14  1  0  0  0  0
  9 42  1  0  0  0  0
 10 11  1  0  0  0  0
 10 31  1  0  0  0  0
 10 32  1  0  0  0  0
 11 12  1  0  0  0  0
 11 13  2  0  0  0  0
 12 33  1  0  0  0  0
 12 34  1  0  0  0  0
 14 15  1  0  0  0  0
 14 35  1  0  0  0  0
 14 36  1  0  0  0  0
 15 37  1  0  0  0  0
 15 38  1  0  0  0  0
 16 20  1  0  0  0  0
 16 17  1  0  0  0  0
 17 18  2  0  0  0  0
 17 39  1  0  0  0  0
 18 19  1  0  0  0  0
 18 40  1  0  0  0  0
 19 20  2  0  0  0  0
 19 41  1  0  0  0  0
M  CHG  1   9   1
M  END
> <s_m_source_file>
AV-unprocessed.smi

> <i_m_source_file_index>
560

> <i_lp_mmshare_version>
43012

> <i_f3d_flags>
0

> <s_epik_input>
bjFbY0hdW2NIXVtjSF1uMVtDQEhdKFtDSDNdKUMoPU8pW05IXVtDSF0yW0NIMl1bQ0gyXU4oW0NIMl1bQ0gyXTIpW0NIMl1DKD1PKVtOSDJd

> <s_epik_cmdline>
J2VwaWtfcHl0aG9uJywgJy1waCcsICc3LjAnLCAnLXRuJywgJzgnLCAnLW1hJywgJzIwMCcsICctbWV0YWxfYmluZGluZycsICctaW1hZScsICc8aW5maWxlLm1hZT4nLCAnLW9tYWUnLCAnPG91dGZpbGUubWFlPic=

> <r_lp_tautomer_probability>
1

> <r_epik_Ionization_Penalty>
1.02943

> <r_epik_Ionization_Penalty_Charging>
1.02936

> <r_epik_Ionization_Penalty_Neutral>
7.4537e-05

> <r_epik_State_Penalty>
1.08036

> <r_epik_Charging_Adjusted_Penalty>
2.10972

> <i_epik_Tot_Q>
1

> <i_epik_Tot_abs_Q>
1

> <r_epik_Metal_State_Penalty>
1.09347

> <b_epik_Metal_Only>
0

> <s_lp_Force_Field>
OPLS_2005

> <r_lp_Energy>
17.0208

> <b_lp_Chiralities_Consistent>
1

> <s_lp_Variant>
AV-unprocessed.smi:560-3

> <Gold.Version>
5.8.1

> <Gold.Id.Protein>
6NUR|6NUR_protein|mol2

> <Gold.PLP.Fitness>
44.4979

> <Gold.PLP.PLP>
-40.7387

> <Gold.PLP.part.hbond>
-2.2179

> <Gold.PLP.part.metal>
0.0000

> <Gold.PLP.part.buried>
-3.4382

> <Gold.PLP.part.nonpolar>
-34.4285

> <Gold.PLP.part.repulsive>
0.4122

> <Gold.PLP.ligand.clash>
0.0000

> <Gold.PLP.ligand.torsion>
0.7173

> <Gold.PLP.Chemscore.Hbond>
1.6880

> <Gold.PLP.Chemscore.CHOScore>
0.0000

> <Gold.PLP.Chemscore.Metal>
0.0000

> <Gold.Chemscore.Hbonds>
donor molecule, donor type, donor heavy atom, donor atom, acceptor molecule, acceptor atom, score
      L1  H     9    42       P1  7957  0.34
      L1  H    12    34       P1 10175  1.00

> <Gold.PLP.Chemscore.Internal.Correction>
0.1298

> <Gold.Rescore>
     Score         DG    S(hbond)    S(metal)    S(lipo)     H(rot)  DE(clash)    DE(int)     intcor
     14.43     -16.59       1.89        0.00      96.36       2.52       0.23       1.93       ----

> <Gold.Chemscore.Fitness>
14.4259

> <Gold.Chemscore.DG>
-16.5933

> <Gold.Chemscore.ZeroCoef>
-5.4800

> <Gold.Chemscore.Hbond>
1.8867

> <Gold.Chemscore.Metal>
0.0000

> <Gold.Chemscore.Lipo>
96.3589

> <Gold.Chemscore.Internal_Hbond>
0.0000

> <Gold.Chemscore.DEClash>
0.2327

> <Gold.Chemscore.DEInternal>
1.9347

> <Gold.Chemscore.Rot>
2.5243

> <Gold.Chemscore.Internal.Correction>
   9.000000E+99

> <Gold.Chemscore.Hbonds>
donor molecule, donor type, donor heavy atom, donor atom, acceptor molecule, acceptor atom, score
      L1  H     9    42       P1  7957  0.34
      L1  H    12    34       P1 10175  1.00

> <Gold.Chemscore.Hbond.Weighted>
-6.3015

> <Gold.Chemscore.Metal.Weighted>
-0.0000

> <Gold.Chemscore.Lipo.Weighted>
-11.2740

> <Gold.Chemscore.Internal_Hbond.Weighted>
0.0000

> <Gold.Chemscore.DEClash.Weighted>
0.2327

> <Gold.Chemscore.DEInternal.Weighted>
1.9347

> <Gold.Chemscore.Rot.Weighted>
6.4622

> <Gold.Chemscore.Internal.Correction.Weighted>
   9.000000E+99

> <Gold.Protein.RotatedTorsions>
[ 6907 6896 6895 6894 ] final -121.03 input  -60.11 | X-H torsion
[ 7974 7965 7964 7962 ] final  -20.46 input  175.53 | X-H torsion
[ 8008 7997 7996 7995 ] final    1.50 input   59.86 | X-H torsion
[ 10167 10162 10161 10158 ] final -144.07 input  -65.29 | X-H torsion
[ 10718 10713 10712 10709 ] final  -40.52 input   66.30 | X-H torsion
[ 10763 10752 10751 10750 ] final -119.08 input  -60.55 | X-H torsion
[ 11005 11000 10999 10996 ] final   -8.19 input  -57.11 | X-H torsion

> <Gold.Protein.ActiveResidues>
 VAL166  LYS551  ARG553  GLY616  TRP617  ASP618  TYR619  PRO620  LYS621  CYS622 
 ASP623  PHE694  ASN695  SER759  ASP760  ASP761  ALA762  ILE779  LEU786  VAL792 
 PHE793  MET794  SER795  GLU796  ALA797  LYS798  CYS799  TRP800  GLU811  SER814 

> <Gold.Protein.RotatedAtoms>
  150.8446  133.7881  159.3047 H   0  0  0  0  0  0  0  0  0  0  0  0  # atno 6907 bound_to 6896
  151.5572  135.1064  159.9973 H   0  0  0  0  0  0  0  0  0  0  0  0  # atno 6908 bound_to 6896
  152.4503  133.7573  159.6783 H   0  0  0  0  0  0  0  0  0  0  0  0  # atno 6909 bound_to 6896
  146.1787  140.4205  142.8503 H   0  0  0  0  0  0  0  0  0  0  0  0  # atno 7974 bound_to 7965
  154.6804  140.2631  155.6914 H   0  0  0  0  0  0  0  0  0  0  0  0  # atno 8008 bound_to 7997
  156.2694  140.2811  156.1269 H   0  0  0  0  0  0  0  0  0  0  0  0  # atno 8009 bound_to 7997
  155.1039  140.0375  157.2695 H   0  0  0  0  0  0  0  0  0  0  0  0  # atno 8010 bound_to 7997
  139.7933  143.7935  152.2652 H   0  0  0  0  0  0  0  0  0  0  0  0  # atno 10167 bound_to 10162
  156.2804  130.4216  149.8343 H   0  0  0  0  0  0  0  0  0  0  0  0  # atno 10718 bound_to 10713
  154.8607  135.4251  154.2241 H   0  0  0  0  0  0  0  0  0  0  0  0  # atno 10763 bound_to 10752
  153.3240  135.6984  153.7011 H   0  0  0  0  0  0  0  0  0  0  0  0  # atno 10764 bound_to 10752
  153.6055  135.3529  155.2934 H   0  0  0  0  0  0  0  0  0  0  0  0  # atno 10765 bound_to 10752
  140.7208  133.8830  155.8819 H   0  0  0  0  0  0  0  0  0  0  0  0  # atno 11005 bound_to 11000
  144.8278  140.6657  143.6310 LP  0  0  0  0  0  0  0  0  0  0  0  0  # atno 17320 bound_to 7965
  145.4139  139.1575  143.4111 LP  0  0  0  0  0  0  0  0  0  0  0  0  # atno 17321 bound_to 7965
  139.8033  144.7365  150.9795 LP  0  0  0  0  0  0  0  0  0  0  0  0  # atno 17342 bound_to 10162
  140.7820  143.4323  151.0676 LP  0  0  0  0  0  0  0  0  0  0  0  0  # atno 17343 bound_to 10162
  156.5792  130.8458  151.3378 LP  0  0  0  0  0  0  0  0  0  0  0  0  # atno 17370 bound_to 10713
  157.7312  130.9697  150.1871 LP  0  0  0  0  0  0  0  0  0  0  0  0  # atno 17371 bound_to 10713
  141.0005  134.1157  157.4322 LP  0  0  0  0  0  0  0  0  0  0  0  0  # atno 17394 bound_to 11000
  139.8848  135.0067  156.6396 LP  0  0  0  0  0  0  0  0  0  0  0  0  # atno 17395 bound_to 11000

$$$$
