#       Name:                AV-unprocessed.smi:657
#       Creating user name   scv26
#       Creation time:       Fri Mar 27 00:16:50 2020


#       File generated by GOLD software.
#

@<TRIPOS>MOLECULE
AV-unprocessed.smi:657
    50    51     1
SMALL
NO_CHARGES


@<TRIPOS>ATOM
      1 ****        -1.0164   2.7104   2.6776 C.3            1 S1                 0.0000
      2 ****        -0.7988   2.9410   1.1664 C.3            1 S1                 0.0000
      3 ****        -1.4260   4.3001   0.7915 C.3            1 S1                 0.0000
      4 ****        -1.3304   1.8137   0.3252 N.4            1 S1                 1.0000
      5 ****        -1.1976   2.0379  -1.1496 C.3            1 S1                 0.0000
      6 ****        -1.8760   0.9353  -1.9811 C.3            1 S1                 0.0000
      7 ****        -1.3724  -0.4554  -1.5935 C.3            1 S1                 0.0000
      8 ****        -1.5942  -0.6582  -0.0919 C.3            1 S1                 0.0000
      9 ****        -0.9053   0.4357   0.7560 C.3            1 S1                 0.0000
     10 ****         0.6260   0.2104   0.8279 C.2            1 S1                 0.0000
     11 ****         1.3553   0.7217  -0.0284 O.2            1 S1                 0.0000
     12 ****         0.9491  -0.5935   1.8794 N.pl3          1 S1                -1.0000
     13 ****         2.3000  -1.0972   2.1364 C.3            1 S1                 0.0000
     14 ****         2.4559  -2.5437   1.6121 C.3            1 S1                 0.0000
     15 ****         2.2687  -2.6802   0.1167 C.2            1 S1                 0.0000
     16 ****         3.1643  -2.3106  -0.9303 C.2            1 S1                 0.0000
     17 ****         2.6727  -2.5427  -2.1368 N.2            1 S1                 0.0000
     18 ****         1.4552  -3.0742  -1.9057 N.pl3          1 S1                 0.0000
     19 ****         0.6136  -3.4462  -3.0222 C.3            1 S1                 0.0000
     20 ****         1.1914  -3.1837  -0.5584 C.2            1 S1                 0.0000
     21 ****        -0.7102   3.5829   3.2552 H              1 S1                 0.0000
     22 ****        -0.4274   1.8768   3.0592 H              1 S1                 0.0000
     23 ****        -2.0655   2.5181   2.9044 H              1 S1                 0.0000
     24 ****         0.2752   3.0238   0.9953 H              1 S1                 0.0000
     25 ****        -1.1279   5.0772   1.4960 H              1 S1                 0.0000
     26 ****        -2.5153   4.2524   0.7988 H              1 S1                 0.0000
     27 ****        -1.1039   4.6481  -0.1893 H              1 S1                 0.0000
     28 ****        -1.6734   2.9731  -1.4370 H              1 S1                 0.0000
     29 ****        -0.1498   2.1341  -1.4313 H              1 S1                 0.0000
     30 ****        -2.9562   0.9840  -1.8379 H              1 S1                 0.0000
     31 ****        -1.6987   1.1103  -3.0427 H              1 S1                 0.0000
     32 ****        -1.9035  -1.2212  -2.1591 H              1 S1                 0.0000
     33 ****        -0.3163  -0.5593  -1.8447 H              1 S1                 0.0000
     34 ****        -2.6650  -0.6505   0.1158 H              1 S1                 0.0000
     35 ****        -1.2446  -1.6480   0.2036 H              1 S1                 0.0000
     36 ****        -1.3130   0.2946   1.7579 H              1 S1                 0.0000
     37 ****         3.0740  -0.4700   1.6916 H              1 S1                 0.0000
     38 ****         2.5122  -1.0943   3.2056 H              1 S1                 0.0000
     39 ****         3.4447  -2.9050   1.8951 H              1 S1                 0.0000
     40 ****         1.7548  -3.1889   2.1431 H              1 S1                 0.0000
     41 ****         4.1462  -1.8684  -0.8470 H              1 S1                 0.0000
     42 ****        -0.3899  -3.6853  -2.6689 H              1 S1                 0.0000
     43 ****         1.0328  -4.3188  -3.5239 H              1 S1                 0.0000
     44 ****         0.5498  -2.6194  -3.7304 H              1 S1                 0.0000
     45 ****         0.2606  -3.5898  -0.1911 H              1 S1                 0.0000
     46 ****        -2.3262   1.8220   0.4900 H              1 S1                 0.0000
     47 ****         0.9561   1.2752  -0.7594 LP             1 S1                 0.0000
     48 ****         2.3448   0.5821   0.0095 LP             1 S1                 0.0000
     49 ****         0.2210  -0.8550   2.5130 LP             1 S1                 0.0000
     50 ****         3.1061  -2.3643  -3.0201 LP             1 S1                 0.0000
@<TRIPOS>BOND
    1    1    2 1     
    2    1   21 1     
    3    1   22 1     
    4    1   23 1     
    5    2    3 1     
    6    2    4 1     
    7    2   24 1     
    8    3   25 1     
    9    3   26 1     
   10    3   27 1     
   11    4    9 1     
   12    4    5 1     
   13    4   46 1     
   14    5    6 1     
   15    5   28 1     
   16    5   29 1     
   17    6    7 1     
   18    6   30 1     
   19    6   31 1     
   20    7    8 1     
   21    7   32 1     
   22    7   33 1     
   23    8    9 1     
   24    8   34 1     
   25    8   35 1     
   26    9   10 1     
   27    9   36 1     
   28   10   11 2     
   29   10   12 1     
   30   12   13 1     
   31   13   14 1     
   32   13   37 1     
   33   13   38 1     
   34   14   15 1     
   35   14   39 1     
   36   14   40 1     
   37   15   20 2     
   38   15   16 1     
   39   16   17 2     
   40   16   41 1     
   41   17   18 1     
   42   18   19 1     
   43   18   20 1     
   44   19   42 1     
   45   19   43 1     
   46   19   44 1     
   47   20   45 1     
   48   11   47 1     
   49   11   48 1     
   50   12   49 1     
   51   17   50 1     
@<TRIPOS>SUBSTRUCTURE
      1 S1             1
@<TRIPOS>SET
LONE_PAIRS      STATIC     ATOMS    <user>   **** ""
4 47 48 49 50
DONOR_HYDROGENS      STATIC     ATOMS    <user>   **** ""
1 46
ATOM$BLUE        STATIC     ATOMS    COLORGROUP SYSTEM
4 47 48 49 50
ATOM$RED        STATIC     ATOMS    COLORGROUP SYSTEM
1 46
