#       Name:                AV-unprocessed.smi:1691
#       Creating user name   scv26
#       Creation time:       Fri Mar 27 07:53:37 2020


#       File generated by GOLD software.
#

@<TRIPOS>MOLECULE
AV-unprocessed.smi:1691
    49    50     1
SMALL
NO_CHARGES


@<TRIPOS>ATOM
      1 ****        -1.9532  -1.2856  -0.5726 C.3            1 S1                 0.0000
      2 ****        -1.3944  -0.9700   0.8273 C.3            1 S1                 0.0000
      3 ****        -2.0892   0.2578   1.4473 C.3            1 S1                 0.0000
      4 ****         0.1767  -0.9189   0.8909 C.3            1 S1                 0.0000
      5 ****         0.7739  -0.0821  -0.2847 C.3            1 S1                 0.0000
      6 ****         0.2387   1.2710  -0.3621 N.am           1 S1                 0.0000
      7 ****         0.1802   2.0138  -1.4751 C.2            1 S1                 0.0000
      8 ****         0.5977   1.6367  -2.5702 O.2            1 S1                 0.0000
      9 ****        -0.3896   3.2056  -1.2334 N.am           1 S1                 0.0000
     10 ****        -0.6432   4.2436  -2.1649 C.2            1 S1                 0.0000
     11 ****        -1.2359   5.4944  -1.8413 C.2            1 S1                 0.0000
     12 ****        -1.3531   6.2656  -2.9127 N.2            1 S1                 0.0000
     13 ****        -0.8416   5.5187  -3.9172 N.pl3          1 S1                 0.0000
     14 ****        -0.3973   4.2804  -3.5088 C.2            1 S1                 0.0000
     15 ****         0.7845  -2.2714   1.0268 N.3            1 S1                 0.0000
     16 ****         2.2452  -2.2827   0.8719 C.3            1 S1                 0.0000
     17 ****         2.8561  -3.6859   1.0319 C.3            1 S1                 0.0000
     18 ****         2.5049  -4.2221   2.2991 O.3            1 S1                 0.0000
     19 ****         1.0972  -4.3005   2.4702 C.3            1 S1                 0.0000
     20 ****         0.4806  -2.8989   2.3235 C.3            1 S1                 0.0000
     21 ****        -0.8034   5.8638  -4.8659 H              1 S1                 0.0000
     22 ****        -1.7990  -0.4647  -1.2728 H              1 S1                 0.0000
     23 ****        -3.0262  -1.4734  -0.5286 H              1 S1                 0.0000
     24 ****        -1.4829  -2.1762  -0.9901 H              1 S1                 0.0000
     25 ****        -1.7528  -1.7847   1.4468 H              1 S1                 0.0000
     26 ****        -2.0090   1.1502   0.8298 H              1 S1                 0.0000
     27 ****        -1.6790   0.4888   2.4303 H              1 S1                 0.0000
     28 ****        -3.1544   0.0670   1.5800 H              1 S1                 0.0000
     29 ****         0.4373  -0.3726   1.7988 H              1 S1                 0.0000
     30 ****         1.8461   0.0614  -0.1568 H              1 S1                 0.0000
     31 ****         0.6402  -0.6101  -1.2305 H              1 S1                 0.0000
     32 ****        -0.1282   1.6633   0.4924 H              1 S1                 0.0000
     33 ****        -0.6784   3.3877  -0.2834 H              1 S1                 0.0000
     34 ****        -1.5775   5.8609  -0.8844 H              1 S1                 0.0000
     35 ****         0.0365   3.5667  -4.1932 H              1 S1                 0.0000
     36 ****         2.5266  -1.9374  -0.1217 H              1 S1                 0.0000
     37 ****         2.7012  -1.6015   1.5918 H              1 S1                 0.0000
     38 ****         2.5100  -4.3502   0.2385 H              1 S1                 0.0000
     39 ****         3.9424  -3.6367   0.9556 H              1 S1                 0.0000
     40 ****         0.6690  -4.9905   1.7412 H              1 S1                 0.0000
     41 ****         0.8828  -4.7066   3.4588 H              1 S1                 0.0000
     42 ****         0.8456  -2.2638   3.1321 H              1 S1                 0.0000
     43 ****        -0.5872  -3.0123   2.4840 H              1 S1                 0.0000
     44 ****         1.0084   0.7297  -2.6634 LP             1 S1                 0.0000
     45 ****         0.5262   2.2374  -3.3664 LP             1 S1                 0.0000
     46 ****        -1.7330   7.1891  -2.9661 LP             1 S1                 0.0000
     47 ****         0.3695  -2.7899   0.2792 LP             1 S1                 0.0000
     48 ****         2.8853  -3.6361   3.0146 LP             1 S1                 0.0000
     49 ****         2.8919  -5.1406   2.3798 LP             1 S1                 0.0000
@<TRIPOS>BOND
    1    1    2 1     
    2    1   22 1     
    3    1   23 1     
    4    1   24 1     
    5    2    3 1     
    6    2    4 1     
    7    2   25 1     
    8    3   26 1     
    9    3   27 1     
   10    3   28 1     
   11    4    5 1     
   12    4   15 1     
   13    4   29 1     
   14    5    6 1     
   15    5   30 1     
   16    5   31 1     
   17    6    7 am    
   18    6   32 1     
   19    7    8 2     
   20    7    9 am    
   21    9   10 1     
   22    9   33 1     
   23   10   14 2     
   24   10   11 1     
   25   11   12 2     
   26   11   34 1     
   27   12   13 1     
   28   13   21 1     
   29   13   14 1     
   30   14   35 1     
   31   15   20 1     
   32   15   16 1     
   33   16   17 1     
   34   16   36 1     
   35   16   37 1     
   36   17   18 1     
   37   17   38 1     
   38   17   39 1     
   39   18   19 1     
   40   19   20 1     
   41   19   40 1     
   42   19   41 1     
   43   20   42 1     
   44   20   43 1     
   45    8   44 1     
   46    8   45 1     
   47   12   46 1     
   48   15   47 1     
   49   18   48 1     
   50   18   49 1     
@<TRIPOS>SUBSTRUCTURE
      1 S1             1
@<TRIPOS>SET
LONE_PAIRS      STATIC     ATOMS    <user>   **** ""
6 44 45 46 47 48 49
DONOR_HYDROGENS      STATIC     ATOMS    <user>   **** ""
3 32 33 21
ATOM$BLUE        STATIC     ATOMS    COLORGROUP SYSTEM
6 44 45 46 47 48 49
ATOM$RED        STATIC     ATOMS    COLORGROUP SYSTEM
3 32 33 21
