#       Name:                AV-unprocessed.smi:1812
#       Creating user name   scv26
#       Creation time:       Fri Mar 27 09:00:03 2020


#       File generated by GOLD software.
#

@<TRIPOS>MOLECULE
AV-unprocessed.smi:1812
    40    42     1
SMALL
NO_CHARGES


@<TRIPOS>ATOM
      1 ****         0.4951   1.3520  -0.0460 O.2            1 S1                 0.0000
      2 ****         0.2085   0.3564   0.6227 C.2            1 S1                 0.0000
      3 ****         1.1075  -0.6231   0.7916 N.am           1 S1                 0.0000
      4 ****         2.4554  -0.6658   0.2352 C.3            1 S1                 0.0000
      5 ****         2.8008  -2.0920  -0.2141 C.3            1 S1                 0.0000
      6 ****         4.1809  -2.2241  -0.8556 C.3            1 S1                 0.0000
      7 ****         4.5527  -3.6789  -0.6095 C.3            1 S1                 0.0000
      8 ****         3.5409  -4.1525   0.4384 C.3            1 S1                 0.0000
      9 ****         2.9027  -2.9694   0.8964 O.3            1 S1                 0.0000
     10 ****        -0.9722   0.1192   1.2383 N.pl3          1 S1                -1.0000
     11 ****        -1.9754   1.0064   1.1353 C.2            1 S1                 0.0000
     12 ****        -2.2439   1.9043   2.0938 N.2            1 S1                 0.0000
     13 ****        -3.3264   2.7172   1.7903 N.2            1 S1                 0.0000
     14 ****        -3.8665   2.4160   0.6071 C.2            1 S1                 0.0000
     15 ****        -5.0460   3.1458   0.0575 C.3            1 S1                 0.0000
     16 ****        -5.1903   3.4146  -1.4248 C.3            1 S1                 0.0000
     17 ****        -4.9054   4.5523  -0.4776 C.3            1 S1                 0.0000
     18 ****        -3.0800   1.0913  -0.2364 S.3            1 S1                 0.0000
     19 ****         0.8262  -1.4144   1.3519 H              1 S1                 0.0000
     20 ****         2.5474   0.0069  -0.6189 H              1 S1                 0.0000
     21 ****         3.1614  -0.3192   0.9908 H              1 S1                 0.0000
     22 ****         2.0388  -2.4698  -0.8990 H              1 S1                 0.0000
     23 ****         4.1779  -1.9592  -1.9132 H              1 S1                 0.0000
     24 ****         4.8961  -1.5751  -0.3484 H              1 S1                 0.0000
     25 ****         4.4721  -4.2739  -1.5198 H              1 S1                 0.0000
     26 ****         5.5770  -3.7602  -0.2447 H              1 S1                 0.0000
     27 ****         2.7962  -4.8074  -0.0165 H              1 S1                 0.0000
     28 ****         4.0099  -4.6909   1.2622 H              1 S1                 0.0000
     29 ****        -5.9453   2.8998   0.6189 H              1 S1                 0.0000
     30 ****        -4.3831   3.1056  -2.0861 H              1 S1                 0.0000
     31 ****        -6.1899   3.3524  -1.8498 H              1 S1                 0.0000
     32 ****        -5.7141   5.2502  -0.2705 H              1 S1                 0.0000
     33 ****        -3.9078   4.9866  -0.5009 H              1 S1                 0.0000
     34 ****         1.4002   1.4300  -0.4638 LP             1 S1                 0.0000
     35 ****        -0.1777   2.0813  -0.1704 LP             1 S1                 0.0000
     36 ****         1.9915  -3.1853   1.2475 LP             1 S1                 0.0000
     37 ****         3.4466  -2.5447   1.6201 LP             1 S1                 0.0000
     38 ****        -1.0985  -0.7178   1.7709 LP             1 S1                 0.0000
     39 ****        -1.7178   1.9803   2.9409 LP             1 S1                 0.0000
     40 ****        -3.6631   3.4444   2.3885 LP             1 S1                 0.0000
@<TRIPOS>BOND
    1    1    2 2     
    2    2    3 am    
    3    2   10 1     
    4    3    4 1     
    5    3   19 1     
    6    4    5 1     
    7    4   20 1     
    8    4   21 1     
    9    5    9 1     
   10    5    6 1     
   11    5   22 1     
   12    6    7 1     
   13    6   23 1     
   14    6   24 1     
   15    7    8 1     
   16    7   25 1     
   17    7   26 1     
   18    8    9 1     
   19    8   27 1     
   20    8   28 1     
   21   10   11 1     
   22   11   18 1     
   23   11   12 2     
   24   12   13 1     
   25   13   14 2     
   26   14   15 1     
   27   14   18 1     
   28   15   17 1     
   29   15   16 1     
   30   15   29 1     
   31   16   17 1     
   32   16   30 1     
   33   16   31 1     
   34   17   32 1     
   35   17   33 1     
   36    1   34 1     
   37    1   35 1     
   38    9   36 1     
   39    9   37 1     
   40   10   38 1     
   41   12   39 1     
   42   13   40 1     
@<TRIPOS>SUBSTRUCTURE
      1 S1             1
@<TRIPOS>SET
LONE_PAIRS      STATIC     ATOMS    <user>   **** ""
7 34 35 36 37 38 39 40
DONOR_HYDROGENS      STATIC     ATOMS    <user>   **** ""
1 19
ATOM$BLUE        STATIC     ATOMS    COLORGROUP SYSTEM
7 34 35 36 37 38 39 40
ATOM$RED        STATIC     ATOMS    COLORGROUP SYSTEM
1 19
