AV-unprocessed.smi:2973|AV-procd|sdf|11349|dock10
  -GOLD-   2272016263D 1   1.00000     0.00000
 Structure written by MMmdl.
 49 51  0  0  0  0  0  0  0  0  3 V2000
  151.7931  139.6179  158.0149 C   0  0  0  0  0  0  0  0  0  0  0  0
  152.0148  141.1439  158.1146 C   0  0  2  0  0  0  0  0  0  0  0  0
  152.0064  141.5796  159.5970 C   0  0  0  0  0  0  0  0  0  0  0  0
  152.2985  143.0786  159.7572 C   0  0  0  0  0  0  0  0  0  0  0  0
  151.3061  143.9272  158.9526 C   0  0  0  0  0  0  0  0  0  0  0  0
  151.3070  143.5187  157.4693 C   0  0  0  0  0  0  0  0  0  0  0  0
  151.0397  142.0061  157.2437 C   0  0  1  0  0  0  0  0  0  0  0  0
  151.2283  141.7099  155.8336 N   0  5  0  0  0  0  0  0  0  0  0  0
  150.0623  141.2621  155.3139 C   0  0  0  0  0  0  0  0  0  0  0  0
  149.8631  140.9046  154.1532 O   0  0  0  0  0  0  0  0  0  0  0  0
  149.0939  141.2397  156.2484 N   0  0  0  0  0  0  0  0  0  0  0  0
  147.7209  140.7699  156.0217 C   0  0  0  0  0  0  0  0  0  0  0  0
  146.6621  141.7984  156.4421 C   0  0  0  0  0  0  0  0  0  0  0  0
  146.6092  142.2179  157.5994 O   0  0  0  0  0  0  0  0  0  0  0  0
  145.8271  142.2108  155.4766 N   0  0  0  0  0  0  0  0  0  0  0  0
  144.7469  143.1718  155.6617 C   0  0  0  0  0  0  0  0  0  0  0  0
  144.6482  144.1483  154.4770 C   0  0  0  0  0  0  0  0  0  0  0  0
  143.4633  145.0850  154.6039 C   0  0  0  0  0  0  0  0  0  0  0  0
  143.5702  146.3490  155.2235 C   0  0  0  0  0  0  0  0  0  0  0  0
  142.4310  147.1772  155.3003 C   0  0  0  0  0  0  0  0  0  0  0  0
  141.2110  146.7251  154.7564 C   0  0  0  0  0  0  0  0  0  0  0  0
  141.1610  145.4543  154.1477 C   0  0  0  0  0  0  0  0  0  0  0  0
  142.2742  144.6904  154.0931 N   0  3  0  0  0  0  0  0  0  0  0  0
  149.5641  141.6573  157.4289 C   0  0  0  0  0  0  0  0  0  0  0  0
  148.9421  141.7403  158.4889 O   0  0  0  0  0  0  0  0  0  0  0  0
  150.8231  139.3205  158.4139 H   0  0  0  0  0  0  0  0  0  0  0  0
  152.5544  139.0787  158.5789 H   0  0  0  0  0  0  0  0  0  0  0  0
  151.8507  139.2681  156.9842 H   0  0  0  0  0  0  0  0  0  0  0  0
  153.0234  141.3304  157.7411 H   0  0  0  0  0  0  0  0  0  0  0  0
  151.0465  141.3427  160.0564 H   0  0  0  0  0  0  0  0  0  0  0  0
  152.7531  141.0106  160.1517 H   0  0  0  0  0  0  0  0  0  0  0  0
  152.2547  143.3553  160.8108 H   0  0  0  0  0  0  0  0  0  0  0  0
  153.3149  143.2904  159.4231 H   0  0  0  0  0  0  0  0  0  0  0  0
  150.3062  143.8250  159.3739 H   0  0  0  0  0  0  0  0  0  0  0  0
  151.5659  144.9822  159.0428 H   0  0  0  0  0  0  0  0  0  0  0  0
  150.5710  144.1202  156.9329 H   0  0  0  0  0  0  0  0  0  0  0  0
  152.2743  143.7834  157.0388 H   0  0  0  0  0  0  0  0  0  0  0  0
  147.5702  140.5314  154.9678 H   0  0  0  0  0  0  0  0  0  0  0  0
  147.5599  139.8349  156.5618 H   0  0  0  0  0  0  0  0  0  0  0  0
  145.9455  141.8230  154.5519 H   0  0  0  0  0  0  0  0  0  0  0  0
  143.8015  142.6448  155.8031 H   0  0  0  0  0  0  0  0  0  0  0  0
  144.9383  143.7203  156.5844 H   0  0  0  0  0  0  0  0  0  0  0  0
  145.5620  144.7396  154.4014 H   0  0  0  0  0  0  0  0  0  0  0  0
  144.5612  143.5988  153.5387 H   0  0  0  0  0  0  0  0  0  0  0  0
  144.5133  146.6820  155.6327 H   0  0  0  0  0  0  0  0  0  0  0  0
  142.4927  148.1479  155.7704 H   0  0  0  0  0  0  0  0  0  0  0  0
  140.3269  147.3442  154.8045 H   0  0  0  0  0  0  0  0  0  0  0  0
  140.2715  145.0296  153.7057 H   0  0  0  0  0  0  0  0  0  0  0  0
  142.2145  143.7745  153.6474 H   0  0  0  0  0  0  0  0  0  0  0  0
  1  2  1  0  0  0  0
  1 26  1  0  0  0  0
  1 27  1  0  0  0  0
  1 28  1  0  0  0  0
  2  7  1  0  0  0  0
  2  3  1  0  0  0  0
  2 29  1  0  0  0  0
  3  4  1  0  0  0  0
  3 30  1  0  0  0  0
  3 31  1  0  0  0  0
  4  5  1  0  0  0  0
  4 32  1  0  0  0  0
  4 33  1  0  0  0  0
  5  6  1  0  0  0  0
  5 34  1  0  0  0  0
  5 35  1  0  0  0  0
  6  7  1  0  0  0  0
  6 36  1  0  0  0  0
  6 37  1  0  0  0  0
  7 24  1  0  0  0  0
  7  8  1  0  0  0  0
  8  9  1  0  0  0  0
  9 10  2  0  0  0  0
  9 11  1  0  0  0  0
 11 12  1  0  0  0  0
 11 24  1  0  0  0  0
 12 13  1  0  0  0  0
 12 38  1  0  0  0  0
 12 39  1  0  0  0  0
 13 14  2  0  0  0  0
 13 15  1  0  0  0  0
 15 16  1  0  0  0  0
 15 40  1  0  0  0  0
 16 17  1  0  0  0  0
 16 41  1  0  0  0  0
 16 42  1  0  0  0  0
 17 18  1  0  0  0  0
 17 43  1  0  0  0  0
 17 44  1  0  0  0  0
 18 23  1  0  0  0  0
 18 19  2  0  0  0  0
 19 20  1  0  0  0  0
 19 45  1  0  0  0  0
 20 21  2  0  0  0  0
 20 46  1  0  0  0  0
 21 22  1  0  0  0  0
 21 47  1  0  0  0  0
 22 23  2  0  0  0  0
 22 48  1  0  0  0  0
 23 49  1  0  0  0  0
 24 25  2  0  0  0  0
M  CHG  1   8  -1
M  CHG  1  23   1
M  END
> <s_m_source_file>
AV-unprocessed.smi

> <i_m_source_file_index>
2973

> <i_lp_mmshare_version>
43012

> <i_f3d_flags>
0

> <s_epik_input>
W0NIMl0xW0NIMl1bQ0gyXVtDSDJdW0NAQEhdKFtDSDNdKVtDQF0xMltOSF1DKD1PKU4oQzI9TylbQ0gyXUMoPU8pW05IXVtDSDJdW0NIMl1jM1tjSF1bY0hdW2NIXVtjSF1uMw==

> <s_epik_cmdline>
J2VwaWtfcHl0aG9uJywgJy1waCcsICc3LjAnLCAnLXRuJywgJzgnLCAnLW1hJywgJzIwMCcsICctbWV0YWxfYmluZGluZycsICctaW1hZScsICc8aW5maWxlLm1hZT4nLCAnLW9tYWUnLCAnPG91dGZpbGUubWFlPic=

> <r_lp_tautomer_probability>
1

> <r_epik_Ionization_Penalty>
7.89073

> <r_epik_Ionization_Penalty_Charging>
7.89073

> <r_epik_Ionization_Penalty_Neutral>
1.56557e-07

> <r_epik_State_Penalty>
8.01193

> <r_epik_Charging_Adjusted_Penalty>
15.9027

> <i_epik_Tot_Q>
0

> <i_epik_Tot_abs_Q>
2

> <r_epik_Metal_State_Penalty>
3.98737

> <b_epik_Metal_Only>
1

> <s_lp_Force_Field>
OPLS_2005

> <r_lp_Energy>
17.4929

> <b_lp_Chiralities_Consistent>
1

> <s_lp_Variant>
AV-unprocessed.smi:2973-13

> <Gold.Version>
5.8.1

> <Gold.Id.Protein>
6NUR|6NUR_protein|mol2

> <Gold.PLP.Fitness>
46.4735

> <Gold.PLP.PLP>
-39.4088

> <Gold.PLP.part.hbond>
-3.5339

> <Gold.PLP.part.metal>
0.0000

> <Gold.PLP.part.buried>
-2.5794

> <Gold.PLP.part.nonpolar>
-33.2068

> <Gold.PLP.part.repulsive>
0.5705

> <Gold.PLP.ligand.clash>
0.0000

> <Gold.PLP.ligand.torsion>
0.5466

> <Gold.PLP.Chemscore.Hbond>
2.7087

> <Gold.PLP.Chemscore.CHOScore>
0.0000

> <Gold.PLP.Chemscore.Metal>
0.0000

> <Gold.Chemscore.Hbonds>
donor molecule, donor type, donor heavy atom, donor atom, acceptor molecule, acceptor atom, score
      L1  H    23    49       P1 10174  2.00
      P1  H  7989  7998       L1    10  0.56
      P1  H  8011  8017       L1    10  0.15

> <Gold.PLP.Chemscore.Internal.Correction>
0.0317

> <Gold.Rescore>
     Score         DG    S(hbond)    S(metal)    S(lipo)     H(rot)  DE(clash)    DE(int)     intcor
     13.85     -18.15       1.51        0.00     107.13       1.92       0.33       3.96       ----

> <Gold.Chemscore.Fitness>
13.8517

> <Gold.Chemscore.DG>
-18.1504

> <Gold.Chemscore.ZeroCoef>
-5.4800

> <Gold.Chemscore.Hbond>
1.5103

> <Gold.Chemscore.Metal>
0.0000

> <Gold.Chemscore.Lipo>
107.1349

> <Gold.Chemscore.Internal_Hbond>
0.0000

> <Gold.Chemscore.DEClash>
0.3340

> <Gold.Chemscore.DEInternal>
3.9647

> <Gold.Chemscore.Rot>
1.9175

> <Gold.Chemscore.Internal.Correction>
   9.000000E+99

> <Gold.Chemscore.Hbonds>
donor molecule, donor type, donor heavy atom, donor atom, acceptor molecule, acceptor atom, score
      L1  H    23    49       P1 10174  0.90
      P1  H  7989  7998       L1    10  0.17
      P1  H  8011  8017       L1    10  0.16

> <Gold.Chemscore.Hbond.Weighted>
-5.0444

> <Gold.Chemscore.Metal.Weighted>
-0.0000

> <Gold.Chemscore.Lipo.Weighted>
-12.5348

> <Gold.Chemscore.Internal_Hbond.Weighted>
0.0000

> <Gold.Chemscore.DEClash.Weighted>
0.3340

> <Gold.Chemscore.DEInternal.Weighted>
3.9647

> <Gold.Chemscore.Rot.Weighted>
4.9087

> <Gold.Chemscore.Internal.Correction.Weighted>
   9.000000E+99

> <Gold.Protein.RotatedTorsions>
[ 6907 6896 6895 6894 ] final  -34.14 input  -60.11 | X-H torsion
[ 7974 7965 7964 7962 ] final -132.48 input  175.53 | X-H torsion
[ 8008 7997 7996 7995 ] final  -97.63 input   59.86 | X-H torsion
[ 10167 10162 10161 10158 ] final  172.23 input  -65.29 | X-H torsion
[ 10718 10713 10712 10709 ] final -115.01 input   66.30 | X-H torsion
[ 10763 10752 10751 10750 ] final   -8.95 input  -60.55 | X-H torsion
[ 11005 11000 10999 10996 ] final -154.65 input  -57.11 | X-H torsion

> <Gold.Protein.ActiveResidues>
 VAL166  LYS551  ARG553  GLY616  TRP617  ASP618  TYR619  PRO620  LYS621  CYS622 
 ASP623  PHE694  ASN695  SER759  ASP760  ASP761  ALA762  ILE779  LEU786  VAL792 
 PHE793  MET794  SER795  GLU796  ALA797  LYS798  CYS799  TRP800  GLU811  SER814 

> <Gold.Protein.RotatedAtoms>
  151.0565  134.9708  159.8237 H   0  0  0  0  0  0  0  0  0  0  0  0  # atno 6907 bound_to 6896
  152.5389  134.2472  159.8895 H   0  0  0  0  0  0  0  0  0  0  0  0  # atno 6908 bound_to 6896
  151.2490  133.4317  159.2644 H   0  0  0  0  0  0  0  0  0  0  0  0  # atno 6909 bound_to 6896
  144.9281  140.7096  143.4923 H   0  0  0  0  0  0  0  0  0  0  0  0  # atno 7974 bound_to 7965
  154.7904  140.0461  157.1196 H   0  0  0  0  0  0  0  0  0  0  0  0  # atno 8008 bound_to 7997
  154.9598  140.3076  155.5016 H   0  0  0  0  0  0  0  0  0  0  0  0  # atno 8009 bound_to 7997
  156.2949  140.2273  156.4682 H   0  0  0  0  0  0  0  0  0  0  0  0  # atno 8010 bound_to 7997
  139.5070  144.3397  152.0030 H   0  0  0  0  0  0  0  0  0  0  0  0  # atno 10167 bound_to 10162
  156.0867  130.6058  150.8850 H   0  0  0  0  0  0  0  0  0  0  0  0  # atno 10718 bound_to 10713
  153.4478  135.7014  153.6128 H   0  0  0  0  0  0  0  0  0  0  0  0  # atno 10763 bound_to 10752
  153.4476  135.3765  155.2265 H   0  0  0  0  0  0  0  0  0  0  0  0  # atno 10764 bound_to 10752
  154.8728  135.3989  154.3886 H   0  0  0  0  0  0  0  0  0  0  0  0  # atno 10765 bound_to 10752
  140.6950  134.4000  157.5215 H   0  0  0  0  0  0  0  0  0  0  0  0  # atno 11005 bound_to 11000
  145.3186  139.1795  143.4600 LP  0  0  0  0  0  0  0  0  0  0  0  0  # atno 17320 bound_to 7965
  146.3235  140.3200  142.8632 LP  0  0  0  0  0  0  0  0  0  0  0  0  # atno 17321 bound_to 7965
  140.2836  144.3833  150.6111 LP  0  0  0  0  0  0  0  0  0  0  0  0  # atno 17342 bound_to 10162
  140.6000  143.2167  151.7091 LP  0  0  0  0  0  0  0  0  0  0  0  0  # atno 17343 bound_to 10162
  157.6004  131.0941  150.8969 LP  0  0  0  0  0  0  0  0  0  0  0  0  # atno 17370 bound_to 10713
  156.9128  130.5287  149.5280 LP  0  0  0  0  0  0  0  0  0  0  0  0  # atno 17371 bound_to 10713
  139.8913  134.8784  156.2328 LP  0  0  0  0  0  0  0  0  0  0  0  0  # atno 17394 bound_to 11000
  141.0211  133.7041  156.1269 LP  0  0  0  0  0  0  0  0  0  0  0  0  # atno 17395 bound_to 11000

$$$$
