#       Name:                AV-unprocessed.smi:700
#       Creating user name   scv26
#       Creation time:       Fri Mar 27 00:38:43 2020


#       File generated by GOLD software.
#

@<TRIPOS>MOLECULE
AV-unprocessed.smi:700
    48    49     1
SMALL
NO_CHARGES


@<TRIPOS>ATOM
      1 ****        -7.0383   4.0203   0.4983 C.3            1 S1                 0.0000
      2 ****        -6.2091   2.9158   1.0583 C.2            1 S1                 0.0000
      3 ****        -5.5316   1.8782   0.4844 C.2            1 S1                 0.0000
      4 ****        -4.9436   1.2060   1.5919 C.2            1 S1                 0.0000
      5 ****        -4.0722  -0.0237   1.5835 C.3            1 S1                 0.0000
      6 ****        -2.5825   0.3241   1.4665 C.2            1 S1                 0.0000
      7 ****        -2.2145   1.4297   1.0656 O.2            1 S1                 0.0000
      8 ****        -1.7264  -0.6496   1.8134 N.am           1 S1                 0.0000
      9 ****        -0.2722  -0.5455   1.7696 C.3            1 S1                 0.0000
     10 ****         0.2664  -0.7160   0.3392 C.3            1 S1                 0.0000
     11 ****         1.7998  -0.6719   0.2766 C.3            1 S1                 0.0000
     12 ****         2.3307  -0.7968  -1.1603 C.3            1 S1                 0.0000
     13 ****         3.8667  -0.7638  -1.2494 C.3            1 S1                 0.0000
     14 ****         4.3905  -0.7404  -2.6866 C.3            1 S1                 0.0000
     15 ****         5.8557  -1.1673  -2.5714 C.3            1 S1                 0.0000
     16 ****         5.9389  -2.0594  -1.3242 C.3            1 S1                 0.0000
     17 ****         4.5641  -1.9887  -0.6459 C.3            1 S1                 0.0000
     18 ****        -5.2557   1.7881   2.7394 N.2            1 S1                 0.0000
     19 ****        -6.0605   2.8837   2.4075 O.3            1 S1                 0.0000
     20 ****        -7.3805   3.7775  -0.5078 H              1 S1                 0.0000
     21 ****        -6.4637   4.9451   0.4460 H              1 S1                 0.0000
     22 ****        -7.9165   4.2007   1.1186 H              1 S1                 0.0000
     23 ****        -5.4608   1.6394  -0.5661 H              1 S1                 0.0000
     24 ****        -4.2355  -0.6104   2.4887 H              1 S1                 0.0000
     25 ****        -4.3424  -0.6663   0.7451 H              1 S1                 0.0000
     26 ****        -2.1104  -1.5280   2.1305 H              1 S1                 0.0000
     27 ****         0.0468   0.4106   2.1885 H              1 S1                 0.0000
     28 ****         0.1395  -1.3204   2.4166 H              1 S1                 0.0000
     29 ****        -0.0843  -1.6637  -0.0709 H              1 S1                 0.0000
     30 ****        -0.1410   0.0669  -0.3016 H              1 S1                 0.0000
     31 ****         2.1547   0.2625   0.7130 H              1 S1                 0.0000
     32 ****         2.2064  -1.4750   0.8919 H              1 S1                 0.0000
     33 ****         1.9554  -1.7151  -1.6139 H              1 S1                 0.0000
     34 ****         1.9256   0.0224  -1.7559 H              1 S1                 0.0000
     35 ****         4.2359   0.1301  -0.7436 H              1 S1                 0.0000
     36 ****         3.8467  -1.4658  -3.2938 H              1 S1                 0.0000
     37 ****         4.2775   0.2365  -3.1577 H              1 S1                 0.0000
     38 ****         6.2019  -1.6784  -3.4704 H              1 S1                 0.0000
     39 ****         6.4853  -0.2876  -2.4330 H              1 S1                 0.0000
     40 ****         6.1890  -3.0884  -1.5850 H              1 S1                 0.0000
     41 ****         6.7188  -1.6951  -0.6544 H              1 S1                 0.0000
     42 ****         4.6433  -1.9285   0.4400 H              1 S1                 0.0000
     43 ****         4.0001  -2.8921  -0.8827 H              1 S1                 0.0000
     44 ****        -2.8916   2.1195   0.8095 LP             1 S1                 0.0000
     45 ****        -1.2386   1.6371   0.9964 LP             1 S1                 0.0000
     46 ****        -4.9739   1.5032   3.6557 LP             1 S1                 0.0000
     47 ****        -6.9555   2.7892   2.8434 LP             1 S1                 0.0000
     48 ****        -5.6255   3.7285   2.7192 LP             1 S1                 0.0000
@<TRIPOS>BOND
    1    1    2 1     
    2    1   20 1     
    3    1   21 1     
    4    1   22 1     
    5    2   19 1     
    6    2    3 2     
    7    3    4 1     
    8    3   23 1     
    9    4    5 1     
   10    4   18 2     
   11    5    6 1     
   12    5   24 1     
   13    5   25 1     
   14    6    7 2     
   15    6    8 am    
   16    8    9 1     
   17    8   26 1     
   18    9   10 1     
   19    9   27 1     
   20    9   28 1     
   21   10   11 1     
   22   10   29 1     
   23   10   30 1     
   24   11   12 1     
   25   11   31 1     
   26   11   32 1     
   27   12   13 1     
   28   12   33 1     
   29   12   34 1     
   30   13   17 1     
   31   13   14 1     
   32   13   35 1     
   33   14   15 1     
   34   14   36 1     
   35   14   37 1     
   36   15   16 1     
   37   15   38 1     
   38   15   39 1     
   39   16   17 1     
   40   16   40 1     
   41   16   41 1     
   42   17   42 1     
   43   17   43 1     
   44   18   19 1     
   45    7   44 1     
   46    7   45 1     
   47   18   46 1     
   48   19   47 1     
   49   19   48 1     
@<TRIPOS>SUBSTRUCTURE
      1 S1             1
@<TRIPOS>SET
LONE_PAIRS      STATIC     ATOMS    <user>   **** ""
5 44 45 46 47 48
DONOR_HYDROGENS      STATIC     ATOMS    <user>   **** ""
1 26
ATOM$BLUE        STATIC     ATOMS    COLORGROUP SYSTEM
5 44 45 46 47 48
ATOM$RED        STATIC     ATOMS    COLORGROUP SYSTEM
1 26
