AV-unprocessed.smi:1911|AV-procd|sdf|7739|dock6
  -GOLD-   22720 9483D 1   1.00000     0.00000
 Structure written by MMmdl.
 52 54  0  0  0  0  0  0  0  0  2 V2000
  147.9291  127.5249  151.2891 N   0  0  0  0  0  0  0  0  0  0  0  0
  147.3970  128.4571  152.0829 C   0  0  0  0  0  0  0  0  0  0  0  0
  146.2654  128.9035  151.9022 O   0  0  0  0  0  0  0  0  0  0  0  0
  148.2578  128.9393  153.2556 C   0  0  0  0  0  0  0  0  0  0  0  0
  148.5207  130.4016  153.2239 N   0  3  2  0  0  0  0  0  0  0  0  0
  149.4467  130.8519  154.2981 C   0  0  0  0  0  0  0  0  0  0  0  0
  149.7930  132.3424  154.1442 C   0  0  0  0  0  0  0  0  0  0  0  0
  148.5227  133.2075  154.1342 C   0  0  1  0  0  0  0  0  0  0  0  0
  148.8740  134.6077  153.9150 N   0  0  0  0  0  0  0  0  0  0  0  0
  149.3011  135.4518  154.8655 C   0  0  0  0  0  0  0  0  0  0  0  0
  149.4298  135.1297  156.0463 O   0  0  0  0  0  0  0  0  0  0  0  0
  149.5413  136.6738  154.3600 N   0  0  0  0  0  0  0  0  0  0  0  0
  150.0100  137.8335  155.0346 C   0  0  0  0  0  0  0  0  0  0  0  0
  150.2962  137.7295  156.4098 C   0  0  0  0  0  0  0  0  0  0  0  0
  150.7477  138.8648  157.1088 C   0  0  0  0  0  0  0  0  0  0  0  0
  150.8969  140.0868  156.4109 C   0  0  0  0  0  0  0  0  0  0  0  0
  151.3421  141.2519  157.0668 N   0  0  0  0  0  0  0  0  0  0  0  0
  150.9332  142.5833  156.6503 C   0  0  0  0  0  0  0  0  0  0  0  0
  151.5350  143.5197  157.6980 C   0  0  0  0  0  0  0  0  0  0  0  0
  151.5275  142.6713  158.9696 C   0  0  0  0  0  0  0  0  0  0  0  0
  151.7558  141.2423  158.4646 C   0  0  0  0  0  0  0  0  0  0  0  0
  150.6030  140.1926  155.0934 N   0  0  0  0  0  0  0  0  0  0  0  0
  150.1716  139.1013  154.4267 C   0  0  0  0  0  0  0  0  0  0  0  0
  147.5659  132.6998  153.0398 C   0  0  0  0  0  0  0  0  0  0  0  0
  147.2687  131.2008  153.2129 C   0  0  0  0  0  0  0  0  0  0  0  0
  147.3977  127.1720  150.5055 H   0  0  0  0  0  0  0  0  0  0  0  0
  148.8566  127.1694  151.4724 H   0  0  0  0  0  0  0  0  0  0  0  0
  147.7128  128.6848  154.1658 H   0  0  0  0  0  0  0  0  0  0  0  0
  149.2004  128.3900  153.2911 H   0  0  0  0  0  0  0  0  0  0  0  0
  148.9897  130.6730  155.2727 H   0  0  0  0  0  0  0  0  0  0  0  0
  150.3672  130.2680  154.2712 H   0  0  0  0  0  0  0  0  0  0  0  0
  150.4510  132.6529  154.9568 H   0  0  0  0  0  0  0  0  0  0  0  0
  150.3526  132.4898  153.2190 H   0  0  0  0  0  0  0  0  0  0  0  0
  148.0360  133.1116  155.1071 H   0  0  0  0  0  0  0  0  0  0  0  0
  148.7925  134.9578  152.9713 H   0  0  0  0  0  0  0  0  0  0  0  0
  149.3123  136.8052  153.3856 H   0  0  0  0  0  0  0  0  0  0  0  0
  150.1762  136.7890  156.9274 H   0  0  0  0  0  0  0  0  0  0  0  0
  150.9694  138.7807  158.1621 H   0  0  0  0  0  0  0  0  0  0  0  0
  151.2910  142.8226  155.6484 H   0  0  0  0  0  0  0  0  0  0  0  0
  149.8443  142.6470  156.6564 H   0  0  0  0  0  0  0  0  0  0  0  0
  152.5628  143.7656  157.4269 H   0  0  0  0  0  0  0  0  0  0  0  0
  150.9802  144.4527  157.8024 H   0  0  0  0  0  0  0  0  0  0  0  0
  152.2749  142.9875  159.6978 H   0  0  0  0  0  0  0  0  0  0  0  0
  150.5477  142.7381  159.4449 H   0  0  0  0  0  0  0  0  0  0  0  0
  151.1921  140.5239  159.0610 H   0  0  0  0  0  0  0  0  0  0  0  0
  152.8120  140.9764  158.5168 H   0  0  0  0  0  0  0  0  0  0  0  0
  149.9367  139.2736  153.3882 H   0  0  0  0  0  0  0  0  0  0  0  0
  146.6310  133.2610  153.0638 H   0  0  0  0  0  0  0  0  0  0  0  0
  148.0036  132.8716  152.0551 H   0  0  0  0  0  0  0  0  0  0  0  0
  146.6262  130.8686  152.3964 H   0  0  0  0  0  0  0  0  0  0  0  0
  146.7186  131.0305  154.1397 H   0  0  0  0  0  0  0  0  0  0  0  0
  148.9809  130.5827  152.3428 H   0  0  0  0  0  0  0  0  0  0  0  0
  1  2  1  0  0  0  0
  1 26  1  0  0  0  0
  1 27  1  0  0  0  0
  2  3  2  0  0  0  0
  2  4  1  0  0  0  0
  4  5  1  0  0  0  0
  4 28  1  0  0  0  0
  4 29  1  0  0  0  0
  5 25  1  0  0  0  0
  5  6  1  0  0  0  0
  5 52  1  0  0  0  0
  6  7  1  0  0  0  0
  6 30  1  0  0  0  0
  6 31  1  0  0  0  0
  7  8  1  0  0  0  0
  7 32  1  0  0  0  0
  7 33  1  0  0  0  0
  8  9  1  0  0  0  0
  8 24  1  0  0  0  0
  8 34  1  0  0  0  0
  9 10  1  0  0  0  0
  9 35  1  0  0  0  0
 10 11  2  0  0  0  0
 10 12  1  0  0  0  0
 12 13  1  0  0  0  0
 12 36  1  0  0  0  0
 13 23  1  0  0  0  0
 13 14  2  0  0  0  0
 14 15  1  0  0  0  0
 14 37  1  0  0  0  0
 15 16  2  0  0  0  0
 15 38  1  0  0  0  0
 16 17  1  0  0  0  0
 16 22  1  0  0  0  0
 17 21  1  0  0  0  0
 17 18  1  0  0  0  0
 18 19  1  0  0  0  0
 18 39  1  0  0  0  0
 18 40  1  0  0  0  0
 19 20  1  0  0  0  0
 19 41  1  0  0  0  0
 19 42  1  0  0  0  0
 20 21  1  0  0  0  0
 20 43  1  0  0  0  0
 20 44  1  0  0  0  0
 21 45  1  0  0  0  0
 21 46  1  0  0  0  0
 22 23  2  0  0  0  0
 23 47  1  0  0  0  0
 24 25  1  0  0  0  0
 24 48  1  0  0  0  0
 24 49  1  0  0  0  0
 25 50  1  0  0  0  0
 25 51  1  0  0  0  0
M  CHG  1   5   1
M  END
> <s_m_source_file>
AV-unprocessed.smi

> <i_m_source_file_index>
1911

> <i_lp_mmshare_version>
43012

> <i_f3d_flags>
0

> <s_epik_input>
W05IMl1DKD1PKVtDSDJdTjFbQ0gyXVtDSDJdW0NIXShbQ0gyXVtDSDJdMSlbTkhdQyg9TylbTkhdYzJbY0hdW2NIXWMobltjSF0yKU4zW0NIMl1bQ0gyXVtDSDJdW0NIMl0z

> <s_epik_cmdline>
J2VwaWtfcHl0aG9uJywgJy1waCcsICc3LjAnLCAnLXRuJywgJzgnLCAnLW1hJywgJzIwMCcsICctbWV0YWxfYmluZGluZycsICctaW1hZScsICc8aW5maWxlLm1hZT4nLCAnLW9tYWUnLCAnPG91dGZpbGUubWFlPic=

> <r_lp_tautomer_probability>
1

> <r_epik_Ionization_Penalty>
0.91661

> <r_epik_Ionization_Penalty_Charging>
0.838844

> <r_epik_Ionization_Penalty_Neutral>
0.0777665

> <r_epik_State_Penalty>
0.927046

> <r_epik_Charging_Adjusted_Penalty>
1.76589

> <i_epik_Tot_Q>
1

> <i_epik_Tot_abs_Q>
1

> <r_epik_Metal_State_Penalty>
0.950553

> <b_epik_Metal_Only>
0

> <s_lp_Force_Field>
OPLS_2005

> <r_lp_Energy>
39.0232

> <b_lp_Chiralities_Consistent>
1

> <s_lp_Variant>
AV-unprocessed.smi:1911-2

> <Gold.Version>
5.8.1

> <Gold.Id.Protein>
6NUR|6NUR_protein|mol2

> <Gold.PLP.Fitness>
51.8822

> <Gold.PLP.PLP>
-38.7863

> <Gold.PLP.part.hbond>
-4.0000

> <Gold.PLP.part.metal>
0.0000

> <Gold.PLP.part.buried>
-5.4655

> <Gold.PLP.part.nonpolar>
-29.1611

> <Gold.PLP.part.repulsive>
0.3722

> <Gold.PLP.ligand.clash>
0.0000

> <Gold.PLP.ligand.torsion>
0.5150

> <Gold.PLP.Chemscore.Hbond>
3.6500

> <Gold.PLP.Chemscore.CHOScore>
1.0000

> <Gold.PLP.Chemscore.Metal>
0.0000

> <Gold.Chemscore.Hbonds>
donor molecule, donor type, donor heavy atom, donor atom, acceptor molecule, acceptor atom, score
      L1  H     5    52       P1 10747  0.96
      L1  H     9    35       P1  7948  1.00
      L1  H    12    36       P1  7948  1.00
      P1  H  7989  7998       L1    22  0.65
      L1  C    23    47       P1  7957  1.00

> <Gold.PLP.Chemscore.Internal.Correction>
0.1759

> <Gold.Rescore>
     Score         DG    S(hbond)    S(metal)    S(lipo)     H(rot)  DE(clash)    DE(int)     intcor
     16.51     -19.79       2.63        0.00      88.89       1.91       0.05       3.23       ----

> <Gold.Chemscore.Fitness>
16.5110

> <Gold.Chemscore.DG>
-19.7922

> <Gold.Chemscore.ZeroCoef>
-5.4800

> <Gold.Chemscore.Hbond>
2.6332

> <Gold.Chemscore.Metal>
0.0000

> <Gold.Chemscore.Lipo>
88.8901

> <Gold.Chemscore.Internal_Hbond>
0.0000

> <Gold.Chemscore.DEClash>
0.0504

> <Gold.Chemscore.DEInternal>
3.2308

> <Gold.Chemscore.Rot>
1.9074

> <Gold.Chemscore.Internal.Correction>
   9.000000E+99

> <Gold.Chemscore.Hbonds>
donor molecule, donor type, donor heavy atom, donor atom, acceptor molecule, acceptor atom, score
      L1  H     5    52       P1 10747  0.26
      L1  H     9    35       P1  7948  0.24
      L1  H    12    36       P1  7948  0.90
      P1  H  7989  7998       L1    22  0.05

> <Gold.Chemscore.Hbond.Weighted>
-8.7950

> <Gold.Chemscore.Metal.Weighted>
-0.0000

> <Gold.Chemscore.Lipo.Weighted>
-10.4001

> <Gold.Chemscore.Internal_Hbond.Weighted>
0.0000

> <Gold.Chemscore.DEClash.Weighted>
0.0504

> <Gold.Chemscore.DEInternal.Weighted>
3.2308

> <Gold.Chemscore.Rot.Weighted>
4.8829

> <Gold.Chemscore.Internal.Correction.Weighted>
   9.000000E+99

> <Gold.Protein.RotatedTorsions>
[ 6907 6896 6895 6894 ] final  160.94 input  -60.11 | X-H torsion
[ 7974 7965 7964 7962 ] final -118.43 input  175.53 | X-H torsion
[ 8008 7997 7996 7995 ] final  118.38 input   59.86 | X-H torsion
[ 10167 10162 10161 10158 ] final   88.71 input  -65.29 | X-H torsion
[ 10718 10713 10712 10709 ] final   -8.09 input   66.30 | X-H torsion
[ 10763 10752 10751 10750 ] final  -28.22 input  -60.55 | X-H torsion
[ 11005 11000 10999 10996 ] final  113.73 input  -57.11 | X-H torsion

> <Gold.Protein.ActiveResidues>
 VAL166  LYS551  ARG553  GLY616  TRP617  ASP618  TYR619  PRO620  LYS621  CYS622 
 ASP623  PHE694  ASN695  SER759  ASP760  ASP761  ALA762  ILE779  LEU786  VAL792 
 PHE793  MET794  SER795  GLU796  ALA797  LYS798  CYS799  TRP800  GLU811  SER814 

> <Gold.Protein.RotatedAtoms>
  151.9631  133.3702  159.4042 H   0  0  0  0  0  0  0  0  0  0  0  0  # atno 6907 bound_to 6896
  150.6961  134.4219  159.5218 H   0  0  0  0  0  0  0  0  0  0  0  0  # atno 6908 bound_to 6896
  152.1911  134.8671  160.0568 H   0  0  0  0  0  0  0  0  0  0  0  0  # atno 6909 bound_to 6896
  145.0739  140.8378  143.4079 H   0  0  0  0  0  0  0  0  0  0  0  0  # atno 7974 bound_to 7965
  156.2543  140.2876  156.0826 H   0  0  0  0  0  0  0  0  0  0  0  0  # atno 8008 bound_to 7997
  155.1550  140.0398  157.2847 H   0  0  0  0  0  0  0  0  0  0  0  0  # atno 8009 bound_to 7997
  154.6434  140.2527  155.7303 H   0  0  0  0  0  0  0  0  0  0  0  0  # atno 8010 bound_to 7997
  139.8646  144.6526  150.9019 H   0  0  0  0  0  0  0  0  0  0  0  0  # atno 10167 bound_to 10162
  156.7076  130.5112  149.5900 H   0  0  0  0  0  0  0  0  0  0  0  0  # atno 10718 bound_to 10713
  153.7448  135.6930  153.4959 H   0  0  0  0  0  0  0  0  0  0  0  0  # atno 10763 bound_to 10752
  153.2044  135.4425  155.0304 H   0  0  0  0  0  0  0  0  0  0  0  0  # atno 10764 bound_to 10752
  154.8208  135.3421  154.6972 H   0  0  0  0  0  0  0  0  0  0  0  0  # atno 10765 bound_to 10752
  139.8961  134.9555  156.6783 H   0  0  0  0  0  0  0  0  0  0  0  0  # atno 11005 bound_to 11000
  145.1259  139.2663  143.5564 LP  0  0  0  0  0  0  0  0  0  0  0  0  # atno 17320 bound_to 7965
  146.3529  140.0896  142.8613 LP  0  0  0  0  0  0  0  0  0  0  0  0  # atno 17321 bound_to 7965
  140.7770  143.3715  151.1640 LP  0  0  0  0  0  0  0  0  0  0  0  0  # atno 17342 bound_to 10162
  139.7341  143.9026  152.3029 LP  0  0  0  0  0  0  0  0  0  0  0  0  # atno 17343 bound_to 10162
  156.1684  130.6420  151.0806 LP  0  0  0  0  0  0  0  0  0  0  0  0  # atno 17370 bound_to 10713
  157.6949  131.0797  150.7000 LP  0  0  0  0  0  0  0  0  0  0  0  0  # atno 17371 bound_to 10713
  140.7319  133.9051  155.8217 LP  0  0  0  0  0  0  0  0  0  0  0  0  # atno 17394 bound_to 11000
  141.0146  134.0973  157.4185 LP  0  0  0  0  0  0  0  0  0  0  0  0  # atno 17395 bound_to 11000

$$$$
