#       Name:                AV-unprocessed.smi:1425
#       Creating user name   scv26
#       Creation time:       Fri Mar 27 05:45:44 2020


#       File generated by GOLD software.
#

@<TRIPOS>MOLECULE
AV-unprocessed.smi:1425
    39    40     1
SMALL
NO_CHARGES


@<TRIPOS>ATOM
      1 ****        -2.6440  -2.7677   1.9452 C.3            1 S1                 0.0000
      2 ****        -3.3905  -1.5287   1.4780 C.ar           1 S1                 0.0000
      3 ****        -4.8014  -1.5415   1.4528 C.ar           1 S1                 0.0000
      4 ****        -5.4903  -0.3954   1.0206 C.ar           1 S1                 0.0000
      5 ****        -4.7338   0.7224   0.6293 C.ar           1 S1                 0.0000
      6 ****        -3.3856   0.7434   0.6506 N.ar           1 S1                 0.0000
      7 ****        -2.7051  -0.3545   1.0659 C.ar           1 S1                 0.0000
      8 ****        -1.2830  -0.4030   1.1138 N.am           1 S1                 0.0000
      9 ****        -0.4027   0.5682   0.8127 C.2            1 S1                 0.0000
     10 ****        -0.6930   1.7046   0.4377 O.2            1 S1                 0.0000
     11 ****         0.8597   0.1455   0.9724 N.am           1 S1                 0.0000
     12 ****         2.0493   0.9572   0.7356 C.3            1 S1                 0.0000
     13 ****         2.3763   1.1027  -0.7644 C.3            1 S1                 0.0000
     14 ****         2.6130  -0.2453  -1.4772 C.3            1 S1                 0.0000
     15 ****         3.2103   0.0325  -2.8597 C.3            1 S1                 0.0000
     16 ****         4.2799   1.5025  -2.6452 S.o2           1 S1                 0.0000
     17 ****         5.6759   1.0710  -2.4771 O.2            1 S1                 0.0000
     18 ****         3.9155   2.5126  -3.6501 O.2            1 S1                 0.0000
     19 ****         3.6085   1.9889  -1.0092 C.3            1 S1                 0.0000
     20 ****        -3.3334  -3.5667   2.2197 H              1 S1                 0.0000
     21 ****        -2.0320  -2.5385   2.8181 H              1 S1                 0.0000
     22 ****        -1.9945  -3.1434   1.1540 H              1 S1                 0.0000
     23 ****        -5.3527  -2.4177   1.7610 H              1 S1                 0.0000
     24 ****        -6.5697  -0.3737   0.9900 H              1 S1                 0.0000
     25 ****        -5.2227   1.6236   0.2902 H              1 S1                 0.0000
     26 ****        -0.8921  -1.2825   1.4167 H              1 S1                 0.0000
     27 ****         1.0101  -0.8025   1.2854 H              1 S1                 0.0000
     28 ****         1.9187   1.9405   1.1907 H              1 S1                 0.0000
     29 ****         2.8848   0.4879   1.2558 H              1 S1                 0.0000
     30 ****         1.5338   1.5858  -1.2621 H              1 S1                 0.0000
     31 ****         3.3225  -0.8380  -0.8983 H              1 S1                 0.0000
     32 ****         1.6968  -0.8313  -1.5556 H              1 S1                 0.0000
     33 ****         3.7880  -0.8031  -3.2549 H              1 S1                 0.0000
     34 ****         2.4270   0.2868  -3.5742 H              1 S1                 0.0000
     35 ****         3.3714   3.0530  -1.0019 H              1 S1                 0.0000
     36 ****         4.3833   1.8029  -0.2648 H              1 S1                 0.0000
     37 ****        -2.8905   1.5630   0.3621 LP             1 S1                 0.0000
     38 ****        -1.6523   1.9677   0.3355 LP             1 S1                 0.0000
     39 ****         0.0307   2.3645   0.2352 LP             1 S1                 0.0000
@<TRIPOS>BOND
    1    1    2 1     
    2    1   20 1     
    3    1   21 1     
    4    1   22 1     
    5    2    7 ar    
    6    2    3 ar    
    7    3    4 ar    
    8    3   23 1     
    9    4    5 ar    
   10    4   24 1     
   11    5    6 ar    
   12    5   25 1     
   13    6    7 ar    
   14    7    8 1     
   15    8    9 am    
   16    8   26 1     
   17    9   10 2     
   18    9   11 am    
   19   11   12 1     
   20   11   27 1     
   21   12   13 1     
   22   12   28 1     
   23   12   29 1     
   24   13   19 1     
   25   13   14 1     
   26   13   30 1     
   27   14   15 1     
   28   14   31 1     
   29   14   32 1     
   30   15   16 1     
   31   15   33 1     
   32   15   34 1     
   33   16   17 2     
   34   16   18 2     
   35   16   19 1     
   36   19   35 1     
   37   19   36 1     
   38    6   37 1     
   39   10   38 1     
   40   10   39 1     
@<TRIPOS>SUBSTRUCTURE
      1 S1             1
@<TRIPOS>SET
LONE_PAIRS      STATIC     ATOMS    <user>   **** ""
5 37 38 39 17 18
DONOR_HYDROGENS      STATIC     ATOMS    <user>   **** ""
2 26 27
ATOM$BLUE        STATIC     ATOMS    COLORGROUP SYSTEM
5 37 38 39 17 18
ATOM$RED        STATIC     ATOMS    COLORGROUP SYSTEM
2 26 27
