AV-unprocessed.smi:2|AV-procd|sdf|26|dock10
  -GOLD-   2262015143D 1   1.00000     0.00000
 Structure written by MMmdl.
 52 54  0  0  0  0  0  0  0  0  3 V2000
  153.7053  143.2774  163.5011 C   0  0  0  0  0  0  0  0  0  0  0  0
  152.9505  143.3841  162.1664 C   0  0  0  0  0  0  0  0  0  0  0  0
  153.4513  142.4119  161.0866 C   0  0  0  0  0  0  0  0  0  0  0  0
  154.4622  141.7381  161.2914 O   0  0  0  0  0  0  0  0  0  0  0  0
  152.6705  142.3348  159.8179 C   0  0  0  0  0  0  0  0  0  0  0  0
  152.6211  141.1158  159.1053 C   0  0  0  0  0  0  0  0  0  0  0  0
  151.8976  141.0171  157.9016 C   0  0  0  0  0  0  0  0  0  0  0  0
  151.2099  142.1284  157.3768 C   0  0  0  0  0  0  0  0  0  0  0  0
  150.5410  141.9420  156.1840 O   0  0  0  0  0  0  0  0  0  0  0  0
  150.3920  140.6259  155.6570 C   0  0  0  0  0  0  0  0  0  0  0  0
  149.1806  140.5303  154.7041 C   0  0  1  0  0  0  0  0  0  0  0  0
  149.5967  140.9463  153.4182 O   0  0  0  0  0  0  0  0  0  0  0  0
  148.6100  139.0941  154.6449 C   0  0  0  0  0  0  0  0  0  0  0  0
  149.0627  138.2438  155.7528 N   0  0  0  0  0  0  0  0  0  0  0  0
  150.2482  137.5665  155.8385 C   0  0  0  0  0  0  0  0  0  0  0  0
  151.3304  137.5574  154.8621 N   0  3  0  0  0  0  0  0  0  0  0  0
  151.2120  138.1920  153.8216 O   0  0  0  0  0  0  0  0  0  0  0  0
  152.3146  136.8719  155.1233 O   0  5  0  0  0  0  0  0  0  0  0  0
  150.3682  136.8173  156.9352 N   0  0  0  0  0  0  0  0  0  0  0  0
  149.1784  137.0190  157.6047 C   0  0  0  0  0  0  0  0  0  0  0  0
  148.6928  136.4008  158.8545 C   0  0  0  0  0  0  0  0  0  0  0  0
  149.4093  135.6417  159.5085 O   0  0  0  0  0  0  0  0  0  0  0  0
  147.4012  136.7271  159.1729 N   0  0  0  0  0  0  0  0  0  0  0  0
  146.7930  136.0861  160.3547 C   0  0  0  0  0  0  0  0  0  0  0  0
  146.6167  137.6367  158.4870 C   0  0  0  0  0  0  0  0  0  0  0  0
  145.4538  137.8534  158.8402 O   0  0  0  0  0  0  0  0  0  0  0  0
  147.1695  138.3096  157.4211 N   0  0  0  0  0  0  0  0  0  0  0  0
  146.4837  139.4989  156.9005 C   0  0  0  0  0  0  0  0  0  0  0  0
  148.3912  137.9117  156.9510 C   0  0  0  0  0  0  0  0  0  0  0  0
  151.2471  143.3475  158.0969 C   0  0  0  0  0  0  0  0  0  0  0  0
  151.9714  143.4497  159.2999 C   0  0  0  0  0  0  0  0  0  0  0  0
  153.3153  143.9984  164.2196 H   0  0  0  0  0  0  0  0  0  0  0  0
  154.7696  143.4810  163.3764 H   0  0  0  0  0  0  0  0  0  0  0  0
  153.5987  142.2848  163.9405 H   0  0  0  0  0  0  0  0  0  0  0  0
  151.8900  143.1977  162.3384 H   0  0  0  0  0  0  0  0  0  0  0  0
  153.0387  144.4017  161.7849 H   0  0  0  0  0  0  0  0  0  0  0  0
  153.1403  140.2418  159.4716 H   0  0  0  0  0  0  0  0  0  0  0  0
  151.8771  140.0767  157.3705 H   0  0  0  0  0  0  0  0  0  0  0  0
  151.3072  140.3632  155.1245 H   0  0  0  0  0  0  0  0  0  0  0  0
  150.3304  139.8981  156.4658 H   0  0  0  0  0  0  0  0  0  0  0  0
  148.3945  141.2136  155.0208 H   0  0  0  0  0  0  0  0  0  0  0  0
  149.3298  140.2943  152.7885 H   0  0  0  0  0  0  0  0  0  0  0  0
  147.5236  139.1192  154.6197 H   0  0  0  0  0  0  0  0  0  0  0  0
  148.8465  138.6296  153.6945 H   0  0  0  0  0  0  0  0  0  0  0  0
  145.8485  135.6068  160.0918 H   0  0  0  0  0  0  0  0  0  0  0  0
  146.5868  136.8322  161.1237 H   0  0  0  0  0  0  0  0  0  0  0  0
  147.4031  135.3119  160.8211 H   0  0  0  0  0  0  0  0  0  0  0  0
  147.1670  140.3468  156.8744 H   0  0  0  0  0  0  0  0  0  0  0  0
  145.6442  139.8380  157.5083 H   0  0  0  0  0  0  0  0  0  0  0  0
  146.0853  139.3125  155.9079 H   0  0  0  0  0  0  0  0  0  0  0  0
  150.7321  144.2283  157.7479 H   0  0  0  0  0  0  0  0  0  0  0  0
  151.9754  144.4018  159.8090 H   0  0  0  0  0  0  0  0  0  0  0  0
  1  2  1  0  0  0  0
  1 32  1  0  0  0  0
  1 33  1  0  0  0  0
  1 34  1  0  0  0  0
  2  3  1  0  0  0  0
  2 35  1  0  0  0  0
  2 36  1  0  0  0  0
  3  4  2  0  0  0  0
  3  5  1  0  0  0  0
  5 31  1  0  0  0  0
  5  6  2  0  0  0  0
  6  7  1  0  0  0  0
  6 37  1  0  0  0  0
  7  8  2  0  0  0  0
  7 38  1  0  0  0  0
  8  9  1  0  0  0  0
  8 30  1  0  0  0  0
  9 10  1  0  0  0  0
 10 11  1  0  0  0  0
 10 39  1  0  0  0  0
 10 40  1  0  0  0  0
 11 12  1  0  0  0  0
 11 13  1  0  0  0  0
 11 41  1  0  0  0  0
 12 42  1  0  0  0  0
 13 14  1  0  0  0  0
 13 43  1  0  0  0  0
 13 44  1  0  0  0  0
 14 29  1  0  0  0  0
 14 15  1  0  0  0  0
 15 16  1  0  0  0  0
 15 19  2  0  0  0  0
 16 17  2  0  0  0  0
 16 18  1  0  0  0  0
 19 20  1  0  0  0  0
 20 29  2  0  0  0  0
 20 21  1  0  0  0  0
 21 22  2  0  0  0  0
 21 23  1  0  0  0  0
 23 24  1  0  0  0  0
 23 25  1  0  0  0  0
 24 45  1  0  0  0  0
 24 46  1  0  0  0  0
 24 47  1  0  0  0  0
 25 26  2  0  0  0  0
 25 27  1  0  0  0  0
 27 28  1  0  0  0  0
 27 29  1  0  0  0  0
 28 48  1  0  0  0  0
 28 49  1  0  0  0  0
 28 50  1  0  0  0  0
 30 31  2  0  0  0  0
 30 51  1  0  0  0  0
 31 52  1  0  0  0  0
M  CHG  1  16   1
M  CHG  1  18  -1
M  END
> <s_m_source_file>
AV-unprocessed.smi

> <i_m_source_file_index>
2

> <i_lp_mmshare_version>
43012

> <i_f3d_flags>
0

> <s_epik_input>
W0NIM11bQ0gyXUMoPU8pYzFbY0hdW2NIXWMoW2NIXVtjSF0xKU9bQ0gyXVtDQEhdKFtPSF0pW0NIMl1uKGMobjIpW04rXSg9TylbTy1dKWMoYzIzKW4oW0NIM10pYyg9TyluKGMzPU8pW0NIM10=

> <s_epik_cmdline>
J2VwaWtfcHl0aG9uJywgJy1waCcsICc3LjAnLCAnLXRuJywgJzgnLCAnLW1hJywgJzIwMCcsICctbWV0YWxfYmluZGluZycsICctaW1hZScsICc8aW5maWxlLm1hZT4nLCAnLW9tYWUnLCAnPG91dGZpbGUubWFlPic=

> <r_lp_tautomer_probability>
1

> <r_epik_Ionization_Penalty>
1.02275e-06

> <r_epik_Ionization_Penalty_Charging>
4.46226e-11

> <r_epik_Ionization_Penalty_Neutral>
1.02271e-06

> <r_epik_State_Penalty>
-0

> <r_epik_Charging_Adjusted_Penalty>
4.46226e-11

> <i_epik_Tot_Q>
0

> <i_epik_Tot_abs_Q>
2

> <r_epik_Metal_State_Penalty>
-0

> <b_epik_Metal_Only>
0

> <s_lp_Force_Field>
OPLS_2005

> <r_lp_Energy>
60.3612

> <b_lp_Chiralities_Consistent>
1

> <s_lp_Variant>
AV-unprocessed.smi:2-2

> <Gold.Version>
5.8.1

> <Gold.Id.Protein>
6NUR|6NUR_protein|mol2

> <Gold.PLP.Fitness>
55.1539

> <Gold.PLP.PLP>
-47.5618

> <Gold.PLP.part.hbond>
-5.5781

> <Gold.PLP.part.metal>
0.0000

> <Gold.PLP.part.buried>
-7.2155

> <Gold.PLP.part.nonpolar>
-35.2405

> <Gold.PLP.part.repulsive>
0.4213

> <Gold.PLP.ligand.clash>
0.6906

> <Gold.PLP.ligand.torsion>
1.8821

> <Gold.PLP.Chemscore.Hbond>
3.9600

> <Gold.PLP.Chemscore.CHOScore>
0.0000

> <Gold.PLP.Chemscore.Metal>
0.0000

> <Gold.Chemscore.Hbonds>
donor molecule, donor type, donor heavy atom, donor atom, acceptor molecule, acceptor atom, score
      L1  H    12    42       P1  7957  0.69
      P1  H  6896  6907       L1    22  1.00
      P1  H  7989  7998       L1    12  0.26
      P1  H  8011  8017       L1    12  1.00
      P1  H 10752 10765       L1    18  0.78

> <Gold.PLP.Chemscore.Internal.Correction>
0.1668

> <Gold.Rescore>
     Score         DG    S(hbond)    S(metal)    S(lipo)     H(rot)  DE(clash)    DE(int)     intcor
     16.17     -19.40       3.00        0.00     102.60       3.16       0.11       3.12       ----

> <Gold.Chemscore.Fitness>
16.1735

> <Gold.Chemscore.DG>
-19.4000

> <Gold.Chemscore.ZeroCoef>
-5.4800

> <Gold.Chemscore.Hbond>
2.9955

> <Gold.Chemscore.Metal>
0.0000

> <Gold.Chemscore.Lipo>
102.5960

> <Gold.Chemscore.Internal_Hbond>
0.0000

> <Gold.Chemscore.DEClash>
0.1055

> <Gold.Chemscore.DEInternal>
3.1210

> <Gold.Chemscore.Rot>
3.1597

> <Gold.Chemscore.Internal.Correction>
   9.000000E+99

> <Gold.Chemscore.Hbonds>
donor molecule, donor type, donor heavy atom, donor atom, acceptor molecule, acceptor atom, score
      L1  H    12    42       P1  7957  0.70
      P1  H  6896  6907       L1    22  0.99
      P1  H  7989  7998       L1    12  0.08
      P1  H  8011  8017       L1    12  0.30
      P1  H 10752 10765       L1    18  0.74

> <Gold.Chemscore.Hbond.Weighted>
-10.0051

> <Gold.Chemscore.Metal.Weighted>
-0.0000

> <Gold.Chemscore.Lipo.Weighted>
-12.0037

> <Gold.Chemscore.Internal_Hbond.Weighted>
0.0000

> <Gold.Chemscore.DEClash.Weighted>
0.1055

> <Gold.Chemscore.DEInternal.Weighted>
3.1210

> <Gold.Chemscore.Rot.Weighted>
8.0888

> <Gold.Chemscore.Internal.Correction.Weighted>
   9.000000E+99

> <Gold.Protein.RotatedTorsions>
[ 6907 6896 6895 6894 ] final  -51.99 input  -60.11 | X-H torsion
[ 7974 7965 7964 7962 ] final -104.31 input  175.53 | X-H torsion
[ 8008 7997 7996 7995 ] final  105.39 input   59.86 | X-H torsion
[ 10167 10162 10161 10158 ] final -119.60 input  -65.29 | X-H torsion
[ 10718 10713 10712 10709 ] final  141.48 input   66.30 | X-H torsion
[ 10763 10752 10751 10750 ] final -166.32 input  -60.55 | X-H torsion
[ 11005 11000 10999 10996 ] final  -65.30 input  -57.11 | X-H torsion

> <Gold.Protein.ActiveResidues>
 VAL166  LYS551  ARG553  GLY616  TRP617  ASP618  TYR619  PRO620  LYS621  CYS622 
 ASP623  PHE694  ASN695  SER759  ASP760  ASP761  ALA762  ILE779  LEU786  VAL792 
 PHE793  MET794  SER795  GLU796  ALA797  LYS798  CYS799  TRP800  GLU811  SER814 

> <Gold.Protein.RotatedAtoms>
  150.8560  134.7899  159.7045 H   0  0  0  0  0  0  0  0  0  0  0  0  # atno 6907 bound_to 6896
  152.4611  134.5178  159.9783 H   0  0  0  0  0  0  0  0  0  0  0  0  # atno 6908 bound_to 6896
  151.5290  133.3414  159.2950 H   0  0  0  0  0  0  0  0  0  0  0  0  # atno 6909 bound_to 6896
  145.2447  140.9217  143.3130 H   0  0  0  0  0  0  0  0  0  0  0  0  # atno 7974 bound_to 7965
  156.1655  140.3131  155.8882 H   0  0  0  0  0  0  0  0  0  0  0  0  # atno 8008 bound_to 7997
  155.3694  140.0481  157.3062 H   0  0  0  0  0  0  0  0  0  0  0  0  # atno 8009 bound_to 7997
  154.5188  140.2191  155.9025 H   0  0  0  0  0  0  0  0  0  0  0  0  # atno 8010 bound_to 7997
  140.0449  143.5117  152.2111 H   0  0  0  0  0  0  0  0  0  0  0  0  # atno 10167 bound_to 10162
  157.3915  131.1005  151.0642 H   0  0  0  0  0  0  0  0  0  0  0  0  # atno 10718 bound_to 10713
  154.6845  135.2960  154.9567 H   0  0  0  0  0  0  0  0  0  0  0  0  # atno 10763 bound_to 10752
  154.0551  135.6639  153.4809 H   0  0  0  0  0  0  0  0  0  0  0  0  # atno 10764 bound_to 10752
  153.0569  135.5139  154.7904 H   0  0  0  0  0  0  0  0  0  0  0  0  # atno 10765 bound_to 10752
  141.1450  133.6679  156.5965 H   0  0  0  0  0  0  0  0  0  0  0  0  # atno 11005 bound_to 11000
  144.9557  139.4034  143.6380 LP  0  0  0  0  0  0  0  0  0  0  0  0  # atno 17320 bound_to 7965
  146.3319  139.8586  142.8860 LP  0  0  0  0  0  0  0  0  0  0  0  0  # atno 17321 bound_to 7965
  139.5990  144.7576  151.3217 LP  0  0  0  0  0  0  0  0  0  0  0  0  # atno 17342 bound_to 10162
  140.7243  143.7047  150.7817 LP  0  0  0  0  0  0  0  0  0  0  0  0  # atno 17343 bound_to 10162
  157.1674  130.6252  149.5629 LP  0  0  0  0  0  0  0  0  0  0  0  0  # atno 17370 bound_to 10713
  155.9799  130.4797  150.6745 LP  0  0  0  0  0  0  0  0  0  0  0  0  # atno 17371 bound_to 10713
  140.3722  134.7596  157.4606 LP  0  0  0  0  0  0  0  0  0  0  0  0  # atno 17394 bound_to 11000
  140.0702  134.5873  155.8650 LP  0  0  0  0  0  0  0  0  0  0  0  0  # atno 17395 bound_to 11000

$$$$
