#       Name:                AV-unprocessed.smi:1775
#       Creating user name   scv26
#       Creation time:       Fri Mar 27 08:41:05 2020


#       File generated by GOLD software.
#

@<TRIPOS>MOLECULE
AV-unprocessed.smi:1775
    42    44     1
SMALL
NO_CHARGES


@<TRIPOS>ATOM
      1 ****         0.3660   0.9612   0.0526 O.2            1 S1                 0.0000
      2 ****        -0.1498  -0.1559   0.0772 C.2            1 S1                 0.0000
      3 ****        -1.4687  -0.4087   0.1624 N.am           1 S1                 0.0000
      4 ****        -2.5430   0.4956   0.1933 C.2            1 S1                 0.0000
      5 ****        -2.4818   1.7850  -0.2305 C.2            1 S1                 0.0000
      6 ****        -3.6354   2.6675  -0.1848 C.2            1 S1                 0.0000
      7 ****        -3.5321   4.1306  -0.5869 C.3            1 S1                 0.0000
      8 ****        -4.4234   4.8776   0.0660 F              1 S1                 0.0000
      9 ****        -2.3152   4.6108  -0.3304 F              1 S1                 0.0000
     10 ****        -3.7604   4.2579  -1.8932 F              1 S1                 0.0000
     11 ****        -4.7726   2.1437   0.3094 C.2            1 S1                 0.0000
     12 ****        -4.8498   0.8125   0.7254 N.am           1 S1                 0.0000
     13 ****        -3.8122  -0.0538   0.6980 C.2            1 S1                 0.0000
     14 ****        -3.9617  -1.2140   1.0798 O.2            1 S1                 0.0000
     15 ****         0.5522  -1.2990   0.0423 N.am           1 S1                 0.0000
     16 ****         2.0062  -1.4321  -0.0273 C.3            1 S1                 0.0000
     17 ****         2.7294  -0.9059   1.2036 C.3            1 S1                 0.0000
     18 ****         4.0317  -1.5147   1.6660 C.3            1 S1                 0.0000
     19 ****         2.7740  -1.7039   2.4844 C.3            1 S1                 0.0000
     20 ****         2.6169  -0.8655  -1.3009 C.3            1 S1                 0.0000
     21 ****         2.5424  -1.6227  -2.6046 C.3            1 S1                 0.0000
     22 ****         3.8708  -1.4562  -1.9004 C.3            1 S1                 0.0000
     23 ****        -5.7433   0.4899   1.0683 H              1 S1                 0.0000
     24 ****        -1.7344  -1.3783   0.2578 H              1 S1                 0.0000
     25 ****        -1.5711   2.1913  -0.6398 H              1 S1                 0.0000
     26 ****        -5.6951   2.6933   0.4274 H              1 S1                 0.0000
     27 ****         0.0307  -2.1629   0.0710 H              1 S1                 0.0000
     28 ****         2.1762  -2.5096  -0.0521 H              1 S1                 0.0000
     29 ****         2.6540   0.1733   1.3259 H              1 S1                 0.0000
     30 ****         4.4111  -2.3806   1.1271 H              1 S1                 0.0000
     31 ****         4.7903  -0.8390   2.0557 H              1 S1                 0.0000
     32 ****         2.6932  -1.1545   3.4201 H              1 S1                 0.0000
     33 ****         2.3174  -2.6918   2.4827 H              1 S1                 0.0000
     34 ****         2.5352   0.2171  -1.3804 H              1 S1                 0.0000
     35 ****         2.0877  -2.6114  -2.5916 H              1 S1                 0.0000
     36 ****         2.3743  -1.0437  -3.5104 H              1 S1                 0.0000
     37 ****         4.5899  -0.7667  -2.3381 H              1 S1                 0.0000
     38 ****         4.2987  -2.3373  -1.4262 H              1 S1                 0.0000
     39 ****        -0.2086   1.7784   0.0977 LP             1 S1                 0.0000
     40 ****         1.3598   1.0518  -0.0124 LP             1 S1                 0.0000
     41 ****        -3.1907  -1.8505   1.0588 LP             1 S1                 0.0000
     42 ****        -4.8541  -1.5203   1.4112 LP             1 S1                 0.0000
@<TRIPOS>BOND
    1    1    2 2     
    2    2    3 am    
    3    2   15 am    
    4    3    4 1     
    5    3   24 1     
    6    4   13 1     
    7    4    5 2     
    8    5    6 1     
    9    5   25 1     
   10    6    7 1     
   11    6   11 2     
   12    7    8 1     
   13    7    9 1     
   14    7   10 1     
   15   11   12 1     
   16   11   26 1     
   17   12   23 1     
   18   12   13 am    
   19   13   14 2     
   20   15   16 1     
   21   15   27 1     
   22   16   17 1     
   23   16   20 1     
   24   16   28 1     
   25   17   19 1     
   26   17   18 1     
   27   17   29 1     
   28   18   19 1     
   29   18   30 1     
   30   18   31 1     
   31   19   32 1     
   32   19   33 1     
   33   20   22 1     
   34   20   21 1     
   35   20   34 1     
   36   21   22 1     
   37   21   35 1     
   38   21   36 1     
   39   22   37 1     
   40   22   38 1     
   41    1   39 1     
   42    1   40 1     
   43   14   41 1     
   44   14   42 1     
@<TRIPOS>SUBSTRUCTURE
      1 S1             1
@<TRIPOS>SET
LONE_PAIRS      STATIC     ATOMS    <user>   **** ""
4 39 40 41 42
DONOR_HYDROGENS      STATIC     ATOMS    <user>   **** ""
3 24 23 27
ATOM$BLUE        STATIC     ATOMS    COLORGROUP SYSTEM
4 39 40 41 42
ATOM$RED        STATIC     ATOMS    COLORGROUP SYSTEM
3 24 23 27
