AV-unprocessed.smi:43|AV-procd|sdf|393|dock1
  -GOLD-   2262016243D 1   1.00000     0.00000
 Structure written by MMmdl.
 25 26  0  0  0  0  0  0  0  0  2 V2000
  151.3758  137.4599  158.3379 C   0  0  0  0  0  0  0  0  0  0  0  0
  150.2475  136.8335  157.6738 N   0  0  0  0  0  0  0  0  0  0  0  0
  149.6676  135.7378  158.2248 N   0  0  0  0  0  0  0  0  0  0  0  0
  148.6685  135.4108  157.4576 N   0  0  0  0  0  0  0  0  0  0  0  0
  148.5567  136.2726  156.3849 N   0  0  0  0  0  0  0  0  0  0  0  0
  149.5593  137.1262  156.5559 C   0  0  0  0  0  0  0  0  0  0  0  0
  149.8682  138.1959  155.7067 N   0  0  0  0  0  0  0  0  0  0  0  0
  149.0618  138.7678  154.6329 C   0  0  0  0  0  0  0  0  0  0  0  0
  149.4278  140.2442  154.5562 C   0  0  2  0  0  0  0  0  0  0  0  0
  149.0982  140.8220  153.3105 O   0  0  0  0  0  0  0  0  0  0  0  0
  150.9224  140.2057  154.8077 C   0  0  0  0  0  0  0  0  0  0  0  0
  151.0725  139.0334  155.7933 C   0  0  2  0  0  0  0  0  0  0  0  0
  152.3497  138.2224  155.5270 C   0  0  0  0  0  0  0  0  0  0  0  0
  153.4283  138.8541  155.5228 O   0  0  0  0  0  0  0  0  0  0  0  0
  152.2277  136.9922  155.3308 O   0  5  0  0  0  0  0  0  0  0  0  0
  148.9311  140.7930  155.3578 H   0  0  0  0  0  0  0  0  0  0  0  0
  151.1140  139.4310  156.8085 H   0  0  0  0  0  0  0  0  0  0  0  0
  151.2527  138.5427  158.3407 H   0  0  0  0  0  0  0  0  0  0  0  0
  152.2999  137.1965  157.8241 H   0  0  0  0  0  0  0  0  0  0  0  0
  151.4419  137.1213  159.3726 H   0  0  0  0  0  0  0  0  0  0  0  0
  149.3051  138.2538  153.7015 H   0  0  0  0  0  0  0  0  0  0  0  0
  147.9948  138.6520  154.8196 H   0  0  0  0  0  0  0  0  0  0  0  0
  149.1938  140.1622  152.6409 H   0  0  0  0  0  0  0  0  0  0  0  0
  151.4526  140.0090  153.8735 H   0  0  0  0  0  0  0  0  0  0  0  0
  151.3016  141.1442  155.2131 H   0  0  0  0  0  0  0  0  0  0  0  0
  1  2  1  0  0  0  0
  1 18  1  0  0  0  0
  1 19  1  0  0  0  0
  1 20  1  0  0  0  0
  2  6  1  0  0  0  0
  2  3  1  0  0  0  0
  3  4  2  0  0  0  0
  4  5  1  0  0  0  0
  5  6  2  0  0  0  0
  6  7  1  0  0  0  0
  7 12  1  0  0  0  0
  7  8  1  0  0  0  0
  8  9  1  0  0  0  0
  8 21  1  0  0  0  0
  8 22  1  0  0  0  0
  9 16  1  0  0  0  0
  9 10  1  0  0  0  0
  9 11  1  0  0  0  0
 10 23  1  0  0  0  0
 11 12  1  0  0  0  0
 11 24  1  0  0  0  0
 11 25  1  0  0  0  0
 12 17  1  0  0  0  0
 12 13  1  0  0  0  0
 13 14  2  0  0  0  0
 13 15  1  0  0  0  0
M  CHG  1  15  -1
M  END
> <s_m_source_file>
AV-unprocessed.smi

> <i_m_source_file_index>
43

> <i_lp_mmshare_version>
43012

> <i_f3d_flags>
0

> <s_epik_input>
W0NIM11uMW5ubmMxTjJbQ0gyXVtDQEhdKFtPSF0pW0NIMl1bQ0BIXTJDKD1PKVtPSF0=

> <s_epik_cmdline>
J2VwaWtfcHl0aG9uJywgJy1waCcsICc3LjAnLCAnLXRuJywgJzgnLCAnLW1hJywgJzIwMCcsICctbWV0YWxfYmluZGluZycsICctaW1hZScsICc8aW5maWxlLm1hZT4nLCAnLW9tYWUnLCAnPG91dGZpbGUubWFlPic=

> <r_lp_tautomer_probability>
1

> <r_epik_Ionization_Penalty>
0.000193127

> <r_epik_Ionization_Penalty_Charging>
0.000192933

> <r_epik_Ionization_Penalty_Neutral>
1.93728e-07

> <r_epik_State_Penalty>
-0

> <r_epik_Charging_Adjusted_Penalty>
0.000192933

> <i_epik_Tot_Q>
-1

> <i_epik_Tot_abs_Q>
1

> <r_epik_Metal_State_Penalty>
-0

> <b_epik_Metal_Only>
0

> <s_lp_Force_Field>
OPLS_2005

> <r_lp_Energy>
21.0116

> <b_lp_Chiralities_Consistent>
1

> <s_lp_Variant>
AV-unprocessed.smi:43-3

> <Gold.Version>
5.8.1

> <Gold.Id.Protein>
6NUR|6NUR_protein|mol2

> <Gold.PLP.Fitness>
37.1579

> <Gold.PLP.PLP>
-17.6381

> <Gold.PLP.part.hbond>
-5.3298

> <Gold.PLP.part.metal>
0.0000

> <Gold.PLP.part.buried>
-0.8563

> <Gold.PLP.part.nonpolar>
-12.4965

> <Gold.PLP.part.repulsive>
0.0771

> <Gold.PLP.ligand.clash>
0.0000

> <Gold.PLP.ligand.torsion>
0.0842

> <Gold.PLP.Chemscore.Hbond>
6.5600

> <Gold.PLP.Chemscore.CHOScore>
0.0000

> <Gold.PLP.Chemscore.Metal>
0.0000

> <Gold.Chemscore.Hbonds>
donor molecule, donor type, donor heavy atom, donor atom, acceptor molecule, acceptor atom, score
      L1  H    10    23       P1  7957  0.78
      P1  H  6896  6908       L1     3  1.00
      P1  H  7997  8008       L1    14  1.98
      P1  H  8011  8017       L1    10  1.00
      P1  H 10752 10765       L1    15  1.79

> <Gold.PLP.Chemscore.Internal.Correction>
0.0082

> <Gold.Rescore>
     Score         DG    S(hbond)    S(metal)    S(lipo)     H(rot)  DE(clash)    DE(int)     intcor
     13.96     -17.60       3.88        0.00      29.82       1.69       1.47       2.17       ----

> <Gold.Chemscore.Fitness>
13.9551

> <Gold.Chemscore.DG>
-17.6026

> <Gold.Chemscore.ZeroCoef>
-5.4800

> <Gold.Chemscore.Hbond>
3.8794

> <Gold.Chemscore.Metal>
0.0000

> <Gold.Chemscore.Lipo>
29.8179

> <Gold.Chemscore.Internal_Hbond>
0.0000

> <Gold.Chemscore.DEClash>
1.4733

> <Gold.Chemscore.DEInternal>
2.1743

> <Gold.Chemscore.Rot>
1.6887

> <Gold.Chemscore.Internal.Correction>
   9.000000E+99

> <Gold.Chemscore.Hbonds>
donor molecule, donor type, donor heavy atom, donor atom, acceptor molecule, acceptor atom, score
      L1  H    10    23       P1  7957  0.75
      P1  H  6896  6908       L1     3  0.90
      P1  H  7997  8008       L1    14  0.93
      P1  H  8011  8017       L1    10  0.25
      P1  H 10752 10765       L1    15  0.86

> <Gold.Chemscore.Hbond.Weighted>
-12.9571

> <Gold.Chemscore.Metal.Weighted>
-0.0000

> <Gold.Chemscore.Lipo.Weighted>
-3.4887

> <Gold.Chemscore.Internal_Hbond.Weighted>
0.0000

> <Gold.Chemscore.DEClash.Weighted>
1.4733

> <Gold.Chemscore.DEInternal.Weighted>
2.1743

> <Gold.Chemscore.Rot.Weighted>
4.3232

> <Gold.Chemscore.Internal.Correction.Weighted>
   9.000000E+99

> <Gold.Protein.RotatedTorsions>
[ 6907 6896 6895 6894 ] final  165.31 input  -60.11 | X-H torsion
[ 7974 7965 7964 7962 ] final   -0.19 input  175.53 | X-H torsion
[ 8008 7997 7996 7995 ] final  -29.83 input   59.86 | X-H torsion
[ 10167 10162 10161 10158 ] final -178.61 input  -65.29 | X-H torsion
[ 10718 10713 10712 10709 ] final   92.06 input   66.30 | X-H torsion
[ 10763 10752 10751 10750 ] final -172.02 input  -60.55 | X-H torsion
[ 11005 11000 10999 10996 ] final -137.83 input  -57.11 | X-H torsion

> <Gold.Protein.ActiveResidues>
 VAL166  LYS551  ARG553  GLY616  TRP617  ASP618  TYR619  PRO620  LYS621  CYS622 
 ASP623  PHE694  ASN695  SER759  ASP760  ASP761  ALA762  ILE779  LEU786  VAL792 
 PHE793  MET794  SER795  GLU796  ALA797  LYS798  CYS799  TRP800  GLU811  SER814 

> <Gold.Protein.RotatedAtoms>
  151.8964  133.3528  159.3815 H   0  0  0  0  0  0  0  0  0  0  0  0  # atno 6907 bound_to 6896
  150.7090  134.4872  159.5507 H   0  0  0  0  0  0  0  0  0  0  0  0  # atno 6908 bound_to 6896
  152.2452  134.8189  160.0505 H   0  0  0  0  0  0  0  0  0  0  0  0  # atno 6909 bound_to 6896
  146.2429  140.1232  142.8340 H   0  0  0  0  0  0  0  0  0  0  0  0  # atno 7974 bound_to 7965
  154.4274  140.1807  156.1310 H   0  0  0  0  0  0  0  0  0  0  0  0  # atno 8008 bound_to 7997
  156.0067  140.3354  155.6875 H   0  0  0  0  0  0  0  0  0  0  0  0  # atno 8009 bound_to 7997
  155.6167  140.0655  157.2681 H   0  0  0  0  0  0  0  0  0  0  0  0  # atno 8010 bound_to 7997
  139.5424  144.2326  152.0922 H   0  0  0  0  0  0  0  0  0  0  0  0  # atno 10167 bound_to 10162
  157.6959  131.0429  150.3824 H   0  0  0  0  0  0  0  0  0  0  0  0  # atno 10718 bound_to 10713
  154.6240  135.2878  155.0293 H   0  0  0  0  0  0  0  0  0  0  0  0  # atno 10763 bound_to 10752
  154.1478  135.6508  153.4960 H   0  0  0  0  0  0  0  0  0  0  0  0  # atno 10764 bound_to 10752
  153.0249  135.5348  154.7041 H   0  0  0  0  0  0  0  0  0  0  0  0  # atno 10765 bound_to 10752
  140.8673  134.2094  157.4672 H   0  0  0  0  0  0  0  0  0  0  0  0  # atno 11005 bound_to 11000
  145.0388  140.8929  143.5065 LP  0  0  0  0  0  0  0  0  0  0  0  0  # atno 17320 bound_to 7965
  145.1309  139.2632  143.5540 LP  0  0  0  0  0  0  0  0  0  0  0  0  # atno 17321 bound_to 7965
  140.1807  144.4847  150.6530 LP  0  0  0  0  0  0  0  0  0  0  0  0  # atno 17342 bound_to 10162
  140.6660  143.2268  151.5742 LP  0  0  0  0  0  0  0  0  0  0  0  0  # atno 17343 bound_to 10162
  156.4236  130.3958  149.6808 LP  0  0  0  0  0  0  0  0  0  0  0  0  # atno 17370 bound_to 10713
  156.4050  130.7694  151.2704 LP  0  0  0  0  0  0  0  0  0  0  0  0  # atno 17371 bound_to 10713
  139.8710  134.9758  156.4896 LP  0  0  0  0  0  0  0  0  0  0  0  0  # atno 17394 bound_to 11000
  140.8614  133.8057  155.9269 LP  0  0  0  0  0  0  0  0  0  0  0  0  # atno 17395 bound_to 11000

$$$$
