AV-unprocessed.smi:2743|AV-procd|sdf|10567|dock5
  -GOLD-   2272015 23D 1   1.00000     0.00000
 Structure written by MMmdl.
 39 40  0  0  0  0  0  0  0  0  2 V2000
  149.7041  134.0072  157.4551 N   0  0  0  0  0  0  0  0  0  0  0  0
  149.9220  134.4631  156.4139 C   0  0  0  0  0  0  0  0  0  0  0  0
  150.1995  135.0387  155.0887 C   0  0  0  0  0  0  0  0  0  0  0  0
  150.9618  136.3547  155.2014 C   0  0  0  0  0  0  0  0  0  0  0  0
  152.0289  136.3975  155.8126 O   0  0  0  0  0  0  0  0  0  0  0  0
  150.3843  137.4261  154.6349 N   0  0  0  0  0  0  0  0  0  0  0  0
  150.8672  138.8047  154.7174 C   0  0  0  0  0  0  0  0  0  0  0  0
  149.9262  139.7240  155.5543 C   0  0  0  0  0  0  0  0  0  0  0  0
  148.6492  140.0062  154.7283 C   0  0  0  0  0  0  0  0  0  0  0  0
  147.8062  138.9338  154.3393 C   0  0  0  0  0  0  0  0  0  0  0  0
  146.6630  139.1805  153.5536 C   0  0  0  0  0  0  0  0  0  0  0  0
  146.3724  140.4393  153.1673 N   0  3  0  0  0  0  0  0  0  0  0  0
  147.1393  141.4968  153.5022 C   0  0  0  0  0  0  0  0  0  0  0  0
  148.2944  141.3090  154.2874 C   0  0  0  0  0  0  0  0  0  0  0  0
  149.5229  139.0102  156.8792 C   0  0  0  0  0  0  0  0  0  0  0  0
  150.6772  138.8272  157.8822 C   0  0  0  0  0  0  0  0  0  0  0  0
  151.3519  140.1622  158.2135 C   0  0  0  0  0  0  0  0  0  0  0  0
  151.8234  140.8630  156.9356 C   0  0  0  0  0  0  0  0  0  0  0  0
  150.6628  141.0463  155.9412 C   0  0  0  0  0  0  0  0  0  0  0  0
  150.7781  134.3159  154.5124 H   0  0  0  0  0  0  0  0  0  0  0  0
  149.2527  135.1925  154.5700 H   0  0  0  0  0  0  0  0  0  0  0  0
  149.5125  137.2846  154.1448 H   0  0  0  0  0  0  0  0  0  0  0  0
  151.8782  138.8276  155.1271 H   0  0  0  0  0  0  0  0  0  0  0  0
  150.9699  139.1677  153.6962 H   0  0  0  0  0  0  0  0  0  0  0  0
  148.0349  137.9164  154.6185 H   0  0  0  0  0  0  0  0  0  0  0  0
  145.9824  138.4118  153.2178 H   0  0  0  0  0  0  0  0  0  0  0  0
  146.8133  142.4566  153.1282 H   0  0  0  0  0  0  0  0  0  0  0  0
  148.8907  142.1772  154.5199 H   0  0  0  0  0  0  0  0  0  0  0  0
  148.7386  139.5897  157.3690 H   0  0  0  0  0  0  0  0  0  0  0  0
  149.0900  138.0302  156.6806 H   0  0  0  0  0  0  0  0  0  0  0  0
  150.2968  138.3743  158.7982 H   0  0  0  0  0  0  0  0  0  0  0  0
  151.4142  138.1286  157.4862 H   0  0  0  0  0  0  0  0  0  0  0  0
  150.6504  140.8052  158.7468 H   0  0  0  0  0  0  0  0  0  0  0  0
  152.1954  139.9993  158.8849 H   0  0  0  0  0  0  0  0  0  0  0  0
  152.2448  141.8363  157.1890 H   0  0  0  0  0  0  0  0  0  0  0  0
  152.6336  140.2966  156.4768 H   0  0  0  0  0  0  0  0  0  0  0  0
  151.0421  141.5573  155.0558 H   0  0  0  0  0  0  0  0  0  0  0  0
  149.9500  141.7298  156.4051 H   0  0  0  0  0  0  0  0  0  0  0  0
  145.5427  140.5970  152.5945 H   0  0  0  0  0  0  0  0  0  0  0  0
  1  2  3  0  0  0  0
  2  3  1  0  0  0  0
  3  4  1  0  0  0  0
  3 20  1  0  0  0  0
  3 21  1  0  0  0  0
  4  5  2  0  0  0  0
  4  6  1  0  0  0  0
  6  7  1  0  0  0  0
  6 22  1  0  0  0  0
  7  8  1  0  0  0  0
  7 23  1  0  0  0  0
  7 24  1  0  0  0  0
  8 19  1  0  0  0  0
  8  9  1  0  0  0  0
  8 15  1  0  0  0  0
  9 14  1  0  0  0  0
  9 10  2  0  0  0  0
 10 11  1  0  0  0  0
 10 25  1  0  0  0  0
 11 12  2  0  0  0  0
 11 26  1  0  0  0  0
 12 13  1  0  0  0  0
 12 39  1  0  0  0  0
 13 14  2  0  0  0  0
 13 27  1  0  0  0  0
 14 28  1  0  0  0  0
 15 16  1  0  0  0  0
 15 29  1  0  0  0  0
 15 30  1  0  0  0  0
 16 17  1  0  0  0  0
 16 31  1  0  0  0  0
 16 32  1  0  0  0  0
 17 18  1  0  0  0  0
 17 33  1  0  0  0  0
 17 34  1  0  0  0  0
 18 19  1  0  0  0  0
 18 35  1  0  0  0  0
 18 36  1  0  0  0  0
 19 37  1  0  0  0  0
 19 38  1  0  0  0  0
M  CHG  1  12   1
M  END
> <s_m_source_file>
AV-unprocessed.smi

> <i_m_source_file_index>
2743

> <i_lp_mmshare_version>
43012

> <i_f3d_flags>
0

> <s_epik_input>
TiNDW0NIMl1DKD1PKVtOSF1bQ0gyXUMxKFtDSDJdW0NIMl1bQ0gyXVtDSDJdW0NIMl0xKWMyW2NIXVtjSF1uW2NIXVtjSF0y

> <s_epik_cmdline>
J2VwaWtfcHl0aG9uJywgJy1waCcsICc3LjAnLCAnLXRuJywgJzgnLCAnLW1hJywgJzIwMCcsICctbWV0YWxfYmluZGluZycsICctaW1hZScsICc8aW5maWxlLm1hZT4nLCAnLW9tYWUnLCAnPG91dGZpbGUubWFlPic=

> <r_epik_Ionization_Penalty>
1.44483

> <r_epik_Ionization_Penalty_Charging>
1.44483

> <r_epik_Ionization_Penalty_Neutral>
8.95364e-07

> <r_epik_State_Penalty>
1.53054

> <r_epik_Charging_Adjusted_Penalty>
2.97537

> <i_epik_Tot_Q>
1

> <i_epik_Tot_abs_Q>
1

> <r_epik_Metal_State_Penalty>
1.58148

> <b_epik_Metal_Only>
0

> <s_lp_Force_Field>
OPLS_2005

> <r_lp_Energy>
24.9332

> <b_lp_Chiralities_Consistent>
1

> <s_lp_Variant>
AV-unprocessed.smi:2743-2

> <Gold.Version>
5.8.1

> <Gold.Id.Protein>
6NUR|6NUR_protein|mol2

> <Gold.PLP.Fitness>
40.5652

> <Gold.PLP.PLP>
-29.0744

> <Gold.PLP.part.hbond>
-3.0000

> <Gold.PLP.part.metal>
0.0000

> <Gold.PLP.part.buried>
-5.5983

> <Gold.PLP.part.nonpolar>
-21.0407

> <Gold.PLP.part.repulsive>
0.0953

> <Gold.PLP.ligand.clash>
0.0000

> <Gold.PLP.ligand.torsion>
0.2299

> <Gold.PLP.Chemscore.Hbond>
3.9760

> <Gold.PLP.Chemscore.CHOScore>
0.0000

> <Gold.PLP.Chemscore.Metal>
0.0000

> <Gold.Chemscore.Hbonds>
donor molecule, donor type, donor heavy atom, donor atom, acceptor molecule, acceptor atom, score
      L1  H    12    39       P1 10175  1.92
      P1  H  6896  6908       L1     1  0.80
      P1  H 10752 10764       L1     5  1.00

> <Gold.PLP.Chemscore.Internal.Correction>
0.0226

> <Gold.Rescore>
     Score         DG    S(hbond)    S(metal)    S(lipo)     H(rot)  DE(clash)    DE(int)     intcor
     16.76     -18.02       2.93        0.00      64.20       1.85       0.01       1.25       ----

> <Gold.Chemscore.Fitness>
16.7632

> <Gold.Chemscore.DG>
-18.0173

> <Gold.Chemscore.ZeroCoef>
-5.4800

> <Gold.Chemscore.Hbond>
2.9264

> <Gold.Chemscore.Metal>
0.0000

> <Gold.Chemscore.Lipo>
64.2045

> <Gold.Chemscore.Internal_Hbond>
0.0000

> <Gold.Chemscore.DEClash>
0.0089

> <Gold.Chemscore.DEInternal>
1.2453

> <Gold.Chemscore.Rot>
1.8550

> <Gold.Chemscore.Internal.Correction>
   9.000000E+99

> <Gold.Chemscore.Hbonds>
donor molecule, donor type, donor heavy atom, donor atom, acceptor molecule, acceptor atom, score
      L1  H    12    39       P1 10175  0.41
      P1  H  6896  6908       L1     1  0.76
      P1  H 10752 10764       L1     5  0.69

> <Gold.Chemscore.Hbond.Weighted>
-9.7742

> <Gold.Chemscore.Metal.Weighted>
-0.0000

> <Gold.Chemscore.Lipo.Weighted>
-7.5119

> <Gold.Chemscore.Internal_Hbond.Weighted>
0.0000

> <Gold.Chemscore.DEClash.Weighted>
0.0089

> <Gold.Chemscore.DEInternal.Weighted>
1.2453

> <Gold.Chemscore.Rot.Weighted>
4.7488

> <Gold.Chemscore.Internal.Correction.Weighted>
   9.000000E+99

> <Gold.Protein.RotatedTorsions>
[ 6907 6896 6895 6894 ] final  118.83 input  -60.11 | X-H torsion
[ 7974 7965 7964 7962 ] final   84.96 input  175.53 | X-H torsion
[ 8008 7997 7996 7995 ] final -137.71 input   59.86 | X-H torsion
[ 10167 10162 10161 10158 ] final    5.56 input  -65.29 | X-H torsion
[ 10718 10713 10712 10709 ] final -135.76 input   66.30 | X-H torsion
[ 10763 10752 10751 10750 ] final  -31.46 input  -60.55 | X-H torsion
[ 11005 11000 10999 10996 ] final -120.05 input  -57.11 | X-H torsion

> <Gold.Protein.ActiveResidues>
 VAL166  LYS551  ARG553  GLY616  TRP617  ASP618  TYR619  PRO620  LYS621  CYS622 
 ASP623  PHE694  ASN695  SER759  ASP760  ASP761  ALA762  ILE779  LEU786  VAL792 
 PHE793  MET794  SER795  GLU796  ALA797  LYS798  CYS799  TRP800  GLU811  SER814 

> <Gold.Protein.RotatedAtoms>
  152.4515  133.7639  159.6761 H   0  0  0  0  0  0  0  0  0  0  0  0  # atno 6907 bound_to 6896
  150.8428  133.7898  159.3060 H   0  0  0  0  0  0  0  0  0  0  0  0  # atno 6908 bound_to 6896
  151.5518  135.1070  160.0003 H   0  0  0  0  0  0  0  0  0  0  0  0  # atno 6909 bound_to 6896
  145.5918  139.2339  143.2295 H   0  0  0  0  0  0  0  0  0  0  0  0  # atno 7974 bound_to 7965
  155.4164  140.0515  157.3028 H   0  0  0  0  0  0  0  0  0  0  0  0  # atno 8008 bound_to 7997
  154.4923  140.2125  155.9482 H   0  0  0  0  0  0  0  0  0  0  0  0  # atno 8009 bound_to 7997
  156.1358  140.3163  155.8424 H   0  0  0  0  0  0  0  0  0  0  0  0  # atno 8010 bound_to 7997
  140.6475  143.7626  150.7522 H   0  0  0  0  0  0  0  0  0  0  0  0  # atno 10167 bound_to 10162
  156.2697  130.7258  151.1221 H   0  0  0  0  0  0  0  0  0  0  0  0  # atno 10718 bound_to 10713
  153.7978  135.6892  153.4860 H   0  0  0  0  0  0  0  0  0  0  0  0  # atno 10763 bound_to 10752
  153.1708  135.4543  154.9898 H   0  0  0  0  0  0  0  0  0  0  0  0  # atno 10764 bound_to 10752
  154.8019  135.3341  154.7469 H   0  0  0  0  0  0  0  0  0  0  0  0  # atno 10765 bound_to 10752
  141.0172  134.0178  157.3333 H   0  0  0  0  0  0  0  0  0  0  0  0  # atno 11005 bound_to 11000
  146.1641  140.6744  142.9264 LP  0  0  0  0  0  0  0  0  0  0  0  0  # atno 17320 bound_to 7965
  144.7348  140.4776  143.6912 LP  0  0  0  0  0  0  0  0  0  0  0  0  # atno 17321 bound_to 7965
  140.1270  143.4560  152.2278 LP  0  0  0  0  0  0  0  0  0  0  0  0  # atno 17342 bound_to 10162
  139.5687  144.7450  151.3950 LP  0  0  0  0  0  0  0  0  0  0  0  0  # atno 17343 bound_to 10162
  157.7279  131.0635  150.5842 LP  0  0  0  0  0  0  0  0  0  0  0  0  # atno 17370 bound_to 10713
  156.5937  130.4336  149.5926 LP  0  0  0  0  0  0  0  0  0  0  0  0  # atno 17371 bound_to 10713
  139.9124  135.0192  156.7745 LP  0  0  0  0  0  0  0  0  0  0  0  0  # atno 17394 bound_to 11000
  140.6635  133.9624  155.7817 LP  0  0  0  0  0  0  0  0  0  0  0  0  # atno 17395 bound_to 11000

$$$$
