#       Name:                AV-unprocessed.smi:1809
#       Creating user name   scv26
#       Creation time:       Fri Mar 27 08:57:00 2020


#       File generated by GOLD software.
#

@<TRIPOS>MOLECULE
AV-unprocessed.smi:1809
    46    48     1
SMALL
NO_CHARGES


@<TRIPOS>ATOM
      1 ****        -7.8190  -0.9733   1.3661 C.3            1 S1                 0.0000
      2 ****        -6.3930  -1.3993   1.4511 C.2            1 S1                 0.0000
      3 ****        -6.0254  -2.6775   1.6069 N.2            1 S1                 0.0000
      4 ****        -4.6461  -2.8283   1.6611 N.2            1 S1                 0.0000
      5 ****        -4.0112  -1.6588   1.5448 C.2            1 S1                 0.0000
      6 ****        -2.5945  -1.6620   1.5894 N.am           1 S1                 0.0000
      7 ****        -1.7626  -0.6121   1.4967 C.2            1 S1                 0.0000
      8 ****        -2.1046   0.5561   1.3140 O.2            1 S1                 0.0000
      9 ****        -0.4837  -0.9926   1.6258 N.am           1 S1                 0.0000
     10 ****         0.6629  -0.0910   1.5994 C.3            1 S1                 0.0000
     11 ****         1.0395   0.3217   0.1657 C.3            1 S1                 0.0000
     12 ****         2.2042   1.3243   0.1514 C.3            1 S1                 0.0000
     13 ****         2.5983   1.6850  -1.2340 N.4            1 S1                 1.0000
     14 ****         3.8911   2.4063  -1.2771 C.3            1 S1                 0.0000
     15 ****         4.9621   1.3755  -1.6803 C.3            1 S1                 0.0000
     16 ****         4.2098   0.0565  -1.8835 C.3            1 S1                 0.0000
     17 ****         2.7686   0.5079  -2.1142 C.3            1 S1                 0.0000
     18 ****         1.6820  -0.5690  -1.9162 C.3            1 S1                 0.0000
     19 ****         1.4659  -0.8377  -0.5384 O.3            1 S1                 0.0000
     20 ****        -5.0610  -0.2541   1.3556 S.3            1 S1                 0.0000
     21 ****        -8.4787  -1.8410   1.3300 H              1 S1                 0.0000
     22 ****        -7.9775  -0.3776   0.4671 H              1 S1                 0.0000
     23 ****        -8.0805  -0.3718   2.2368 H              1 S1                 0.0000
     24 ****        -2.1683  -2.5666   1.7269 H              1 S1                 0.0000
     25 ****        -0.2889  -1.9734   1.7666 H              1 S1                 0.0000
     26 ****         0.4447   0.7922   2.2023 H              1 S1                 0.0000
     27 ****         1.5044  -0.5913   2.0796 H              1 S1                 0.0000
     28 ****         0.1700   0.7624  -0.3260 H              1 S1                 0.0000
     29 ****         1.9280   2.2325   0.6882 H              1 S1                 0.0000
     30 ****         3.0579   0.8928   0.6775 H              1 S1                 0.0000
     31 ****         3.8270   3.1865  -2.0364 H              1 S1                 0.0000
     32 ****         4.1248   2.8972  -0.3311 H              1 S1                 0.0000
     33 ****         5.4471   1.6851  -2.6068 H              1 S1                 0.0000
     34 ****         5.7385   1.2754  -0.9212 H              1 S1                 0.0000
     35 ****         4.6055  -0.5315  -2.7122 H              1 S1                 0.0000
     36 ****         4.2761  -0.5520  -0.9805 H              1 S1                 0.0000
     37 ****         2.7033   0.8668  -3.1431 H              1 S1                 0.0000
     38 ****         0.7436  -0.2469  -2.3704 H              1 S1                 0.0000
     39 ****         1.9687  -1.4918  -2.4210 H              1 S1                 0.0000
     40 ****         1.8695   2.2735  -1.6125 H              1 S1                 0.0000
     41 ****        -6.6713  -3.4376   1.6764 LP             1 S1                 0.0000
     42 ****        -4.1832  -3.7075   1.7738 LP             1 S1                 0.0000
     43 ****        -3.0737   0.7848   1.2217 LP             1 S1                 0.0000
     44 ****        -1.4133   1.2766   1.2580 LP             1 S1                 0.0000
     45 ****         0.7639  -1.5447  -0.4528 LP             1 S1                 0.0000
     46 ****         2.3201  -1.1655  -0.1347 LP             1 S1                 0.0000
@<TRIPOS>BOND
    1    1    2 1     
    2    1   21 1     
    3    1   22 1     
    4    1   23 1     
    5    2   20 1     
    6    2    3 2     
    7    3    4 1     
    8    4    5 2     
    9    5    6 1     
   10    5   20 1     
   11    6    7 am    
   12    6   24 1     
   13    7    8 2     
   14    7    9 am    
   15    9   10 1     
   16    9   25 1     
   17   10   11 1     
   18   10   26 1     
   19   10   27 1     
   20   11   19 1     
   21   11   12 1     
   22   11   28 1     
   23   12   13 1     
   24   12   29 1     
   25   12   30 1     
   26   13   17 1     
   27   13   14 1     
   28   13   40 1     
   29   14   15 1     
   30   14   31 1     
   31   14   32 1     
   32   15   16 1     
   33   15   33 1     
   34   15   34 1     
   35   16   17 1     
   36   16   35 1     
   37   16   36 1     
   38   17   18 1     
   39   17   37 1     
   40   18   19 1     
   41   18   38 1     
   42   18   39 1     
   43    3   41 1     
   44    4   42 1     
   45    8   43 1     
   46    8   44 1     
   47   19   45 1     
   48   19   46 1     
@<TRIPOS>SUBSTRUCTURE
      1 S1             1
@<TRIPOS>SET
LONE_PAIRS      STATIC     ATOMS    <user>   **** ""
6 41 42 43 44 45 46
DONOR_HYDROGENS      STATIC     ATOMS    <user>   **** ""
3 24 25 40
ATOM$BLUE        STATIC     ATOMS    COLORGROUP SYSTEM
6 41 42 43 44 45 46
ATOM$RED        STATIC     ATOMS    COLORGROUP SYSTEM
3 24 25 40
