#       Name:                AV-unprocessed.smi:546
#       Creating user name   scv26
#       Creation time:       Thu Mar 26 23:38:25 2020


#       File generated by GOLD software.
#

@<TRIPOS>MOLECULE
AV-unprocessed.smi:546
    59    61     1
SMALL
NO_CHARGES


@<TRIPOS>ATOM
      1 ****        -2.0275   3.0193   3.3312 C.3            1 S1                 0.0000
      2 ****        -2.4321   2.2915   2.0475 C.3            1 S1                 0.0000
      3 ****        -1.8588   0.9973   2.0657 O.3            1 S1                 0.0000
      4 ****        -2.1615   0.2355   0.9092 C.3            1 S1                 0.0000
      5 ****        -1.4460  -1.1214   0.9834 C.3            1 S1                 0.0000
      6 ****        -0.0009  -0.9583   1.1122 N.pl3          1 S1                 0.0000
      7 ****         0.9075  -0.7680   0.1177 C.2            1 S1                 0.0000
      8 ****         0.5521  -0.7608  -1.2337 N.pl3          1 S1                 0.0000
      9 ****         0.1040  -1.9494  -1.9666 C.3            1 S1                 0.0000
     10 ****        -0.9166  -1.6503  -3.0898 C.3            1 S1                 0.0000
     11 ****        -2.3279  -1.3377  -2.5671 C.3            1 S1                 0.0000
     12 ****        -0.3819  -0.5569  -4.0295 C.3            1 S1                 0.0000
     13 ****         0.1039   0.6650  -3.2345 C.3            1 S1                 0.0000
     14 ****         0.7051   1.7334  -4.1572 C.3            1 S1                 0.0000
     15 ****         1.1154   0.2153  -2.1660 C.3            1 S1                 0.0000
     16 ****         2.1564  -0.5602   0.5398 N.2            1 S1                 0.0000
     17 ****         2.0398  -0.6459   1.9180 C.2            1 S1                 0.0000
     18 ****         0.7536  -0.8857   2.2898 C.2            1 S1                 0.0000
     19 ****         0.3164  -1.0011   3.7006 C.2            1 S1                 0.0000
     20 ****        -0.8607  -1.2036   3.9907 O.2            1 S1                 0.0000
     21 ****         1.3585  -0.8568   4.5791 N.pl3          1 S1                -1.0000
     22 ****         2.6736  -0.6174   4.2446 C.2            1 S1                 0.0000
     23 ****         3.5515  -0.5021   5.1009 O.2            1 S1                 0.0000
     24 ****         3.0306  -0.5024   2.9272 N.am           1 S1                 0.0000
     25 ****         4.4198  -0.2377   2.5421 C.3            1 S1                 0.0000
     26 ****        -2.4481   4.0245   3.3597 H              1 S1                 0.0000
     27 ****        -0.9431   3.1066   3.4046 H              1 S1                 0.0000
     28 ****        -2.3796   2.4825   4.2124 H              1 S1                 0.0000
     29 ****        -3.5186   2.2217   1.9813 H              1 S1                 0.0000
     30 ****        -2.0801   2.8477   1.1775 H              1 S1                 0.0000
     31 ****        -3.2390   0.0862   0.8281 H              1 S1                 0.0000
     32 ****        -1.8370   0.7761   0.0189 H              1 S1                 0.0000
     33 ****        -1.8283  -1.7127   1.8123 H              1 S1                 0.0000
     34 ****        -1.6701  -1.7113   0.1008 H              1 S1                 0.0000
     35 ****         0.9879  -2.4130  -2.4064 H              1 S1                 0.0000
     36 ****        -0.2970  -2.6917  -1.2772 H              1 S1                 0.0000
     37 ****        -1.0146  -2.5615  -3.6812 H              1 S1                 0.0000
     38 ****        -2.3438  -0.4403  -1.9509 H              1 S1                 0.0000
     39 ****        -2.7160  -2.1624  -1.9694 H              1 S1                 0.0000
     40 ****        -3.0231  -1.1811  -3.3922 H              1 S1                 0.0000
     41 ****         0.4499  -0.9617  -4.6080 H              1 S1                 0.0000
     42 ****        -1.1449  -0.2673  -4.7531 H              1 S1                 0.0000
     43 ****        -0.7499   1.1162  -2.7274 H              1 S1                 0.0000
     44 ****         1.5793   1.3544  -4.6876 H              1 S1                 0.0000
     45 ****         1.0152   2.6114  -3.5897 H              1 S1                 0.0000
     46 ****        -0.0206   2.0617  -4.9016 H              1 S1                 0.0000
     47 ****         1.4548   1.0860  -1.6032 H              1 S1                 0.0000
     48 ****         2.0016  -0.2127  -2.6367 H              1 S1                 0.0000
     49 ****         5.0624  -1.0642   2.8472 H              1 S1                 0.0000
     50 ****         4.7847   0.6726   3.0198 H              1 S1                 0.0000
     51 ****         4.5413  -0.1080   1.4672 H              1 S1                 0.0000
     52 ****        -2.2031   0.5085   2.8672 LP             1 S1                 0.0000
     53 ****        -0.8654   1.0907   2.1336 LP             1 S1                 0.0000
     54 ****         2.9763  -0.3854  -0.0054 LP             1 S1                 0.0000
     55 ****        -1.5454  -1.2939   3.2676 LP             1 S1                 0.0000
     56 ****        -1.1336  -1.2781   4.9498 LP             1 S1                 0.0000
     57 ****         1.1447  -0.9323   5.5530 LP             1 S1                 0.0000
     58 ****         3.3183  -0.5821   6.0700 LP             1 S1                 0.0000
     59 ****         4.4975  -0.3286   4.8269 LP             1 S1                 0.0000
@<TRIPOS>BOND
    1    1    2 1     
    2    1   26 1     
    3    1   27 1     
    4    1   28 1     
    5    2    3 1     
    6    2   29 1     
    7    2   30 1     
    8    3    4 1     
    9    4    5 1     
   10    4   31 1     
   11    4   32 1     
   12    5    6 1     
   13    5   33 1     
   14    5   34 1     
   15    6   18 1     
   16    6    7 1     
   17    7    8 1     
   18    7   16 2     
   19    8   15 1     
   20    8    9 1     
   21    9   10 1     
   22    9   35 1     
   23    9   36 1     
   24   10   11 1     
   25   10   12 1     
   26   10   37 1     
   27   11   38 1     
   28   11   39 1     
   29   11   40 1     
   30   12   13 1     
   31   12   41 1     
   32   12   42 1     
   33   13   14 1     
   34   13   15 1     
   35   13   43 1     
   36   14   44 1     
   37   14   45 1     
   38   14   46 1     
   39   15   47 1     
   40   15   48 1     
   41   16   17 1     
   42   17   24 1     
   43   17   18 2     
   44   18   19 1     
   45   19   20 2     
   46   19   21 1     
   47   21   22 1     
   48   22   23 2     
   49   22   24 am    
   50   24   25 1     
   51   25   49 1     
   52   25   50 1     
   53   25   51 1     
   54    3   52 1     
   55    3   53 1     
   56   16   54 1     
   57   20   55 1     
   58   20   56 1     
   59   21   57 1     
   60   23   58 1     
   61   23   59 1     
@<TRIPOS>SUBSTRUCTURE
      1 S1             1
@<TRIPOS>SET
LONE_PAIRS      STATIC     ATOMS    <user>   **** ""
8 52 53 54 55 56 57 58 59
ATOM$BLUE        STATIC     ATOMS    COLORGROUP SYSTEM
8 52 53 54 55 56 57 58 59
