AV-unprocessed.smi:2279|AV-procd|sdf|9190|dock3
  -GOLD-   2272012403D 1   1.00000     0.00000
 Structure written by MMmdl.
 57 59  0  0  0  0  0  0  0  0  2 V2000
  154.2605  141.4023  161.1769 C   0  0  0  0  0  0  0  0  0  0  0  0
  153.3904  141.9978  160.0897 C   0  0  0  0  0  0  0  0  0  0  0  0
  153.2498  143.3926  159.9583 C   0  0  0  0  0  0  0  0  0  0  0  0
  152.4268  143.8830  158.9258 C   0  0  0  0  0  0  0  0  0  0  0  0
  152.2294  145.3710  158.7276 C   0  0  0  0  0  0  0  0  0  0  0  0
  151.7669  143.0790  158.0651 N   0  0  0  0  0  0  0  0  0  0  0  0
  151.8931  141.7340  158.1831 C   0  0  0  0  0  0  0  0  0  0  0  0
  151.2348  140.8041  157.3345 N   0  0  0  0  0  0  0  0  0  0  0  0
  150.0903  140.9740  156.6489 C   0  0  0  0  0  0  0  0  0  0  0  0
  149.4284  142.0117  156.6124 O   0  0  0  0  0  0  0  0  0  0  0  0
  149.7407  139.8561  155.9947 N   0  0  0  0  0  0  0  0  0  0  0  0
  148.5451  139.7113  155.1689 C   0  0  2  0  0  0  0  0  0  0  0  0
  148.4757  140.8179  154.0960 C   0  0  0  0  0  0  0  0  0  0  0  0
  147.1498  140.7482  153.3160 C   0  0  0  0  0  0  0  0  0  0  0  0
  145.9707  140.8546  154.2219 N   0  3  2  0  0  0  0  0  0  0  0  0
  145.7347  142.2133  154.8184 C   0  0  0  0  0  0  0  0  0  0  0  0
  144.5242  142.2202  155.7823 C   0  0  0  0  0  0  0  0  0  0  0  0
  144.2057  143.6307  156.3062 C   0  0  0  0  0  0  0  0  0  0  0  0
  143.9261  144.5300  155.1907 N   0  0  0  0  0  0  0  0  0  0  0  0
  143.5577  145.8398  155.7095 C   0  0  0  0  0  0  0  0  0  0  0  0
  145.1199  144.6580  154.3602 C   0  0  0  0  0  0  0  0  0  0  0  0
  145.4827  143.2972  153.7424 C   0  0  0  0  0  0  0  0  0  0  0  0
  146.0028  139.7297  155.2010 C   0  0  0  0  0  0  0  0  0  0  0  0
  147.2863  139.7447  156.0551 C   0  0  0  0  0  0  0  0  0  0  0  0
  152.7028  141.1600  159.1887 C   0  0  0  0  0  0  0  0  0  0  0  0
  154.7255  142.1797  161.7838 H   0  0  0  0  0  0  0  0  0  0  0  0
  155.0513  140.7944  160.7369 H   0  0  0  0  0  0  0  0  0  0  0  0
  153.6639  140.7682  161.8331 H   0  0  0  0  0  0  0  0  0  0  0  0
  153.7586  144.0685  160.6303 H   0  0  0  0  0  0  0  0  0  0  0  0
  152.9501  145.9458  159.3099 H   0  0  0  0  0  0  0  0  0  0  0  0
  151.2262  145.6629  159.0394 H   0  0  0  0  0  0  0  0  0  0  0  0
  152.3537  145.6371  157.6772 H   0  0  0  0  0  0  0  0  0  0  0  0
  151.6765  139.9001  157.2579 H   0  0  0  0  0  0  0  0  0  0  0  0
  150.3432  139.0497  156.0734 H   0  0  0  0  0  0  0  0  0  0  0  0
  148.5790  138.7406  154.6699 H   0  0  0  0  0  0  0  0  0  0  0  0
  148.5878  141.7997  154.5575 H   0  0  0  0  0  0  0  0  0  0  0  0
  149.3076  140.7153  153.3985 H   0  0  0  0  0  0  0  0  0  0  0  0
  147.1249  141.4871  152.5176 H   0  0  0  0  0  0  0  0  0  0  0  0
  147.0957  139.7880  152.8009 H   0  0  0  0  0  0  0  0  0  0  0  0
  146.6177  142.5100  155.3844 H   0  0  0  0  0  0  0  0  0  0  0  0
  143.6452  141.8099  155.2826 H   0  0  0  0  0  0  0  0  0  0  0  0
  144.7125  141.5926  156.6517 H   0  0  0  0  0  0  0  0  0  0  0  0
  143.3353  143.5841  156.9624 H   0  0  0  0  0  0  0  0  0  0  0  0
  145.0365  144.0117  156.9028 H   0  0  0  0  0  0  0  0  0  0  0  0
  143.3408  146.5284  154.8921 H   0  0  0  0  0  0  0  0  0  0  0  0
  144.3574  146.2690  156.3150 H   0  0  0  0  0  0  0  0  0  0  0  0
  142.6618  145.7684  156.3275 H   0  0  0  0  0  0  0  0  0  0  0  0
  144.9326  145.3784  153.5628 H   0  0  0  0  0  0  0  0  0  0  0  0
  145.9539  145.0429  154.9497 H   0  0  0  0  0  0  0  0  0  0  0  0
  146.3709  143.4535  153.1314 H   0  0  0  0  0  0  0  0  0  0  0  0
  144.6863  142.9787  153.0679 H   0  0  0  0  0  0  0  0  0  0  0  0
  145.1171  139.7086  155.8320 H   0  0  0  0  0  0  0  0  0  0  0  0
  145.9640  138.7938  154.6415 H   0  0  0  0  0  0  0  0  0  0  0  0
  147.2867  138.8853  156.7267 H   0  0  0  0  0  0  0  0  0  0  0  0
  147.2979  140.6271  156.6957 H   0  0  0  0  0  0  0  0  0  0  0  0
  152.7955  140.0867  159.2728 H   0  0  0  0  0  0  0  0  0  0  0  0
  145.1647  140.6859  153.6367 H   0  0  0  0  0  0  0  0  0  0  0  0
  1  2  1  0  0  0  0
  1 26  1  0  0  0  0
  1 27  1  0  0  0  0
  1 28  1  0  0  0  0
  2 25  1  0  0  0  0
  2  3  2  0  0  0  0
  3  4  1  0  0  0  0
  3 29  1  0  0  0  0
  4  5  1  0  0  0  0
  4  6  2  0  0  0  0
  5 30  1  0  0  0  0
  5 31  1  0  0  0  0
  5 32  1  0  0  0  0
  6  7  1  0  0  0  0
  7  8  1  0  0  0  0
  7 25  2  0  0  0  0
  8  9  1  0  0  0  0
  8 33  1  0  0  0  0
  9 10  2  0  0  0  0
  9 11  1  0  0  0  0
 11 12  1  0  0  0  0
 11 34  1  0  0  0  0
 12 24  1  0  0  0  0
 12 13  1  0  0  0  0
 12 35  1  0  0  0  0
 13 14  1  0  0  0  0
 13 36  1  0  0  0  0
 13 37  1  0  0  0  0
 14 15  1  0  0  0  0
 14 38  1  0  0  0  0
 14 39  1  0  0  0  0
 15 16  1  0  0  0  0
 15 23  1  0  0  0  0
 15 57  1  0  0  0  0
 16 22  1  0  0  0  0
 16 17  1  0  0  0  0
 16 40  1  0  0  0  0
 17 18  1  0  0  0  0
 17 41  1  0  0  0  0
 17 42  1  0  0  0  0
 18 19  1  0  0  0  0
 18 43  1  0  0  0  0
 18 44  1  0  0  0  0
 19 20  1  0  0  0  0
 19 21  1  0  0  0  0
 20 45  1  0  0  0  0
 20 46  1  0  0  0  0
 20 47  1  0  0  0  0
 21 22  1  0  0  0  0
 21 48  1  0  0  0  0
 21 49  1  0  0  0  0
 22 50  1  0  0  0  0
 22 51  1  0  0  0  0
 23 24  1  0  0  0  0
 23 52  1  0  0  0  0
 23 53  1  0  0  0  0
 24 54  1  0  0  0  0
 24 55  1  0  0  0  0
 25 56  1  0  0  0  0
M  CHG  1  15   1
M  END
> <s_m_source_file>
AV-unprocessed.smi

> <i_m_source_file_index>
2279

> <i_lp_mmshare_version>
43012

> <i_f3d_flags>
0

> <s_epik_input>
W0NIM11jMVtjSF1jKFtDSDNdKW5jKFtjSF0xKVtOSF1DKD1PKVtOSF1bQ0hdMltDSDJdW0NIMl1OKFtDSDJdW0NIMl0yKVtDSF0zW0NIMl1bQ0gyXU4oW0NIM10pW0NIMl1bQ0gyXTM=

> <s_epik_cmdline>
J2VwaWtfcHl0aG9uJywgJy1waCcsICc3LjAnLCAnLXRuJywgJzgnLCAnLW1hJywgJzIwMCcsICctbWV0YWxfYmluZGluZycsICctaW1hZScsICc8aW5maWxlLm1hZT4nLCAnLW9tYWUnLCAnPG91dGZpbGUubWFlPic=

> <r_epik_Ionization_Penalty>
1.37263

> <r_epik_Ionization_Penalty_Charging>
0.00081195

> <r_epik_Ionization_Penalty_Neutral>
1.37182

> <r_epik_State_Penalty>
1.55149

> <r_epik_Charging_Adjusted_Penalty>
1.5523

> <i_epik_Tot_Q>
1

> <i_epik_Tot_abs_Q>
1

> <r_epik_Metal_State_Penalty>
1.5515

> <b_epik_Metal_Only>
0

> <s_lp_Force_Field>
OPLS_2005

> <r_lp_Energy>
33.7825

> <b_lp_Chiralities_Consistent>
1

> <s_lp_Variant>
AV-unprocessed.smi:2279-8

> <Gold.Version>
5.8.1

> <Gold.Id.Protein>
6NUR|6NUR_protein|mol2

> <Gold.PLP.Fitness>
49.2789

> <Gold.PLP.PLP>
-43.7285

> <Gold.PLP.part.hbond>
-1.0000

> <Gold.PLP.part.metal>
0.0000

> <Gold.PLP.part.buried>
-7.6338

> <Gold.PLP.part.nonpolar>
-36.3601

> <Gold.PLP.part.repulsive>
1.5672

> <Gold.PLP.ligand.clash>
0.0000

> <Gold.PLP.ligand.torsion>
0.2486

> <Gold.PLP.Chemscore.Hbond>
2.0000

> <Gold.PLP.Chemscore.CHOScore>
0.0000

> <Gold.PLP.Chemscore.Metal>
0.0000

> <Gold.Chemscore.Hbonds>
donor molecule, donor type, donor heavy atom, donor atom, acceptor molecule, acceptor atom, score
      L1  H    15    57       P1 10175  2.00

> <Gold.PLP.Chemscore.Internal.Correction>
0.0476

> <Gold.Rescore>
     Score         DG    S(hbond)    S(metal)    S(lipo)     H(rot)  DE(clash)    DE(int)     intcor
     16.20     -19.18       0.99        0.00     114.78       1.19       0.27       2.71       ----

> <Gold.Chemscore.Fitness>
16.1971

> <Gold.Chemscore.DG>
-19.1754

> <Gold.Chemscore.ZeroCoef>
-5.4800

> <Gold.Chemscore.Hbond>
0.9929

> <Gold.Chemscore.Metal>
0.0000

> <Gold.Chemscore.Lipo>
114.7764

> <Gold.Chemscore.Internal_Hbond>
0.0000

> <Gold.Chemscore.DEClash>
0.2675

> <Gold.Chemscore.DEInternal>
2.7108

> <Gold.Chemscore.Rot>
1.1913

> <Gold.Chemscore.Internal.Correction>
   9.000000E+99

> <Gold.Chemscore.Hbonds>
donor molecule, donor type, donor heavy atom, donor atom, acceptor molecule, acceptor atom, score
      L1  H    15    57       P1 10175  0.96

> <Gold.Chemscore.Hbond.Weighted>
-3.3163

> <Gold.Chemscore.Metal.Weighted>
-0.0000

> <Gold.Chemscore.Lipo.Weighted>
-13.4288

> <Gold.Chemscore.Internal_Hbond.Weighted>
0.0000

> <Gold.Chemscore.DEClash.Weighted>
0.2675

> <Gold.Chemscore.DEInternal.Weighted>
2.7108

> <Gold.Chemscore.Rot.Weighted>
3.0497

> <Gold.Chemscore.Internal.Correction.Weighted>
   9.000000E+99

> <Gold.Protein.RotatedTorsions>
[ 6907 6896 6895 6894 ] final -133.59 input  -60.11 | X-H torsion
[ 7974 7965 7964 7962 ] final  156.74 input  175.53 | X-H torsion
[ 8008 7997 7996 7995 ] final  159.11 input   59.86 | X-H torsion
[ 10167 10162 10161 10158 ] final   38.12 input  -65.29 | X-H torsion
[ 10718 10713 10712 10709 ] final  -19.17 input   66.30 | X-H torsion
[ 10763 10752 10751 10750 ] final  -75.63 input  -60.55 | X-H torsion
[ 11005 11000 10999 10996 ] final  -10.83 input  -57.11 | X-H torsion

> <Gold.Protein.ActiveResidues>
 VAL166  LYS551  ARG553  GLY616  TRP617  ASP618  TYR619  PRO620  LYS621  CYS622 
 ASP623  PHE694  ASN695  SER759  ASP760  ASP761  ALA762  ILE779  LEU786  VAL792 
 PHE793  MET794  SER795  GLU796  ALA797  LYS798  CYS799  TRP800  GLU811  SER814 

> <Gold.Protein.RotatedAtoms>
  150.9758  133.6297  159.2730 H   0  0  0  0  0  0  0  0  0  0  0  0  # atno 6907 bound_to 6896
  151.3569  135.0895  159.9431 H   0  0  0  0  0  0  0  0  0  0  0  0  # atno 6908 bound_to 6896
  152.5199  133.9339  159.7648 H   0  0  0  0  0  0  0  0  0  0  0  0  # atno 6909 bound_to 6896
  144.7945  139.7245  143.6208 H   0  0  0  0  0  0  0  0  0  0  0  0  # atno 7974 bound_to 7965
  156.2260  140.1840  156.7362 H   0  0  0  0  0  0  0  0  0  0  0  0  # atno 8008 bound_to 7997
  154.5942  140.0646  156.9308 H   0  0  0  0  0  0  0  0  0  0  0  0  # atno 8009 bound_to 7997
  155.2285  140.3313  155.4309 H   0  0  0  0  0  0  0  0  0  0  0  0  # atno 8010 bound_to 7997
  140.3967  144.1779  150.6132 H   0  0  0  0  0  0  0  0  0  0  0  0  # atno 10167 bound_to 10162
  156.5494  130.4698  149.6459 H   0  0  0  0  0  0  0  0  0  0  0  0  # atno 10718 bound_to 10713
  154.4890  135.5825  153.6445 H   0  0  0  0  0  0  0  0  0  0  0  0  # atno 10763 bound_to 10752
  152.9859  135.6108  154.3149 H   0  0  0  0  0  0  0  0  0  0  0  0  # atno 10764 bound_to 10752
  154.3047  135.2846  155.2574 H   0  0  0  0  0  0  0  0  0  0  0  0  # atno 10765 bound_to 10752
  140.7488  133.8609  155.9028 H   0  0  0  0  0  0  0  0  0  0  0  0  # atno 11005 bound_to 11000
  146.2208  139.5632  142.9619 LP  0  0  0  0  0  0  0  0  0  0  0  0  # atno 17320 bound_to 7965
  145.5709  141.0394  143.2174 LP  0  0  0  0  0  0  0  0  0  0  0  0  # atno 17321 bound_to 7965
  140.4783  143.2388  151.8991 LP  0  0  0  0  0  0  0  0  0  0  0  0  # atno 17342 bound_to 10162
  139.4786  144.5296  151.8685 LP  0  0  0  0  0  0  0  0  0  0  0  0  # atno 17343 bound_to 10162
  156.2898  130.7118  151.1964 LP  0  0  0  0  0  0  0  0  0  0  0  0  # atno 17370 bound_to 10713
  157.7390  131.0534  150.5257 LP  0  0  0  0  0  0  0  0  0  0  0  0  # atno 17371 bound_to 10713
  140.9769  134.1457  157.4528 LP  0  0  0  0  0  0  0  0  0  0  0  0  # atno 17394 bound_to 11000
  139.8791  134.9998  156.5972 LP  0  0  0  0  0  0  0  0  0  0  0  0  # atno 17395 bound_to 11000

$$$$
