#       Name:                AV-unprocessed.smi:324
#       Creating user name   scv26
#       Creation time:       Thu Mar 26 22:25:14 2020


#       File generated by GOLD software.
#

@<TRIPOS>MOLECULE
AV-unprocessed.smi:324
    28    29     1
SMALL
NO_CHARGES


@<TRIPOS>ATOM
      1 ****        -2.4913   0.9460   0.7785 O.3            1 S1                 0.0000
      2 ****        -1.8378   0.4794   1.9405 C.3            1 S1                 0.0000
      3 ****        -0.3109   0.6082   1.8067 C.3            1 S1                 0.0000
      4 ****         0.2248  -0.1297   0.6688 N.pl3          1 S1                 0.0000
      5 ****         0.5440  -1.4476   0.5847 C.2            1 S1                 0.0000
      6 ****         0.3562  -2.4073   1.7200 C.3            1 S1                 0.0000
      7 ****        -1.2249  -3.2198   1.5942 Cl             1 S1                 0.0000
      8 ****         1.0197  -1.8544  -0.5927 N.2            1 S1                 0.0000
      9 ****         1.0110  -0.6955  -1.3430 C.ar           1 S1                 0.0000
     10 ****         1.4002  -0.4670  -2.6821 C.ar           1 S1                 0.0000
     11 ****         1.2992   0.8222  -3.2451 C.ar           1 S1                 0.0000
     12 ****         1.7778   1.0835  -4.8819 Cl             1 S1                 0.0000
     13 ****         0.8081   1.8983  -2.4775 C.ar           1 S1                 0.0000
     14 ****         0.4153   1.6918  -1.1411 C.ar           1 S1                 0.0000
     15 ****         0.5190   0.4031  -0.5836 C.ar           1 S1                 0.0000
     16 ****        -3.4229   0.8334   0.8914 H              1 S1                 0.0000
     17 ****        -2.1888   1.0577   2.7953 H              1 S1                 0.0000
     18 ****        -2.1264  -0.5557   2.1175 H              1 S1                 0.0000
     19 ****        -0.0403   1.6588   1.6964 H              1 S1                 0.0000
     20 ****         0.1825   0.2748   2.7188 H              1 S1                 0.0000
     21 ****         1.1291  -3.1759   1.6885 H              1 S1                 0.0000
     22 ****         0.4152  -1.9149   2.6890 H              1 S1                 0.0000
     23 ****         1.7758  -1.2865  -3.2767 H              1 S1                 0.0000
     24 ****         0.7311   2.8833  -2.9142 H              1 S1                 0.0000
     25 ****         0.0351   2.5140  -0.5534 H              1 S1                 0.0000
     26 ****        -2.1823   0.4222  -0.0153 LP             1 S1                 0.0000
     27 ****        -2.2831   1.9143   0.6406 LP             1 S1                 0.0000
     28 ****         1.3106  -2.7716  -0.8648 LP             1 S1                 0.0000
@<TRIPOS>BOND
    1    1    2 1     
    2    1   16 1     
    3    2    3 1     
    4    2   17 1     
    5    2   18 1     
    6    3    4 1     
    7    3   19 1     
    8    3   20 1     
    9    4   15 1     
   10    4    5 1     
   11    5    6 1     
   12    5    8 2     
   13    6    7 1     
   14    6   21 1     
   15    6   22 1     
   16    8    9 1     
   17    9   15 ar    
   18    9   10 ar    
   19   10   11 ar    
   20   10   23 1     
   21   11   12 1     
   22   11   13 ar    
   23   13   14 ar    
   24   13   24 1     
   25   14   15 ar    
   26   14   25 1     
   27    1   26 1     
   28    1   27 1     
   29    8   28 1     
@<TRIPOS>SUBSTRUCTURE
      1 S1             1
@<TRIPOS>SET
LONE_PAIRS      STATIC     ATOMS    <user>   **** ""
3 26 27 28
DONOR_HYDROGENS      STATIC     ATOMS    <user>   **** ""
1 16
ATOM$BLUE        STATIC     ATOMS    COLORGROUP SYSTEM
3 26 27 28
ATOM$RED        STATIC     ATOMS    COLORGROUP SYSTEM
1 16
