AV-unprocessed.smi:3112|AV-procd|sdf|11843|dock8
  -GOLD-   2272017223D 1   1.00000     0.00000
 Structure written by MMmdl.
 37 37  0  0  0  0  0  0  0  0  2 V2000
  144.8705  135.4797  151.6132 C   0  0  0  0  0  0  0  0  0  0  0  0
  145.2478  136.7618  152.3681 C   0  0  0  0  0  0  0  0  0  0  0  0
  146.6394  137.3053  151.9965 C   0  0  1  0  0  0  0  0  0  0  0  0
  146.6652  137.5867  150.6106 O   0  0  0  0  0  0  0  0  0  0  0  0
  146.9728  138.5992  152.7573 C   0  0  0  0  0  0  0  0  0  0  0  0
  148.4315  138.8335  152.7997 N   0  3  0  0  0  0  0  0  0  0  0  0
  148.9829  139.1204  154.1430 C   0  0  1  0  0  0  0  0  0  0  0  0
  150.2715  138.2990  154.3311 C   0  0  0  0  0  0  0  0  0  0  0  0
  149.2004  140.6467  154.3257 C   0  0  1  0  0  0  0  0  0  0  0  0
  147.9024  141.4639  154.1918 C   0  0  0  0  0  0  0  0  0  0  0  0
  149.8458  140.9545  155.5960 N   0  0  0  0  0  0  0  0  0  0  0  0
  150.3199  142.1683  156.0536 C   0  0  0  0  0  0  0  0  0  0  0  0
  150.8338  141.9624  157.3015 C   0  0  0  0  0  0  0  0  0  0  0  0
  150.6250  140.5735  157.5276 C   0  0  0  0  0  0  0  0  0  0  0  0
  150.0322  139.9746  156.5073 N   0  0  0  0  0  0  0  0  0  0  0  0
  143.8915  135.1194  151.9299 H   0  0  0  0  0  0  0  0  0  0  0  0
  145.5930  134.6845  151.8001 H   0  0  0  0  0  0  0  0  0  0  0  0
  144.8263  135.6477  150.5370 H   0  0  0  0  0  0  0  0  0  0  0  0
  144.4892  137.5259  152.1934 H   0  0  0  0  0  0  0  0  0  0  0  0
  145.2205  136.5479  153.4372 H   0  0  0  0  0  0  0  0  0  0  0  0
  147.3928  136.5477  152.2166 H   0  0  0  0  0  0  0  0  0  0  0  0
  145.8191  137.9237  150.3556 H   0  0  0  0  0  0  0  0  0  0  0  0
  146.4659  139.4495  152.2988 H   0  0  0  0  0  0  0  0  0  0  0  0
  146.6099  138.5296  153.7837 H   0  0  0  0  0  0  0  0  0  0  0  0
  148.8886  138.0085  152.4387 H   0  0  0  0  0  0  0  0  0  0  0  0
  148.2757  138.7772  154.9004 H   0  0  0  0  0  0  0  0  0  0  0  0
  150.6699  138.3914  155.3417 H   0  0  0  0  0  0  0  0  0  0  0  0
  151.0493  138.6180  153.6366 H   0  0  0  0  0  0  0  0  0  0  0  0
  150.0869  137.2382  154.1579 H   0  0  0  0  0  0  0  0  0  0  0  0
  149.8736  140.9819  153.5339 H   0  0  0  0  0  0  0  0  0  0  0  0
  147.4730  141.3727  153.1941 H   0  0  0  0  0  0  0  0  0  0  0  0
  148.0898  142.5245  154.3628 H   0  0  0  0  0  0  0  0  0  0  0  0
  147.1490  141.1398  154.9103 H   0  0  0  0  0  0  0  0  0  0  0  0
  150.2534  143.0678  155.4595 H   0  0  0  0  0  0  0  0  0  0  0  0
  151.2899  142.6923  157.9540 H   0  0  0  0  0  0  0  0  0  0  0  0
  150.8836  139.9869  158.3966 H   0  0  0  0  0  0  0  0  0  0  0  0
  148.6497  139.6104  152.1917 H   0  0  0  0  0  0  0  0  0  0  0  0
  1  2  1  0  0  0  0
  1 16  1  0  0  0  0
  1 17  1  0  0  0  0
  1 18  1  0  0  0  0
  2  3  1  0  0  0  0
  2 19  1  0  0  0  0
  2 20  1  0  0  0  0
  3  4  1  0  0  0  0
  3  5  1  0  0  0  0
  3 21  1  0  0  0  0
  4 22  1  0  0  0  0
  5  6  1  0  0  0  0
  5 23  1  0  0  0  0
  5 24  1  0  0  0  0
  6  7  1  0  0  0  0
  6 25  1  0  0  0  0
  6 37  1  0  0  0  0
  7  8  1  0  0  0  0
  7  9  1  0  0  0  0
  7 26  1  0  0  0  0
  8 27  1  0  0  0  0
  8 28  1  0  0  0  0
  8 29  1  0  0  0  0
  9 10  1  0  0  0  0
  9 11  1  0  0  0  0
  9 30  1  0  0  0  0
 10 31  1  0  0  0  0
 10 32  1  0  0  0  0
 10 33  1  0  0  0  0
 11 15  1  0  0  0  0
 11 12  1  0  0  0  0
 12 13  2  0  0  0  0
 12 34  1  0  0  0  0
 13 14  1  0  0  0  0
 13 35  1  0  0  0  0
 14 15  2  0  0  0  0
 14 36  1  0  0  0  0
M  CHG  1   6   1
M  END
> <s_m_source_file>
AV-unprocessed.smi

> <i_m_source_file_index>
3112

> <i_lp_mmshare_version>
43012

> <i_f3d_flags>
0

> <s_epik_input>
W0NIM11bQ0gyXVtDQEhdKFtPSF0pW0NIMl1bTkhdW0NASF0oW0NIM10pW0NASF0oW0NIM10pbjFbY0hdW2NIXVtjSF1uMQ==

> <s_epik_cmdline>
J2VwaWtfcHl0aG9uJywgJy1waCcsICc3LjAnLCAnLXRuJywgJzgnLCAnLW1hJywgJzIwMCcsICctbWV0YWxfYmluZGluZycsICctaW1hZScsICc8aW5maWxlLm1hZT4nLCAnLW9tYWUnLCAnPG91dGZpbGUubWFlPic=

> <r_lp_tautomer_probability>
1

> <r_epik_Ionization_Penalty>
0.0154842

> <r_epik_Ionization_Penalty_Charging>
0.0154724

> <r_epik_Ionization_Penalty_Neutral>
1.17979e-05

> <r_epik_State_Penalty>
0.0121607

> <r_epik_Charging_Adjusted_Penalty>
0.0276331

> <i_epik_Tot_Q>
1

> <i_epik_Tot_abs_Q>
1

> <r_epik_Metal_State_Penalty>
0.0121863

> <b_epik_Metal_Only>
0

> <s_lp_Force_Field>
OPLS_2005

> <r_lp_Energy>
13.9739

> <b_lp_Chiralities_Consistent>
1

> <s_lp_Variant>
AV-unprocessed.smi:3112-8

> <Gold.Version>
5.8.1

> <Gold.Id.Protein>
6NUR|6NUR_protein|mol2

> <Gold.PLP.Fitness>
47.1045

> <Gold.PLP.PLP>
-32.1451

> <Gold.PLP.part.hbond>
-4.0845

> <Gold.PLP.part.metal>
0.0000

> <Gold.PLP.part.buried>
-2.1649

> <Gold.PLP.part.nonpolar>
-26.6112

> <Gold.PLP.part.repulsive>
0.0837

> <Gold.PLP.ligand.clash>
0.0000

> <Gold.PLP.ligand.torsion>
1.2340

> <Gold.PLP.Chemscore.Hbond>
4.8800

> <Gold.PLP.Chemscore.CHOScore>
0.8899

> <Gold.PLP.Chemscore.Metal>
0.0000

> <Gold.Chemscore.Hbonds>
donor molecule, donor type, donor heavy atom, donor atom, acceptor molecule, acceptor atom, score
      L1  H     4    22       P1 10171  0.80
      L1  H     6    25       P1  7948  2.00
      L1  H     6    37       P1  7957  0.69
      P1  H  7954  7966       L1     4  1.00
      L1  C    12    34       P1  8028  0.99

> <Gold.PLP.Chemscore.Internal.Correction>
0.1176

> <Gold.Rescore>
     Score         DG    S(hbond)    S(metal)    S(lipo)     H(rot)  DE(clash)    DE(int)     intcor
     16.78     -20.14       3.88        0.00      67.18       2.41       0.87       2.50       ----

> <Gold.Chemscore.Fitness>
16.7771

> <Gold.Chemscore.DG>
-20.1421

> <Gold.Chemscore.ZeroCoef>
-5.4800

> <Gold.Chemscore.Hbond>
3.8829

> <Gold.Chemscore.Metal>
0.0000

> <Gold.Chemscore.Lipo>
67.1778

> <Gold.Chemscore.Internal_Hbond>
0.0000

> <Gold.Chemscore.DEClash>
0.8653

> <Gold.Chemscore.DEInternal>
2.4998

> <Gold.Chemscore.Rot>
2.4089

> <Gold.Chemscore.Internal.Correction>
   9.000000E+99

> <Gold.Chemscore.Hbonds>
donor molecule, donor type, donor heavy atom, donor atom, acceptor molecule, acceptor atom, score
      L1  H     4    22       P1 10171  0.79
      L1  H     6    25       P1  7948  0.98
      L1  H     6    37       P1  7957  0.67
      P1  H  7954  7966       L1     4  0.93

> <Gold.Chemscore.Hbond.Weighted>
-12.9690

> <Gold.Chemscore.Metal.Weighted>
-0.0000

> <Gold.Chemscore.Lipo.Weighted>
-7.8598

> <Gold.Chemscore.Internal_Hbond.Weighted>
0.0000

> <Gold.Chemscore.DEClash.Weighted>
0.8653

> <Gold.Chemscore.DEInternal.Weighted>
2.4998

> <Gold.Chemscore.Rot.Weighted>
6.1667

> <Gold.Chemscore.Internal.Correction.Weighted>
   9.000000E+99

> <Gold.Protein.RotatedTorsions>
[ 6907 6896 6895 6894 ] final -165.01 input  -60.11 | X-H torsion
[ 7974 7965 7964 7962 ] final -152.36 input  175.53 | X-H torsion
[ 8008 7997 7996 7995 ] final   62.42 input   59.86 | X-H torsion
[ 10167 10162 10161 10158 ] final  -95.34 input  -65.29 | X-H torsion
[ 10718 10713 10712 10709 ] final  -98.55 input   66.30 | X-H torsion
[ 10763 10752 10751 10750 ] final -145.39 input  -60.55 | X-H torsion
[ 11005 11000 10999 10996 ] final -169.85 input  -57.11 | X-H torsion

> <Gold.Protein.ActiveResidues>
 VAL166  LYS551  ARG553  GLY616  TRP617  ASP618  TYR619  PRO620  LYS621  CYS622 
 ASP623  PHE694  ASN695  SER759  ASP760  ASP761  ALA762  ILE779  LEU786  VAL792 
 PHE793  MET794  SER795  GLU796  ALA797  LYS798  CYS799  TRP800  GLU811  SER814 

> <Gold.Protein.RotatedAtoms>
  151.4208  133.3699  159.2755 H   0  0  0  0  0  0  0  0  0  0  0  0  # atno 6907 bound_to 6896
  150.9295  134.8712  159.7552 H   0  0  0  0  0  0  0  0  0  0  0  0  # atno 6908 bound_to 6896
  152.5021  134.4152  159.9514 H   0  0  0  0  0  0  0  0  0  0  0  0  # atno 6909 bound_to 6896
  144.7799  140.4673  143.5847 H   0  0  0  0  0  0  0  0  0  0  0  0  # atno 7974 bound_to 7965
  155.6140  140.3495  155.4631 H   0  0  0  0  0  0  0  0  0  0  0  0  # atno 8008 bound_to 7997
  156.0131  140.1237  157.0457 H   0  0  0  0  0  0  0  0  0  0  0  0  # atno 8009 bound_to 7997
  154.4288  140.1077  156.5844 H   0  0  0  0  0  0  0  0  0  0  0  0  # atno 8010 bound_to 7997
  140.3051  143.3138  152.0207 H   0  0  0  0  0  0  0  0  0  0  0  0  # atno 10167 bound_to 10162
  156.0110  130.5243  150.6539 H   0  0  0  0  0  0  0  0  0  0  0  0  # atno 10718 bound_to 10713
  154.8385  135.3414  154.6497 H   0  0  0  0  0  0  0  0  0  0  0  0  # atno 10763 bound_to 10752
  153.7110  135.6964  153.5042 H   0  0  0  0  0  0  0  0  0  0  0  0  # atno 10764 bound_to 10752
  153.2452  135.4371  155.0693 H   0  0  0  0  0  0  0  0  0  0  0  0  # atno 10765 bound_to 10752
  140.5261  134.5661  157.5062 H   0  0  0  0  0  0  0  0  0  0  0  0  # atno 11005 bound_to 11000
  145.6081  139.1510  143.3091 LP  0  0  0  0  0  0  0  0  0  0  0  0  # atno 17320 bound_to 7965
  146.2000  140.6198  142.9106 LP  0  0  0  0  0  0  0  0  0  0  0  0  # atno 17321 bound_to 7965
  139.4906  144.6426  151.6844 LP  0  0  0  0  0  0  0  0  0  0  0  0  # atno 17342 bound_to 10162
  140.5617  144.0258  150.6173 LP  0  0  0  0  0  0  0  0  0  0  0  0  # atno 17343 bound_to 10162
  157.4294  131.0847  151.1053 LP  0  0  0  0  0  0  0  0  0  0  0  0  # atno 17370 bound_to 10713
  157.1630  130.6234  149.5616 LP  0  0  0  0  0  0  0  0  0  0  0  0  # atno 17371 bound_to 10713
  139.9579  134.7503  156.0301 LP  0  0  0  0  0  0  0  0  0  0  0  0  # atno 17394 bound_to 11000
  141.1307  133.6587  156.3457 LP  0  0  0  0  0  0  0  0  0  0  0  0  # atno 17395 bound_to 11000

$$$$
