#       Name:                AV-unprocessed.smi:3105
#       Creating user name   scv26
#       Creation time:       Fri Mar 27 17:19:31 2020


#       File generated by GOLD software.
#

@<TRIPOS>MOLECULE
AV-unprocessed.smi:3105
    37    37     1
SMALL
NO_CHARGES


@<TRIPOS>ATOM
      1 ****        -0.9904  -0.0695  -1.5123 C.3            1 S1                 0.0000
      2 ****        -0.4819   0.3208  -0.1081 C.3            1 S1                 0.0000
      3 ****         0.9965   0.2451  -0.0655 N.4            1 S1                 1.0000
      4 ****         1.7103   1.3946  -0.6662 C.3            1 S1                 0.0000
      5 ****         3.2409   1.2172  -0.6098 C.3            1 S1                 0.0000
      6 ****         3.7859   0.0917  -1.4999 C.2            1 S1                 0.0000
      7 ****         5.1139   0.0009  -1.6017 N.am           1 S1                 0.0000
      8 ****         3.0330  -0.6844  -2.0861 O.2            1 S1                 0.0000
      9 ****        -1.0823  -0.5645   1.0172 C.3            1 S1                 0.0000
     10 ****        -0.6944  -0.0735   2.4258 C.3            1 S1                 0.0000
     11 ****        -2.5313  -0.6868   0.9122 N.pl3          1 S1                 0.0000
     12 ****        -3.2774  -1.8247   0.6828 C.2            1 S1                 0.0000
     13 ****        -4.5916  -1.4550   0.6637 C.2            1 S1                 0.0000
     14 ****        -4.5518  -0.0520   0.8953 C.2            1 S1                 0.0000
     15 ****        -3.3190   0.4052   1.0428 N.2            1 S1                 0.0000
     16 ****        -2.0712   0.0427  -1.5981 H              1 S1                 0.0000
     17 ****        -0.7456  -1.1065  -1.7446 H              1 S1                 0.0000
     18 ****        -0.5538   0.5543  -2.2914 H              1 S1                 0.0000
     19 ****        -0.7750   1.3539   0.0862 H              1 S1                 0.0000
     20 ****         1.2735   0.1950   0.9045 H              1 S1                 0.0000
     21 ****         1.3945   1.5422  -1.6992 H              1 S1                 0.0000
     22 ****         1.4328   2.2993  -0.1240 H              1 S1                 0.0000
     23 ****         3.7144   2.1493  -0.9206 H              1 S1                 0.0000
     24 ****         3.5578   1.0391   0.4187 H              1 S1                 0.0000
     25 ****         5.5325  -0.7230  -2.1681 H              1 S1                 0.0000
     26 ****         5.7000   0.6564  -1.1044 H              1 S1                 0.0000
     27 ****        -0.6787  -1.5717   0.9000 H              1 S1                 0.0000
     28 ****         0.3851  -0.0916   2.5747 H              1 S1                 0.0000
     29 ****        -1.1364  -0.7075   3.1953 H              1 S1                 0.0000
     30 ****        -1.0355   0.9471   2.6031 H              1 S1                 0.0000
     31 ****        -2.8169  -2.7930   0.5517 H              1 S1                 0.0000
     32 ****        -5.4510  -2.0903   0.5082 H              1 S1                 0.0000
     33 ****        -5.3762   0.6430   0.9594 H              1 S1                 0.0000
     34 ****         1.2910  -0.6043  -0.5266 H              1 S1                 0.0000
     35 ****         2.0423  -0.5897  -1.9881 LP             1 S1                 0.0000
     36 ****         3.4115  -1.4100  -2.6606 LP             1 S1                 0.0000
     37 ****        -3.0331   1.3483   1.2130 LP             1 S1                 0.0000
@<TRIPOS>BOND
    1    1    2 1     
    2    1   16 1     
    3    1   17 1     
    4    1   18 1     
    5    2    3 1     
    6    2    9 1     
    7    2   19 1     
    8    3    4 1     
    9    3   20 1     
   10    3   34 1     
   11    4    5 1     
   12    4   21 1     
   13    4   22 1     
   14    5    6 1     
   15    5   23 1     
   16    5   24 1     
   17    6    7 am    
   18    6    8 2     
   19    7   25 1     
   20    7   26 1     
   21    9   10 1     
   22    9   11 1     
   23    9   27 1     
   24   10   28 1     
   25   10   29 1     
   26   10   30 1     
   27   11   15 1     
   28   11   12 1     
   29   12   13 2     
   30   12   31 1     
   31   13   14 1     
   32   13   32 1     
   33   14   15 2     
   34   14   33 1     
   35    8   35 1     
   36    8   36 1     
   37   15   37 1     
@<TRIPOS>SUBSTRUCTURE
      1 S1             1
@<TRIPOS>SET
LONE_PAIRS      STATIC     ATOMS    <user>   **** ""
3 35 36 37
DONOR_HYDROGENS      STATIC     ATOMS    <user>   **** ""
4 20 34 25 26
ATOM$BLUE        STATIC     ATOMS    COLORGROUP SYSTEM
3 35 36 37
ATOM$RED        STATIC     ATOMS    COLORGROUP SYSTEM
4 20 34 25 26
