AV-unprocessed.smi:234|AV-procd|sdf|1797|dock2
  -GOLD-   2262020363D 1   1.00000     0.00000
 Structure written by MMmdl.
 59 62  0  0  0  0  0  0  0  0  1 V2000
  152.0800  144.9267  159.1453 C   0  0  0  0  0  0  0  0  0  0  0  0
  152.0723  143.3948  159.0523 C   0  0  0  0  0  0  0  0  0  0  0  0
  150.9574  142.9208  158.3110 O   0  0  0  0  0  0  0  0  0  0  0  0
  150.9516  141.5125  158.0940 C   0  0  2  0  0  0  0  0  0  0  0  0
  151.8197  141.1691  156.8829 C   0  0  0  0  0  0  0  0  0  0  0  0
  150.5544  141.3552  156.0334 C   0  0  1  0  0  0  0  0  0  0  0  0
  150.4231  140.3959  154.9315 N   0  0  0  0  0  0  0  0  0  0  0  0
  151.2416  139.1887  154.9740 C   0  0  0  0  0  0  0  0  0  0  0  0
  149.1798  140.1506  154.4492 C   0  0  0  0  0  0  0  0  0  0  0  0
  148.5020  141.1201  153.7785 N   0  0  0  0  0  0  0  0  0  0  0  0
  147.2723  140.8809  153.3136 C   0  0  0  0  0  0  0  0  0  0  0  0
  146.5476  139.7642  153.4066 N   0  0  0  0  0  0  0  0  0  0  0  0
  147.2228  138.7898  154.0812 C   0  0  0  0  0  0  0  0  0  0  0  0
  148.5278  138.9014  154.6377 C   0  0  0  0  0  0  0  0  0  0  0  0
  148.8861  137.7087  155.2538 N   0  0  0  0  0  0  0  0  0  0  0  0
  147.8525  136.9335  155.0673 C   0  0  0  0  0  0  0  0  0  0  0  0
  146.8121  137.4987  154.3640 N   0  0  0  0  0  0  0  0  0  0  0  0
  145.5550  136.8589  154.0060 C   0  0  0  0  0  0  0  0  0  0  0  0
  145.6694  135.9330  152.7661 C   0  0  2  0  0  0  0  0  0  0  0  0
  146.7760  135.0695  152.9705 O   0  0  0  0  0  0  0  0  0  0  0  0
  145.8977  136.6845  151.4581 C   0  0  0  0  0  0  0  0  0  0  0  0
  145.3111  135.7429  150.4181 C   0  0  0  0  0  0  0  0  0  0  0  0
  144.1485  135.2570  151.0657 O   0  0  0  0  0  0  0  0  0  0  0  0
  144.4341  135.0444  152.4469 C   0  0  2  0  0  0  0  0  0  0  0  0
  143.1475  135.3436  153.2321 C   0  0  0  0  0  0  0  0  0  0  0  0
  149.7165  141.0158  157.2980 C   0  0  0  0  0  0  0  0  0  0  0  0
  149.3676  139.5395  157.5483 C   0  0  0  0  0  0  0  0  0  0  0  0
  148.4227  141.8105  157.4968 C   0  0  0  0  0  0  0  0  0  0  0  0
  152.9683  145.2771  159.6708 H   0  0  0  0  0  0  0  0  0  0  0  0
  151.2092  145.3031  159.6821 H   0  0  0  0  0  0  0  0  0  0  0  0
  152.0821  145.3769  158.1524 H   0  0  0  0  0  0  0  0  0  0  0  0
  152.9759  143.0659  158.5389 H   0  0  0  0  0  0  0  0  0  0  0  0
  152.0965  142.9394  160.0437 H   0  0  0  0  0  0  0  0  0  0  0  0
  151.1915  140.9113  158.9731 H   0  0  0  0  0  0  0  0  0  0  0  0
  152.6189  141.8817  156.6757 H   0  0  0  0  0  0  0  0  0  0  0  0
  152.1923  140.1435  156.9047 H   0  0  0  0  0  0  0  0  0  0  0  0
  150.4261  142.3946  155.7253 H   0  0  0  0  0  0  0  0  0  0  0  0
  150.6330  138.2846  155.0327 H   0  0  0  0  0  0  0  0  0  0  0  0
  151.9029  139.1904  155.8397 H   0  0  0  0  0  0  0  0  0  0  0  0
  151.8597  139.1253  154.0783 H   0  0  0  0  0  0  0  0  0  0  0  0
  146.8026  141.7017  152.7921 H   0  0  0  0  0  0  0  0  0  0  0  0
  147.8234  135.9167  155.4314 H   0  0  0  0  0  0  0  0  0  0  0  0
  145.2040  136.2947  154.8710 H   0  0  0  0  0  0  0  0  0  0  0  0
  144.8209  137.6459  153.8318 H   0  0  0  0  0  0  0  0  0  0  0  0
  147.5689  135.5529  152.7942 H   0  0  0  0  0  0  0  0  0  0  0  0
  145.3216  137.6104  151.4523 H   0  0  0  0  0  0  0  0  0  0  0  0
  146.9415  136.9408  151.2706 H   0  0  0  0  0  0  0  0  0  0  0  0
  145.0705  136.2448  149.4807 H   0  0  0  0  0  0  0  0  0  0  0  0
  145.9904  134.9161  150.2060 H   0  0  0  0  0  0  0  0  0  0  0  0
  144.6788  133.9887  152.5781 H   0  0  0  0  0  0  0  0  0  0  0  0
  143.2870  135.1869  154.3018 H   0  0  0  0  0  0  0  0  0  0  0  0
  142.3402  134.6852  152.9103 H   0  0  0  0  0  0  0  0  0  0  0  0
  142.8129  136.3696  153.0769 H   0  0  0  0  0  0  0  0  0  0  0  0
  148.5587  139.1985  156.9019 H   0  0  0  0  0  0  0  0  0  0  0  0
  149.0485  139.3782  158.5785 H   0  0  0  0  0  0  0  0  0  0  0  0
  150.2178  138.8803  157.3713 H   0  0  0  0  0  0  0  0  0  0  0  0
  147.6253  141.4559  156.8439 H   0  0  0  0  0  0  0  0  0  0  0  0
  148.5624  142.8700  157.2818 H   0  0  0  0  0  0  0  0  0  0  0  0
  148.0608  141.7329  158.5221 H   0  0  0  0  0  0  0  0  0  0  0  0
  1  2  1  0  0  0  0
  1 29  1  0  0  0  0
  1 30  1  0  0  0  0
  1 31  1  0  0  0  0
  2  3  1  0  0  0  0
  2 32  1  0  0  0  0
  2 33  1  0  0  0  0
  3  4  1  0  0  0  0
  4 26  1  0  0  0  0
  4  5  1  0  0  0  0
  4 34  1  0  0  0  0
  5  6  1  0  0  0  0
  5 35  1  0  0  0  0
  5 36  1  0  0  0  0
  6  7  1  0  0  0  0
  6 26  1  0  0  0  0
  6 37  1  0  0  0  0
  7  8  1  0  0  0  0
  7  9  1  0  0  0  0
  8 38  1  0  0  0  0
  8 39  1  0  0  0  0
  8 40  1  0  0  0  0
  9 14  1  0  0  0  0
  9 10  2  0  0  0  0
 10 11  1  0  0  0  0
 11 12  2  0  0  0  0
 11 41  1  0  0  0  0
 12 13  1  0  0  0  0
 13 17  1  0  0  0  0
 13 14  2  0  0  0  0
 14 15  1  0  0  0  0
 15 16  2  0  0  0  0
 16 17  1  0  0  0  0
 16 42  1  0  0  0  0
 17 18  1  0  0  0  0
 18 19  1  0  0  0  0
 18 43  1  0  0  0  0
 18 44  1  0  0  0  0
 19 24  1  0  0  0  0
 19 20  1  0  0  0  0
 19 21  1  0  0  0  0
 20 45  1  0  0  0  0
 21 22  1  0  0  0  0
 21 46  1  0  0  0  0
 21 47  1  0  0  0  0
 22 23  1  0  0  0  0
 22 48  1  0  0  0  0
 22 49  1  0  0  0  0
 23 24  1  0  0  0  0
 24 25  1  0  0  0  0
 24 50  1  0  0  0  0
 25 51  1  0  0  0  0
 25 52  1  0  0  0  0
 25 53  1  0  0  0  0
 26 27  1  0  0  0  0
 26 28  1  0  0  0  0
 27 54  1  0  0  0  0
 27 55  1  0  0  0  0
 27 56  1  0  0  0  0
 28 57  1  0  0  0  0
 28 58  1  0  0  0  0
 28 59  1  0  0  0  0
M  END
> <s_m_source_file>
AV-unprocessed.smi

> <i_m_source_file_index>
234

> <i_lp_mmshare_version>
43012

> <i_f3d_flags>
0

> <s_epik_input>
W0NIM11bQ0gyXU9bQ0BASF0oQzEoW0NIM10pW0NIM10pW0NIMl1bQ0BIXTFOKFtDSDNdKWMobltjSF1uMiljKGMyMyluW2NIXW4zW0NIMl1bQ0BAXTQoW09IXSlbQ0gyXVtDSDJdT1tDQEhdNFtDSDNd

> <s_epik_cmdline>
J2VwaWtfcHl0aG9uJywgJy1waCcsICc3LjAnLCAnLXRuJywgJzgnLCAnLW1hJywgJzIwMCcsICctbWV0YWxfYmluZGluZycsICctaW1hZScsICc8aW5maWxlLm1hZT4nLCAnLW9tYWUnLCAnPG91dGZpbGUubWFlPic=

> <r_lp_tautomer_probability>
1

> <r_epik_Ionization_Penalty>
0.00349132

> <r_epik_Ionization_Penalty_Charging>
0

> <r_epik_Ionization_Penalty_Neutral>
0.00349132

> <r_epik_State_Penalty>
0.00242418

> <r_epik_Charging_Adjusted_Penalty>
0.00242418

> <i_epik_Tot_Q>
0

> <i_epik_Tot_abs_Q>
0

> <r_epik_Metal_State_Penalty>
-0

> <b_epik_Metal_Only>
0

> <s_lp_Force_Field>
OPLS_2005

> <r_lp_Energy>
49.2938

> <b_lp_Chiralities_Consistent>
1

> <s_lp_Variant>
AV-unprocessed.smi:234-13

> <Gold.Version>
5.8.1

> <Gold.Id.Protein>
6NUR|6NUR_protein|mol2

> <Gold.PLP.Fitness>
43.0476

> <Gold.PLP.PLP>
-39.5084

> <Gold.PLP.part.hbond>
-2.7192

> <Gold.PLP.part.metal>
0.0000

> <Gold.PLP.part.buried>
-5.6102

> <Gold.PLP.part.nonpolar>
-32.0231

> <Gold.PLP.part.repulsive>
2.0211

> <Gold.PLP.ligand.clash>
0.0139

> <Gold.PLP.ligand.torsion>
1.4776

> <Gold.PLP.Chemscore.Hbond>
1.7147

> <Gold.PLP.Chemscore.CHOScore>
0.0000

> <Gold.PLP.Chemscore.Metal>
0.0000

> <Gold.Chemscore.Hbonds>
donor molecule, donor type, donor heavy atom, donor atom, acceptor molecule, acceptor atom, score
      L1  H    20    45       P1  7948  1.00
      P1  H  7989  7998       L1     7  0.15
      P1  H  8011  8017       L1    10  0.22

> <Gold.PLP.Chemscore.Internal.Correction>
1.3642

> <Gold.Rescore>
     Score         DG    S(hbond)    S(metal)    S(lipo)     H(rot)  DE(clash)    DE(int)     intcor
      8.96     -14.27       1.29        0.00      95.62       2.62       1.72       3.58       ----

> <Gold.Chemscore.Fitness>
8.9596

> <Gold.Chemscore.DG>
-14.2663

> <Gold.Chemscore.ZeroCoef>
-5.4800

> <Gold.Chemscore.Hbond>
1.2905

> <Gold.Chemscore.Metal>
0.0000

> <Gold.Chemscore.Lipo>
95.6242

> <Gold.Chemscore.Internal_Hbond>
0.0000

> <Gold.Chemscore.DEClash>
1.7237

> <Gold.Chemscore.DEInternal>
3.5830

> <Gold.Chemscore.Rot>
2.6219

> <Gold.Chemscore.Internal.Correction>
   9.000000E+99

> <Gold.Chemscore.Hbonds>
donor molecule, donor type, donor heavy atom, donor atom, acceptor molecule, acceptor atom, score
      L1  H    20    45       P1  7948  0.99
      P1  H  8011  8017       L1    10  0.16

> <Gold.Chemscore.Hbond.Weighted>
-4.3104

> <Gold.Chemscore.Metal.Weighted>
-0.0000

> <Gold.Chemscore.Lipo.Weighted>
-11.1880

> <Gold.Chemscore.Internal_Hbond.Weighted>
0.0000

> <Gold.Chemscore.DEClash.Weighted>
1.7237

> <Gold.Chemscore.DEInternal.Weighted>
3.5830

> <Gold.Chemscore.Rot.Weighted>
6.7121

> <Gold.Chemscore.Internal.Correction.Weighted>
   9.000000E+99

> <Gold.Protein.RotatedTorsions>
[ 6907 6896 6895 6894 ] final -140.33 input  -60.11 | X-H torsion
[ 7974 7965 7964 7962 ] final  169.80 input  175.53 | X-H torsion
[ 8008 7997 7996 7995 ] final -154.33 input   59.86 | X-H torsion
[ 10167 10162 10161 10158 ] final  -99.79 input  -65.29 | X-H torsion
[ 10718 10713 10712 10709 ] final   61.18 input   66.30 | X-H torsion
[ 10763 10752 10751 10750 ] final  138.47 input  -60.55 | X-H torsion
[ 11005 11000 10999 10996 ] final   42.95 input  -57.11 | X-H torsion

> <Gold.Protein.ActiveResidues>
 VAL166  LYS551  ARG553  GLY616  TRP617  ASP618  TYR619  PRO620  LYS621  CYS622 
 ASP623  PHE694  ASN695  SER759  ASP760  ASP761  ALA762  ILE779  LEU786  VAL792 
 PHE793  MET794  SER795  GLU796  ALA797  LYS798  CYS799  TRP800  GLU811  SER814 

> <Gold.Protein.RotatedAtoms>
  151.0593  133.5558  159.2635 H   0  0  0  0  0  0  0  0  0  0  0  0  # atno 6907 bound_to 6896
  151.2539  135.0631  159.9082 H   0  0  0  0  0  0  0  0  0  0  0  0  # atno 6908 bound_to 6896
  152.5395  134.0349  159.8095 H   0  0  0  0  0  0  0  0  0  0  0  0  # atno 6909 bound_to 6896
  144.7344  139.9107  143.6415 H   0  0  0  0  0  0  0  0  0  0  0  0  # atno 7974 bound_to 7965
  155.6847  140.0748  157.2471 H   0  0  0  0  0  0  0  0  0  0  0  0  # atno 8008 bound_to 7997
  154.4099  140.1675  156.2073 H   0  0  0  0  0  0  0  0  0  0  0  0  # atno 8009 bound_to 7997
  155.9504  140.3378  155.6406 H   0  0  0  0  0  0  0  0  0  0  0  0  # atno 8010 bound_to 7997
  140.2587  143.3422  152.0646 H   0  0  0  0  0  0  0  0  0  0  0  0  # atno 10167 bound_to 10162
  157.5808  130.8980  149.9428 H   0  0  0  0  0  0  0  0  0  0  0  0  # atno 10718 bound_to 10713
  153.8902  135.3034  155.3447 H   0  0  0  0  0  0  0  0  0  0  0  0  # atno 10763 bound_to 10752
  154.7720  135.4881  153.9671 H   0  0  0  0  0  0  0  0  0  0  0  0  # atno 10764 bound_to 10752
  153.1302  135.6802  153.9289 H   0  0  0  0  0  0  0  0  0  0  0  0  # atno 10765 bound_to 10752
  140.1691  134.4245  155.8269 H   0  0  0  0  0  0  0  0  0  0  0  0  # atno 11005 bound_to 11000
  146.1003  139.3998  143.0351 LP  0  0  0  0  0  0  0  0  0  0  0  0  # atno 17320 bound_to 7965
  145.7588  140.9943  143.1211 LP  0  0  0  0  0  0  0  0  0  0  0  0  # atno 17321 bound_to 7965
  139.5023  144.6733  151.6191 LP  0  0  0  0  0  0  0  0  0  0  0  0  # atno 17342 bound_to 10162
  140.5983  143.9656  150.6369 LP  0  0  0  0  0  0  0  0  0  0  0  0  # atno 17343 bound_to 10162
  156.0854  130.3668  150.0497 LP  0  0  0  0  0  0  0  0  0  0  0  0  # atno 17370 bound_to 10713
  156.8637  130.9500  151.3616 LP  0  0  0  0  0  0  0  0  0  0  0  0  # atno 17371 bound_to 10713
  141.2216  133.6947  156.7730 LP  0  0  0  0  0  0  0  0  0  0  0  0  # atno 17394 bound_to 11000
  140.2399  134.8621  157.3563 LP  0  0  0  0  0  0  0  0  0  0  0  0  # atno 17395 bound_to 11000

$$$$
