AV-unprocessed.smi:130|AV-procd|sdf|1159|dock5
  -GOLD-   2262018293D 1   1.00000     0.00000
 Structure written by MMmdl.
 44 47  0  0  0  0  0  0  0  0  1 V2000
  149.9668  140.5912  156.5682 O   0  0  0  0  0  0  0  0  0  0  0  0
  150.6502  140.0241  157.4216 C   0  0  0  0  0  0  0  0  0  0  0  0
  150.5964  138.4832  157.5157 C   0  0  0  0  0  0  0  0  0  0  0  0
  149.2840  137.9593  157.9564 N   0  0  0  0  0  0  0  0  0  0  0  0
  148.1471  138.2030  157.1459 C   0  0  0  0  0  0  0  0  0  0  0  0
  148.2342  138.8491  156.1007 O   0  0  0  0  0  0  0  0  0  0  0  0
  146.8946  137.6320  157.6286 C   0  0  0  0  0  0  0  0  0  0  0  0
  145.7663  137.8076  156.9203 F   0  0  0  0  0  0  0  0  0  0  0  0
  146.8509  136.9234  158.7753 C   0  0  0  0  0  0  0  0  0  0  0  0
  147.9682  136.6956  159.5575 N   0  0  0  0  0  0  0  0  0  0  0  0
  147.8834  135.8743  160.8239 C   0  0  2  0  0  0  0  0  0  0  0  0
  146.4410  135.4099  161.0575 C   0  0  0  0  0  0  0  0  0  0  0  0
  145.9228  136.4628  162.0133 C   0  0  0  0  0  0  0  0  0  0  0  0
  147.1707  136.7748  162.8307 C   0  0  0  0  0  0  0  0  0  0  0  0
  148.2538  136.6739  161.9106 O   0  0  0  0  0  0  0  0  0  0  0  0
  149.2215  137.2021  159.1508 C   0  0  0  0  0  0  0  0  0  0  0  0
  150.2370  136.9781  159.8133 O   0  0  0  0  0  0  0  0  0  0  0  0
  151.4544  140.6850  158.2912 N   0  0  0  0  0  0  0  0  0  0  0  0
  152.2636  140.0116  159.3222 C   0  0  0  0  0  0  0  0  0  0  0  0
  152.9974  141.1282  160.0968 C   0  0  0  0  0  0  0  0  0  0  0  0
  152.5435  142.3777  159.4017 C   0  0  0  0  0  0  0  0  0  0  0  0
  152.9276  143.6952  159.7056 C   0  0  0  0  0  0  0  0  0  0  0  0
  152.3902  144.7433  158.9292 C   0  0  0  0  0  0  0  0  0  0  0  0
  151.4893  144.4626  157.8764 C   0  0  0  0  0  0  0  0  0  0  0  0
  151.1135  143.1327  157.5852 C   0  0  0  0  0  0  0  0  0  0  0  0
  151.6567  142.0888  158.3686 C   0  0  0  0  0  0  0  0  0  0  0  0
  150.8652  138.0600  156.5468 H   0  0  0  0  0  0  0  0  0  0  0  0
  151.3859  138.1413  158.1862 H   0  0  0  0  0  0  0  0  0  0  0  0
  145.8980  136.5173  159.0801 H   0  0  0  0  0  0  0  0  0  0  0  0
  148.5991  135.0583  160.7118 H   0  0  0  0  0  0  0  0  0  0  0  0
  145.8726  135.3314  160.1298 H   0  0  0  0  0  0  0  0  0  0  0  0
  146.4640  134.4328  161.5416 H   0  0  0  0  0  0  0  0  0  0  0  0
  145.5987  137.3467  161.4629 H   0  0  0  0  0  0  0  0  0  0  0  0
  145.0888  136.1147  162.6234 H   0  0  0  0  0  0  0  0  0  0  0  0
  147.1331  137.7587  163.2986 H   0  0  0  0  0  0  0  0  0  0  0  0
  147.3066  136.0290  163.6149 H   0  0  0  0  0  0  0  0  0  0  0  0
  151.6333  139.4329  159.9986 H   0  0  0  0  0  0  0  0  0  0  0  0
  152.9846  139.3345  158.8621 H   0  0  0  0  0  0  0  0  0  0  0  0
  152.7075  141.1515  161.1478 H   0  0  0  0  0  0  0  0  0  0  0  0
  154.0810  141.0253  160.0313 H   0  0  0  0  0  0  0  0  0  0  0  0
  153.6165  143.9002  160.5117 H   0  0  0  0  0  0  0  0  0  0  0  0
  152.6685  145.7653  159.1396 H   0  0  0  0  0  0  0  0  0  0  0  0
  151.0846  145.2728  157.2882 H   0  0  0  0  0  0  0  0  0  0  0  0
  150.4253  142.9510  156.7752 H   0  0  0  0  0  0  0  0  0  0  0  0
  1  2  2  0  0  0  0
  2  3  1  0  0  0  0
  2 18  1  0  0  0  0
  3  4  1  0  0  0  0
  3 27  1  0  0  0  0
  3 28  1  0  0  0  0
  4 16  1  0  0  0  0
  4  5  1  0  0  0  0
  5  6  2  0  0  0  0
  5  7  1  0  0  0  0
  7  8  1  0  0  0  0
  7  9  2  0  0  0  0
  9 10  1  0  0  0  0
  9 29  1  0  0  0  0
 10 11  1  0  0  0  0
 10 16  1  0  0  0  0
 11 15  1  0  0  0  0
 11 12  1  0  0  0  0
 11 30  1  0  0  0  0
 12 13  1  0  0  0  0
 12 31  1  0  0  0  0
 12 32  1  0  0  0  0
 13 14  1  0  0  0  0
 13 33  1  0  0  0  0
 13 34  1  0  0  0  0
 14 15  1  0  0  0  0
 14 35  1  0  0  0  0
 14 36  1  0  0  0  0
 16 17  2  0  0  0  0
 18 26  1  0  0  0  0
 18 19  1  0  0  0  0
 19 20  1  0  0  0  0
 19 37  1  0  0  0  0
 19 38  1  0  0  0  0
 20 21  1  0  0  0  0
 20 39  1  0  0  0  0
 20 40  1  0  0  0  0
 21 26  2  0  0  0  0
 21 22  1  0  0  0  0
 22 23  2  0  0  0  0
 22 41  1  0  0  0  0
 23 24  1  0  0  0  0
 23 42  1  0  0  0  0
 24 25  2  0  0  0  0
 24 43  1  0  0  0  0
 25 26  1  0  0  0  0
 25 44  1  0  0  0  0
M  END
> <s_m_source_file>
AV-unprocessed.smi

> <i_m_source_file_index>
130

> <i_lp_mmshare_version>
43012

> <i_f3d_flags>
0

> <s_epik_input>
W2NIXTFbY0hdW2NIXVtjSF1jKGMxMilOKFtDSDJdW0NIMl0yKUMoPU8pW0NIMl1uM2MoPU8pYyhGKVtjSF1uKGMzPU8pW0NAQEhdNFtDSDJdW0NIMl1bQ0gyXU80

> <s_epik_cmdline>
J2VwaWtfcHl0aG9uJywgJy1waCcsICc3LjAnLCAnLXRuJywgJzgnLCAnLW1hJywgJzIwMCcsICctbWV0YWxfYmluZGluZycsICctaW1hZScsICc8aW5maWxlLm1hZT4nLCAnLW9tYWUnLCAnPG91dGZpbGUubWFlPic=

> <r_lp_tautomer_probability>
1

> <r_epik_Ionization_Penalty>
1.67926e-06

> <r_epik_Ionization_Penalty_Charging>
3.62822e-09

> <r_epik_Ionization_Penalty_Neutral>
1.67563e-06

> <r_epik_State_Penalty>
-0

> <r_epik_Charging_Adjusted_Penalty>
3.62822e-09

> <i_epik_Tot_Q>
0

> <i_epik_Tot_abs_Q>
0

> <r_epik_Metal_State_Penalty>
-0

> <b_epik_Metal_Only>
0

> <s_epik_Chemistry_Notes>
This compound contains an acetal/aminal-like group ( X-CH(R)-Y where X, Y are N, S, or O) that may be acid/base labile, releasing an aldehyde.

> <s_lp_Force_Field>
OPLS_2005

> <r_lp_Energy>
53.4857

> <b_lp_Chiralities_Consistent>
1

> <s_lp_Variant>
AV-unprocessed.smi:130-1

> <Gold.Version>
5.8.1

> <Gold.Id.Protein>
6NUR|6NUR_protein|mol2

> <Gold.PLP.Fitness>
53.7826

> <Gold.PLP.PLP>
-47.8807

> <Gold.PLP.part.hbond>
-2.5893

> <Gold.PLP.part.metal>
0.0000

> <Gold.PLP.part.buried>
-6.7477

> <Gold.PLP.part.nonpolar>
-39.7525

> <Gold.PLP.part.repulsive>
0.0247

> <Gold.PLP.ligand.clash>
0.0000

> <Gold.PLP.ligand.torsion>
0.0542

> <Gold.PLP.Chemscore.Hbond>
2.0000

> <Gold.PLP.Chemscore.CHOScore>
0.0000

> <Gold.PLP.Chemscore.Metal>
0.0000

> <Gold.Chemscore.Hbonds>
donor molecule, donor type, donor heavy atom, donor atom, acceptor molecule, acceptor atom, score
      P1  H  6896  6908       L1    17  0.84
      P1  H  6931  6943       L1    15  1.00

> <Gold.PLP.Chemscore.Internal.Correction>
0.0103

> <Gold.Rescore>
     Score         DG    S(hbond)    S(metal)    S(lipo)     H(rot)  DE(clash)    DE(int)     intcor
     17.59     -20.81       1.93        0.00     110.26       1.57       0.00       3.21       ----

> <Gold.Chemscore.Fitness>
17.5916

> <Gold.Chemscore.DG>
-20.8060

> <Gold.Chemscore.ZeroCoef>
-5.4800

> <Gold.Chemscore.Hbond>
1.9299

> <Gold.Chemscore.Metal>
0.0000

> <Gold.Chemscore.Lipo>
110.2594

> <Gold.Chemscore.Internal_Hbond>
0.0000

> <Gold.Chemscore.DEClash>
0.0029

> <Gold.Chemscore.DEInternal>
3.2115

> <Gold.Chemscore.Rot>
1.5704

> <Gold.Chemscore.Internal.Correction>
   9.000000E+99

> <Gold.Chemscore.Hbonds>
donor molecule, donor type, donor heavy atom, donor atom, acceptor molecule, acceptor atom, score
      P1  H  6896  6908       L1    17  0.82
      P1  H  6931  6943       L1    15  0.55

> <Gold.Chemscore.Hbond.Weighted>
-6.4460

> <Gold.Chemscore.Metal.Weighted>
-0.0000

> <Gold.Chemscore.Lipo.Weighted>
-12.9003

> <Gold.Chemscore.Internal_Hbond.Weighted>
0.0000

> <Gold.Chemscore.DEClash.Weighted>
0.0029

> <Gold.Chemscore.DEInternal.Weighted>
3.2115

> <Gold.Chemscore.Rot.Weighted>
4.0203

> <Gold.Chemscore.Internal.Correction.Weighted>
   9.000000E+99

> <Gold.Protein.RotatedTorsions>
[ 6907 6896 6895 6894 ] final -143.65 input  -60.11 | X-H torsion
[ 7974 7965 7964 7962 ] final  101.09 input  175.53 | X-H torsion
[ 8008 7997 7996 7995 ] final   23.34 input   59.86 | X-H torsion
[ 10167 10162 10161 10158 ] final  -99.49 input  -65.29 | X-H torsion
[ 10718 10713 10712 10709 ] final -164.42 input   66.30 | X-H torsion
[ 10763 10752 10751 10750 ] final  167.32 input  -60.55 | X-H torsion
[ 11005 11000 10999 10996 ] final  122.97 input  -57.11 | X-H torsion

> <Gold.Protein.ActiveResidues>
 VAL166  LYS551  ARG553  GLY616  TRP617  ASP618  TYR619  PRO620  LYS621  CYS622 
 ASP623  PHE694  ASN695  SER759  ASP760  ASP761  ALA762  ILE779  LEU786  VAL792 
 PHE793  MET794  SER795  GLU796  ALA797  LYS798  CYS799  TRP800  GLU811  SER814 

> <Gold.Protein.RotatedAtoms>
  151.1034  133.5226  159.2608 H   0  0  0  0  0  0  0  0  0  0  0  0  # atno 6907 bound_to 6896
  151.2048  135.0457  159.8897 H   0  0  0  0  0  0  0  0  0  0  0  0  # atno 6908 bound_to 6896
  152.5445  134.0857  159.8308 H   0  0  0  0  0  0  0  0  0  0  0  0  # atno 6909 bound_to 6896
  145.3770  139.2387  143.3424 H   0  0  0  0  0  0  0  0  0  0  0  0  # atno 7974 bound_to 7965
  154.9794  140.3100  155.4953 H   0  0  0  0  0  0  0  0  0  0  0  0  # atno 8008 bound_to 7997
  156.2955  140.2269  156.4831 H   0  0  0  0  0  0  0  0  0  0  0  0  # atno 8009 bound_to 7997
  154.7803  140.0446  157.1110 H   0  0  0  0  0  0  0  0  0  0  0  0  # atno 8010 bound_to 7997
  140.2619  143.3402  152.0618 H   0  0  0  0  0  0  0  0  0  0  0  0  # atno 10167 bound_to 10162
  156.6388  130.8960  151.2992 H   0  0  0  0  0  0  0  0  0  0  0  0  # atno 10718 bound_to 10713
  154.3521  135.2753  155.2366 H   0  0  0  0  0  0  0  0  0  0  0  0  # atno 10763 bound_to 10752
  154.4591  135.5912  153.6246 H   0  0  0  0  0  0  0  0  0  0  0  0  # atno 10764 bound_to 10752
  152.9849  135.6060  154.3733 H   0  0  0  0  0  0  0  0  0  0  0  0  # atno 10765 bound_to 10752
  139.9292  134.9641  156.8189 H   0  0  0  0  0  0  0  0  0  0  0  0  # atno 11005 bound_to 11000
  146.2859  140.4431  142.8758 LP  0  0  0  0  0  0  0  0  0  0  0  0  # atno 17320 bound_to 7965
  144.8535  140.7036  143.6153 LP  0  0  0  0  0  0  0  0  0  0  0  0  # atno 17321 bound_to 7965
  139.5014  144.6713  151.6235 LP  0  0  0  0  0  0  0  0  0  0  0  0  # atno 17342 bound_to 10162
  140.5959  143.9696  150.6354 LP  0  0  0  0  0  0  0  0  0  0  0  0  # atno 17343 bound_to 10162
  157.7177  130.9518  150.1319 LP  0  0  0  0  0  0  0  0  0  0  0  0  # atno 17370 bound_to 10713
  156.2176  130.3671  149.8595 LP  0  0  0  0  0  0  0  0  0  0  0  0  # atno 17371 bound_to 10713
  140.6251  133.9958  155.7636 LP  0  0  0  0  0  0  0  0  0  0  0  0  # atno 17394 bound_to 11000
  141.0869  133.9976  157.3299 LP  0  0  0  0  0  0  0  0  0  0  0  0  # atno 17395 bound_to 11000

$$$$
