#       Name:                AV-unprocessed.smi:66
#       Creating user name   scv26
#       Creation time:       Thu Mar 26 16:51:25 2020


#       File generated by GOLD software.
#

@<TRIPOS>MOLECULE
AV-unprocessed.smi:66
    37    39     1
SMALL
NO_CHARGES


@<TRIPOS>ATOM
      1 ****        -1.9389   3.4281  -0.1010 O.co2          1 S1                 0.0000
      2 ****        -1.5168   2.5117   0.6374 C.2            1 S1                 0.0000
      3 ****        -2.1503   1.9987   1.5871 O.co2          1 S1                -1.0000
      4 ****        -0.1015   1.9860   0.3471 C.3            1 S1                 0.0000
      5 ****         0.8974   2.3338   1.4656 C.3            1 S1                 0.0000
      6 ****         0.8819   1.1054   2.3738 C.3            1 S1                 0.0000
      7 ****         2.0628   0.9782   3.1380 O.3            1 S1                 0.0000
      8 ****         0.7008  -0.0453   1.3846 C.3            1 S1                 0.0000
      9 ****        -0.0685   0.5210   0.2843 N.pl3          1 S1                 0.0000
     10 ****        -0.3539  -0.1766  -0.8500 C.ar           1 S1                 0.0000
     11 ****        -0.8440   0.5019  -1.9224 N.ar           1 S1                 0.0000
     12 ****        -1.1424  -0.1327  -3.0590 C.ar           1 S1                 0.0000
     13 ****        -1.0292  -1.4306  -3.3438 N.ar           1 S1                 0.0000
     14 ****        -0.5407  -2.1205  -2.2768 C.ar           1 S1                 0.0000
     15 ****        -0.2913  -3.4735  -2.1914 N.pl3          1 S1                 0.0000
     16 ****         0.1881  -3.6906  -0.9245 C.2            1 S1                 0.0000
     17 ****         0.2741  -2.6184  -0.1851 N.2            1 S1                 0.0000
     18 ****        -0.1796  -1.5861  -1.0050 C.ar           1 S1                 0.0000
     19 ****        -0.4519  -4.1243  -2.9464 H              1 S1                 0.0000
     20 ****         0.2517   2.4221  -0.5885 H              1 S1                 0.0000
     21 ****         1.8890   2.4642   1.0292 H              1 S1                 0.0000
     22 ****         0.6528   3.2530   2.0001 H              1 S1                 0.0000
     23 ****         0.0233   1.1556   3.0447 H              1 S1                 0.0000
     24 ****         1.9958   0.1944   3.6615 H              1 S1                 0.0000
     25 ****         1.6628  -0.3934   1.0048 H              1 S1                 0.0000
     26 ****         0.1854  -0.8822   1.8563 H              1 S1                 0.0000
     27 ****        -1.5270   0.4903  -3.8529 H              1 S1                 0.0000
     28 ****         0.4711  -4.6696  -0.5664 H              1 S1                 0.0000
     29 ****        -2.8517   3.8089   0.0468 LP             1 S1                 0.0000
     30 ****        -1.3638   3.7802  -0.8394 LP             1 S1                 0.0000
     31 ****        -3.0718   2.3202   1.8049 LP             1 S1                 0.0000
     32 ****        -1.7350   1.2673   2.1280 LP             1 S1                 0.0000
     33 ****         2.1670   1.7745   3.7338 LP             1 S1                 0.0000
     34 ****         2.8535   0.9114   2.5294 LP             1 S1                 0.0000
     35 ****        -0.9829   1.4901  -1.8588 LP             1 S1                 0.0000
     36 ****        -1.2707  -1.8417  -4.2229 LP             1 S1                 0.0000
     37 ****         0.5943  -2.5521   0.7599 LP             1 S1                 0.0000
@<TRIPOS>BOND
    1    1    2 ar    
    2    2    3 ar    
    3    2    4 1     
    4    4    5 1     
    5    4   20 1     
    6    4    9 1     
    7    5    6 1     
    8    5   21 1     
    9    5   22 1     
   10    6    7 1     
   11    6    8 1     
   12    6   23 1     
   13    7   24 1     
   14    8   25 1     
   15    8   26 1     
   16    8    9 1     
   17    9   10 1     
   18   10   11 ar    
   19   10   18 ar    
   20   11   12 ar    
   21   12   27 1     
   22   12   13 ar    
   23   13   14 ar    
   24   14   15 1     
   25   14   18 ar    
   26   15   16 1     
   27   15   19 1     
   28   16   17 2     
   29   16   28 1     
   30   17   18 1     
   31    1   29 1     
   32    1   30 1     
   33    3   31 1     
   34    3   32 1     
   35    7   33 1     
   36    7   34 1     
   37   11   35 1     
   38   13   36 1     
   39   17   37 1     
@<TRIPOS>SUBSTRUCTURE
      1 S1             1
@<TRIPOS>SET
LONE_PAIRS      STATIC     ATOMS    <user>   **** ""
9 29 30 31 32 33 34 35 36 37
DONOR_HYDROGENS      STATIC     ATOMS    <user>   **** ""
2 24 19
ATOM$BLUE        STATIC     ATOMS    COLORGROUP SYSTEM
9 29 30 31 32 33 34 35 36 37
ATOM$RED        STATIC     ATOMS    COLORGROUP SYSTEM
2 24 19
