#       Name:                AV-unprocessed.smi:2961
#       Creating user name   scv26
#       Creation time:       Fri Mar 27 16:21:33 2020


#       File generated by GOLD software.
#

@<TRIPOS>MOLECULE
AV-unprocessed.smi:2961
    53    55     1
SMALL
NO_CHARGES


@<TRIPOS>ATOM
      1 ****         0.9558   5.4869   1.8574 C.3            1 S1                 0.0000
      2 ****         0.5200   4.0284   1.9470 C.2            1 S1                 0.0000
      3 ****         1.3432   3.1267   1.7915 O.2            1 S1                 0.0000
      4 ****        -0.7794   3.8111   2.2006 N.am           1 S1                 0.0000
      5 ****        -1.3930   2.4951   2.3350 C.3            1 S1                 0.0000
      6 ****        -1.6440   1.8424   0.9656 C.3            1 S1                 0.0000
      7 ****        -2.2421   0.4741   1.0855 C.2            1 S1                 0.0000
      8 ****        -3.5608   0.2825   1.1326 N.2            1 S1                 0.0000
      9 ****        -3.6635  -1.0890   1.2619 C.ar           1 S1                 0.0000
     10 ****        -4.8030  -1.9192   1.3598 C.ar           1 S1                 0.0000
     11 ****        -4.6592  -3.3163   1.4885 C.ar           1 S1                 0.0000
     12 ****        -3.3770  -3.9021   1.5202 C.ar           1 S1                 0.0000
     13 ****        -2.2283  -3.0931   1.4247 C.ar           1 S1                 0.0000
     14 ****        -2.3773  -1.6991   1.2979 C.ar           1 S1                 0.0000
     15 ****        -1.4787  -0.6427   1.1895 N.pl3          1 S1                 0.0000
     16 ****        -0.0275  -0.7455   1.1909 C.3            1 S1                 0.0000
     17 ****         0.5340  -0.9016  -0.2273 C.3            1 S1                 0.0000
     18 ****         1.9498  -0.9754  -0.1405 O.3            1 S1                 0.0000
     19 ****         2.6730  -1.0667  -1.3104 C.ar           1 S1                 0.0000
     20 ****         4.0778  -1.0880  -1.1920 C.ar           1 S1                 0.0000
     21 ****         4.8960  -1.1771  -2.3340 C.ar           1 S1                 0.0000
     22 ****         4.3141  -1.2470  -3.6128 C.ar           1 S1                 0.0000
     23 ****         2.9118  -1.2269  -3.7497 C.ar           1 S1                 0.0000
     24 ****         2.2804  -1.3048  -5.1247 C.3            1 S1                 0.0000
     25 ****         2.0946  -1.1395  -2.6032 C.ar           1 S1                 0.0000
     26 ****         0.3056   6.0416   1.1801 H              1 S1                 0.0000
     27 ****         1.9785   5.5634   1.4864 H              1 S1                 0.0000
     28 ****         0.9129   5.9560   2.8407 H              1 S1                 0.0000
     29 ****        -1.3840   4.6121   2.3132 H              1 S1                 0.0000
     30 ****        -0.7621   1.8572   2.9559 H              1 S1                 0.0000
     31 ****        -2.3361   2.6100   2.8698 H              1 S1                 0.0000
     32 ****        -2.3225   2.4665   0.3826 H              1 S1                 0.0000
     33 ****        -0.7226   1.7867   0.3866 H              1 S1                 0.0000
     34 ****        -5.7896  -1.4801   1.3362 H              1 S1                 0.0000
     35 ****        -5.5372  -3.9411   1.5631 H              1 S1                 0.0000
     36 ****        -3.2753  -4.9729   1.6187 H              1 S1                 0.0000
     37 ****        -1.2453  -3.5392   1.4489 H              1 S1                 0.0000
     38 ****         0.3973   0.1334   1.6758 H              1 S1                 0.0000
     39 ****         0.2608  -1.6004   1.8034 H              1 S1                 0.0000
     40 ****         0.1354  -1.8076  -0.6870 H              1 S1                 0.0000
     41 ****         0.2379  -0.0490  -0.8399 H              1 S1                 0.0000
     42 ****         4.5333  -1.0338  -0.2140 H              1 S1                 0.0000
     43 ****         5.9707  -1.1913  -2.2285 H              1 S1                 0.0000
     44 ****         4.9470  -1.3158  -4.4856 H              1 S1                 0.0000
     45 ****         1.4010  -0.6625  -5.1815 H              1 S1                 0.0000
     46 ****         1.9736  -2.3285  -5.3403 H              1 S1                 0.0000
     47 ****         2.9807  -0.9858  -5.8973 H              1 S1                 0.0000
     48 ****         1.0236  -1.1314  -2.7393 H              1 S1                 0.0000
     49 ****         2.3002   3.3498   1.6059 LP             1 S1                 0.0000
     50 ****         1.0551   2.1709   1.8507 LP             1 S1                 0.0000
     51 ****        -4.2929   0.9621   1.0859 LP             1 S1                 0.0000
     52 ****         2.1710  -1.7818   0.4078 LP             1 S1                 0.0000
     53 ****         2.2603  -0.1529   0.3359 LP             1 S1                 0.0000
@<TRIPOS>BOND
    1    1    2 1     
    2    1   26 1     
    3    1   27 1     
    4    1   28 1     
    5    2    3 2     
    6    2    4 am    
    7    4    5 1     
    8    4   29 1     
    9    5    6 1     
   10    5   30 1     
   11    5   31 1     
   12    6    7 1     
   13    6   32 1     
   14    6   33 1     
   15    7   15 1     
   16    7    8 2     
   17    8    9 1     
   18    9   14 ar    
   19    9   10 ar    
   20   10   11 ar    
   21   10   34 1     
   22   11   12 ar    
   23   11   35 1     
   24   12   13 ar    
   25   12   36 1     
   26   13   14 ar    
   27   13   37 1     
   28   14   15 1     
   29   15   16 1     
   30   16   17 1     
   31   16   38 1     
   32   16   39 1     
   33   17   18 1     
   34   17   40 1     
   35   17   41 1     
   36   18   19 1     
   37   19   25 ar    
   38   19   20 ar    
   39   20   21 ar    
   40   20   42 1     
   41   21   22 ar    
   42   21   43 1     
   43   22   23 ar    
   44   22   44 1     
   45   23   24 1     
   46   23   25 ar    
   47   24   45 1     
   48   24   46 1     
   49   24   47 1     
   50   25   48 1     
   51    3   49 1     
   52    3   50 1     
   53    8   51 1     
   54   18   52 1     
   55   18   53 1     
@<TRIPOS>SUBSTRUCTURE
      1 S1             1
@<TRIPOS>SET
LONE_PAIRS      STATIC     ATOMS    <user>   **** ""
5 49 50 51 52 53
DONOR_HYDROGENS      STATIC     ATOMS    <user>   **** ""
1 29
ATOM$BLUE        STATIC     ATOMS    COLORGROUP SYSTEM
5 49 50 51 52 53
ATOM$RED        STATIC     ATOMS    COLORGROUP SYSTEM
1 29
