AV-unprocessed.smi:3301|AV-procd|sdf|12655|dock9
  -GOLD-   2272018593D 1   1.00000     0.00000
 Structure written by MMmdl.
 36 37  0  0  0  0  0  0  0  0  1 V2000
  146.8166  142.5336  157.8443 C   0  0  0  0  0  0  0  0  0  0  0  0
  148.0013  141.8331  157.1580 C   0  0  1  0  0  0  0  0  0  0  0  0
  147.8197  141.6724  155.6357 C   0  0  0  0  0  0  0  0  0  0  0  0
  148.7642  140.7390  155.0516 N   0  0  0  0  0  0  0  0  0  0  0  0
  148.4714  139.6592  154.2293 C   0  0  0  0  0  0  0  0  0  0  0  0
  149.6727  139.0595  153.9256 C   0  0  0  0  0  0  0  0  0  0  0  0
  150.7113  139.7477  154.5490 N   0  0  0  0  0  0  0  0  0  0  0  0
  150.0964  140.7271  155.1993 C   0  0  0  0  0  0  0  0  0  0  0  0
  149.2267  142.5856  157.4153 N   0  0  0  0  0  0  0  0  0  0  0  0
  150.3477  142.1034  157.9736 C   0  0  0  0  0  0  0  0  0  0  0  0
  150.4653  140.9425  158.3688 O   0  0  0  0  0  0  0  0  0  0  0  0
  151.5020  143.1038  158.1198 C   0  0  0  0  0  0  0  0  0  0  0  0
  151.9062  143.3210  159.5097 N   0  0  0  0  0  0  0  0  0  0  0  0
  152.6189  142.2894  160.2453 C   0  0  0  0  0  0  0  0  0  0  0  0
  152.6948  142.8071  161.6887 C   0  0  0  0  0  0  0  0  0  0  0  0
  152.2967  144.2857  161.6248 C   0  0  0  0  0  0  0  0  0  0  0  0
  151.7152  144.4338  160.2293 C   0  0  0  0  0  0  0  0  0  0  0  0
  151.1528  145.4582  159.8452 O   0  0  0  0  0  0  0  0  0  0  0  0
  145.8965  141.9584  157.7381 H   0  0  0  0  0  0  0  0  0  0  0  0
  146.6417  143.5236  157.4219 H   0  0  0  0  0  0  0  0  0  0  0  0
  146.9993  142.6544  158.9126 H   0  0  0  0  0  0  0  0  0  0  0  0
  148.0818  140.8339  157.5895 H   0  0  0  0  0  0  0  0  0  0  0  0
  146.8084  141.3326  155.4067 H   0  0  0  0  0  0  0  0  0  0  0  0
  147.9455  142.6350  155.1380 H   0  0  0  0  0  0  0  0  0  0  0  0
  147.4609  139.4147  153.9365 H   0  0  0  0  0  0  0  0  0  0  0  0
  149.8678  138.1918  153.3128 H   0  0  0  0  0  0  0  0  0  0  0  0
  150.6283  141.4549  155.7945 H   0  0  0  0  0  0  0  0  0  0  0  0
  149.2266  143.5549  157.1324 H   0  0  0  0  0  0  0  0  0  0  0  0
  152.3624  142.7555  157.5457 H   0  0  0  0  0  0  0  0  0  0  0  0
  151.1971  144.0516  157.6750 H   0  0  0  0  0  0  0  0  0  0  0  0
  152.1031  141.3300  160.1886 H   0  0  0  0  0  0  0  0  0  0  0  0
  153.6158  142.1683  159.8192 H   0  0  0  0  0  0  0  0  0  0  0  0
  151.9921  142.2613  162.3197 H   0  0  0  0  0  0  0  0  0  0  0  0
  153.6898  142.6712  162.1134 H   0  0  0  0  0  0  0  0  0  0  0  0
  151.5677  144.5505  162.3913 H   0  0  0  0  0  0  0  0  0  0  0  0
  153.1655  144.9366  161.7259 H   0  0  0  0  0  0  0  0  0  0  0  0
  1  2  1  0  0  0  0
  1 19  1  0  0  0  0
  1 20  1  0  0  0  0
  1 21  1  0  0  0  0
  2  3  1  0  0  0  0
  2  9  1  0  0  0  0
  2 22  1  0  0  0  0
  3  4  1  0  0  0  0
  3 23  1  0  0  0  0
  3 24  1  0  0  0  0
  4  8  1  0  0  0  0
  4  5  1  0  0  0  0
  5  6  2  0  0  0  0
  5 25  1  0  0  0  0
  6  7  1  0  0  0  0
  6 26  1  0  0  0  0
  7  8  2  0  0  0  0
  8 27  1  0  0  0  0
  9 10  1  0  0  0  0
  9 28  1  0  0  0  0
 10 11  2  0  0  0  0
 10 12  1  0  0  0  0
 12 13  1  0  0  0  0
 12 29  1  0  0  0  0
 12 30  1  0  0  0  0
 13 17  1  0  0  0  0
 13 14  1  0  0  0  0
 14 15  1  0  0  0  0
 14 31  1  0  0  0  0
 14 32  1  0  0  0  0
 15 16  1  0  0  0  0
 15 33  1  0  0  0  0
 15 34  1  0  0  0  0
 16 17  1  0  0  0  0
 16 35  1  0  0  0  0
 16 36  1  0  0  0  0
 17 18  2  0  0  0  0
M  END
> <s_m_source_file>
AV-unprocessed.smi

> <i_m_source_file_index>
3301

> <i_lp_mmshare_version>
43012

> <i_f3d_flags>
0

> <s_epik_input>
W2NIXTFuW2NIXVtjSF1uMVtDSDJdW0NAQEhdKFtDSDNdKVtOSF1DKD1PKVtDSDJdTjJbQ0gyXVtDSDJdW0NIMl1DMj1P

> <s_epik_cmdline>
J2VwaWtfcHl0aG9uJywgJy1waCcsICc3LjAnLCAnLXRuJywgJzgnLCAnLW1hJywgJzIwMCcsICctbWV0YWxfYmluZGluZycsICctaW1hZScsICc8aW5maWxlLm1hZT4nLCAnLW9tYWUnLCAnPG91dGZpbGUubWFlPic=

> <r_lp_tautomer_probability>
1

> <r_epik_Ionization_Penalty>
0.623868

> <r_epik_Ionization_Penalty_Charging>
0.623868

> <r_epik_Ionization_Penalty_Neutral>
4.45089e-08

> <r_epik_State_Penalty>
0.640129

> <r_epik_Charging_Adjusted_Penalty>
1.264

> <i_epik_Tot_Q>
0

> <i_epik_Tot_abs_Q>
0

> <r_epik_Metal_State_Penalty>
0.307431

> <b_epik_Metal_Only>
0

> <s_lp_Force_Field>
OPLS_2005

> <r_lp_Energy>
14.8621

> <b_lp_Chiralities_Consistent>
1

> <s_lp_Variant>
AV-unprocessed.smi:3301-4

> <Gold.Version>
5.8.1

> <Gold.Id.Protein>
6NUR|6NUR_protein|mol2

> <Gold.PLP.Fitness>
44.1892

> <Gold.PLP.PLP>
-36.3787

> <Gold.PLP.part.hbond>
-2.0000

> <Gold.PLP.part.metal>
0.0000

> <Gold.PLP.part.buried>
-1.7474

> <Gold.PLP.part.nonpolar>
-32.0204

> <Gold.PLP.part.repulsive>
0.3277

> <Gold.PLP.ligand.clash>
0.0000

> <Gold.PLP.ligand.torsion>
0.3103

> <Gold.PLP.Chemscore.Hbond>
1.7660

> <Gold.PLP.Chemscore.CHOScore>
1.0292

> <Gold.PLP.Chemscore.Metal>
0.0000

> <Gold.Chemscore.Hbonds>
donor molecule, donor type, donor heavy atom, donor atom, acceptor molecule, acceptor atom, score
      L1  H     9    28       P1  8028  0.88
      P1  H  7989  7998       L1     7  0.70
      L1  C     6    26       P1  7948  0.92
      L1  C     6    26       P1  7957  0.02

> <Gold.PLP.Chemscore.Internal.Correction>
0.0456

> <Gold.Rescore>
     Score         DG    S(hbond)    S(metal)    S(lipo)     H(rot)  DE(clash)    DE(int)     intcor
     10.30     -10.87       0.94        0.00      68.71       2.26       0.09       0.49       ----

> <Gold.Chemscore.Fitness>
10.2974

> <Gold.Chemscore.DG>
-10.8722

> <Gold.Chemscore.ZeroCoef>
-5.4800

> <Gold.Chemscore.Hbond>
0.9433

> <Gold.Chemscore.Metal>
0.0000

> <Gold.Chemscore.Lipo>
68.7101

> <Gold.Chemscore.Internal_Hbond>
0.0000

> <Gold.Chemscore.DEClash>
0.0853

> <Gold.Chemscore.DEInternal>
0.4895

> <Gold.Chemscore.Rot>
2.2647

> <Gold.Chemscore.Internal.Correction>
   9.000000E+99

> <Gold.Chemscore.Hbonds>
donor molecule, donor type, donor heavy atom, donor atom, acceptor molecule, acceptor atom, score
      L1  H     9    28       P1  8028  0.60
      P1  H  7989  7998       L1     7  0.07

> <Gold.Chemscore.Hbond.Weighted>
-3.1507

> <Gold.Chemscore.Metal.Weighted>
-0.0000

> <Gold.Chemscore.Lipo.Weighted>
-8.0391

> <Gold.Chemscore.Internal_Hbond.Weighted>
0.0000

> <Gold.Chemscore.DEClash.Weighted>
0.0853

> <Gold.Chemscore.DEInternal.Weighted>
0.4895

> <Gold.Chemscore.Rot.Weighted>
5.7975

> <Gold.Chemscore.Internal.Correction.Weighted>
   9.000000E+99

> <Gold.Protein.RotatedTorsions>
[ 6907 6896 6895 6894 ] final  150.78 input  -60.11 | X-H torsion
[ 7974 7965 7964 7962 ] final  -46.23 input  175.53 | X-H torsion
[ 8008 7997 7996 7995 ] final -155.35 input   59.86 | X-H torsion
[ 10167 10162 10161 10158 ] final  130.28 input  -65.29 | X-H torsion
[ 10718 10713 10712 10709 ] final   -1.03 input   66.30 | X-H torsion
[ 10763 10752 10751 10750 ] final  -79.34 input  -60.55 | X-H torsion
[ 11005 11000 10999 10996 ] final   43.76 input  -57.11 | X-H torsion

> <Gold.Protein.ActiveResidues>
 VAL166  LYS551  ARG553  GLY616  TRP617  ASP618  TYR619  PRO620  LYS621  CYS622 
 ASP623  PHE694  ASN695  SER759  ASP760  ASP761  ALA762  ILE779  LEU786  VAL792 
 PHE793  MET794  SER795  GLU796  ALA797  LYS798  CYS799  TRP800  GLU811  SER814 

> <Gold.Protein.RotatedAtoms>
  152.1097  133.4294  159.4625 H   0  0  0  0  0  0  0  0  0  0  0  0  # atno 6907 bound_to 6896
  150.6867  134.2662  159.4579 H   0  0  0  0  0  0  0  0  0  0  0  0  # atno 6908 bound_to 6896
  152.0530  134.9641  160.0625 H   0  0  0  0  0  0  0  0  0  0  0  0  # atno 6909 bound_to 6896
  145.9741  140.7353  142.9396 H   0  0  0  0  0  0  0  0  0  0  0  0  # atno 7974 bound_to 7965
  155.7004  140.0766  157.2412 H   0  0  0  0  0  0  0  0  0  0  0  0  # atno 8008 bound_to 7997
  154.4074  140.1648  156.2238 H   0  0  0  0  0  0  0  0  0  0  0  0  # atno 8009 bound_to 7997
  155.9373  140.3387  155.6301 H   0  0  0  0  0  0  0  0  0  0  0  0  # atno 8010 bound_to 7997
  139.5437  144.6754  151.4541 H   0  0  0  0  0  0  0  0  0  0  0  0  # atno 10167 bound_to 10162
  156.8116  130.5426  149.5708 H   0  0  0  0  0  0  0  0  0  0  0  0  # atno 10718 bound_to 10713
  154.5373  135.5699  153.6810 H   0  0  0  0  0  0  0  0  0  0  0  0  # atno 10763 bound_to 10752
  152.9954  135.6219  154.2548 H   0  0  0  0  0  0  0  0  0  0  0  0  # atno 10764 bound_to 10752
  154.2478  135.2860  155.2808 H   0  0  0  0  0  0  0  0  0  0  0  0  # atno 10765 bound_to 10752
  140.1614  134.4336  155.8315 H   0  0  0  0  0  0  0  0  0  0  0  0  # atno 11005 bound_to 11000
  144.6844  140.2797  143.7294 LP  0  0  0  0  0  0  0  0  0  0  0  0  # atno 17320 bound_to 7965
  145.7864  139.1910  143.2128 LP  0  0  0  0  0  0  0  0  0  0  0  0  # atno 17321 bound_to 7965
  140.6677  143.8361  150.6962 LP  0  0  0  0  0  0  0  0  0  0  0  0  # atno 17342 bound_to 10162
  140.1775  143.4142  152.1956 LP  0  0  0  0  0  0  0  0  0  0  0  0  # atno 17343 bound_to 10162
  156.1041  130.5991  150.9942 LP  0  0  0  0  0  0  0  0  0  0  0  0  # atno 17370 bound_to 10713
  157.6503  131.0898  150.8065 LP  0  0  0  0  0  0  0  0  0  0  0  0  # atno 17371 bound_to 10713
  141.2210  133.6915  156.7601 LP  0  0  0  0  0  0  0  0  0  0  0  0  # atno 17394 bound_to 11000
  140.2485  134.8559  157.3644 LP  0  0  0  0  0  0  0  0  0  0  0  0  # atno 17395 bound_to 11000

$$$$
