AV-unprocessed.smi:2666|AV-procd|sdf|10332|dock4
  -GOLD-   2272014353D 1   1.00000     0.00000
 Structure written by MMmdl.
 43 44  0  0  0  0  0  0  0  0  1 V2000
  145.3872  138.3457  153.5010 O   0  0  0  0  0  0  0  0  0  0  0  0
  146.3236  137.6881  153.0482 C   0  0  0  0  0  0  0  0  0  0  0  0
  147.6162  138.0550  153.0745 N   0  0  0  0  0  0  0  0  0  0  0  0
  148.1995  139.2127  153.6570 C   0  0  0  0  0  0  0  0  0  0  0  0
  147.4310  140.3947  153.6856 C   0  0  0  0  0  0  0  0  0  0  0  0
  147.9885  141.5634  154.2379 C   0  0  0  0  0  0  0  0  0  0  0  0
  149.3044  141.5063  154.7360 C   0  0  0  0  0  0  0  0  0  0  0  0
  150.0595  140.3882  154.7043 N   0  0  0  0  0  0  0  0  0  0  0  0
  149.5179  139.2702  154.1741 C   0  0  0  0  0  0  0  0  0  0  0  0
  146.1746  136.5019  152.4396 N   0  0  0  0  0  0  0  0  0  0  0  0
  144.9130  135.7843  152.2409 C   0  0  2  0  0  0  0  0  0  0  0  0
  144.4119  135.2373  153.6028 C   0  0  0  0  0  0  0  0  0  0  0  0
  142.8804  135.1996  153.7772 C   0  0  0  0  0  0  0  0  0  0  0  0
  142.4936  134.3315  154.8229 O   0  0  0  0  0  0  0  0  0  0  0  0
  145.0964  134.6821  151.1562 C   0  0  0  0  0  0  0  0  0  0  0  0
  143.8627  133.7470  151.0574 C   0  0  0  0  0  0  0  0  0  0  0  0
  144.0374  132.6507  149.9949 C   0  0  0  0  0  0  0  0  0  0  0  0
  145.2993  131.8204  150.2563 C   0  0  0  0  0  0  0  0  0  0  0  0
  146.5347  132.7259  150.3248 C   0  0  0  0  0  0  0  0  0  0  0  0
  146.3671  133.8263  151.3857 C   0  0  0  0  0  0  0  0  0  0  0  0
  148.2581  137.4471  152.5871 H   0  0  0  0  0  0  0  0  0  0  0  0
  146.4248  140.4085  153.2926 H   0  0  0  0  0  0  0  0  0  0  0  0
  147.4220  142.4819  154.2781 H   0  0  0  0  0  0  0  0  0  0  0  0
  149.7645  142.3834  155.1666 H   0  0  0  0  0  0  0  0  0  0  0  0
  150.1799  138.4192  154.1534 H   0  0  0  0  0  0  0  0  0  0  0  0
  147.0066  136.0429  152.0991 H   0  0  0  0  0  0  0  0  0  0  0  0
  144.1540  136.4775  151.8739 H   0  0  0  0  0  0  0  0  0  0  0  0
  144.7530  134.2089  153.7102 H   0  0  0  0  0  0  0  0  0  0  0  0
  144.8670  135.7889  154.4267 H   0  0  0  0  0  0  0  0  0  0  0  0
  142.4840  136.1991  153.9593 H   0  0  0  0  0  0  0  0  0  0  0  0
  142.4151  134.8352  152.8610 H   0  0  0  0  0  0  0  0  0  0  0  0
  142.8592  133.4766  154.6536 H   0  0  0  0  0  0  0  0  0  0  0  0
  145.2056  135.1814  150.1921 H   0  0  0  0  0  0  0  0  0  0  0  0
  143.6763  133.2854  152.0281 H   0  0  0  0  0  0  0  0  0  0  0  0
  142.9646  134.3128  150.8109 H   0  0  0  0  0  0  0  0  0  0  0  0
  143.1615  132.0015  149.9850 H   0  0  0  0  0  0  0  0  0  0  0  0
  144.0960  133.1063  149.0056 H   0  0  0  0  0  0  0  0  0  0  0  0
  145.1918  131.2719  151.1929 H   0  0  0  0  0  0  0  0  0  0  0  0
  145.4253  131.0743  149.4710 H   0  0  0  0  0  0  0  0  0  0  0  0
  147.4193  132.1284  150.5470 H   0  0  0  0  0  0  0  0  0  0  0  0
  146.7080  133.1824  149.3496 H   0  0  0  0  0  0  0  0  0  0  0  0
  147.2619  134.4463  151.3622 H   0  0  0  0  0  0  0  0  0  0  0  0
  146.3306  133.3721  152.3770 H   0  0  0  0  0  0  0  0  0  0  0  0
  1  2  2  0  0  0  0
  2  3  1  0  0  0  0
  2 10  1  0  0  0  0
  3  4  1  0  0  0  0
  3 21  1  0  0  0  0
  4  9  1  0  0  0  0
  4  5  2  0  0  0  0
  5  6  1  0  0  0  0
  5 22  1  0  0  0  0
  6  7  2  0  0  0  0
  6 23  1  0  0  0  0
  7  8  1  0  0  0  0
  7 24  1  0  0  0  0
  8  9  2  0  0  0  0
  9 25  1  0  0  0  0
 10 11  1  0  0  0  0
 10 26  1  0  0  0  0
 11 12  1  0  0  0  0
 11 15  1  0  0  0  0
 11 27  1  0  0  0  0
 12 13  1  0  0  0  0
 12 28  1  0  0  0  0
 12 29  1  0  0  0  0
 13 14  1  0  0  0  0
 13 30  1  0  0  0  0
 13 31  1  0  0  0  0
 14 32  1  0  0  0  0
 15 20  1  0  0  0  0
 15 16  1  0  0  0  0
 15 33  1  0  0  0  0
 16 17  1  0  0  0  0
 16 34  1  0  0  0  0
 16 35  1  0  0  0  0
 17 18  1  0  0  0  0
 17 36  1  0  0  0  0
 17 37  1  0  0  0  0
 18 19  1  0  0  0  0
 18 38  1  0  0  0  0
 18 39  1  0  0  0  0
 19 20  1  0  0  0  0
 19 40  1  0  0  0  0
 19 41  1  0  0  0  0
 20 42  1  0  0  0  0
 20 43  1  0  0  0  0
M  END
> <s_m_source_file>
AV-unprocessed.smi

> <i_m_source_file_index>
2666

> <i_lp_mmshare_version>
43012

> <i_f3d_flags>
0

> <s_epik_input>
W2NIXTFuW2NIXVtjSF1bY0hdYzFbTkhdQyg9TylbTkhdW0NASF0oW0NIMl1bQ0gyXVtPSF0pW0NIXTJbQ0gyXVtDSDJdW0NIMl1bQ0gyXVtDSDJdMg==

> <s_epik_cmdline>
J2VwaWtfcHl0aG9uJywgJy1waCcsICc3LjAnLCAnLXRuJywgJzgnLCAnLW1hJywgJzIwMCcsICctbWV0YWxfYmluZGluZycsICctaW1hZScsICc8aW5maWxlLm1hZT4nLCAnLW9tYWUnLCAnPG91dGZpbGUubWFlPic=

> <r_epik_Ionization_Penalty>
0.00500145

> <r_epik_Ionization_Penalty_Charging>
0

> <r_epik_Ionization_Penalty_Neutral>
0.00500145

> <r_epik_State_Penalty>
0.00360517

> <r_epik_Charging_Adjusted_Penalty>
0.00360517

> <i_epik_Tot_Q>
0

> <i_epik_Tot_abs_Q>
0

> <r_epik_Metal_State_Penalty>
-0

> <b_epik_Metal_Only>
0

> <s_lp_Force_Field>
OPLS_2005

> <r_lp_Energy>
19.5826

> <b_lp_Chiralities_Consistent>
1

> <s_lp_Variant>
AV-unprocessed.smi:2666-1

> <Gold.Version>
5.8.1

> <Gold.Id.Protein>
6NUR|6NUR_protein|mol2

> <Gold.PLP.Fitness>
51.5037

> <Gold.PLP.PLP>
-36.5613

> <Gold.PLP.part.hbond>
-5.0000

> <Gold.PLP.part.metal>
0.0000

> <Gold.PLP.part.buried>
-2.1694

> <Gold.PLP.part.nonpolar>
-32.1493

> <Gold.PLP.part.repulsive>
1.9623

> <Gold.PLP.ligand.clash>
0.0000

> <Gold.PLP.ligand.torsion>
1.0072

> <Gold.PLP.Chemscore.Hbond>
4.6320

> <Gold.PLP.Chemscore.CHOScore>
1.0000

> <Gold.PLP.Chemscore.Metal>
0.0000

> <Gold.Chemscore.Hbonds>
donor molecule, donor type, donor heavy atom, donor atom, acceptor molecule, acceptor atom, score
      L1  H     3    21       P1  7948  1.00
      L1  H    10    26       P1  7948  0.91
      L1  H    14    32       P1 10957  0.93
      P1  H  7989  7998       L1     8  0.95
      P1  H 11000 11005       L1    14  0.79
      L1  C     7    24       P1  8028  0.98

> <Gold.PLP.Chemscore.Internal.Correction>
0.0608

> <Gold.Rescore>
     Score         DG    S(hbond)    S(metal)    S(lipo)     H(rot)  DE(clash)    DE(int)     intcor
     19.17     -22.05       3.48        0.00      90.99       2.23       0.71       2.17       ----

> <Gold.Chemscore.Fitness>
19.1667

> <Gold.Chemscore.DG>
-22.0486

> <Gold.Chemscore.ZeroCoef>
-5.4800

> <Gold.Chemscore.Hbond>
3.4787

> <Gold.Chemscore.Metal>
0.0000

> <Gold.Chemscore.Lipo>
90.9900

> <Gold.Chemscore.Internal_Hbond>
0.0000

> <Gold.Chemscore.DEClash>
0.7117

> <Gold.Chemscore.DEInternal>
2.1702

> <Gold.Chemscore.Rot>
2.2251

> <Gold.Chemscore.Internal.Correction>
   9.000000E+99

> <Gold.Chemscore.Hbonds>
donor molecule, donor type, donor heavy atom, donor atom, acceptor molecule, acceptor atom, score
      L1  H     3    21       P1  7948  0.96
      L1  H    10    26       P1  7948  0.87
      L1  H    14    32       P1 10957  0.90
      P1  H  7989  7998       L1     8  0.21
      P1  H 11000 11005       L1    14  0.26

> <Gold.Chemscore.Hbond.Weighted>
-11.6189

> <Gold.Chemscore.Metal.Weighted>
-0.0000

> <Gold.Chemscore.Lipo.Weighted>
-10.6458

> <Gold.Chemscore.Internal_Hbond.Weighted>
0.0000

> <Gold.Chemscore.DEClash.Weighted>
0.7117

> <Gold.Chemscore.DEInternal.Weighted>
2.1702

> <Gold.Chemscore.Rot.Weighted>
5.6962

> <Gold.Chemscore.Internal.Correction.Weighted>
   9.000000E+99

> <Gold.Protein.RotatedTorsions>
[ 6907 6896 6895 6894 ] final   63.51 input  -60.11 | X-H torsion
[ 7974 7965 7964 7962 ] final  168.86 input  175.53 | X-H torsion
[ 8008 7997 7996 7995 ] final  -80.92 input   59.86 | X-H torsion
[ 10167 10162 10161 10158 ] final -134.31 input  -65.29 | X-H torsion
[ 10718 10713 10712 10709 ] final  121.88 input   66.30 | X-H torsion
[ 10763 10752 10751 10750 ] final   20.99 input  -60.55 | X-H torsion
[ 11005 11000 10999 10996 ] final  -12.74 input  -57.11 | X-H torsion

> <Gold.Protein.ActiveResidues>
 VAL166  LYS551  ARG553  GLY616  TRP617  ASP618  TYR619  PRO620  LYS621  CYS622 
 ASP623  PHE694  ASN695  SER759  ASP760  ASP761  ALA762  ILE779  LEU786  VAL792 
 PHE793  MET794  SER795  GLU796  ALA797  LYS798  CYS799  TRP800  GLU811  SER814 

> <Gold.Protein.RotatedAtoms>
  152.4258  134.5870  159.9963 H   0  0  0  0  0  0  0  0  0  0  0  0  # atno 6907 bound_to 6896
  151.6007  133.3351  159.3055 H   0  0  0  0  0  0  0  0  0  0  0  0  # atno 6908 bound_to 6896
  150.8148  134.7360  159.6785 H   0  0  0  0  0  0  0  0  0  0  0  0  # atno 6909 bound_to 6896
  144.7374  139.8970  143.6407 H   0  0  0  0  0  0  0  0  0  0  0  0  # atno 7974 bound_to 7965
  154.5931  140.0655  156.9266 H   0  0  0  0  0  0  0  0  0  0  0  0  # atno 8008 bound_to 7997
  155.2261  140.3334  155.4291 H   0  0  0  0  0  0  0  0  0  0  0  0  # atno 8009 bound_to 7997
  156.2269  140.1823  156.7325 H   0  0  0  0  0  0  0  0  0  0  0  0  # atno 8010 bound_to 7997
  139.8893  143.6742  152.2615 H   0  0  0  0  0  0  0  0  0  0  0  0  # atno 10167 bound_to 10162
  157.5784  131.1077  150.8234 H   0  0  0  0  0  0  0  0  0  0  0  0  # atno 10718 bound_to 10713
  153.1032  135.6678  153.9634 H   0  0  0  0  0  0  0  0  0  0  0  0  # atno 10763 bound_to 10752
  153.9199  135.3015  155.3449 H   0  0  0  0  0  0  0  0  0  0  0  0  # atno 10764 bound_to 10752
  154.7453  135.5060  153.9269 H   0  0  0  0  0  0  0  0  0  0  0  0  # atno 10765 bound_to 10752
  140.7689  133.8455  155.9189 H   0  0  0  0  0  0  0  0  0  0  0  0  # atno 11005 bound_to 11000
  146.1100  139.4104  143.0293 LP  0  0  0  0  0  0  0  0  0  0  0  0  # atno 17320 bound_to 7965
  145.7457  140.9992  143.1277 LP  0  0  0  0  0  0  0  0  0  0  0  0  # atno 17321 bound_to 7965
  139.7124  144.7618  151.1090 LP  0  0  0  0  0  0  0  0  0  0  0  0  # atno 17342 bound_to 10162
  140.7729  143.5313  150.9420 LP  0  0  0  0  0  0  0  0  0  0  0  0  # atno 17343 bound_to 10162
  156.8687  130.5138  149.5298 LP  0  0  0  0  0  0  0  0  0  0  0  0  # atno 17370 bound_to 10713
  156.0829  130.5835  150.9596 LP  0  0  0  0  0  0  0  0  0  0  0  0  # atno 17371 bound_to 10713
  140.9593  134.1677  157.4667 LP  0  0  0  0  0  0  0  0  0  0  0  0  # atno 17394 bound_to 11000
  139.8759  134.9939  156.5665 LP  0  0  0  0  0  0  0  0  0  0  0  0  # atno 17395 bound_to 11000

$$$$
