#       Name:                AV-unprocessed.smi:3143
#       Creating user name   scv26
#       Creation time:       Fri Mar 27 17:37:35 2020


#       File generated by GOLD software.
#

@<TRIPOS>MOLECULE
AV-unprocessed.smi:3143
    41    42     1
SMALL
NO_CHARGES


@<TRIPOS>ATOM
      1 ****        -0.7751  -1.4298   2.7502 C.3            1 S1                 0.0000
      2 ****        -0.3805  -0.7122   1.4496 C.3            1 S1                 0.0000
      3 ****         1.0933  -0.7300   1.3032 N.4            1 S1                 1.0000
      4 ****         1.6360   0.2547   0.3433 C.3            1 S1                 0.0000
      5 ****         3.1640   0.1471   0.2473 C.3            1 S1                 0.0000
      6 ****         3.7075   1.1048  -0.6957 N.pl3          1 S1                 0.0000
      7 ****         4.3955   2.2719  -0.4373 C.2            1 S1                 0.0000
      8 ****         4.7043   2.8353  -1.6423 C.2            1 S1                 0.0000
      9 ****         4.1572   1.9269  -2.5913 C.2            1 S1                 0.0000
     10 ****         3.5613   0.8919  -2.0211 N.2            1 S1                 0.0000
     11 ****        -1.0758  -1.3825   0.2474 C.2            1 S1                 0.0000
     12 ****        -0.5271  -2.3444  -0.2928 O.2            1 S1                 0.0000
     13 ****        -2.2684  -0.9112  -0.1763 N.am           1 S1                 0.0000
     14 ****        -3.0133   0.2087   0.3997 C.3            1 S1                 0.0000
     15 ****        -4.3865   0.1839  -0.2720 C.3            1 S1                 0.0000
     16 ****        -4.1354  -0.5042  -1.6059 C.3            1 S1                 0.0000
     17 ****        -2.9938  -1.4776  -1.3126 C.3            1 S1                 0.0000
     18 ****        -1.8550  -1.4186   2.9020 H              1 S1                 0.0000
     19 ****        -0.3208  -0.9468   3.6159 H              1 S1                 0.0000
     20 ****        -0.4530  -2.4722   2.7467 H              1 S1                 0.0000
     21 ****        -0.6803   0.3324   1.5334 H              1 S1                 0.0000
     22 ****         1.5004  -0.5334   2.2061 H              1 S1                 0.0000
     23 ****         1.1914   0.0904  -0.6391 H              1 S1                 0.0000
     24 ****         1.3531   1.2593   0.6604 H              1 S1                 0.0000
     25 ****         3.6223   0.3198   1.2221 H              1 S1                 0.0000
     26 ****         3.4579  -0.8549  -0.0693 H              1 S1                 0.0000
     27 ****         4.6058   2.6025   0.5695 H              1 S1                 0.0000
     28 ****         5.2407   3.7558  -1.8195 H              1 S1                 0.0000
     29 ****         4.1756   1.9876  -3.6697 H              1 S1                 0.0000
     30 ****        -3.1084   0.1342   1.4836 H              1 S1                 0.0000
     31 ****        -2.4953   1.1395   0.1639 H              1 S1                 0.0000
     32 ****        -5.0753  -0.4169   0.3237 H              1 S1                 0.0000
     33 ****        -4.8214   1.1775  -0.3838 H              1 S1                 0.0000
     34 ****        -5.0227  -0.9997  -2.0010 H              1 S1                 0.0000
     35 ****        -3.8092   0.2327  -2.3414 H              1 S1                 0.0000
     36 ****        -2.3533  -1.6091  -2.1862 H              1 S1                 0.0000
     37 ****        -3.3875  -2.4552  -1.0298 H              1 S1                 0.0000
     38 ****         1.3731  -1.6580   1.0178 H              1 S1                 0.0000
     39 ****         3.1050   0.1242  -2.4710 LP             1 S1                 0.0000
     40 ****         0.3519  -2.6758   0.0498 LP             1 S1                 0.0000
     41 ****        -0.9609  -2.7937  -1.0738 LP             1 S1                 0.0000
@<TRIPOS>BOND
    1    1    2 1     
    2    1   18 1     
    3    1   19 1     
    4    1   20 1     
    5    2    3 1     
    6    2   11 1     
    7    2   21 1     
    8    3    4 1     
    9    3   22 1     
   10    3   38 1     
   11    4    5 1     
   12    4   23 1     
   13    4   24 1     
   14    5    6 1     
   15    5   25 1     
   16    5   26 1     
   17    6   10 1     
   18    6    7 1     
   19    7    8 2     
   20    7   27 1     
   21    8    9 1     
   22    8   28 1     
   23    9   10 2     
   24    9   29 1     
   25   11   12 2     
   26   11   13 am    
   27   13   17 1     
   28   13   14 1     
   29   14   15 1     
   30   14   30 1     
   31   14   31 1     
   32   15   16 1     
   33   15   32 1     
   34   15   33 1     
   35   16   17 1     
   36   16   34 1     
   37   16   35 1     
   38   17   36 1     
   39   17   37 1     
   40   10   39 1     
   41   12   40 1     
   42   12   41 1     
@<TRIPOS>SUBSTRUCTURE
      1 S1             1
@<TRIPOS>SET
LONE_PAIRS      STATIC     ATOMS    <user>   **** ""
3 39 40 41
DONOR_HYDROGENS      STATIC     ATOMS    <user>   **** ""
2 22 38
ATOM$BLUE        STATIC     ATOMS    COLORGROUP SYSTEM
3 39 40 41
ATOM$RED        STATIC     ATOMS    COLORGROUP SYSTEM
2 22 38
