AV-unprocessed.smi:4|AV-procd|sdf|34|dock3
  -GOLD-   2262015143D 1   1.00000     0.00000
 Structure written by MMmdl.
 43 44  0  0  0  0  0  0  0  0  1 V2000
  149.3352  138.3730  154.4523 C   0  0  0  0  0  0  0  0  0  0  0  0
  150.3855  137.5512  155.2443 C   0  0  0  0  0  0  0  0  0  0  0  0
  151.7511  137.8984  154.5953 C   0  0  0  0  0  0  0  0  0  0  0  0
  150.3168  138.0824  156.6990 C   0  0  0  0  0  0  0  0  0  0  0  0
  150.1220  136.0972  155.1975 N   0  0  0  0  0  0  0  0  0  0  0  0
  149.0422  135.5203  154.5231 C   0  0  0  0  0  0  0  0  0  0  0  0
  148.7872  134.1880  154.4663 C   0  0  0  0  0  0  0  0  0  0  0  0
  147.5694  133.6325  153.7406 C   0  0  0  0  0  0  0  0  0  0  0  0
  146.9371  134.6479  152.9029 N   0  0  0  0  0  0  0  0  0  0  0  0
  145.6322  134.2373  152.3913 C   0  0  0  0  0  0  0  0  0  0  0  0
  145.6992  133.8925  150.9009 C   0  0  0  0  0  0  0  0  0  0  0  0
  145.8332  135.1330  150.2347 O   0  0  0  0  0  0  0  0  0  0  0  0
  146.7462  132.8484  150.4715 C   0  0  0  0  0  0  0  0  0  0  0  0
  145.7202  132.2396  149.5147 C   0  0  0  0  0  0  0  0  0  0  0  0
  144.6298  132.9493  150.3180 C   0  0  0  0  0  0  0  0  0  0  0  0
  149.6728  133.2572  155.1665 C   0  0  0  0  0  0  0  0  0  0  0  0
  149.5419  132.0348  155.2042 O   0  0  0  0  0  0  0  0  0  0  0  0
  150.7390  133.8557  155.8336 N   0  0  0  0  0  0  0  0  0  0  0  0
  151.0093  135.2212  155.8862 C   0  0  0  0  0  0  0  0  0  0  0  0
  151.9927  135.5912  156.5255 O   0  0  0  0  0  0  0  0  0  0  0  0
  151.3735  133.2432  156.3251 H   0  0  0  0  0  0  0  0  0  0  0  0
  149.5548  139.4406  154.4925 H   0  0  0  0  0  0  0  0  0  0  0  0
  148.3300  138.2523  154.8587 H   0  0  0  0  0  0  0  0  0  0  0  0
  149.3170  138.1015  153.3958 H   0  0  0  0  0  0  0  0  0  0  0  0
  151.8327  137.4691  153.5960 H   0  0  0  0  0  0  0  0  0  0  0  0
  152.6082  137.5565  155.1722 H   0  0  0  0  0  0  0  0  0  0  0  0
  151.8753  138.9772  154.4942 H   0  0  0  0  0  0  0  0  0  0  0  0
  150.3775  139.1710  156.7232 H   0  0  0  0  0  0  0  0  0  0  0  0
  151.1272  137.7239  157.3310 H   0  0  0  0  0  0  0  0  0  0  0  0
  149.3773  137.8011  157.1762 H   0  0  0  0  0  0  0  0  0  0  0  0
  148.3341  136.1362  153.9945 H   0  0  0  0  0  0  0  0  0  0  0  0
  147.8781  132.7794  153.1353 H   0  0  0  0  0  0  0  0  0  0  0  0
  146.8520  133.2521  154.4686 H   0  0  0  0  0  0  0  0  0  0  0  0
  147.5427  134.8555  152.1144 H   0  0  0  0  0  0  0  0  0  0  0  0
  145.2549  133.3867  152.9613 H   0  0  0  0  0  0  0  0  0  0  0  0
  144.9176  135.0451  152.5534 H   0  0  0  0  0  0  0  0  0  0  0  0
  146.1167  134.9436  149.3534 H   0  0  0  0  0  0  0  0  0  0  0  0
  147.6287  133.2580  149.9784 H   0  0  0  0  0  0  0  0  0  0  0  0
  147.0244  132.1652  151.2755 H   0  0  0  0  0  0  0  0  0  0  0  0
  145.8114  132.6232  148.4975 H   0  0  0  0  0  0  0  0  0  0  0  0
  145.6659  131.1508  149.5358 H   0  0  0  0  0  0  0  0  0  0  0  0
  144.1773  132.3027  151.0719 H   0  0  0  0  0  0  0  0  0  0  0  0
  143.8703  133.4394  149.7081 H   0  0  0  0  0  0  0  0  0  0  0  0
  1  2  1  0  0  0  0
  1 22  1  0  0  0  0
  1 23  1  0  0  0  0
  1 24  1  0  0  0  0
  2  3  1  0  0  0  0
  2  4  1  0  0  0  0
  2  5  1  0  0  0  0
  3 25  1  0  0  0  0
  3 26  1  0  0  0  0
  3 27  1  0  0  0  0
  4 28  1  0  0  0  0
  4 29  1  0  0  0  0
  4 30  1  0  0  0  0
  5 19  1  0  0  0  0
  5  6  1  0  0  0  0
  6  7  2  0  0  0  0
  6 31  1  0  0  0  0
  7  8  1  0  0  0  0
  7 16  1  0  0  0  0
  8  9  1  0  0  0  0
  8 32  1  0  0  0  0
  8 33  1  0  0  0  0
  9 10  1  0  0  0  0
  9 34  1  0  0  0  0
 10 11  1  0  0  0  0
 10 35  1  0  0  0  0
 10 36  1  0  0  0  0
 11 15  1  0  0  0  0
 11 12  1  0  0  0  0
 11 13  1  0  0  0  0
 12 37  1  0  0  0  0
 13 14  1  0  0  0  0
 13 38  1  0  0  0  0
 13 39  1  0  0  0  0
 14 15  1  0  0  0  0
 14 40  1  0  0  0  0
 14 41  1  0  0  0  0
 15 42  1  0  0  0  0
 15 43  1  0  0  0  0
 16 17  2  0  0  0  0
 16 18  1  0  0  0  0
 18 21  1  0  0  0  0
 18 19  1  0  0  0  0
 19 20  2  0  0  0  0
M  END
> <s_m_source_file>
AV-unprocessed.smi

> <i_m_source_file_index>
4

> <i_lp_mmshare_version>
43012

> <i_f3d_flags>
0

> <s_epik_input>
W0NIM11DKFtDSDNdKShbQ0gzXSluMVtjSF1jKGMoPU8pW25IXWMxPU8pW0NIMl1bTkhdW0NIMl1DMihbT0hdKVtDSDJdW0NIMl1bQ0gyXTI=

> <s_epik_cmdline>
J2VwaWtfcHl0aG9uJywgJy1waCcsICc3LjAnLCAnLXRuJywgJzgnLCAnLW1hJywgJzIwMCcsICctbWV0YWxfYmluZGluZycsICctaW1hZScsICc8aW5maWxlLm1hZT4nLCAnLW9tYWUnLCAnPG91dGZpbGUubWFlPic=

> <r_lp_tautomer_probability>
0.999537

> <r_epik_Ionization_Penalty>
2.11381

> <r_epik_Ionization_Penalty_Charging>
0.000786845

> <r_epik_Ionization_Penalty_Neutral>
2.11303

> <r_epik_State_Penalty>
2.25008

> <r_epik_Charging_Adjusted_Penalty>
2.25087

> <i_epik_Tot_Q>
0

> <i_epik_Tot_abs_Q>
0

> <r_epik_Metal_State_Penalty>
2.75188

> <b_epik_Metal_Only>
0

> <s_lp_Force_Field>
OPLS_2005

> <r_lp_Energy>
31.2144

> <b_lp_Chiralities_Consistent>
1

> <s_lp_Variant>
AV-unprocessed.smi:4-2

> <Gold.Version>
5.8.1

> <Gold.Id.Protein>
6NUR|6NUR_protein|mol2

> <Gold.PLP.Fitness>
37.4439

> <Gold.PLP.PLP>
-28.9312

> <Gold.PLP.part.hbond>
-3.0000

> <Gold.PLP.part.metal>
0.0000

> <Gold.PLP.part.buried>
-1.9340

> <Gold.PLP.part.nonpolar>
-23.9044

> <Gold.PLP.part.repulsive>
0.1118

> <Gold.PLP.ligand.clash>
0.0000

> <Gold.PLP.ligand.torsion>
0.6636

> <Gold.PLP.Chemscore.Hbond>
2.7454

> <Gold.PLP.Chemscore.CHOScore>
0.4847

> <Gold.PLP.Chemscore.Metal>
0.0000

> <Gold.Chemscore.Hbonds>
donor molecule, donor type, donor heavy atom, donor atom, acceptor molecule, acceptor atom, score
      L1  H     9    34       P1  7948  0.67
      L1  H    12    37       P1  7921  1.00
      P1  H 10752 10765       L1    20  1.00
      L1  C     6    31       P1  7948  0.55

> <Gold.PLP.Chemscore.Internal.Correction>
0.1496

> <Gold.Rescore>
     Score         DG    S(hbond)    S(metal)    S(lipo)     H(rot)  DE(clash)    DE(int)     intcor
     12.16     -15.57       2.42        0.00      70.89       2.46       1.32       2.08       ----

> <Gold.Chemscore.Fitness>
12.1643

> <Gold.Chemscore.DG>
-15.5673

> <Gold.Chemscore.ZeroCoef>
-5.4800

> <Gold.Chemscore.Hbond>
2.4233

> <Gold.Chemscore.Metal>
0.0000

> <Gold.Chemscore.Lipo>
70.8883

> <Gold.Chemscore.Internal_Hbond>
0.0000

> <Gold.Chemscore.DEClash>
1.3191

> <Gold.Chemscore.DEInternal>
2.0839

> <Gold.Chemscore.Rot>
2.4612

> <Gold.Chemscore.Internal.Correction>
   9.000000E+99

> <Gold.Chemscore.Hbonds>
donor molecule, donor type, donor heavy atom, donor atom, acceptor molecule, acceptor atom, score
      L1  H     9    34       P1  7948  0.56
      L1  H    12    37       P1  7921  0.65
      P1  H 10752 10765       L1    20  0.39

> <Gold.Chemscore.Hbond.Weighted>
-8.0940

> <Gold.Chemscore.Metal.Weighted>
-0.0000

> <Gold.Chemscore.Lipo.Weighted>
-8.2939

> <Gold.Chemscore.Internal_Hbond.Weighted>
0.0000

> <Gold.Chemscore.DEClash.Weighted>
1.3191

> <Gold.Chemscore.DEInternal.Weighted>
2.0839

> <Gold.Chemscore.Rot.Weighted>
6.3006

> <Gold.Chemscore.Internal.Correction.Weighted>
   9.000000E+99

> <Gold.Protein.RotatedTorsions>
[ 6907 6896 6895 6894 ] final -137.70 input  -60.11 | X-H torsion
[ 7974 7965 7964 7962 ] final -163.85 input  175.53 | X-H torsion
[ 8008 7997 7996 7995 ] final   63.19 input   59.86 | X-H torsion
[ 10167 10162 10161 10158 ] final -145.97 input  -65.29 | X-H torsion
[ 10718 10713 10712 10709 ] final -150.48 input   66.30 | X-H torsion
[ 10763 10752 10751 10750 ] final -129.55 input  -60.55 | X-H torsion
[ 11005 11000 10999 10996 ] final   97.47 input  -57.11 | X-H torsion

> <Gold.Protein.ActiveResidues>
 VAL166  LYS551  ARG553  GLY616  TRP617  ASP618  TYR619  PRO620  LYS621  CYS622 
 ASP623  PHE694  ASN695  SER759  ASP760  ASP761  ALA762  ILE779  LEU786  VAL792 
 PHE793  MET794  SER795  GLU796  ALA797  LYS798  CYS799  TRP800  GLU811  SER814 

> <Gold.Protein.RotatedAtoms>
  151.0258  133.5835  159.2665 H   0  0  0  0  0  0  0  0  0  0  0  0  # atno 6907 bound_to 6896
  151.2935  135.0748  159.9223 H   0  0  0  0  0  0  0  0  0  0  0  0  # atno 6908 bound_to 6896
  152.5333  133.9952  159.7923 H   0  0  0  0  0  0  0  0  0  0  0  0  # atno 6909 bound_to 6896
  144.7314  140.3047  143.6198 H   0  0  0  0  0  0  0  0  0  0  0  0  # atno 7974 bound_to 7965
  155.6263  140.3496  155.4668 H   0  0  0  0  0  0  0  0  0  0  0  0  # atno 8008 bound_to 7997
  156.0039  140.1219  157.0544 H   0  0  0  0  0  0  0  0  0  0  0  0  # atno 8009 bound_to 7997
  154.4258  140.1095  156.5721 H   0  0  0  0  0  0  0  0  0  0  0  0  # atno 8010 bound_to 7997
  139.7756  143.8174  152.2631 H   0  0  0  0  0  0  0  0  0  0  0  0  # atno 10167 bound_to 10162
  156.4467  130.8148  151.2378 H   0  0  0  0  0  0  0  0  0  0  0  0  # atno 10718 bound_to 10713
  154.8757  135.3891  154.3939 H   0  0  0  0  0  0  0  0  0  0  0  0  # atno 10763 bound_to 10752
  153.4671  135.7029  153.6020 H   0  0  0  0  0  0  0  0  0  0  0  0  # atno 10764 bound_to 10752
  153.4494  135.3837  155.2243 H   0  0  0  0  0  0  0  0  0  0  0  0  # atno 10765 bound_to 10752
  139.8776  134.9002  156.4312 H   0  0  0  0  0  0  0  0  0  0  0  0  # atno 11005 bound_to 11000
  145.7725  139.1862  143.2204 LP  0  0  0  0  0  0  0  0  0  0  0  0  # atno 17320 bound_to 7965
  146.0899  140.7668  142.9600 LP  0  0  0  0  0  0  0  0  0  0  0  0  # atno 17321 bound_to 7965
  139.8222  144.7291  150.9558 LP  0  0  0  0  0  0  0  0  0  0  0  0  # atno 17342 bound_to 10162
  140.7816  143.4149  151.0934 LP  0  0  0  0  0  0  0  0  0  0  0  0  # atno 17343 bound_to 10162
  157.7504  131.0151  150.3490 LP  0  0  0  0  0  0  0  0  0  0  0  0  # atno 17370 bound_to 10713
  156.3859  130.3889  149.7066 LP  0  0  0  0  0  0  0  0  0  0  0  0  # atno 17371 bound_to 10713
  140.9065  133.7742  155.9741 LP  0  0  0  0  0  0  0  0  0  0  0  0  # atno 17394 bound_to 11000
  140.8593  134.2860  157.5241 LP  0  0  0  0  0  0  0  0  0  0  0  0  # atno 17395 bound_to 11000

$$$$
