AV-unprocessed.smi:99|AV-procd|sdf|867|dock4
  -GOLD-   2262017323D 1   1.00000     0.00000
 Structure written by MMmdl.
 53 56  0  0  0  0  0  0  0  0  1 V2000
  154.7562  137.4498  159.1306 O   0  0  0  0  0  0  0  0  0  0  0  0
  153.7536  138.1571  159.0145 C   0  0  0  0  0  0  0  0  0  0  0  0
  152.6960  137.8355  158.2448 O   0  0  0  0  0  0  0  0  0  0  0  0
  152.8286  136.9083  157.1788 C   0  0  0  0  0  0  0  0  0  0  0  0
  152.1846  137.5090  155.9230 C   0  0  2  0  0  0  0  0  0  0  0  0
  152.0952  138.9262  156.0415 O   0  0  0  0  0  0  0  0  0  0  0  0
  150.9843  139.4023  155.3330 C   0  0  2  0  0  0  0  0  0  0  0  0
  150.1016  140.1954  156.2713 N   0  0  0  0  0  0  0  0  0  0  0  0
  150.1472  140.0111  157.6477 C   0  0  0  0  0  0  0  0  0  0  0  0
  149.3589  140.6944  158.5106 C   0  0  0  0  0  0  0  0  0  0  0  0
  148.3975  141.6756  158.0180 C   0  0  0  0  0  0  0  0  0  0  0  0
  147.6451  142.3459  158.7215 O   0  0  0  0  0  0  0  0  0  0  0  0
  148.3741  141.8169  156.6276 N   0  0  0  0  0  0  0  0  0  0  0  0
  149.1775  141.1149  155.7279 C   0  0  0  0  0  0  0  0  0  0  0  0
  149.0576  141.3037  154.5181 O   0  0  0  0  0  0  0  0  0  0  0  0
  150.2154  138.1895  154.7838 C   0  0  1  0  0  0  0  0  0  0  0  0
  150.5429  137.9749  153.4229 O   0  0  0  0  0  0  0  0  0  0  0  0
  150.7360  137.0849  155.6873 C   0  0  1  0  0  0  0  0  0  0  0  0
  150.5819  135.7955  155.1009 O   0  0  0  0  0  0  0  0  0  0  0  0
  150.8677  134.6717  155.7954 C   0  0  0  0  0  0  0  0  0  0  0  0
  151.1851  134.6623  156.9862 O   0  0  0  0  0  0  0  0  0  0  0  0
  150.7981  133.4411  154.9573 C   0  0  0  0  0  0  0  0  0  0  0  0
  149.9376  133.4167  153.8349 C   0  0  0  0  0  0  0  0  0  0  0  0
  149.8287  132.2593  153.0401 C   0  0  0  0  0  0  0  0  0  0  0  0
  150.5808  131.1131  153.3567 C   0  0  0  0  0  0  0  0  0  0  0  0
  151.4423  131.1258  154.4690 C   0  0  0  0  0  0  0  0  0  0  0  0
  151.5518  132.2819  155.2660 C   0  0  0  0  0  0  0  0  0  0  0  0
  153.5908  139.4760  159.6920 C   0  0  0  0  0  0  0  0  0  0  0  0
  154.3730  139.7717  160.8325 C   0  0  0  0  0  0  0  0  0  0  0  0
  154.2559  141.0175  161.4792 C   0  0  0  0  0  0  0  0  0  0  0  0
  153.3551  141.9829  160.9933 C   0  0  0  0  0  0  0  0  0  0  0  0
  152.5682  141.6996  159.8620 C   0  0  0  0  0  0  0  0  0  0  0  0
  152.6825  140.4538  159.2156 C   0  0  0  0  0  0  0  0  0  0  0  0
  147.7168  142.4792  156.2415 H   0  0  0  0  0  0  0  0  0  0  0  0
  153.8747  136.6698  156.9813 H   0  0  0  0  0  0  0  0  0  0  0  0
  152.3264  135.9812  157.4567 H   0  0  0  0  0  0  0  0  0  0  0  0
  152.7907  137.2889  155.0426 H   0  0  0  0  0  0  0  0  0  0  0  0
  151.3264  140.1024  154.5681 H   0  0  0  0  0  0  0  0  0  0  0  0
  150.8328  139.2909  158.0692 H   0  0  0  0  0  0  0  0  0  0  0  0
  149.4380  140.5128  159.5728 H   0  0  0  0  0  0  0  0  0  0  0  0
  149.1363  138.3232  154.8716 H   0  0  0  0  0  0  0  0  0  0  0  0
  150.0049  137.2712  153.0936 H   0  0  0  0  0  0  0  0  0  0  0  0
  150.1960  137.1582  156.6323 H   0  0  0  0  0  0  0  0  0  0  0  0
  149.3438  134.2818  153.5768 H   0  0  0  0  0  0  0  0  0  0  0  0
  149.1639  132.2504  152.1892 H   0  0  0  0  0  0  0  0  0  0  0  0
  150.4961  130.2251  152.7479 H   0  0  0  0  0  0  0  0  0  0  0  0
  152.0187  130.2459  154.7138 H   0  0  0  0  0  0  0  0  0  0  0  0
  152.2180  132.2560  156.1160 H   0  0  0  0  0  0  0  0  0  0  0  0
  155.0757  139.0484  161.2205 H   0  0  0  0  0  0  0  0  0  0  0  0
  154.8605  141.2331  162.3479 H   0  0  0  0  0  0  0  0  0  0  0  0
  153.2681  142.9394  161.4875 H   0  0  0  0  0  0  0  0  0  0  0  0
  151.8787  142.4408  159.4851 H   0  0  0  0  0  0  0  0  0  0  0  0
  152.0685  140.2727  158.3455 H   0  0  0  0  0  0  0  0  0  0  0  0
  1  2  2  0  0  0  0
  2  3  1  0  0  0  0
  2 28  1  0  0  0  0
  3  4  1  0  0  0  0
  4  5  1  0  0  0  0
  4 35  1  0  0  0  0
  4 36  1  0  0  0  0
  5 18  1  0  0  0  0
  5  6  1  0  0  0  0
  5 37  1  0  0  0  0
  6  7  1  0  0  0  0
  7  8  1  0  0  0  0
  7 16  1  0  0  0  0
  7 38  1  0  0  0  0
  8 14  1  0  0  0  0
  8  9  1  0  0  0  0
  9 10  2  0  0  0  0
  9 39  1  0  0  0  0
 10 11  1  0  0  0  0
 10 40  1  0  0  0  0
 11 12  2  0  0  0  0
 11 13  1  0  0  0  0
 13 34  1  0  0  0  0
 13 14  1  0  0  0  0
 14 15  2  0  0  0  0
 16 17  1  0  0  0  0
 16 18  1  0  0  0  0
 16 41  1  0  0  0  0
 17 42  1  0  0  0  0
 18 19  1  0  0  0  0
 18 43  1  0  0  0  0
 19 20  1  0  0  0  0
 20 21  2  0  0  0  0
 20 22  1  0  0  0  0
 22 27  1  0  0  0  0
 22 23  2  0  0  0  0
 23 24  1  0  0  0  0
 23 44  1  0  0  0  0
 24 25  2  0  0  0  0
 24 45  1  0  0  0  0
 25 26  1  0  0  0  0
 25 46  1  0  0  0  0
 26 27  2  0  0  0  0
 26 47  1  0  0  0  0
 27 48  1  0  0  0  0
 28 33  1  0  0  0  0
 28 29  2  0  0  0  0
 29 30  1  0  0  0  0
 29 49  1  0  0  0  0
 30 31  2  0  0  0  0
 30 50  1  0  0  0  0
 31 32  1  0  0  0  0
 31 51  1  0  0  0  0
 32 33  2  0  0  0  0
 32 52  1  0  0  0  0
 33 53  1  0  0  0  0
M  END
> <s_m_source_file>
AV-unprocessed.smi

> <i_m_source_file_index>
99

> <i_lp_mmshare_version>
43012

> <i_f3d_flags>
0

> <s_epik_input>
W2NIXTFbY0hdW2NIXVtjSF1bY0hdYzFDKD1PKU9bQ0gyXVtDQEBIXTJPW0NAQEhdKG4zW2NIXVtjSF1jKD1PKVtuSF1jMz1PKVtDQEBIXShbT0hdKVtDQEhdMk9DKD1PKWM0W2NIXVtjSF1bY0hdW2NIXVtjSF00

> <s_epik_cmdline>
J2VwaWtfcHl0aG9uJywgJy1waCcsICc3LjAnLCAnLXRuJywgJzgnLCAnLW1hJywgJzIwMCcsICctbWV0YWxfYmluZGluZycsICctaW1hZScsICc8aW5maWxlLm1hZT4nLCAnLW9tYWUnLCAnPG91dGZpbGUubWFlPic=

> <r_lp_tautomer_probability>
1

> <r_epik_Ionization_Penalty>
0.00454555

> <r_epik_Ionization_Penalty_Charging>
0.0045191

> <r_epik_Ionization_Penalty_Neutral>
2.64449e-05

> <r_epik_State_Penalty>
-0

> <r_epik_Charging_Adjusted_Penalty>
0.0045191

> <i_epik_Tot_Q>
0

> <i_epik_Tot_abs_Q>
0

> <r_epik_Metal_State_Penalty>
1.27877

> <b_epik_Metal_Only>
0

> <s_epik_Chemistry_Notes>
This compound has an ester and may undergo hydrolysis at high or low pH. This compound contains an acetal/aminal-like group ( X-CH(R)-Y where X, Y are N, S, or O) that may be acid/base labile, releasing an aldehyde.

> <s_lp_Force_Field>
OPLS_2005

> <r_lp_Energy>
37.3594

> <b_lp_Chiralities_Consistent>
1

> <s_lp_Variant>
AV-unprocessed.smi:99-3

> <Gold.Version>
5.8.1

> <Gold.Id.Protein>
6NUR|6NUR_protein|mol2

> <Gold.PLP.Fitness>
54.8899

> <Gold.PLP.PLP>
-51.3883

> <Gold.PLP.part.hbond>
-6.0044

> <Gold.PLP.part.metal>
0.0000

> <Gold.PLP.part.buried>
-5.5517

> <Gold.PLP.part.nonpolar>
-41.1249

> <Gold.PLP.part.repulsive>
0.8592

> <Gold.PLP.ligand.clash>
0.0000

> <Gold.PLP.ligand.torsion>
2.3459

> <Gold.PLP.Chemscore.Hbond>
2.6099

> <Gold.PLP.Chemscore.CHOScore>
0.0000

> <Gold.PLP.Chemscore.Metal>
0.0000

> <Gold.Chemscore.Hbonds>
donor molecule, donor type, donor heavy atom, donor atom, acceptor molecule, acceptor atom, score
      L1  H    17    42       P1  7948  0.90

> <Gold.PLP.Chemscore.Internal.Correction>
0.3638

> <Gold.Rescore>
     Score         DG    S(hbond)    S(metal)    S(lipo)     H(rot)  DE(clash)    DE(int)     intcor
     14.10     -17.91       2.67        0.00      99.76       3.19       0.48       3.32       ----

> <Gold.Chemscore.Fitness>
14.1046

> <Gold.Chemscore.DG>
-17.9092

> <Gold.Chemscore.ZeroCoef>
-5.4800

> <Gold.Chemscore.Hbond>
2.6719

> <Gold.Chemscore.Metal>
0.0000

> <Gold.Chemscore.Lipo>
99.7621

> <Gold.Chemscore.Internal_Hbond>
0.0000

> <Gold.Chemscore.DEClash>
0.4803

> <Gold.Chemscore.DEInternal>
3.3243

> <Gold.Chemscore.Rot>
3.1903

> <Gold.Chemscore.Internal.Correction>
   9.000000E+99

> <Gold.Chemscore.Hbonds>
donor molecule, donor type, donor heavy atom, donor atom, acceptor molecule, acceptor atom, score
      L1  H    17    42       P1  7948  0.18
      P1  H  6896  6907       L1    21  0.01

> <Gold.Chemscore.Hbond.Weighted>
-8.9241

> <Gold.Chemscore.Metal.Weighted>
-0.0000

> <Gold.Chemscore.Lipo.Weighted>
-11.6722

> <Gold.Chemscore.Internal_Hbond.Weighted>
0.0000

> <Gold.Chemscore.DEClash.Weighted>
0.4803

> <Gold.Chemscore.DEInternal.Weighted>
3.3243

> <Gold.Chemscore.Rot.Weighted>
8.1671

> <Gold.Chemscore.Internal.Correction.Weighted>
   9.000000E+99

> <Gold.Protein.RotatedTorsions>
[ 6907 6896 6895 6894 ] final -100.24 input  -60.11 | X-H torsion
[ 7974 7965 7964 7962 ] final  -70.57 input  175.53 | X-H torsion
[ 8008 7997 7996 7995 ] final -142.21 input   59.86 | X-H torsion
[ 10167 10162 10161 10158 ] final    2.18 input  -65.29 | X-H torsion
[ 10718 10713 10712 10709 ] final   96.96 input   66.30 | X-H torsion
[ 10763 10752 10751 10750 ] final   86.29 input  -60.55 | X-H torsion
[ 11005 11000 10999 10996 ] final   13.36 input  -57.11 | X-H torsion

> <Gold.Protein.ActiveResidues>
 VAL166  LYS551  ARG553  GLY616  TRP617  ASP618  TYR619  PRO620  LYS621  CYS622 
 ASP623  PHE694  ASN695  SER759  ASP760  ASP761  ALA762  ILE779  LEU786  VAL792 
 PHE793  MET794  SER795  GLU796  ALA797  LYS798  CYS799  TRP800  GLU811  SER814 

> <Gold.Protein.RotatedAtoms>
  150.7109  134.0917  159.3933 H   0  0  0  0  0  0  0  0  0  0  0  0  # atno 6907 bound_to 6896
  151.8902  135.0417  160.0506 H   0  0  0  0  0  0  0  0  0  0  0  0  # atno 6908 bound_to 6896
  152.2497  133.5169  159.5355 H   0  0  0  0  0  0  0  0  0  0  0  0  # atno 6909 bound_to 6896
  145.6892  140.9159  143.0790 H   0  0  0  0  0  0  0  0  0  0  0  0  # atno 7974 bound_to 7965
  155.4905  140.0567  157.2954 H   0  0  0  0  0  0  0  0  0  0  0  0  # atno 8008 bound_to 7997
  154.4625  140.2003  156.0158 H   0  0  0  0  0  0  0  0  0  0  0  0  # atno 8009 bound_to 7997
  156.0915  140.3232  155.7827 H   0  0  0  0  0  0  0  0  0  0  0  0  # atno 8010 bound_to 7997
  140.6647  143.7210  150.7805 H   0  0  0  0  0  0  0  0  0  0  0  0  # atno 10167 bound_to 10162
  157.6919  131.0594  150.4571 H   0  0  0  0  0  0  0  0  0  0  0  0  # atno 10718 bound_to 10713
  153.1557  135.4585  154.9700 H   0  0  0  0  0  0  0  0  0  0  0  0  # atno 10763 bound_to 10752
  154.7859  135.3204  154.7890 H   0  0  0  0  0  0  0  0  0  0  0  0  # atno 10764 bound_to 10752
  153.8387  135.6932  153.4860 H   0  0  0  0  0  0  0  0  0  0  0  0  # atno 10765 bound_to 10752
  140.4816  134.0930  155.7752 H   0  0  0  0  0  0  0  0  0  0  0  0  # atno 11005 bound_to 11000
  144.7002  139.8800  143.7446 LP  0  0  0  0  0  0  0  0  0  0  0  0  # atno 17320 bound_to 7965
  146.0896  139.3886  143.0414 LP  0  0  0  0  0  0  0  0  0  0  0  0  # atno 17321 bound_to 7965
  140.0885  143.4900  152.2491 LP  0  0  0  0  0  0  0  0  0  0  0  0  # atno 17342 bound_to 10162
  139.5892  144.7543  151.3442 LP  0  0  0  0  0  0  0  0  0  0  0  0  # atno 17343 bound_to 10162
  156.4918  130.4097  149.6402 LP  0  0  0  0  0  0  0  0  0  0  0  0  # atno 17370 bound_to 10713
  156.3409  130.7382  151.2327 LP  0  0  0  0  0  0  0  0  0  0  0  0  # atno 17371 bound_to 10713
  141.1528  133.8937  157.2053 LP  0  0  0  0  0  0  0  0  0  0  0  0  # atno 17394 bound_to 11000
  139.9823  135.0094  156.9779 LP  0  0  0  0  0  0  0  0  0  0  0  0  # atno 17395 bound_to 11000

$$$$
