AV-unprocessed.smi:3309|AV-procd|sdf|12716|dock10
  -GOLD-   2272019 53D 1   1.00000     0.00000
 Structure written by MMmdl.
 41 42  0  0  0  0  0  0  0  0  2 V2000
  147.9499  140.3124  154.7261 O   0  0  0  0  0  0  0  0  0  0  0  0
  148.0697  139.4161  153.8907 C   0  0  0  0  0  0  0  0  0  0  0  0
  147.0745  139.2905  152.7329 C   0  0  0  0  0  0  0  0  0  0  0  0
  146.1139  138.0985  152.8879 C   0  0  0  0  0  0  0  0  0  0  0  0
  146.1464  137.2341  151.6920 N   0  3  0  0  0  0  0  0  0  0  0  0
  145.4975  135.9224  151.8820 C   0  0  0  0  0  0  0  0  0  0  0  0
  145.0953  135.3063  150.5341 C   0  0  0  0  0  0  0  0  0  0  0  0
  145.1502  133.8575  150.5651 N   0  0  0  0  0  0  0  0  0  0  0  0
  144.1054  132.9573  150.5677 C   0  0  0  0  0  0  0  0  0  0  0  0
  144.6489  131.7049  150.5941 C   0  0  0  0  0  0  0  0  0  0  0  0
  146.0515  131.9446  150.6022 C   0  0  0  0  0  0  0  0  0  0  0  0
  146.3482  133.2343  150.5832 N   0  0  0  0  0  0  0  0  0  0  0  0
  149.0485  138.4993  153.9312 N   0  0  0  0  0  0  0  0  0  0  0  0
  150.0956  138.4305  154.9477 C   0  0  0  0  0  0  0  0  0  0  0  0
  150.7404  139.8133  155.1639 C   0  0  0  0  0  0  0  0  0  0  0  0
  152.2529  139.5885  155.1195 C   0  0  0  0  0  0  0  0  0  0  0  0
  152.4293  138.3891  154.1942 C   0  0  0  0  0  0  0  0  0  0  0  0
  151.2383  137.4875  154.5200 C   0  0  0  0  0  0  0  0  0  0  0  0
  146.4996  140.2152  152.6582 H   0  0  0  0  0  0  0  0  0  0  0  0
  147.6401  139.1957  151.8051 H   0  0  0  0  0  0  0  0  0  0  0  0
  146.3867  137.5019  153.7599 H   0  0  0  0  0  0  0  0  0  0  0  0
  145.0941  138.4543  153.0445 H   0  0  0  0  0  0  0  0  0  0  0  0
  145.6836  137.7148  150.9339 H   0  0  0  0  0  0  0  0  0  0  0  0
  146.1845  135.2585  152.4088 H   0  0  0  0  0  0  0  0  0  0  0  0
  144.6173  136.0450  152.5147 H   0  0  0  0  0  0  0  0  0  0  0  0
  144.0830  135.6100  150.2639 H   0  0  0  0  0  0  0  0  0  0  0  0
  145.7552  135.6591  149.7399 H   0  0  0  0  0  0  0  0  0  0  0  0
  143.0738  133.2774  150.5509 H   0  0  0  0  0  0  0  0  0  0  0  0
  144.1246  130.7607  150.6041 H   0  0  0  0  0  0  0  0  0  0  0  0
  146.8568  131.2251  150.6202 H   0  0  0  0  0  0  0  0  0  0  0  0
  149.0717  137.7941  153.2087 H   0  0  0  0  0  0  0  0  0  0  0  0
  149.6692  138.0796  155.8895 H   0  0  0  0  0  0  0  0  0  0  0  0
  150.4617  140.4987  154.3618 H   0  0  0  0  0  0  0  0  0  0  0  0
  150.4252  140.2725  156.1014 H   0  0  0  0  0  0  0  0  0  0  0  0
  152.7983  140.4681  154.7764 H   0  0  0  0  0  0  0  0  0  0  0  0
  152.6174  139.3386  156.1170 H   0  0  0  0  0  0  0  0  0  0  0  0
  152.3713  138.7149  153.1548 H   0  0  0  0  0  0  0  0  0  0  0  0
  153.3870  137.8866  154.3339 H   0  0  0  0  0  0  0  0  0  0  0  0
  151.4989  136.8391  155.3577 H   0  0  0  0  0  0  0  0  0  0  0  0
  150.9787  136.8375  153.6831 H   0  0  0  0  0  0  0  0  0  0  0  0
  147.1113  137.0788  151.4366 H   0  0  0  0  0  0  0  0  0  0  0  0
  1  2  2  0  0  0  0
  2  3  1  0  0  0  0
  2 13  1  0  0  0  0
  3  4  1  0  0  0  0
  3 19  1  0  0  0  0
  3 20  1  0  0  0  0
  4  5  1  0  0  0  0
  4 21  1  0  0  0  0
  4 22  1  0  0  0  0
  5  6  1  0  0  0  0
  5 23  1  0  0  0  0
  5 41  1  0  0  0  0
  6  7  1  0  0  0  0
  6 24  1  0  0  0  0
  6 25  1  0  0  0  0
  7  8  1  0  0  0  0
  7 26  1  0  0  0  0
  7 27  1  0  0  0  0
  8 12  1  0  0  0  0
  8  9  1  0  0  0  0
  9 10  2  0  0  0  0
  9 28  1  0  0  0  0
 10 11  1  0  0  0  0
 10 29  1  0  0  0  0
 11 12  2  0  0  0  0
 11 30  1  0  0  0  0
 13 14  1  0  0  0  0
 13 31  1  0  0  0  0
 14 18  1  0  0  0  0
 14 15  1  0  0  0  0
 14 32  1  0  0  0  0
 15 16  1  0  0  0  0
 15 33  1  0  0  0  0
 15 34  1  0  0  0  0
 16 17  1  0  0  0  0
 16 35  1  0  0  0  0
 16 36  1  0  0  0  0
 17 18  1  0  0  0  0
 17 37  1  0  0  0  0
 17 38  1  0  0  0  0
 18 39  1  0  0  0  0
 18 40  1  0  0  0  0
M  CHG  1   5   1
M  END
> <s_m_source_file>
AV-unprocessed.smi

> <i_m_source_file_index>
3309

> <i_lp_mmshare_version>
43012

> <i_f3d_flags>
0

> <s_epik_input>
W0NIMl0xW0NIMl1bQ0gyXVtDSDJdW0NIXTFbTkhdQyg9TylbQ0gyXVtDSDJdW05IXVtDSDJdW0NIMl1uMltjSF1bY0hdW2NIXW4y

> <s_epik_cmdline>
J2VwaWtfcHl0aG9uJywgJy1waCcsICc3LjAnLCAnLXRuJywgJzgnLCAnLW1hJywgJzIwMCcsICctbWV0YWxfYmluZGluZycsICctaW1hZScsICc8aW5maWxlLm1hZT4nLCAnLW9tYWUnLCAnPG91dGZpbGUubWFlPic=

> <r_lp_tautomer_probability>
1

> <r_epik_Ionization_Penalty>
0.00584123

> <r_epik_Ionization_Penalty_Charging>
0.00583842

> <r_epik_Ionization_Penalty_Neutral>
2.81118e-06

> <r_epik_State_Penalty>
-0

> <r_epik_Charging_Adjusted_Penalty>
0.00583842

> <i_epik_Tot_Q>
1

> <i_epik_Tot_abs_Q>
1

> <r_epik_Metal_State_Penalty>
-0

> <b_epik_Metal_Only>
0

> <s_lp_Force_Field>
OPLS_2005

> <r_lp_Energy>
18.8454

> <b_lp_Chiralities_Consistent>
1

> <s_lp_Variant>
AV-unprocessed.smi:3309-1

> <Gold.Version>
5.8.1

> <Gold.Id.Protein>
6NUR|6NUR_protein|mol2

> <Gold.PLP.Fitness>
50.9477

> <Gold.PLP.PLP>
-37.1960

> <Gold.PLP.part.hbond>
-2.3682

> <Gold.PLP.part.metal>
0.0000

> <Gold.PLP.part.buried>
-3.1315

> <Gold.PLP.part.nonpolar>
-32.6127

> <Gold.PLP.part.repulsive>
0.3631

> <Gold.PLP.ligand.clash>
0.0000

> <Gold.PLP.ligand.torsion>
1.1308

> <Gold.PLP.Chemscore.Hbond>
3.3075

> <Gold.PLP.Chemscore.CHOScore>
2.0000

> <Gold.PLP.Chemscore.Metal>
0.0000

> <Gold.Chemscore.Hbonds>
donor molecule, donor type, donor heavy atom, donor atom, acceptor molecule, acceptor atom, score
      L1  H     5    23       P1 10171  0.32
      L1  H     5    41       P1  7948  1.98
      L1  H    13    31       P1  7948  0.98
      L1  C     9    28       P1 10186  0.92
      L1  C    11    30       P1 10747  1.00

> <Gold.PLP.Chemscore.Internal.Correction>
0.0907

> <Gold.Rescore>
     Score         DG    S(hbond)    S(metal)    S(lipo)     H(rot)  DE(clash)    DE(int)     intcor
     16.29     -17.58       2.22        0.00      89.69       2.27       0.38       0.91       ----

> <Gold.Chemscore.Fitness>
16.2896

> <Gold.Chemscore.DG>
-17.5757

> <Gold.Chemscore.ZeroCoef>
-5.4800

> <Gold.Chemscore.Hbond>
2.2164

> <Gold.Chemscore.Metal>
0.0000

> <Gold.Chemscore.Lipo>
89.6877

> <Gold.Chemscore.Internal_Hbond>
0.0000

> <Gold.Chemscore.DEClash>
0.3785

> <Gold.Chemscore.DEInternal>
0.9076

> <Gold.Chemscore.Rot>
2.2658

> <Gold.Chemscore.Internal.Correction>
   9.000000E+99

> <Gold.Chemscore.Hbonds>
donor molecule, donor type, donor heavy atom, donor atom, acceptor molecule, acceptor atom, score
      L1  H     5    23       P1 10171  0.33
      L1  H     5    41       P1  7948  0.88
      L1  H    13    31       P1  7948  0.91

> <Gold.Chemscore.Hbond.Weighted>
-7.4027

> <Gold.Chemscore.Metal.Weighted>
-0.0000

> <Gold.Chemscore.Lipo.Weighted>
-10.4935

> <Gold.Chemscore.Internal_Hbond.Weighted>
0.0000

> <Gold.Chemscore.DEClash.Weighted>
0.3785

> <Gold.Chemscore.DEInternal.Weighted>
0.9076

> <Gold.Chemscore.Rot.Weighted>
5.8005

> <Gold.Chemscore.Internal.Correction.Weighted>
   9.000000E+99

> <Gold.Protein.RotatedTorsions>
[ 6907 6896 6895 6894 ] final  -32.22 input  -60.11 | X-H torsion
[ 7974 7965 7964 7962 ] final  -50.14 input  175.53 | X-H torsion
[ 8008 7997 7996 7995 ] final  115.94 input   59.86 | X-H torsion
[ 10167 10162 10161 10158 ] final  114.22 input  -65.29 | X-H torsion
[ 10718 10713 10712 10709 ] final   18.60 input   66.30 | X-H torsion
[ 10763 10752 10751 10750 ] final  160.46 input  -60.55 | X-H torsion
[ 11005 11000 10999 10996 ] final   40.30 input  -57.11 | X-H torsion

> <Gold.Protein.ActiveResidues>
 VAL166  LYS551  ARG553  GLY616  TRP617  ASP618  TYR619  PRO620  LYS621  CYS622 
 ASP623  PHE694  ASN695  SER759  ASP760  ASP761  ALA762  ILE779  LEU786  VAL792 
 PHE793  MET794  SER795  GLU796  ALA797  LYS798  CYS799  TRP800  GLU811  SER814 

> <Gold.Protein.RotatedAtoms>
  151.0816  134.9862  159.8358 H   0  0  0  0  0  0  0  0  0  0  0  0  # atno 6907 bound_to 6896
  152.5420  134.2175  159.8784 H   0  0  0  0  0  0  0  0  0  0  0  0  # atno 6908 bound_to 6896
  151.2205  133.4461  159.2634 H   0  0  0  0  0  0  0  0  0  0  0  0  # atno 6909 bound_to 6896
  145.9330  140.7732  142.9590 H   0  0  0  0  0  0  0  0  0  0  0  0  # atno 7974 bound_to 7965
  156.2411  140.2928  156.0446 H   0  0  0  0  0  0  0  0  0  0  0  0  # atno 8008 bound_to 7997
  155.1949  140.0408  157.2924 H   0  0  0  0  0  0  0  0  0  0  0  0  # atno 8009 bound_to 7997
  154.6170  140.2466  155.7604 H   0  0  0  0  0  0  0  0  0  0  0  0  # atno 8010 bound_to 7997
  139.6404  144.7123  151.2248 H   0  0  0  0  0  0  0  0  0  0  0  0  # atno 10167 bound_to 10162
  157.0986  130.6458  149.5867 H   0  0  0  0  0  0  0  0  0  0  0  0  # atno 10718 bound_to 10713
  154.2477  135.2772  155.2829 H   0  0  0  0  0  0  0  0  0  0  0  0  # atno 10763 bound_to 10752
  154.5491  135.5680  153.6910 H   0  0  0  0  0  0  0  0  0  0  0  0  # atno 10764 bound_to 10752
  152.9987  135.6270  154.2623 H   0  0  0  0  0  0  0  0  0  0  0  0  # atno 10765 bound_to 10752
  140.1944  134.3947  155.8129 H   0  0  0  0  0  0  0  0  0  0  0  0  # atno 11005 bound_to 11000
  144.6767  140.2157  143.7372 LP  0  0  0  0  0  0  0  0  0  0  0  0  # atno 17320 bound_to 7965
  145.8401  139.2126  143.1832 LP  0  0  0  0  0  0  0  0  0  0  0  0  # atno 17321 bound_to 7965
  140.7488  143.6321  150.8413 LP  0  0  0  0  0  0  0  0  0  0  0  0  # atno 17342 bound_to 10162
  139.9958  143.5798  152.2894 LP  0  0  0  0  0  0  0  0  0  0  0  0  # atno 17343 bound_to 10162
  155.9879  130.4920  150.7147 LP  0  0  0  0  0  0  0  0  0  0  0  0  # atno 17370 bound_to 10713
  157.4660  131.0888  151.0695 LP  0  0  0  0  0  0  0  0  0  0  0  0  # atno 17371 bound_to 10713
  141.2227  133.7062  156.8151 LP  0  0  0  0  0  0  0  0  0  0  0  0  # atno 17394 bound_to 11000
  140.2123  134.8818  157.3288 LP  0  0  0  0  0  0  0  0  0  0  0  0  # atno 17395 bound_to 11000

$$$$
