AV-unprocessed.smi:115|AV-procd|sdf|1123|dock8
  -GOLD-   2262018243D 1   1.00000     0.00000
 Structure written by MMmdl.
 55 57  0  0  0  0  0  0  0  0  1 V2000
  149.2074  145.4076  161.4915 C   0  0  0  0  0  0  0  0  0  0  0  0
  149.4001  144.2700  160.6650 O   0  0  0  0  0  0  0  0  0  0  0  0
  150.1509  144.5248  159.4848 C   0  0  0  0  0  0  0  0  0  0  0  0
  151.6663  144.3201  159.7025 C   0  0  2  0  0  0  0  0  0  0  0  0
  152.5462  145.3268  158.9367 C   0  0  0  0  0  0  0  0  0  0  0  0
  152.0587  142.9155  159.4987 N   0  0  0  0  0  0  0  0  0  0  0  0
  152.8697  142.2044  160.3826 C   0  0  0  0  0  0  0  0  0  0  0  0
  153.4304  142.7865  161.6422 C   0  0  0  0  0  0  0  0  0  0  0  0
  153.0378  140.9489  159.8822 C   0  0  0  0  0  0  0  0  0  0  0  0
  152.3062  140.8425  158.6700 C   0  0  0  0  0  0  0  0  0  0  0  0
  152.2216  139.6712  157.7593 C   0  0  0  0  0  0  0  0  0  0  0  0
  152.3781  139.7489  156.5399 O   0  0  0  0  0  0  0  0  0  0  0  0
  151.9373  138.3172  158.4364 C   0  0  0  0  0  0  0  0  0  0  0  0
  150.7285  137.6722  157.9368 N   0  0  0  0  0  0  0  0  0  0  0  0
  149.4820  138.1464  158.4153 C   0  0  0  0  0  0  0  0  0  0  0  0
  149.3986  139.0836  159.2111 O   0  0  0  0  0  0  0  0  0  0  0  0
  148.3233  137.4360  157.8879 C   0  0  0  0  0  0  0  0  0  0  0  0
  147.0926  137.7585  158.3209 F   0  0  0  0  0  0  0  0  0  0  0  0
  148.4654  136.4443  156.9823 C   0  0  0  0  0  0  0  0  0  0  0  0
  149.6921  136.0492  156.4724 N   0  0  0  0  0  0  0  0  0  0  0  0
  149.8179  134.8738  155.5243 C   0  0  2  0  0  0  0  0  0  0  0  0
  148.4760  134.3633  154.9707 C   0  0  0  0  0  0  0  0  0  0  0  0
  148.2686  133.0810  155.7531 C   0  0  0  0  0  0  0  0  0  0  0  0
  149.7040  132.6251  155.9828 C   0  0  0  0  0  0  0  0  0  0  0  0
  150.4186  133.8291  156.2300 O   0  0  0  0  0  0  0  0  0  0  0  0
  150.8736  136.6307  156.9878 C   0  0  0  0  0  0  0  0  0  0  0  0
  151.9847  136.2501  156.6113 O   0  0  0  0  0  0  0  0  0  0  0  0
  151.6737  142.0487  158.4633 C   0  0  0  0  0  0  0  0  0  0  0  0
  150.7326  142.4630  157.3657 C   0  0  0  0  0  0  0  0  0  0  0  0
  148.6639  145.1131  162.3892 H   0  0  0  0  0  0  0  0  0  0  0  0
  148.6254  146.1827  160.9940 H   0  0  0  0  0  0  0  0  0  0  0  0
  150.1608  145.8336  161.8056 H   0  0  0  0  0  0  0  0  0  0  0  0
  149.7883  143.9003  158.6665 H   0  0  0  0  0  0  0  0  0  0  0  0
  149.9434  145.5511  159.1902 H   0  0  0  0  0  0  0  0  0  0  0  0
  151.8711  144.5487  160.7449 H   0  0  0  0  0  0  0  0  0  0  0  0
  152.4079  146.3312  159.3377 H   0  0  0  0  0  0  0  0  0  0  0  0
  152.3108  145.3842  157.8763 H   0  0  0  0  0  0  0  0  0  0  0  0
  153.6038  145.0815  159.0371 H   0  0  0  0  0  0  0  0  0  0  0  0
  153.9369  142.0210  162.2306 H   0  0  0  0  0  0  0  0  0  0  0  0
  152.6424  143.2117  162.2644 H   0  0  0  0  0  0  0  0  0  0  0  0
  154.1574  143.5687  161.4217 H   0  0  0  0  0  0  0  0  0  0  0  0
  153.6378  140.1801  160.3464 H   0  0  0  0  0  0  0  0  0  0  0  0
  152.7724  137.6287  158.3005 H   0  0  0  0  0  0  0  0  0  0  0  0
  151.8346  138.4346  159.5164 H   0  0  0  0  0  0  0  0  0  0  0  0
  147.5665  135.9460  156.6570 H   0  0  0  0  0  0  0  0  0  0  0  0
  150.4573  135.2087  154.7063 H   0  0  0  0  0  0  0  0  0  0  0  0
  147.6670  135.0890  155.0512 H   0  0  0  0  0  0  0  0  0  0  0  0
  148.6132  134.1314  153.9137 H   0  0  0  0  0  0  0  0  0  0  0  0
  147.7822  133.2835  156.7074 H   0  0  0  0  0  0  0  0  0  0  0  0
  147.6698  132.3457  155.2153 H   0  0  0  0  0  0  0  0  0  0  0  0
  149.7976  131.9251  156.8131 H   0  0  0  0  0  0  0  0  0  0  0  0
  150.1041  132.1496  155.0861 H   0  0  0  0  0  0  0  0  0  0  0  0
  150.1595  141.6179  156.9880 H   0  0  0  0  0  0  0  0  0  0  0  0
  151.2799  142.8983  156.5295 H   0  0  0  0  0  0  0  0  0  0  0  0
  149.9897  143.1796  157.7027 H   0  0  0  0  0  0  0  0  0  0  0  0
  1  2  1  0  0  0  0
  1 30  1  0  0  0  0
  1 31  1  0  0  0  0
  1 32  1  0  0  0  0
  2  3  1  0  0  0  0
  3  4  1  0  0  0  0
  3 33  1  0  0  0  0
  3 34  1  0  0  0  0
  4  5  1  0  0  0  0
  4  6  1  0  0  0  0
  4 35  1  0  0  0  0
  5 36  1  0  0  0  0
  5 37  1  0  0  0  0
  5 38  1  0  0  0  0
  6 28  1  0  0  0  0
  6  7  1  0  0  0  0
  7  8  1  0  0  0  0
  7  9  2  0  0  0  0
  8 39  1  0  0  0  0
  8 40  1  0  0  0  0
  8 41  1  0  0  0  0
  9 10  1  0  0  0  0
  9 42  1  0  0  0  0
 10 11  1  0  0  0  0
 10 28  2  0  0  0  0
 11 12  2  0  0  0  0
 11 13  1  0  0  0  0
 13 14  1  0  0  0  0
 13 43  1  0  0  0  0
 13 44  1  0  0  0  0
 14 26  1  0  0  0  0
 14 15  1  0  0  0  0
 15 16  2  0  0  0  0
 15 17  1  0  0  0  0
 17 18  1  0  0  0  0
 17 19  2  0  0  0  0
 19 20  1  0  0  0  0
 19 45  1  0  0  0  0
 20 21  1  0  0  0  0
 20 26  1  0  0  0  0
 21 25  1  0  0  0  0
 21 22  1  0  0  0  0
 21 46  1  0  0  0  0
 22 23  1  0  0  0  0
 22 47  1  0  0  0  0
 22 48  1  0  0  0  0
 23 24  1  0  0  0  0
 23 49  1  0  0  0  0
 23 50  1  0  0  0  0
 24 25  1  0  0  0  0
 24 51  1  0  0  0  0
 24 52  1  0  0  0  0
 26 27  2  0  0  0  0
 28 29  1  0  0  0  0
 29 53  1  0  0  0  0
 29 54  1  0  0  0  0
 29 55  1  0  0  0  0
M  END
> <s_m_source_file>
AV-unprocessed.smi

> <i_m_source_file_index>
115

> <i_lp_mmshare_version>
43012

> <i_f3d_flags>
0

> <s_epik_input>
W0NIM11PW0NIMl1bQ0BIXShbQ0gzXSluMWMoW0NIM10pW2NIXWMoYzFbQ0gzXSlDKD1PKVtDSDJdbjJjKD1PKWMoRilbY0hdbihjMj1PKVtDQEBIXTNbQ0gyXVtDSDJdW0NIMl1PMw==

> <s_epik_cmdline>
J2VwaWtfcHl0aG9uJywgJy1waCcsICc3LjAnLCAnLXRuJywgJzgnLCAnLW1hJywgJzIwMCcsICctbWV0YWxfYmluZGluZycsICctaW1hZScsICc8aW5maWxlLm1hZT4nLCAnLW9tYWUnLCAnPG91dGZpbGUubWFlPic=

> <r_lp_tautomer_probability>
1

> <r_epik_Ionization_Penalty>
5.02611e-09

> <r_epik_Ionization_Penalty_Charging>
5.01743e-09

> <r_epik_Ionization_Penalty_Neutral>
8.68114e-12

> <r_epik_State_Penalty>
-0

> <r_epik_Charging_Adjusted_Penalty>
5.01743e-09

> <i_epik_Tot_Q>
0

> <i_epik_Tot_abs_Q>
0

> <r_epik_Metal_State_Penalty>
-0

> <b_epik_Metal_Only>
0

> <s_epik_Chemistry_Notes>
This compound contains an acetal/aminal-like group ( X-CH(R)-Y where X, Y are N, S, or O) that may be acid/base labile, releasing an aldehyde.

> <s_lp_Force_Field>
OPLS_2005

> <r_lp_Energy>
47.9533

> <b_lp_Chiralities_Consistent>
1

> <s_lp_Variant>
AV-unprocessed.smi:115-1

> <Gold.Version>
5.8.1

> <Gold.Id.Protein>
6NUR|6NUR_protein|mol2

> <Gold.PLP.Fitness>
54.9219

> <Gold.PLP.PLP>
-51.1868

> <Gold.PLP.part.hbond>
-4.6682

> <Gold.PLP.part.metal>
0.0000

> <Gold.PLP.part.buried>
-6.7475

> <Gold.PLP.part.nonpolar>
-40.3242

> <Gold.PLP.part.repulsive>
0.1520

> <Gold.PLP.ligand.clash>
0.0000

> <Gold.PLP.ligand.torsion>
2.3205

> <Gold.PLP.Chemscore.Hbond>
2.6240

> <Gold.PLP.Chemscore.CHOScore>
0.0000

> <Gold.PLP.Chemscore.Metal>
0.0000

> <Gold.Chemscore.Hbonds>
donor molecule, donor type, donor heavy atom, donor atom, acceptor molecule, acceptor atom, score
      P1  H  6933  6944       L1     2  0.26
      P1  H  7997  8010       L1    12  1.00
      P1  H 10752 10765       L1    27  0.86

> <Gold.PLP.Chemscore.Internal.Correction>
0.5040

> <Gold.Rescore>
     Score         DG    S(hbond)    S(metal)    S(lipo)     H(rot)  DE(clash)    DE(int)     intcor
     15.78     -20.55       2.43        0.00     107.47       2.19       0.16       4.61       ----

> <Gold.Chemscore.Fitness>
15.7759

> <Gold.Chemscore.DG>
-20.5548

> <Gold.Chemscore.ZeroCoef>
-5.4800

> <Gold.Chemscore.Hbond>
2.4301

> <Gold.Chemscore.Metal>
0.0000

> <Gold.Chemscore.Lipo>
107.4725

> <Gold.Chemscore.Internal_Hbond>
0.0000

> <Gold.Chemscore.DEClash>
0.1649

> <Gold.Chemscore.DEInternal>
4.6140

> <Gold.Chemscore.Rot>
2.1938

> <Gold.Chemscore.Internal.Correction>
   9.000000E+99

> <Gold.Chemscore.Hbonds>
donor molecule, donor type, donor heavy atom, donor atom, acceptor molecule, acceptor atom, score
      P1  H  6933  6944       L1     2  0.24
      P1  H  7997  8010       L1    12  0.38
      P1  H 10752 10765       L1    27  0.84

> <Gold.Chemscore.Hbond.Weighted>
-8.1166

> <Gold.Chemscore.Metal.Weighted>
-0.0000

> <Gold.Chemscore.Lipo.Weighted>
-12.5743

> <Gold.Chemscore.Internal_Hbond.Weighted>
0.0000

> <Gold.Chemscore.DEClash.Weighted>
0.1649

> <Gold.Chemscore.DEInternal.Weighted>
4.6140

> <Gold.Chemscore.Rot.Weighted>
5.6160

> <Gold.Chemscore.Internal.Correction.Weighted>
   9.000000E+99

> <Gold.Protein.RotatedTorsions>
[ 6907 6896 6895 6894 ] final   27.34 input  -60.11 | X-H torsion
[ 7974 7965 7964 7962 ] final  -66.86 input  175.53 | X-H torsion
[ 8008 7997 7996 7995 ] final   77.03 input   59.86 | X-H torsion
[ 10167 10162 10161 10158 ] final  131.45 input  -65.29 | X-H torsion
[ 10718 10713 10712 10709 ] final    7.05 input   66.30 | X-H torsion
[ 10763 10752 10751 10750 ] final -141.42 input  -60.55 | X-H torsion
[ 11005 11000 10999 10996 ] final  -27.33 input  -57.11 | X-H torsion

> <Gold.Protein.ActiveResidues>
 VAL166  LYS551  ARG553  GLY616  TRP617  ASP618  TYR619  PRO620  LYS621  CYS622 
 ASP623  PHE694  ASN695  SER759  ASP760  ASP761  ALA762  ILE779  LEU786  VAL792 
 PHE793  MET794  SER795  GLU796  ALA797  LYS798  CYS799  TRP800  GLU811  SER814 

> <Gold.Protein.RotatedAtoms>
  152.0008  134.9929  160.0564 H   0  0  0  0  0  0  0  0  0  0  0  0  # atno 6907 bound_to 6896
  152.1521  133.4524  159.4827 H   0  0  0  0  0  0  0  0  0  0  0  0  # atno 6908 bound_to 6896
  150.6877  134.2094  159.4396 H   0  0  0  0  0  0  0  0  0  0  0  0  # atno 6909 bound_to 6896
  145.7365  140.8973  143.0552 H   0  0  0  0  0  0  0  0  0  0  0  0  # atno 7974 bound_to 7965
  155.8357  140.3464  155.5600 H   0  0  0  0  0  0  0  0  0  0  0  0  # atno 8008 bound_to 7997
  155.8194  140.0910  157.1877 H   0  0  0  0  0  0  0  0  0  0  0  0  # atno 8009 bound_to 7997
  154.4004  140.1433  156.3469 H   0  0  0  0  0  0  0  0  0  0  0  0  # atno 8010 bound_to 7997
  139.5383  144.6705  151.4709 H   0  0  0  0  0  0  0  0  0  0  0  0  # atno 10167 bound_to 10162
  156.9312  130.5826  149.5649 H   0  0  0  0  0  0  0  0  0  0  0  0  # atno 10718 bound_to 10713
  154.8546  135.3525  154.5864 H   0  0  0  0  0  0  0  0  0  0  0  0  # atno 10763 bound_to 10752
  153.6474  135.6995  153.5225 H   0  0  0  0  0  0  0  0  0  0  0  0  # atno 10764 bound_to 10752
  153.2921  135.4231  155.1135 H   0  0  0  0  0  0  0  0  0  0  0  0  # atno 10765 bound_to 10752
  140.9110  133.7461  156.0670 H   0  0  0  0  0  0  0  0  0  0  0  0  # atno 11005 bound_to 11000
  144.6880  139.9402  143.7475 LP  0  0  0  0  0  0  0  0  0  0  0  0  # atno 17320 bound_to 7965
  146.0488  139.3491  143.0652 LP  0  0  0  0  0  0  0  0  0  0  0  0  # atno 17321 bound_to 7965
  140.6601  143.8516  150.6879 LP  0  0  0  0  0  0  0  0  0  0  0  0  # atno 17342 bound_to 10162
  140.1908  143.4038  152.1865 LP  0  0  0  0  0  0  0  0  0  0  0  0  # atno 17343 bound_to 10162
  156.0446  130.5524  150.8852 LP  0  0  0  0  0  0  0  0  0  0  0  0  # atno 17370 bound_to 10713
  157.5846  131.0946  150.9217 LP  0  0  0  0  0  0  0  0  0  0  0  0  # atno 17371 bound_to 10713
  140.8110  134.3399  157.5411 LP  0  0  0  0  0  0  0  0  0  0  0  0  # atno 17394 bound_to 11000
  139.8757  134.9254  156.3374 LP  0  0  0  0  0  0  0  0  0  0  0  0  # atno 17395 bound_to 11000

$$$$
