AV-unprocessed.smi:2086|AV-procd|sdf|8518|dock2
  -GOLD-   2272011233D 1   1.00000     0.00000
 Structure written by MMmdl.
 34 35  0  0  0  0  0  0  0  0  1 V2000
  149.7203  140.5892  158.1134 O   0  0  0  0  0  0  0  0  0  0  0  0
  149.4703  141.4774  157.2985 C   0  0  0  0  0  0  0  0  0  0  0  0
  149.7545  142.7733  157.5042 N   0  0  0  0  0  0  0  0  0  0  0  0
  150.3470  143.3252  158.7174 C   0  0  0  0  0  0  0  0  0  0  0  0
  151.7963  143.7883  158.4943 C   0  0  0  0  0  0  0  0  0  0  0  0
  152.6000  142.7257  158.5055 F   0  0  0  0  0  0  0  0  0  0  0  0
  151.9244  144.4056  157.3198 F   0  0  0  0  0  0  0  0  0  0  0  0
  152.1707  144.6171  159.4690 F   0  0  0  0  0  0  0  0  0  0  0  0
  148.8745  141.1392  155.9568 C   0  0  0  0  0  0  0  0  0  0  0  0
  147.8665  141.9818  155.4368 C   0  0  0  0  0  0  0  0  0  0  0  0
  147.2868  141.6866  154.1903 C   0  0  0  0  0  0  0  0  0  0  0  0
  147.7436  140.5531  153.4972 C   0  0  0  0  0  0  0  0  0  0  0  0
  148.7173  139.7468  153.9653 N   0  0  0  0  0  0  0  0  0  0  0  0
  149.2888  140.0259  155.1633 C   0  0  0  0  0  0  0  0  0  0  0  0
  150.3466  139.1836  155.5615 N   0  0  0  0  0  0  0  0  0  0  0  0
  151.4737  139.1706  154.6375 C   0  0  0  0  0  0  0  0  0  0  0  0
  152.6778  138.4749  155.2950 C   0  0  0  0  0  0  0  0  0  0  0  0
  152.3024  137.1681  155.7222 O   0  0  0  0  0  0  0  0  0  0  0  0
  151.2471  137.1971  156.6796 C   0  0  0  0  0  0  0  0  0  0  0  0
  150.0036  137.8553  156.0576 C   0  0  0  0  0  0  0  0  0  0  0  0
  149.5368  143.4268  156.7661 H   0  0  0  0  0  0  0  0  0  0  0  0
  149.7353  144.1729  159.0278 H   0  0  0  0  0  0  0  0  0  0  0  0
  150.2993  142.5995  159.5311 H   0  0  0  0  0  0  0  0  0  0  0  0
  147.5268  142.8445  155.9921 H   0  0  0  0  0  0  0  0  0  0  0  0
  146.5088  142.3120  153.7780 H   0  0  0  0  0  0  0  0  0  0  0  0
  147.3224  140.2901  152.5382 H   0  0  0  0  0  0  0  0  0  0  0  0
  151.1844  138.6402  153.7291 H   0  0  0  0  0  0  0  0  0  0  0  0
  151.7460  140.1839  154.3419 H   0  0  0  0  0  0  0  0  0  0  0  0
  153.5001  138.3945  154.5842 H   0  0  0  0  0  0  0  0  0  0  0  0
  153.0443  139.0552  156.1436 H   0  0  0  0  0  0  0  0  0  0  0  0
  151.0183  136.1772  156.9886 H   0  0  0  0  0  0  0  0  0  0  0  0
  151.5672  137.7371  157.5721 H   0  0  0  0  0  0  0  0  0  0  0  0
  149.2074  137.9295  156.7994 H   0  0  0  0  0  0  0  0  0  0  0  0
  149.6309  137.2396  155.2378 H   0  0  0  0  0  0  0  0  0  0  0  0
  1  2  2  0  0  0  0
  2  3  1  0  0  0  0
  2  9  1  0  0  0  0
  3  4  1  0  0  0  0
  3 21  1  0  0  0  0
  4  5  1  0  0  0  0
  4 22  1  0  0  0  0
  4 23  1  0  0  0  0
  5  6  1  0  0  0  0
  5  7  1  0  0  0  0
  5  8  1  0  0  0  0
  9 14  1  0  0  0  0
  9 10  2  0  0  0  0
 10 11  1  0  0  0  0
 10 24  1  0  0  0  0
 11 12  2  0  0  0  0
 11 25  1  0  0  0  0
 12 13  1  0  0  0  0
 12 26  1  0  0  0  0
 13 14  2  0  0  0  0
 14 15  1  0  0  0  0
 15 20  1  0  0  0  0
 15 16  1  0  0  0  0
 16 17  1  0  0  0  0
 16 27  1  0  0  0  0
 16 28  1  0  0  0  0
 17 18  1  0  0  0  0
 17 29  1  0  0  0  0
 17 30  1  0  0  0  0
 18 19  1  0  0  0  0
 19 20  1  0  0  0  0
 19 31  1  0  0  0  0
 19 32  1  0  0  0  0
 20 33  1  0  0  0  0
 20 34  1  0  0  0  0
M  END
> <s_m_source_file>
AV-unprocessed.smi

> <i_m_source_file_index>
2086

> <i_lp_mmshare_version>
43012

> <i_f3d_flags>
0

> <s_epik_input>
RkMoRikoRilbQ0gyXVtOSF1DKD1PKWMxW2NIXVtjSF1bY0hdbmMxTjJbQ0gyXVtDSDJdT1tDSDJdW0NIMl0y

> <s_epik_cmdline>
J2VwaWtfcHl0aG9uJywgJy1waCcsICc3LjAnLCAnLXRuJywgJzgnLCAnLW1hJywgJzIwMCcsICctbWV0YWxfYmluZGluZycsICctaW1hZScsICc8aW5maWxlLm1hZT4nLCAnLW9tYWUnLCAnPG91dGZpbGUubWFlPic=

> <r_lp_tautomer_probability>
1

> <r_epik_Ionization_Penalty>
1.36166e-05

> <r_epik_Ionization_Penalty_Charging>
0

> <r_epik_Ionization_Penalty_Neutral>
1.36166e-05

> <r_epik_State_Penalty>
-0

> <r_epik_Charging_Adjusted_Penalty>
0

> <i_epik_Tot_Q>
0

> <i_epik_Tot_abs_Q>
0

> <r_epik_Metal_State_Penalty>
0.00705299

> <b_epik_Metal_Only>
0

> <s_lp_Force_Field>
OPLS_2005

> <r_lp_Energy>
23.9064

> <b_lp_Chiralities_Consistent>
1

> <s_lp_Variant>
AV-unprocessed.smi:2086-1

> <Gold.Version>
5.8.1

> <Gold.Id.Protein>
6NUR|6NUR_protein|mol2

> <Gold.PLP.Fitness>
39.0487

> <Gold.PLP.PLP>
-34.1298

> <Gold.PLP.part.hbond>
-2.0000

> <Gold.PLP.part.metal>
0.0000

> <Gold.PLP.part.buried>
-1.4015

> <Gold.PLP.part.nonpolar>
-31.8787

> <Gold.PLP.part.repulsive>
1.2043

> <Gold.PLP.ligand.clash>
0.0000

> <Gold.PLP.ligand.torsion>
1.1712

> <Gold.PLP.Chemscore.Hbond>
1.8640

> <Gold.PLP.Chemscore.CHOScore>
0.4575

> <Gold.PLP.Chemscore.Metal>
0.0000

> <Gold.Chemscore.Hbonds>
donor molecule, donor type, donor heavy atom, donor atom, acceptor molecule, acceptor atom, score
      L1  H     3    21       P1  8028  1.00
      P1  H 10752 10765       L1    18  0.83
      L1  C    12    26       P1  7957  0.26

> <Gold.PLP.Chemscore.Internal.Correction>
0.2968

> <Gold.Rescore>
     Score         DG    S(hbond)    S(metal)    S(lipo)     H(rot)  DE(clash)    DE(int)     intcor
     13.08     -15.62       1.80        0.00      64.39       1.33       0.34       2.20       ----

> <Gold.Chemscore.Fitness>
13.0790

> <Gold.Chemscore.DG>
-15.6198

> <Gold.Chemscore.ZeroCoef>
-5.4800

> <Gold.Chemscore.Hbond>
1.7993

> <Gold.Chemscore.Metal>
0.0000

> <Gold.Chemscore.Lipo>
64.3889

> <Gold.Chemscore.Internal_Hbond>
0.0000

> <Gold.Chemscore.DEClash>
0.3445

> <Gold.Chemscore.DEInternal>
2.1963

> <Gold.Chemscore.Rot>
1.3294

> <Gold.Chemscore.Internal.Correction>
   9.000000E+99

> <Gold.Chemscore.Hbonds>
donor molecule, donor type, donor heavy atom, donor atom, acceptor molecule, acceptor atom, score
      L1  H     3    21       P1  8028  0.99
      P1  H 10752 10765       L1    18  0.79

> <Gold.Chemscore.Hbond.Weighted>
-6.0097

> <Gold.Chemscore.Metal.Weighted>
-0.0000

> <Gold.Chemscore.Lipo.Weighted>
-7.5335

> <Gold.Chemscore.Internal_Hbond.Weighted>
0.0000

> <Gold.Chemscore.DEClash.Weighted>
0.3445

> <Gold.Chemscore.DEInternal.Weighted>
2.1963

> <Gold.Chemscore.Rot.Weighted>
3.4033

> <Gold.Chemscore.Internal.Correction.Weighted>
   9.000000E+99

> <Gold.Protein.RotatedTorsions>
[ 6907 6896 6895 6894 ] final -177.81 input  -60.11 | X-H torsion
[ 7974 7965 7964 7962 ] final   11.56 input  175.53 | X-H torsion
[ 8008 7997 7996 7995 ] final   75.55 input   59.86 | X-H torsion
[ 10167 10162 10161 10158 ] final  -27.49 input  -65.29 | X-H torsion
[ 10718 10713 10712 10709 ] final  139.12 input   66.30 | X-H torsion
[ 10763 10752 10751 10750 ] final -153.70 input  -60.55 | X-H torsion
[ 11005 11000 10999 10996 ] final   30.66 input  -57.11 | X-H torsion

> <Gold.Protein.ActiveResidues>
 VAL166  LYS551  ARG553  GLY616  TRP617  ASP618  TYR619  PRO620  LYS621  CYS622 
 ASP623  PHE694  ASN695  SER759  ASP760  ASP761  ALA762  ILE779  LEU786  VAL792 
 PHE793  MET794  SER795  GLU796  ALA797  LYS798  CYS799  TRP800  GLU811  SER814 

> <Gold.Protein.RotatedAtoms>
  151.6271  133.3334  159.3100 H   0  0  0  0  0  0  0  0  0  0  0  0  # atno 6907 bound_to 6896
  150.8076  134.7214  159.6670 H   0  0  0  0  0  0  0  0  0  0  0  0  # atno 6908 bound_to 6896
  152.4172  134.6026  160.0055 H   0  0  0  0  0  0  0  0  0  0  0  0  # atno 6909 bound_to 6896
  146.2368  139.9467  142.8476 H   0  0  0  0  0  0  0  0  0  0  0  0  # atno 7974 bound_to 7965
  155.8145  140.3472  155.5477 H   0  0  0  0  0  0  0  0  0  0  0  0  # atno 8008 bound_to 7997
  155.8406  140.0941  157.1757 H   0  0  0  0  0  0  0  0  0  0  0  0  # atno 8009 bound_to 7997
  154.4005  140.1395  156.3711 H   0  0  0  0  0  0  0  0  0  0  0  0  # atno 8010 bound_to 7997
  140.7277  143.4089  151.1139 H   0  0  0  0  0  0  0  0  0  0  0  0  # atno 10167 bound_to 10162
  157.4178  131.1035  151.0386 H   0  0  0  0  0  0  0  0  0  0  0  0  # atno 10718 bound_to 10713
  154.7910  135.3207  154.7777 H   0  0  0  0  0  0  0  0  0  0  0  0  # atno 10763 bound_to 10752
  153.8466  135.6866  153.4801 H   0  0  0  0  0  0  0  0  0  0  0  0  # atno 10764 bound_to 10752
  153.1580  135.4672  154.9672 H   0  0  0  0  0  0  0  0  0  0  0  0  # atno 10765 bound_to 10752
  140.2920  134.2853  155.7773 H   0  0  0  0  0  0  0  0  0  0  0  0  # atno 11005 bound_to 11000
  145.1901  140.9807  143.4216 LP  0  0  0  0  0  0  0  0  0  0  0  0  # atno 17320 bound_to 7965
  144.9865  139.3731  143.6236 LP  0  0  0  0  0  0  0  0  0  0  0  0  # atno 17321 bound_to 7965
  139.7719  143.8481  152.3122 LP  0  0  0  0  0  0  0  0  0  0  0  0  # atno 17342 bound_to 10162
  139.8403  144.7213  150.9340 LP  0  0  0  0  0  0  0  0  0  0  0  0  # atno 17343 bound_to 10162
  157.1327  130.6109  149.5534 LP  0  0  0  0  0  0  0  0  0  0  0  0  # atno 17370 bound_to 10713
  155.9871  130.4908  150.7108 LP  0  0  0  0  0  0  0  0  0  0  0  0  # atno 17371 bound_to 10713
  141.2144  133.7591  156.9639 LP  0  0  0  0  0  0  0  0  0  0  0  0  # atno 17394 bound_to 11000
  140.1186  134.9431  157.2171 LP  0  0  0  0  0  0  0  0  0  0  0  0  # atno 17395 bound_to 11000

$$$$
