#       Name:                AV-unprocessed.smi:3267
#       Creating user name   scv26
#       Creation time:       Fri Mar 27 18:41:03 2020


#       File generated by GOLD software.
#

@<TRIPOS>MOLECULE
AV-unprocessed.smi:3267
    43    44     1
SMALL
NO_CHARGES


@<TRIPOS>ATOM
      1 ****        -2.7100  -1.9864   1.9231 C.3            1 S1                 0.0000
      2 ****        -2.2062  -1.3123   0.6391 C.3            1 S1                 0.0000
      3 ****        -2.7832  -1.9834  -0.6311 C.3            1 S1                 0.0000
      4 ****        -3.5439  -1.0523  -1.4427 N.pl3          1 S1                 0.0000
      5 ****        -3.1170  -0.3068  -2.5211 C.2            1 S1                 0.0000
      6 ****        -4.1842   0.4259  -2.9557 C.2            1 S1                 0.0000
      7 ****        -5.2320   0.0565  -2.0666 C.2            1 S1                 0.0000
      8 ****        -4.8452  -0.8274  -1.1608 N.2            1 S1                 0.0000
      9 ****        -0.7457  -1.3431   0.6253 N.am           1 S1                 0.0000
     10 ****         0.0415  -0.4789  -0.0308 C.2            1 S1                 0.0000
     11 ****        -0.3762   0.4646  -0.7024 O.2            1 S1                 0.0000
     12 ****         1.3395  -0.7698   0.1297 N.am           1 S1                 0.0000
     13 ****         2.4430  -0.0096  -0.4457 C.3            1 S1                 0.0000
     14 ****         2.8190   1.1913   0.4372 C.3            1 S1                 0.0000
     15 ****         3.9151   2.0712  -0.1602 C.3            1 S1                 0.0000
     16 ****         4.4947   2.7188   1.0762 C.3            1 S1                 0.0000
     17 ****         4.4426   1.5722   2.0814 C.3            1 S1                 0.0000
     18 ****         3.3455   0.7513   1.6874 O.3            1 S1                 0.0000
     19 ****        -3.7981  -1.9446   1.9831 H              1 S1                 0.0000
     20 ****        -2.3133  -1.4904   2.8098 H              1 S1                 0.0000
     21 ****        -2.4140  -3.0352   1.9659 H              1 S1                 0.0000
     22 ****        -2.5254  -0.2687   0.6830 H              1 S1                 0.0000
     23 ****        -1.9930  -2.4079  -1.2526 H              1 S1                 0.0000
     24 ****        -3.4335  -2.8202  -0.3710 H              1 S1                 0.0000
     25 ****        -2.1005  -0.3578  -2.8827 H              1 S1                 0.0000
     26 ****        -4.2119   1.1206  -3.7819 H              1 S1                 0.0000
     27 ****        -6.2550   0.4019  -2.0522 H              1 S1                 0.0000
     28 ****        -0.3028  -2.0808   1.1533 H              1 S1                 0.0000
     29 ****         1.5845  -1.5643   0.7023 H              1 S1                 0.0000
     30 ****         3.2995  -0.6748  -0.5594 H              1 S1                 0.0000
     31 ****         2.1791   0.3280  -1.4495 H              1 S1                 0.0000
     32 ****         1.9424   1.8092   0.6390 H              1 S1                 0.0000
     33 ****         4.6747   1.4620  -0.6522 H              1 S1                 0.0000
     34 ****         3.5336   2.7930  -0.8827 H              1 S1                 0.0000
     35 ****         5.5014   3.1098   0.9260 H              1 S1                 0.0000
     36 ****         3.8534   3.5375   1.4054 H              1 S1                 0.0000
     37 ****         5.3549   0.9773   2.0287 H              1 S1                 0.0000
     38 ****         4.3281   1.9252   3.1064 H              1 S1                 0.0000
     39 ****        -5.3934  -1.2368  -0.4315 LP             1 S1                 0.0000
     40 ****        -1.3602   0.6236  -0.7836 LP             1 S1                 0.0000
     41 ****         0.2684   1.0719  -1.1667 LP             1 S1                 0.0000
     42 ****         3.6570  -0.1949   1.5990 LP             1 S1                 0.0000
     43 ****         2.6290   0.8027   2.3831 LP             1 S1                 0.0000
@<TRIPOS>BOND
    1    1    2 1     
    2    1   19 1     
    3    1   20 1     
    4    1   21 1     
    5    2    3 1     
    6    2    9 1     
    7    2   22 1     
    8    3    4 1     
    9    3   23 1     
   10    3   24 1     
   11    4    8 1     
   12    4    5 1     
   13    5    6 2     
   14    5   25 1     
   15    6    7 1     
   16    6   26 1     
   17    7    8 2     
   18    7   27 1     
   19    9   10 am    
   20    9   28 1     
   21   10   11 2     
   22   10   12 am    
   23   12   13 1     
   24   12   29 1     
   25   13   14 1     
   26   13   30 1     
   27   13   31 1     
   28   14   18 1     
   29   14   15 1     
   30   14   32 1     
   31   15   16 1     
   32   15   33 1     
   33   15   34 1     
   34   16   17 1     
   35   16   35 1     
   36   16   36 1     
   37   17   18 1     
   38   17   37 1     
   39   17   38 1     
   40    8   39 1     
   41   11   40 1     
   42   11   41 1     
   43   18   42 1     
   44   18   43 1     
@<TRIPOS>SUBSTRUCTURE
      1 S1             1
@<TRIPOS>SET
LONE_PAIRS      STATIC     ATOMS    <user>   **** ""
5 39 40 41 42 43
DONOR_HYDROGENS      STATIC     ATOMS    <user>   **** ""
2 28 29
ATOM$BLUE        STATIC     ATOMS    COLORGROUP SYSTEM
5 39 40 41 42 43
ATOM$RED        STATIC     ATOMS    COLORGROUP SYSTEM
2 28 29
