AV-unprocessed.smi:149|AV-procd|sdf|1236|dock2
  -GOLD-   2262018443D 1   1.00000     0.00000
 Structure written by MMmdl.
 60 64  0  0  0  0  0  0  0  0  2 V2000
  153.8886  136.0150  165.0938 C   0  0  0  0  0  0  0  0  0  0  0  0
  155.1532  135.9505  164.2132 C   0  0  2  0  0  0  0  0  0  0  0  0
  155.1773  137.1204  163.2148 C   0  0  0  0  0  0  0  0  0  0  0  0
  154.6893  136.5848  161.9498 N   0  0  0  0  0  0  0  0  0  0  0  0
  154.0450  137.3738  161.0514 C   0  0  0  0  0  0  0  0  0  0  0  0
  153.2577  136.7857  160.1120 N   0  0  0  0  0  0  0  0  0  0  0  0
  152.6120  137.5269  159.2073 C   0  0  0  0  0  0  0  0  0  0  0  0
  152.6140  138.8524  159.0610 N   0  0  0  0  0  0  0  0  0  0  0  0
  153.4062  139.4527  159.9943 C   0  0  0  0  0  0  0  0  0  0  0  0
  154.1561  138.7953  161.0123 C   0  0  0  0  0  0  0  0  0  0  0  0
  154.8648  139.7369  161.7507 N   0  0  0  0  0  0  0  0  0  0  0  0
  154.5501  140.8794  161.2051 C   0  0  0  0  0  0  0  0  0  0  0  0
  153.6545  140.8045  160.1633 N   0  0  0  0  0  0  0  0  0  0  0  0
  153.1768  141.8973  159.3667 C   0  0  0  0  0  0  0  0  0  0  0  0
  152.1460  142.8858  159.9222 C   0  0  0  0  0  0  0  0  0  0  0  0
  151.4726  142.9841  158.5350 C   0  0  0  0  0  0  0  0  0  0  0  0
  149.9399  142.8833  158.5666 C   0  0  0  0  0  0  0  0  0  0  0  0
  149.4070  142.6652  157.2761 O   0  0  0  0  0  0  0  0  0  0  0  0
  151.8313  144.2254  157.6878 C   0  0  0  0  0  0  0  0  0  0  0  0
  151.3539  144.1531  156.3596 O   0  0  0  0  0  0  0  0  0  0  0  0
  152.2084  141.6673  158.2028 C   0  0  0  0  0  0  0  0  0  0  0  0
  154.3766  135.1706  162.0905 C   0  0  0  0  0  0  0  0  0  0  0  0
  155.2209  134.7189  163.2870 C   0  0  2  0  0  0  0  0  0  0  0  0
  154.7996  133.4347  163.9150 N   0  3  0  0  0  0  0  0  0  0  0  0
  154.6255  132.3205  162.9480 C   0  0  0  0  0  0  0  0  0  0  0  0
  154.1598  131.0440  163.6700 C   0  0  0  0  0  0  0  0  0  0  0  0
  155.0907  130.6992  164.6869 O   0  0  0  0  0  0  0  0  0  0  0  0
  155.1995  131.7189  165.6707 C   0  0  0  0  0  0  0  0  0  0  0  0
  155.7058  133.0134  165.0142 C   0  0  0  0  0  0  0  0  0  0  0  0
  152.9780  135.9727  164.4958 H   0  0  0  0  0  0  0  0  0  0  0  0
  153.8622  136.9439  165.6642 H   0  0  0  0  0  0  0  0  0  0  0  0
  153.8529  135.1971  165.8131 H   0  0  0  0  0  0  0  0  0  0  0  0
  156.0290  135.9965  164.8612 H   0  0  0  0  0  0  0  0  0  0  0  0
  154.5744  137.9588  163.5665 H   0  0  0  0  0  0  0  0  0  0  0  0
  156.1975  137.4770  163.0697 H   0  0  0  0  0  0  0  0  0  0  0  0
  152.0062  136.9803  158.4998 H   0  0  0  0  0  0  0  0  0  0  0  0
  154.9634  141.8145  161.5546 H   0  0  0  0  0  0  0  0  0  0  0  0
  154.0683  142.4234  159.0236 H   0  0  0  0  0  0  0  0  0  0  0  0
  151.4997  142.4314  160.6750 H   0  0  0  0  0  0  0  0  0  0  0  0
  152.5733  143.8181  160.2925 H   0  0  0  0  0  0  0  0  0  0  0  0
  149.6185  142.0561  159.2003 H   0  0  0  0  0  0  0  0  0  0  0  0
  149.4931  143.7848  158.9872 H   0  0  0  0  0  0  0  0  0  0  0  0
  149.1315  143.4961  156.9201 H   0  0  0  0  0  0  0  0  0  0  0  0
  151.4202  145.1329  158.1307 H   0  0  0  0  0  0  0  0  0  0  0  0
  152.9121  144.3626  157.6424 H   0  0  0  0  0  0  0  0  0  0  0  0
  150.4299  144.3508  156.3617 H   0  0  0  0  0  0  0  0  0  0  0  0
  152.6837  141.6444  157.2218 H   0  0  0  0  0  0  0  0  0  0  0  0
  151.5839  140.7848  158.3522 H   0  0  0  0  0  0  0  0  0  0  0  0
  153.3108  135.0447  162.2870 H   0  0  0  0  0  0  0  0  0  0  0  0
  154.6315  134.6205  161.1838 H   0  0  0  0  0  0  0  0  0  0  0  0
  156.2500  134.6055  162.9395 H   0  0  0  0  0  0  0  0  0  0  0  0
  153.8868  132.5803  162.1903 H   0  0  0  0  0  0  0  0  0  0  0  0
  155.5675  132.1352  162.4291 H   0  0  0  0  0  0  0  0  0  0  0  0
  153.1666  131.1805  164.1009 H   0  0  0  0  0  0  0  0  0  0  0  0
  154.0880  130.2174  162.9629 H   0  0  0  0  0  0  0  0  0  0  0  0
  154.2367  131.8780  166.1591 H   0  0  0  0  0  0  0  0  0  0  0  0
  155.8976  131.3917  166.4415 H   0  0  0  0  0  0  0  0  0  0  0  0
  156.7114  132.8587  164.6199 H   0  0  0  0  0  0  0  0  0  0  0  0
  155.7792  133.7936  165.7712 H   0  0  0  0  0  0  0  0  0  0  0  0
  153.8923  133.5997  164.3270 H   0  0  0  0  0  0  0  0  0  0  0  0
  1  2  1  0  0  0  0
  1 30  1  0  0  0  0
  1 31  1  0  0  0  0
  1 32  1  0  0  0  0
  2 23  1  0  0  0  0
  2  3  1  0  0  0  0
  2 33  1  0  0  0  0
  3  4  1  0  0  0  0
  3 34  1  0  0  0  0
  3 35  1  0  0  0  0
  4  5  1  0  0  0  0
  4 22  1  0  0  0  0
  5 10  1  0  0  0  0
  5  6  2  0  0  0  0
  6  7  1  0  0  0  0
  7  8  2  0  0  0  0
  7 36  1  0  0  0  0
  8  9  1  0  0  0  0
  9 13  1  0  0  0  0
  9 10  2  0  0  0  0
 10 11  1  0  0  0  0
 11 12  2  0  0  0  0
 12 13  1  0  0  0  0
 12 37  1  0  0  0  0
 13 14  1  0  0  0  0
 14 21  1  0  0  0  0
 14 15  1  0  0  0  0
 14 38  1  0  0  0  0
 15 16  1  0  0  0  0
 15 39  1  0  0  0  0
 15 40  1  0  0  0  0
 16 17  1  0  0  0  0
 16 19  1  0  0  0  0
 16 21  1  0  0  0  0
 17 18  1  0  0  0  0
 17 41  1  0  0  0  0
 17 42  1  0  0  0  0
 18 43  1  0  0  0  0
 19 20  1  0  0  0  0
 19 44  1  0  0  0  0
 19 45  1  0  0  0  0
 20 46  1  0  0  0  0
 21 47  1  0  0  0  0
 21 48  1  0  0  0  0
 22 23  1  0  0  0  0
 22 49  1  0  0  0  0
 22 50  1  0  0  0  0
 23 24  1  0  0  0  0
 23 51  1  0  0  0  0
 24 29  1  0  0  0  0
 24 25  1  0  0  0  0
 24 60  1  0  0  0  0
 25 26  1  0  0  0  0
 25 52  1  0  0  0  0
 25 53  1  0  0  0  0
 26 27  1  0  0  0  0
 26 54  1  0  0  0  0
 26 55  1  0  0  0  0
 27 28  1  0  0  0  0
 28 29  1  0  0  0  0
 28 56  1  0  0  0  0
 28 57  1  0  0  0  0
 29 58  1  0  0  0  0
 29 59  1  0  0  0  0
M  CHG  1  24   1
M  END
> <s_m_source_file>
AV-unprocessed.smi

> <i_m_source_file_index>
149

> <i_lp_mmshare_version>
43012

> <i_f3d_flags>
0

> <s_epik_input>
W0NIMl0xW0NIMl1PW0NIMl1bQ0gyXU4xW0NAQEhdMltDSDJdTihbQ0gyXVtDQEhdMltDSDNdKWMobltjSF1uMyljKGMzNCluW2NIXW40W0NIXShbQ0gyXTUpW0NIMl1DNShbQ0gyXVtPSF0pW0NIMl1bT0hd

> <s_epik_cmdline>
J2VwaWtfcHl0aG9uJywgJy1waCcsICc3LjAnLCAnLXRuJywgJzgnLCAnLW1hJywgJzIwMCcsICctbWV0YWxfYmluZGluZycsICctaW1hZScsICc8aW5maWxlLm1hZT4nLCAnLW9tYWUnLCAnPG91dGZpbGUubWFlPic=

> <r_lp_tautomer_probability>
1

> <r_epik_Ionization_Penalty>
0.404847

> <r_epik_Ionization_Penalty_Charging>
0.404623

> <r_epik_Ionization_Penalty_Neutral>
0.000224096

> <r_epik_State_Penalty>
0.238803

> <r_epik_Charging_Adjusted_Penalty>
0.643425

> <i_epik_Tot_Q>
1

> <i_epik_Tot_abs_Q>
1

> <r_epik_Metal_State_Penalty>
0.239083

> <b_epik_Metal_Only>
0

> <s_lp_Force_Field>
OPLS_2005

> <r_lp_Energy>
71.321

> <b_lp_Chiralities_Consistent>
1

> <s_lp_Variant>
AV-unprocessed.smi:149-3

> <Gold.Version>
5.8.1

> <Gold.Id.Protein>
6NUR|6NUR_protein|mol2

> <Gold.PLP.Fitness>
53.7807

> <Gold.PLP.PLP>
-45.2664

> <Gold.PLP.part.hbond>
-2.8432

> <Gold.PLP.part.metal>
0.0000

> <Gold.PLP.part.buried>
-1.5724

> <Gold.PLP.part.nonpolar>
-41.9311

> <Gold.PLP.part.repulsive>
0.0000

> <Gold.PLP.ligand.clash>
0.0000

> <Gold.PLP.ligand.torsion>
0.4517

> <Gold.PLP.Chemscore.Hbond>
2.9100

> <Gold.PLP.Chemscore.CHOScore>
0.0000

> <Gold.PLP.Chemscore.Metal>
0.0000

> <Gold.Chemscore.Hbonds>
donor molecule, donor type, donor heavy atom, donor atom, acceptor molecule, acceptor atom, score
      L1  H    18    43       P1  8028  1.00
      L1  H    20    46       P1  8028  1.00
      P1  H  6896  6908       L1     6  0.78

> <Gold.PLP.Chemscore.Internal.Correction>
0.6876

> <Gold.Rescore>
     Score         DG    S(hbond)    S(metal)    S(lipo)     H(rot)  DE(clash)    DE(int)     intcor
     16.27     -20.48       2.44        0.00     126.25       3.09       1.65       2.57       ----

> <Gold.Chemscore.Fitness>
16.2667

> <Gold.Chemscore.DG>
-20.4775

> <Gold.Chemscore.ZeroCoef>
-5.4800

> <Gold.Chemscore.Hbond>
2.4372

> <Gold.Chemscore.Metal>
0.0000

> <Gold.Chemscore.Lipo>
126.2461

> <Gold.Chemscore.Internal_Hbond>
0.0000

> <Gold.Chemscore.DEClash>
1.6451

> <Gold.Chemscore.DEInternal>
2.5657

> <Gold.Chemscore.Rot>
3.0912

> <Gold.Chemscore.Internal.Correction>
   9.000000E+99

> <Gold.Chemscore.Hbonds>
donor molecule, donor type, donor heavy atom, donor atom, acceptor molecule, acceptor atom, score
      L1  H    18    43       P1  8028  0.81
      L1  H    20    46       P1  8028  0.98
      P1  H  6896  6908       L1     6  0.20

> <Gold.Chemscore.Hbond.Weighted>
-8.1401

> <Gold.Chemscore.Metal.Weighted>
-0.0000

> <Gold.Chemscore.Lipo.Weighted>
-14.7708

> <Gold.Chemscore.Internal_Hbond.Weighted>
0.0000

> <Gold.Chemscore.DEClash.Weighted>
1.6451

> <Gold.Chemscore.DEInternal.Weighted>
2.5657

> <Gold.Chemscore.Rot.Weighted>
7.9135

> <Gold.Chemscore.Internal.Correction.Weighted>
   9.000000E+99

> <Gold.Protein.RotatedTorsions>
[ 6907 6896 6895 6894 ] final  -90.21 input  -60.11 | X-H torsion
[ 7974 7965 7964 7962 ] final  -19.94 input  175.53 | X-H torsion
[ 8008 7997 7996 7995 ] final  -33.40 input   59.86 | X-H torsion
[ 10167 10162 10161 10158 ] final  168.67 input  -65.29 | X-H torsion
[ 10718 10713 10712 10709 ] final  146.67 input   66.30 | X-H torsion
[ 10763 10752 10751 10750 ] final  -56.45 input  -60.55 | X-H torsion
[ 11005 11000 10999 10996 ] final   50.24 input  -57.11 | X-H torsion

> <Gold.Protein.ActiveResidues>
 VAL166  LYS551  ARG553  GLY616  TRP617  ASP618  TYR619  PRO620  LYS621  CYS622 
 ASP623  PHE694  ASN695  SER759  ASP760  ASP761  ALA762  ILE779  LEU786  VAL792 
 PHE793  MET794  SER795  GLU796  ALA797  LYS798  CYS799  TRP800  GLU811  SER814 

> <Gold.Protein.RotatedAtoms>
  150.6880  134.2467  159.4493 H   0  0  0  0  0  0  0  0  0  0  0  0  # atno 6907 bound_to 6896
  152.0407  134.9710  160.0583 H   0  0  0  0  0  0  0  0  0  0  0  0  # atno 6908 bound_to 6896
  152.1213  133.4320  159.4714 H   0  0  0  0  0  0  0  0  0  0  0  0  # atno 6909 bound_to 6896
  146.1815  140.4133  142.8493 H   0  0  0  0  0  0  0  0  0  0  0  0  # atno 7974 bound_to 7965
  154.4150  140.1711  156.1882 H   0  0  0  0  0  0  0  0  0  0  0  0  # atno 8008 bound_to 7997
  155.9625  140.3392  155.6480 H   0  0  0  0  0  0  0  0  0  0  0  0  # atno 8009 bound_to 7997
  155.6730  140.0714  157.2504 H   0  0  0  0  0  0  0  0  0  0  0  0  # atno 8010 bound_to 7997
  139.4973  144.3789  151.9643 H   0  0  0  0  0  0  0  0  0  0  0  0  # atno 10167 bound_to 10162
  157.3303  131.0919  151.1168 H   0  0  0  0  0  0  0  0  0  0  0  0  # atno 10718 bound_to 10713
  154.2069  135.6401  153.5103 H   0  0  0  0  0  0  0  0  0  0  0  0  # atno 10763 bound_to 10752
  152.9999  135.5464  154.6256 H   0  0  0  0  0  0  0  0  0  0  0  0  # atno 10764 bound_to 10752
  154.5683  135.2914  155.0825 H   0  0  0  0  0  0  0  0  0  0  0  0  # atno 10765 bound_to 10752
  140.1034  134.5051  155.8742 H   0  0  0  0  0  0  0  0  0  0  0  0  # atno 11005 bound_to 11000
  144.8323  140.6726  143.6283 LP  0  0  0  0  0  0  0  0  0  0  0  0  # atno 17320 bound_to 7965
  145.4063  139.1588  143.4150 LP  0  0  0  0  0  0  0  0  0  0  0  0  # atno 17321 bound_to 7965
  140.3226  144.3410  150.6006 LP  0  0  0  0  0  0  0  0  0  0  0  0  # atno 17342 bound_to 10162
  140.5710  143.2181  151.7598 LP  0  0  0  0  0  0  0  0  0  0  0  0  # atno 17343 bound_to 10162
  157.2419  130.6573  149.5893 LP  0  0  0  0  0  0  0  0  0  0  0  0  # atno 17370 bound_to 10713
  155.9695  130.4566  150.5930 LP  0  0  0  0  0  0  0  0  0  0  0  0  # atno 17371 bound_to 10713
  141.2112  133.6703  156.6563 LP  0  0  0  0  0  0  0  0  0  0  0  0  # atno 17394 bound_to 11000
  140.3189  134.8024  157.4236 LP  0  0  0  0  0  0  0  0  0  0  0  0  # atno 17395 bound_to 11000

$$$$
