AV-unprocessed.smi:2820|AV-procd|sdf|10854|dock9
  -GOLD-   2272015293D 1   1.00000     0.00000
 Structure written by MMmdl.
 29 30  0  0  0  0  0  0  0  0  1 V2000
  147.9306  139.3275  153.9026 C   0  0  0  0  0  0  0  0  0  0  0  0
  149.1587  140.0850  153.7274 N   0  0  0  0  0  0  0  0  0  0  0  0
  149.9777  140.3928  154.8230 C   0  0  0  0  0  0  0  0  0  0  0  0
  150.9861  139.5272  155.3066 C   0  0  0  0  0  0  0  0  0  0  0  0
  151.7572  139.9284  156.4146 C   0  0  0  0  0  0  0  0  0  0  0  0
  151.4970  141.1817  157.0060 C   0  0  0  0  0  0  0  0  0  0  0  0
  152.2634  141.5868  158.1080 N   0  0  0  0  0  0  0  0  0  0  0  0
  152.0717  142.9875  158.4632 C   0  0  0  0  0  0  0  0  0  0  0  0
  153.0379  143.3806  159.5941 C   0  0  0  0  0  0  0  0  0  0  0  0
  152.8522  142.5095  160.7064 O   0  0  0  0  0  0  0  0  0  0  0  0
  153.1097  141.1491  160.3699 C   0  0  0  0  0  0  0  0  0  0  0  0
  152.1440  140.7006  159.2594 C   0  0  0  0  0  0  0  0  0  0  0  0
  150.5336  142.0163  156.5495 N   0  0  0  0  0  0  0  0  0  0  0  0
  149.7991  141.6248  155.4870 C   0  0  0  0  0  0  0  0  0  0  0  0
  147.4372  139.1942  152.9398 H   0  0  0  0  0  0  0  0  0  0  0  0
  147.2427  139.8516  154.5668 H   0  0  0  0  0  0  0  0  0  0  0  0
  148.1390  138.3406  154.3166 H   0  0  0  0  0  0  0  0  0  0  0  0
  149.4167  140.3939  152.8008 H   0  0  0  0  0  0  0  0  0  0  0  0
  151.1789  138.5688  154.8480 H   0  0  0  0  0  0  0  0  0  0  0  0
  152.5333  139.2842  156.8014 H   0  0  0  0  0  0  0  0  0  0  0  0
  152.2402  143.6178  157.5892 H   0  0  0  0  0  0  0  0  0  0  0  0
  151.0419  143.1490  158.7850 H   0  0  0  0  0  0  0  0  0  0  0  0
  154.0737  143.3367  159.2537 H   0  0  0  0  0  0  0  0  0  0  0  0
  152.8494  144.4064  159.9106 H   0  0  0  0  0  0  0  0  0  0  0  0
  154.1475  141.0319  160.0540 H   0  0  0  0  0  0  0  0  0  0  0  0
  152.9749  140.5315  161.2579 H   0  0  0  0  0  0  0  0  0  0  0  0
  151.1194  140.7163  159.6335 H   0  0  0  0  0  0  0  0  0  0  0  0
  152.3643  139.6749  158.9614 H   0  0  0  0  0  0  0  0  0  0  0  0
  149.0424  142.3215  155.1565 H   0  0  0  0  0  0  0  0  0  0  0  0
  1  2  1  0  0  0  0
  1 15  1  0  0  0  0
  1 16  1  0  0  0  0
  1 17  1  0  0  0  0
  2  3  1  0  0  0  0
  2 18  1  0  0  0  0
  3 14  1  0  0  0  0
  3  4  2  0  0  0  0
  4  5  1  0  0  0  0
  4 19  1  0  0  0  0
  5  6  2  0  0  0  0
  5 20  1  0  0  0  0
  6  7  1  0  0  0  0
  6 13  1  0  0  0  0
  7 12  1  0  0  0  0
  7  8  1  0  0  0  0
  8  9  1  0  0  0  0
  8 21  1  0  0  0  0
  8 22  1  0  0  0  0
  9 10  1  0  0  0  0
  9 23  1  0  0  0  0
  9 24  1  0  0  0  0
 10 11  1  0  0  0  0
 11 12  1  0  0  0  0
 11 25  1  0  0  0  0
 11 26  1  0  0  0  0
 12 27  1  0  0  0  0
 12 28  1  0  0  0  0
 13 14  2  0  0  0  0
 14 29  1  0  0  0  0
M  END
> <s_m_source_file>
AV-unprocessed.smi

> <i_m_source_file_index>
2820

> <i_lp_mmshare_version>
43012

> <i_f3d_flags>
0

> <s_epik_input>
W0NIM11bTkhdYzFbY0hdW2NIXWMobltjSF0xKU4yW0NIMl1bQ0gyXU9bQ0gyXVtDSDJdMg==

> <s_epik_cmdline>
J2VwaWtfcHl0aG9uJywgJy1waCcsICc3LjAnLCAnLXRuJywgJzgnLCAnLW1hJywgJzIwMCcsICctbWV0YWxfYmluZGluZycsICctaW1hZScsICc8aW5maWxlLm1hZT4nLCAnLW9tYWUnLCAnPG91dGZpbGUubWFlPic=

> <r_lp_tautomer_probability>
1

> <r_epik_Ionization_Penalty>
0.0411205

> <r_epik_Ionization_Penalty_Charging>
0

> <r_epik_Ionization_Penalty_Neutral>
0.0411205

> <r_epik_State_Penalty>
0.0346301

> <r_epik_Charging_Adjusted_Penalty>
0.0346301

> <i_epik_Tot_Q>
0

> <i_epik_Tot_abs_Q>
0

> <r_epik_Metal_State_Penalty>
3.56611e-05

> <b_epik_Metal_Only>
0

> <s_lp_Force_Field>
OPLS_2005

> <r_lp_Energy>
22.0638

> <b_lp_Chiralities_Consistent>
1

> <s_lp_Variant>
AV-unprocessed.smi:2820-1

> <Gold.Version>
5.8.1

> <Gold.Id.Protein>
6NUR|6NUR_protein|mol2

> <Gold.PLP.Fitness>
31.4141

> <Gold.PLP.PLP>
-27.1611

> <Gold.PLP.part.hbond>
-1.0000

> <Gold.PLP.part.metal>
0.0000

> <Gold.PLP.part.buried>
-2.3617

> <Gold.PLP.part.nonpolar>
-23.8160

> <Gold.PLP.part.repulsive>
0.2638

> <Gold.PLP.ligand.clash>
0.0000

> <Gold.PLP.ligand.torsion>
0.8568

> <Gold.PLP.Chemscore.Hbond>
1.0000

> <Gold.PLP.Chemscore.CHOScore>
0.9557

> <Gold.PLP.Chemscore.Metal>
0.0000

> <Gold.Chemscore.Hbonds>
donor molecule, donor type, donor heavy atom, donor atom, acceptor molecule, acceptor atom, score
      L1  H     2    18       P1  7957  0.99
      L1  C    14    29       P1  8028  0.97

> <Gold.PLP.Chemscore.Internal.Correction>
0.0992

> <Gold.Rescore>
     Score         DG    S(hbond)    S(metal)    S(lipo)     H(rot)  DE(clash)    DE(int)     intcor
     14.03     -14.89       1.00        0.00      73.75       1.00       0.01       0.85       ----

> <Gold.Chemscore.Fitness>
14.0326

> <Gold.Chemscore.DG>
-14.8874

> <Gold.Chemscore.ZeroCoef>
-5.4800

> <Gold.Chemscore.Hbond>
0.9994

> <Gold.Chemscore.Metal>
0.0000

> <Gold.Chemscore.Lipo>
73.7539

> <Gold.Chemscore.Internal_Hbond>
0.0000

> <Gold.Chemscore.DEClash>
0.0060

> <Gold.Chemscore.DEInternal>
0.8488

> <Gold.Chemscore.Rot>
1.0000

> <Gold.Chemscore.Internal.Correction>
   9.000000E+99

> <Gold.Chemscore.Hbonds>
donor molecule, donor type, donor heavy atom, donor atom, acceptor molecule, acceptor atom, score
      L1  H     2    18       P1  7957  0.93

> <Gold.Chemscore.Hbond.Weighted>
-3.3381

> <Gold.Chemscore.Metal.Weighted>
-0.0000

> <Gold.Chemscore.Lipo.Weighted>
-8.6292

> <Gold.Chemscore.Internal_Hbond.Weighted>
0.0000

> <Gold.Chemscore.DEClash.Weighted>
0.0060

> <Gold.Chemscore.DEInternal.Weighted>
0.8488

> <Gold.Chemscore.Rot.Weighted>
2.5600

> <Gold.Chemscore.Internal.Correction.Weighted>
   9.000000E+99

> <Gold.Protein.RotatedTorsions>
[ 6907 6896 6895 6894 ] final   45.03 input  -60.11 | X-H torsion
[ 7974 7965 7964 7962 ] final  -99.61 input  175.53 | X-H torsion
[ 8008 7997 7996 7995 ] final  -12.40 input   59.86 | X-H torsion
[ 10167 10162 10161 10158 ] final -155.26 input  -65.29 | X-H torsion
[ 10718 10713 10712 10709 ] final  152.43 input   66.30 | X-H torsion
[ 10763 10752 10751 10750 ] final  153.05 input  -60.55 | X-H torsion
[ 11005 11000 10999 10996 ] final    8.26 input  -57.11 | X-H torsion

> <Gold.Protein.ActiveResidues>
 VAL166  LYS551  ARG553  GLY616  TRP617  ASP618  TYR619  PRO620  LYS621  CYS622 
 ASP623  PHE694  ASN695  SER759  ASP760  ASP761  ALA762  ILE779  LEU786  VAL792 
 PHE793  MET794  SER795  GLU796  ALA797  LYS798  CYS799  TRP800  GLU811  SER814 

> <Gold.Protein.RotatedAtoms>
  152.2396  134.8241  160.0461 H   0  0  0  0  0  0  0  0  0  0  0  0  # atno 6907 bound_to 6896
  151.8961  133.3522  159.3823 H   0  0  0  0  0  0  0  0  0  0  0  0  # atno 6908 bound_to 6896
  150.7050  134.4801  159.5510 H   0  0  0  0  0  0  0  0  0  0  0  0  # atno 6909 bound_to 6896
  145.3053  140.9387  143.2800 H   0  0  0  0  0  0  0  0  0  0  0  0  # atno 7974 bound_to 7965
  154.5380  140.2277  155.8689 H   0  0  0  0  0  0  0  0  0  0  0  0  # atno 8008 bound_to 7997
  156.1831  140.3095  155.9149 H   0  0  0  0  0  0  0  0  0  0  0  0  # atno 8009 bound_to 7997
  155.3315  140.0445  157.3033 H   0  0  0  0  0  0  0  0  0  0  0  0  # atno 8010 bound_to 7997
  139.6946  143.9364  152.2401 H   0  0  0  0  0  0  0  0  0  0  0  0  # atno 10167 bound_to 10162
  157.2579  131.0792  151.1685 H   0  0  0  0  0  0  0  0  0  0  0  0  # atno 10718 bound_to 10713
  154.1300  135.2827  155.3187 H   0  0  0  0  0  0  0  0  0  0  0  0  # atno 10763 bound_to 10752
  154.6362  135.5418  153.7740 H   0  0  0  0  0  0  0  0  0  0  0  0  # atno 10764 bound_to 10752
  153.0284  135.6475  154.1451 H   0  0  0  0  0  0  0  0  0  0  0  0  # atno 10765 bound_to 10752
  140.5390  134.0393  155.7898 H   0  0  0  0  0  0  0  0  0  0  0  0  # atno 11005 bound_to 11000
  144.9060  139.4588  143.6610 LP  0  0  0  0  0  0  0  0  0  0  0  0  # atno 17320 bound_to 7965
  146.3137  139.7841  142.9000 LP  0  0  0  0  0  0  0  0  0  0  0  0  # atno 17321 bound_to 7965
  139.9189  144.6811  150.8482 LP  0  0  0  0  0  0  0  0  0  0  0  0  # atno 17342 bound_to 10162
  140.7692  143.3389  151.2250 LP  0  0  0  0  0  0  0  0  0  0  0  0  # atno 17343 bound_to 10162
  157.3207  130.6936  149.6267 LP  0  0  0  0  0  0  0  0  0  0  0  0  # atno 17370 bound_to 10713
  155.9664  130.4336  150.5014 LP  0  0  0  0  0  0  0  0  0  0  0  0  # atno 17371 bound_to 10713
  141.1238  133.9417  157.2676 LP  0  0  0  0  0  0  0  0  0  0  0  0  # atno 17394 bound_to 11000
  139.9514  135.0174  156.9004 LP  0  0  0  0  0  0  0  0  0  0  0  0  # atno 17395 bound_to 11000

$$$$
