AV-unprocessed.smi:356|AV-procd|sdf|2414|dock9
  -GOLD-   2262022353D 1   1.00000     0.00000
 Structure written by MMmdl.
 43 45  0  0  0  0  0  0  0  0  3 V2000
  146.3293  142.5173  153.9773 C   0  0  0  0  0  0  0  0  0  0  0  0
  147.5645  141.7342  154.2728 C   0  0  0  0  0  0  0  0  0  0  0  0
  148.5970  142.1373  155.0658 N   0  3  0  0  0  0  0  0  0  0  0  0
  149.5748  141.1428  155.1103 C   0  0  0  0  0  0  0  0  0  0  0  0
  150.7945  141.0923  155.7783 C   0  0  0  0  0  0  0  0  0  0  0  0
  151.5587  139.9187  155.6119 C   0  0  0  0  0  0  0  0  0  0  0  0
  151.1040  138.8539  154.8069 C   0  0  0  0  0  0  0  0  0  0  0  0
  149.8662  138.9169  154.1333 C   0  0  0  0  0  0  0  0  0  0  0  0
  149.1169  140.0807  154.3037 C   0  0  0  0  0  0  0  0  0  0  0  0
  147.8752  140.4906  153.8057 N   0  0  0  0  0  0  0  0  0  0  0  0
  147.1247  139.5920  152.9148 C   0  0  0  0  0  0  0  0  0  0  0  0
  146.1594  138.6584  153.6729 C   0  0  2  0  0  0  0  0  0  0  0  0
  145.4662  139.4089  154.6522 O   0  0  0  0  0  0  0  0  0  0  0  0
  146.9178  137.5044  154.3604 C   0  0  0  0  0  0  0  0  0  0  0  0
  146.8998  136.2422  153.5769 N   0  3  0  0  0  0  0  0  0  0  0  0
  147.2049  135.0327  154.3821 C   0  0  0  0  0  0  0  0  0  0  0  0
  147.1982  133.7782  153.4916 C   0  0  0  0  0  0  0  0  0  0  0  0
  145.9406  133.6614  152.8385 O   0  0  0  0  0  0  0  0  0  0  0  0
  145.6759  134.7735  151.9929 C   0  0  0  0  0  0  0  0  0  0  0  0
  145.6294  136.0597  152.8347 C   0  0  0  0  0  0  0  0  0  0  0  0
  146.3602  143.4848  154.4789 H   0  0  0  0  0  0  0  0  0  0  0  0
  145.4485  141.9757  154.3226 H   0  0  0  0  0  0  0  0  0  0  0  0
  146.2373  142.6865  152.9043 H   0  0  0  0  0  0  0  0  0  0  0  0
  151.1446  141.9061  156.3963 H   0  0  0  0  0  0  0  0  0  0  0  0
  152.5124  139.8332  156.1127 H   0  0  0  0  0  0  0  0  0  0  0  0
  151.7174  137.9703  154.7048 H   0  0  0  0  0  0  0  0  0  0  0  0
  149.5267  138.0953  153.5204 H   0  0  0  0  0  0  0  0  0  0  0  0
  146.5870  140.2013  152.1871 H   0  0  0  0  0  0  0  0  0  0  0  0
  147.8494  139.0075  152.3464 H   0  0  0  0  0  0  0  0  0  0  0  0
  145.4288  138.2685  152.9654 H   0  0  0  0  0  0  0  0  0  0  0  0
  144.7758  139.8986  154.2326 H   0  0  0  0  0  0  0  0  0  0  0  0
  147.9538  137.7901  154.5502 H   0  0  0  0  0  0  0  0  0  0  0  0
  146.4681  137.3313  155.3399 H   0  0  0  0  0  0  0  0  0  0  0  0
  148.1785  135.1237  154.8617 H   0  0  0  0  0  0  0  0  0  0  0  0
  146.4657  134.9258  155.1773 H   0  0  0  0  0  0  0  0  0  0  0  0
  148.0024  133.8188  152.7548 H   0  0  0  0  0  0  0  0  0  0  0  0
  147.3658  132.8868  154.0964 H   0  0  0  0  0  0  0  0  0  0  0  0
  146.4374  134.8437  151.2143 H   0  0  0  0  0  0  0  0  0  0  0  0
  144.7209  134.6172  151.4910 H   0  0  0  0  0  0  0  0  0  0  0  0
  144.7966  136.0155  153.5389 H   0  0  0  0  0  0  0  0  0  0  0  0
  145.4536  136.9165  152.1827 H   0  0  0  0  0  0  0  0  0  0  0  0
  147.6229  136.3255  152.8766 H   0  0  0  0  0  0  0  0  0  0  0  0
  148.6275  143.0294  155.5426 H   0  0  0  0  0  0  0  0  0  0  0  0
  1  2  1  0  0  0  0
  1 21  1  0  0  0  0
  1 22  1  0  0  0  0
  1 23  1  0  0  0  0
  2 10  1  0  0  0  0
  2  3  2  0  0  0  0
  3  4  1  0  0  0  0
  3 43  1  0  0  0  0
  4  9  2  0  0  0  0
  4  5  1  0  0  0  0
  5  6  2  0  0  0  0
  5 24  1  0  0  0  0
  6  7  1  0  0  0  0
  6 25  1  0  0  0  0
  7  8  2  0  0  0  0
  7 26  1  0  0  0  0
  8  9  1  0  0  0  0
  8 27  1  0  0  0  0
  9 10  1  0  0  0  0
 10 11  1  0  0  0  0
 11 12  1  0  0  0  0
 11 28  1  0  0  0  0
 11 29  1  0  0  0  0
 12 13  1  0  0  0  0
 12 14  1  0  0  0  0
 12 30  1  0  0  0  0
 13 31  1  0  0  0  0
 14 15  1  0  0  0  0
 14 32  1  0  0  0  0
 14 33  1  0  0  0  0
 15 20  1  0  0  0  0
 15 16  1  0  0  0  0
 15 42  1  0  0  0  0
 16 17  1  0  0  0  0
 16 34  1  0  0  0  0
 16 35  1  0  0  0  0
 17 18  1  0  0  0  0
 17 36  1  0  0  0  0
 17 37  1  0  0  0  0
 18 19  1  0  0  0  0
 19 20  1  0  0  0  0
 19 38  1  0  0  0  0
 19 39  1  0  0  0  0
 20 40  1  0  0  0  0
 20 41  1  0  0  0  0
M  CHG  1   3   1
M  CHG  1  15   1
M  END
> <s_m_source_file>
AV-unprocessed.smi

> <i_m_source_file_index>
356

> <i_lp_mmshare_version>
43012

> <i_f3d_flags>
0

> <s_epik_input>
W2NIXTFbY0hdW2NIXVtjSF1jKGMxMiluKGMobjIpW0NIM10pW0NIMl1bQ0BIXShbT0hdKVtDSDJdTjNbQ0gyXVtDSDJdT1tDSDJdW0NIMl0z

> <s_epik_cmdline>
J2VwaWtfcHl0aG9uJywgJy1waCcsICc3LjAnLCAnLXRuJywgJzgnLCAnLW1hJywgJzIwMCcsICctbWV0YWxfYmluZGluZycsICctaW1hZScsICc8aW5maWxlLm1hZT4nLCAnLW9tYWUnLCAnPG91dGZpbGUubWFlPic=

> <r_epik_Ionization_Penalty>
1.81899

> <r_epik_Ionization_Penalty_Charging>
1.81898

> <r_epik_Ionization_Penalty_Neutral>
1.42224e-05

> <r_epik_State_Penalty>
1.87399

> <r_epik_Charging_Adjusted_Penalty>
3.69296

> <i_epik_Tot_Q>
2

> <i_epik_Tot_abs_Q>
2

> <r_epik_Metal_State_Penalty>
5.87601

> <b_epik_Metal_Only>
0

> <s_lp_Force_Field>
OPLS_2005

> <r_lp_Energy>
28.369

> <b_lp_Chiralities_Consistent>
1

> <s_lp_Variant>
AV-unprocessed.smi:356-7

> <Gold.Version>
5.8.1

> <Gold.Id.Protein>
6NUR|6NUR_protein|mol2

> <Gold.PLP.Fitness>
49.8001

> <Gold.PLP.PLP>
-37.2836

> <Gold.PLP.part.hbond>
-2.9143

> <Gold.PLP.part.metal>
0.0000

> <Gold.PLP.part.buried>
-0.4275

> <Gold.PLP.part.nonpolar>
-33.7857

> <Gold.PLP.part.repulsive>
0.2753

> <Gold.PLP.ligand.clash>
0.0000

> <Gold.PLP.ligand.torsion>
1.2578

> <Gold.PLP.Chemscore.Hbond>
5.0000

> <Gold.PLP.Chemscore.CHOScore>
0.0000

> <Gold.PLP.Chemscore.Metal>
0.0000

> <Gold.Chemscore.Hbonds>
donor molecule, donor type, donor heavy atom, donor atom, acceptor molecule, acceptor atom, score
      L1  H     3    43       P1  8028  2.00
      L1  H    13    31       P1 10175  0.71
      L1  H    15    42       P1  7948  2.00

> <Gold.PLP.Chemscore.Internal.Correction>
0.0320

> <Gold.Rescore>
     Score         DG    S(hbond)    S(metal)    S(lipo)     H(rot)  DE(clash)    DE(int)     intcor
     17.19     -18.87       2.94        0.00      77.15       2.13       0.46       1.23       ----

> <Gold.Chemscore.Fitness>
17.1876

> <Gold.Chemscore.DG>
-18.8706

> <Gold.Chemscore.ZeroCoef>
-5.4800

> <Gold.Chemscore.Hbond>
2.9412

> <Gold.Chemscore.Metal>
0.0000

> <Gold.Chemscore.Lipo>
77.1507

> <Gold.Chemscore.Internal_Hbond>
0.0000

> <Gold.Chemscore.DEClash>
0.4575

> <Gold.Chemscore.DEInternal>
1.2256

> <Gold.Chemscore.Rot>
2.1327

> <Gold.Chemscore.Internal.Correction>
   9.000000E+99

> <Gold.Chemscore.Hbonds>
donor molecule, donor type, donor heavy atom, donor atom, acceptor molecule, acceptor atom, score
      L1  H     3    43       P1  8028  0.98
      L1  H    13    31       P1 10175  0.68
      L1  H    15    42       P1  7948  1.00

> <Gold.Chemscore.Hbond.Weighted>
-9.8236

> <Gold.Chemscore.Metal.Weighted>
-0.0000

> <Gold.Chemscore.Lipo.Weighted>
-9.0266

> <Gold.Chemscore.Internal_Hbond.Weighted>
0.0000

> <Gold.Chemscore.DEClash.Weighted>
0.4575

> <Gold.Chemscore.DEInternal.Weighted>
1.2256

> <Gold.Chemscore.Rot.Weighted>
5.4596

> <Gold.Chemscore.Internal.Correction.Weighted>
   9.000000E+99

> <Gold.Protein.RotatedTorsions>
[ 6907 6896 6895 6894 ] final   73.19 input  -60.11 | X-H torsion
[ 7974 7965 7964 7962 ] final  -92.46 input  175.53 | X-H torsion
[ 8008 7997 7996 7995 ] final   42.36 input   59.86 | X-H torsion
[ 10167 10162 10161 10158 ] final -112.21 input  -65.29 | X-H torsion
[ 10718 10713 10712 10709 ] final  103.97 input   66.30 | X-H torsion
[ 10763 10752 10751 10750 ] final   47.34 input  -60.55 | X-H torsion
[ 11005 11000 10999 10996 ] final -122.26 input  -57.11 | X-H torsion

> <Gold.Protein.ActiveResidues>
 VAL166  LYS551  ARG553  GLY616  TRP617  ASP618  TYR619  PRO620  LYS621  CYS622 
 ASP623  PHE694  ASN695  SER759  ASP760  ASP761  ALA762  ILE779  LEU786  VAL792 
 PHE793  MET794  SER795  GLU796  ALA797  LYS798  CYS799  TRP800  GLU811  SER814 

> <Gold.Protein.RotatedAtoms>
  152.4910  134.4459  159.9558 H   0  0  0  0  0  0  0  0  0  0  0  0  # atno 6907 bound_to 6896
  151.4446  133.3628  159.2794 H   0  0  0  0  0  0  0  0  0  0  0  0  # atno 6908 bound_to 6896
  150.9064  134.8503  159.7455 H   0  0  0  0  0  0  0  0  0  0  0  0  # atno 6909 bound_to 6896
  145.3995  140.9536  143.2295 H   0  0  0  0  0  0  0  0  0  0  0  0  # atno 7974 bound_to 7965
  155.2850  140.3375  155.4256 H   0  0  0  0  0  0  0  0  0  0  0  0  # atno 8008 bound_to 7997
  156.2072  140.1756  156.7814 H   0  0  0  0  0  0  0  0  0  0  0  0  # atno 8009 bound_to 7997
  154.5637  140.0682  156.8843 H   0  0  0  0  0  0  0  0  0  0  0  0  # atno 8010 bound_to 7997
  140.1252  143.4409  152.1664 H   0  0  0  0  0  0  0  0  0  0  0  0  # atno 10167 bound_to 10162
  157.6755  131.0792  150.5636 H   0  0  0  0  0  0  0  0  0  0  0  0  # atno 10718 bound_to 10713
  152.9801  135.5979  154.3747 H   0  0  0  0  0  0  0  0  0  0  0  0  # atno 10763 bound_to 10752
  154.3417  135.2767  155.2421 H   0  0  0  0  0  0  0  0  0  0  0  0  # atno 10764 bound_to 10752
  154.4499  135.5992  153.6240 H   0  0  0  0  0  0  0  0  0  0  0  0  # atno 10765 bound_to 10752
  141.0008  134.0405  157.3539 H   0  0  0  0  0  0  0  0  0  0  0  0  # atno 11005 bound_to 11000
  144.8384  139.5512  143.6911 LP  0  0  0  0  0  0  0  0  0  0  0  0  # atno 17320 bound_to 7965
  146.2759  139.6751  142.9263 LP  0  0  0  0  0  0  0  0  0  0  0  0  # atno 17321 bound_to 7965
  139.5548  144.7365  151.4327 LP  0  0  0  0  0  0  0  0  0  0  0  0  # atno 17342 bound_to 10162
  140.6849  143.7997  150.7172 LP  0  0  0  0  0  0  0  0  0  0  0  0  # atno 17343 bound_to 10162
  156.5938  130.4336  149.5925 LP  0  0  0  0  0  0  0  0  0  0  0  0  # atno 17370 bound_to 10713
  156.2562  130.6935  151.1689 LP  0  0  0  0  0  0  0  0  0  0  0  0  # atno 17371 bound_to 10713
  139.9038  135.0173  156.7391 LP  0  0  0  0  0  0  0  0  0  0  0  0  # atno 17394 bound_to 11000
  140.6892  133.9405  155.7956 LP  0  0  0  0  0  0  0  0  0  0  0  0  # atno 17395 bound_to 11000

$$$$
