AV-unprocessed.smi:2845|AV-procd|sdf|10944|dock9
  -GOLD-   2272015393D 1   1.00000     0.00000
 Structure written by MMmdl.
 42 44  0  0  0  0  0  0  0  0  1 V2000
  153.3155  142.5764  161.6557 C   0  0  0  0  0  0  0  0  0  0  0  0
  152.7167  142.3172  160.2846 C   0  0  0  0  0  0  0  0  0  0  0  0
  153.0075  141.1005  159.6258 C   0  0  0  0  0  0  0  0  0  0  0  0
  152.4709  140.8213  158.3496 C   0  0  0  0  0  0  0  0  0  0  0  0
  152.6187  139.7139  157.5307 N   0  0  0  0  0  0  0  0  0  0  0  0
  151.8736  140.0530  156.4817 C   0  0  0  0  0  0  0  0  0  0  0  0
  151.2631  141.2526  156.5246 N   0  0  0  0  0  0  0  0  0  0  0  0
  150.4029  141.8487  155.5218 C   0  0  0  0  0  0  0  0  0  0  0  0
  149.4577  140.8084  154.8830 C   0  0  1  0  0  0  0  0  0  0  0  0
  150.1906  139.9938  153.9908 O   0  0  0  0  0  0  0  0  0  0  0  0
  148.7386  139.9116  155.9115 C   0  0  0  0  0  0  0  0  0  0  0  0
  147.7837  140.6468  156.7239 N   0  0  0  0  0  0  0  0  0  0  0  0
  147.6679  141.9574  156.9581 C   0  0  0  0  0  0  0  0  0  0  0  0
  146.6512  142.2767  157.7494 N   0  0  0  0  0  0  0  0  0  0  0  0
  146.1660  141.0237  157.9876 C   0  0  0  0  0  0  0  0  0  0  0  0
  144.6752  140.7533  158.9967 S   0  0  1  0  0  0  0  0  0  0  0  0
  144.9000  138.9202  159.1706 C   0  0  0  0  0  0  0  0  0  0  0  0
  144.9656  141.3685  160.3675 O   0  0  0  0  0  0  0  0  0  0  0  0
  146.8141  140.0087  157.4222 N   0  0  0  0  0  0  0  0  0  0  0  0
  151.6288  141.8006  157.7481 C   0  0  0  0  0  0  0  0  0  0  0  0
  151.3324  143.0145  158.3921 C   0  0  0  0  0  0  0  0  0  0  0  0
  151.8769  143.2780  159.6655 C   0  0  0  0  0  0  0  0  0  0  0  0
  151.5518  144.5939  160.3499 C   0  0  0  0  0  0  0  0  0  0  0  0
  153.9446  141.7466  161.9791 H   0  0  0  0  0  0  0  0  0  0  0  0
  152.5273  142.7077  162.3975 H   0  0  0  0  0  0  0  0  0  0  0  0
  153.9310  143.4760  161.6404 H   0  0  0  0  0  0  0  0  0  0  0  0
  153.6476  140.3692  160.0970 H   0  0  0  0  0  0  0  0  0  0  0  0
  151.7663  139.3932  155.6332 H   0  0  0  0  0  0  0  0  0  0  0  0
  149.8368  142.6663  155.9703 H   0  0  0  0  0  0  0  0  0  0  0  0
  151.0525  142.3001  154.7718 H   0  0  0  0  0  0  0  0  0  0  0  0
  148.7011  141.3259  154.2914 H   0  0  0  0  0  0  0  0  0  0  0  0
  149.7198  139.9478  153.1724 H   0  0  0  0  0  0  0  0  0  0  0  0
  148.2043  139.1060  155.4062 H   0  0  0  0  0  0  0  0  0  0  0  0
  149.4660  139.4419  156.5753 H   0  0  0  0  0  0  0  0  0  0  0  0
  148.3305  142.6942  156.5279 H   0  0  0  0  0  0  0  0  0  0  0  0
  144.3341  138.3982  158.3991 H   0  0  0  0  0  0  0  0  0  0  0  0
  144.5419  138.5897  160.1453 H   0  0  0  0  0  0  0  0  0  0  0  0
  145.9499  138.6413  159.0795 H   0  0  0  0  0  0  0  0  0  0  0  0
  150.6938  143.7385  157.9081 H   0  0  0  0  0  0  0  0  0  0  0  0
  150.8945  145.2094  159.7354 H   0  0  0  0  0  0  0  0  0  0  0  0
  152.4625  145.1630  160.5368 H   0  0  0  0  0  0  0  0  0  0  0  0
  151.0509  144.4167  161.3018 H   0  0  0  0  0  0  0  0  0  0  0  0
  1  2  1  0  0  0  0
  1 24  1  0  0  0  0
  1 25  1  0  0  0  0
  1 26  1  0  0  0  0
  2 22  1  0  0  0  0
  2  3  2  0  0  0  0
  3  4  1  0  0  0  0
  3 27  1  0  0  0  0
  4 20  2  0  0  0  0
  4  5  1  0  0  0  0
  5  6  2  0  0  0  0
  6  7  1  0  0  0  0
  6 28  1  0  0  0  0
  7  8  1  0  0  0  0
  7 20  1  0  0  0  0
  8  9  1  0  0  0  0
  8 29  1  0  0  0  0
  8 30  1  0  0  0  0
  9 10  1  0  0  0  0
  9 11  1  0  0  0  0
  9 31  1  0  0  0  0
 10 32  1  0  0  0  0
 11 12  1  0  0  0  0
 11 33  1  0  0  0  0
 11 34  1  0  0  0  0
 12 19  1  0  0  0  0
 12 13  1  0  0  0  0
 13 14  2  0  0  0  0
 13 35  1  0  0  0  0
 14 15  1  0  0  0  0
 15 16  1  0  0  0  0
 15 19  2  0  0  0  0
 16 17  1  0  0  0  0
 16 18  2  0  0  0  0
 17 36  1  0  0  0  0
 17 37  1  0  0  0  0
 17 38  1  0  0  0  0
 20 21  1  0  0  0  0
 21 22  2  0  0  0  0
 21 39  1  0  0  0  0
 22 23  1  0  0  0  0
 23 40  1  0  0  0  0
 23 41  1  0  0  0  0
 23 42  1  0  0  0  0
M  END
> <s_m_source_file>
AV-unprocessed.smi

> <i_m_source_file_index>
2845

> <i_lp_mmshare_version>
43012

> <i_f3d_flags>
0

> <s_epik_input>
W0NIM11jKFtjSF0xKWMoW0NIM10pW2NIXWMoYzEyKW4oW2NIXW4yKVtDSDJdW0NASF0oW09IXSlbQ0gyXW4zW2NIXW5jKG4zKVtTQF0oPU8pW0NIM10=

> <s_epik_cmdline>
J2VwaWtfcHl0aG9uJywgJy1waCcsICc3LjAnLCAnLXRuJywgJzgnLCAnLW1hJywgJzIwMCcsICctbWV0YWxfYmluZGluZycsICctaW1hZScsICc8aW5maWxlLm1hZT4nLCAnLW9tYWUnLCAnPG91dGZpbGUubWFlPic=

> <r_lp_tautomer_probability>
1

> <r_epik_Ionization_Penalty>
0.0968684

> <r_epik_Ionization_Penalty_Charging>
0

> <r_epik_Ionization_Penalty_Neutral>
0.0968684

> <r_epik_State_Penalty>
0.0870047

> <r_epik_Charging_Adjusted_Penalty>
0.0870047

> <i_epik_Tot_Q>
0

> <i_epik_Tot_abs_Q>
0

> <r_epik_Metal_State_Penalty>
0.0746849

> <b_epik_Metal_Only>
0

> <s_lp_Force_Field>
OPLS_2005

> <r_lp_Energy>
8.02323

> <b_lp_Chiralities_Consistent>
1

> <s_lp_Variant>
AV-unprocessed.smi:2845-2

> <Gold.Version>
5.8.1

> <Gold.Id.Protein>
6NUR|6NUR_protein|mol2

> <Gold.PLP.Fitness>
52.1194

> <Gold.PLP.PLP>
-39.0736

> <Gold.PLP.part.hbond>
-4.0000

> <Gold.PLP.part.metal>
0.0000

> <Gold.PLP.part.buried>
-5.0492

> <Gold.PLP.part.nonpolar>
-28.9080

> <Gold.PLP.part.repulsive>
0.1139

> <Gold.PLP.ligand.clash>
0.0000

> <Gold.PLP.ligand.torsion>
1.2350

> <Gold.PLP.Chemscore.Hbond>
3.8240

> <Gold.PLP.Chemscore.CHOScore>
1.0000

> <Gold.PLP.Chemscore.Metal>
0.0000

> <Gold.Chemscore.Hbonds>
donor molecule, donor type, donor heavy atom, donor atom, acceptor molecule, acceptor atom, score
      L1  H    10    32       P1  7957  1.00
      P1  H  6934  6946       L1    18  0.86
      P1  H  7989  7998       L1    10  0.96
      P1  H  7997  8008       L1     5  1.00
      L1  C    13    35       P1  8028  1.00

> <Gold.PLP.Chemscore.Internal.Correction>
1.0438

> <Gold.Rescore>
     Score         DG    S(hbond)    S(metal)    S(lipo)     H(rot)  DE(clash)    DE(int)     intcor
     15.55     -16.88       2.18        0.00      94.43       2.71       0.05       1.28       ----

> <Gold.Chemscore.Fitness>
15.5513

> <Gold.Chemscore.DG>
-16.8781

> <Gold.Chemscore.ZeroCoef>
-5.4800

> <Gold.Chemscore.Hbond>
2.1824

> <Gold.Chemscore.Metal>
0.0000

> <Gold.Chemscore.Lipo>
94.4333

> <Gold.Chemscore.Internal_Hbond>
0.0000

> <Gold.Chemscore.DEClash>
0.0518

> <Gold.Chemscore.DEInternal>
1.2750

> <Gold.Chemscore.Rot>
2.7108

> <Gold.Chemscore.Internal.Correction>
   9.000000E+99

> <Gold.Chemscore.Hbonds>
donor molecule, donor type, donor heavy atom, donor atom, acceptor molecule, acceptor atom, score
      L1  H    10    32       P1  7957  0.91
      P1  H  6934  6946       L1    18  0.32
      P1  H  7989  7998       L1    10  0.17
      P1  H  7997  8008       L1     5  0.06

> <Gold.Chemscore.Hbond.Weighted>
-7.2891

> <Gold.Chemscore.Metal.Weighted>
-0.0000

> <Gold.Chemscore.Lipo.Weighted>
-11.0487

> <Gold.Chemscore.Internal_Hbond.Weighted>
0.0000

> <Gold.Chemscore.DEClash.Weighted>
0.0518

> <Gold.Chemscore.DEInternal.Weighted>
1.2750

> <Gold.Chemscore.Rot.Weighted>
6.9396

> <Gold.Chemscore.Internal.Correction.Weighted>
   9.000000E+99

> <Gold.Protein.RotatedTorsions>
[ 6907 6896 6895 6894 ] final  144.14 input  -60.11 | X-H torsion
[ 7974 7965 7964 7962 ] final   44.75 input  175.53 | X-H torsion
[ 8008 7997 7996 7995 ] final  -69.32 input   59.86 | X-H torsion
[ 10167 10162 10161 10158 ] final -179.41 input  -65.29 | X-H torsion
[ 10718 10713 10712 10709 ] final   97.32 input   66.30 | X-H torsion
[ 10763 10752 10751 10750 ] final  160.82 input  -60.55 | X-H torsion
[ 11005 11000 10999 10996 ] final  166.30 input  -57.11 | X-H torsion

> <Gold.Protein.ActiveResidues>
 VAL166  LYS551  ARG553  GLY616  TRP617  ASP618  TYR619  PRO620  LYS621  CYS622 
 ASP623  PHE694  ASN695  SER759  ASP760  ASP761  ALA762  ILE779  LEU786  VAL792 
 PHE793  MET794  SER795  GLU796  ALA797  LYS798  CYS799  TRP800  GLU811  SER814 

> <Gold.Protein.RotatedAtoms>
  152.1974  133.4816  159.5039 H   0  0  0  0  0  0  0  0  0  0  0  0  # atno 6907 bound_to 6896
  150.6963  134.1634  159.4194 H   0  0  0  0  0  0  0  0  0  0  0  0  # atno 6908 bound_to 6896
  151.9551  135.0150  160.0595 H   0  0  0  0  0  0  0  0  0  0  0  0  # atno 6909 bound_to 6896
  146.0541  139.5040  142.9699 H   0  0  0  0  0  0  0  0  0  0  0  0  # atno 7974 bound_to 7965
  154.4930  140.0856  156.7636 H   0  0  0  0  0  0  0  0  0  0  0  0  # atno 8008 bound_to 7997
  155.4184  140.3444  155.4251 H   0  0  0  0  0  0  0  0  0  0  0  0  # atno 8009 bound_to 7997
  156.1356  140.1514  156.8987 H   0  0  0  0  0  0  0  0  0  0  0  0  # atno 8010 bound_to 7997
  139.5387  144.2423  152.0850 H   0  0  0  0  0  0  0  0  0  0  0  0  # atno 10167 bound_to 10162
  157.6914  131.0606  150.4626 H   0  0  0  0  0  0  0  0  0  0  0  0  # atno 10718 bound_to 10713
  154.2534  135.2771  155.2807 H   0  0  0  0  0  0  0  0  0  0  0  0  # atno 10763 bound_to 10752
  154.5446  135.5693  153.6872 H   0  0  0  0  0  0  0  0  0  0  0  0  # atno 10764 bound_to 10752
  152.9976  135.6259  154.2681 H   0  0  0  0  0  0  0  0  0  0  0  0  # atno 10765 bound_to 10752
  140.2650  134.7872  157.3624 H   0  0  0  0  0  0  0  0  0  0  0  0  # atno 11005 bound_to 11000
  145.6673  141.0225  143.1676 LP  0  0  0  0  0  0  0  0  0  0  0  0  # atno 17320 bound_to 7965
  144.7138  139.8270  143.7405 LP  0  0  0  0  0  0  0  0  0  0  0  0  # atno 17321 bound_to 7965
  140.1898  144.4763  150.6485 LP  0  0  0  0  0  0  0  0  0  0  0  0  # atno 17342 bound_to 10162
  140.6607  143.2251  151.5863 LP  0  0  0  0  0  0  0  0  0  0  0  0  # atno 17343 bound_to 10162
  156.4970  130.4108  149.6374 LP  0  0  0  0  0  0  0  0  0  0  0  0  # atno 17370 bound_to 10713
  156.3364  130.7359  151.2297 LP  0  0  0  0  0  0  0  0  0  0  0  0  # atno 17371 bound_to 10713
  140.1428  134.4950  155.8019 LP  0  0  0  0  0  0  0  0  0  0  0  0  # atno 17394 bound_to 11000
  141.2185  133.6832  156.7240 LP  0  0  0  0  0  0  0  0  0  0  0  0  # atno 17395 bound_to 11000

$$$$
