AV-unprocessed.smi:1428|AV-procd|sdf|5814|dock4
  -GOLD-   22720 5463D 1   1.00000     0.00000
 Structure written by MMmdl.
 44 45  0  0  0  0  0  0  0  0  2 V2000
  151.8622  138.8702  154.6904 C   0  0  0  0  0  0  0  0  0  0  0  0
  150.5381  138.4887  154.3329 O   0  0  0  0  0  0  0  0  0  0  0  0
  149.5497  139.4546  154.3333 C   0  0  0  0  0  0  0  0  0  0  0  0
  149.8745  140.7070  154.7419 N   0  0  0  0  0  0  0  0  0  0  0  0
  148.9139  141.6532  154.7397 C   0  0  0  0  0  0  0  0  0  0  0  0
  147.5914  141.4056  154.3304 C   0  0  0  0  0  0  0  0  0  0  0  0
  147.2518  140.1078  153.9057 C   0  0  0  0  0  0  0  0  0  0  0  0
  148.2473  139.0989  153.9089 C   0  0  0  0  0  0  0  0  0  0  0  0
  148.0325  137.7522  153.4967 N   0  0  0  0  0  0  0  0  0  0  0  0
  146.8826  137.1012  153.2494 C   0  0  0  0  0  0  0  0  0  0  0  0
  145.7517  137.5758  153.3454 O   0  0  0  0  0  0  0  0  0  0  0  0
  147.1182  135.8343  152.8791 N   0  0  0  0  0  0  0  0  0  0  0  0
  146.0917  134.8548  152.5350 C   0  0  2  0  0  0  0  0  0  0  0  0
  146.7153  133.7029  151.7306 C   0  0  0  0  0  0  0  0  0  0  0  0
  145.6436  132.6977  151.2763 C   0  0  0  0  0  0  0  0  0  0  0  0
  144.5803  133.3688  150.4856 N   0  3  1  0  0  0  0  0  0  0  0  0
  143.6063  132.4047  149.9119 C   0  0  0  0  0  0  0  0  0  0  0  0
  143.1713  132.7670  148.4880 C   0  0  0  0  0  0  0  0  0  0  0  0
  141.9436  132.3934  148.1207 N   0  0  0  0  0  0  0  0  0  0  0  0
  143.9318  133.3600  147.7247 O   0  0  0  0  0  0  0  0  0  0  0  0
  143.9331  134.4628  151.2589 C   0  0  0  0  0  0  0  0  0  0  0  0
  144.9660  135.5076  151.7122 C   0  0  0  0  0  0  0  0  0  0  0  0
  152.5151  137.9992  154.6371 H   0  0  0  0  0  0  0  0  0  0  0  0
  151.9062  139.2541  155.7105 H   0  0  0  0  0  0  0  0  0  0  0  0
  152.2587  139.6221  154.0065 H   0  0  0  0  0  0  0  0  0  0  0  0
  149.2092  142.6379  155.0705 H   0  0  0  0  0  0  0  0  0  0  0  0
  146.8538  142.1943  154.3393 H   0  0  0  0  0  0  0  0  0  0  0  0
  146.2396  139.9269  153.5830 H   0  0  0  0  0  0  0  0  0  0  0  0
  148.8746  137.2039  153.3998 H   0  0  0  0  0  0  0  0  0  0  0  0
  148.0786  135.5262  152.8301 H   0  0  0  0  0  0  0  0  0  0  0  0
  145.6690  134.4402  153.4526 H   0  0  0  0  0  0  0  0  0  0  0  0
  147.2341  134.0974  150.8553 H   0  0  0  0  0  0  0  0  0  0  0  0
  147.4678  133.1910  152.3318 H   0  0  0  0  0  0  0  0  0  0  0  0
  146.1169  131.9210  150.6744 H   0  0  0  0  0  0  0  0  0  0  0  0
  145.1986  132.2025  152.1410 H   0  0  0  0  0  0  0  0  0  0  0  0
  144.0601  131.4144  149.8555 H   0  0  0  0  0  0  0  0  0  0  0  0
  142.7379  132.3147  150.5668 H   0  0  0  0  0  0  0  0  0  0  0  0
  141.6011  132.6088  147.1954 H   0  0  0  0  0  0  0  0  0  0  0  0
  141.3555  131.8970  148.7750 H   0  0  0  0  0  0  0  0  0  0  0  0
  143.1721  134.9539  150.6518 H   0  0  0  0  0  0  0  0  0  0  0  0
  143.4209  134.0439  152.1265 H   0  0  0  0  0  0  0  0  0  0  0  0
  144.4691  136.2809  152.2993 H   0  0  0  0  0  0  0  0  0  0  0  0
  145.3854  136.0060  150.8368 H   0  0  0  0  0  0  0  0  0  0  0  0
  145.0419  133.7991  149.6964 H   0  0  0  0  0  0  0  0  0  0  0  0
  1  2  1  0  0  0  0
  1 23  1  0  0  0  0
  1 24  1  0  0  0  0
  1 25  1  0  0  0  0
  2  3  1  0  0  0  0
  3  8  1  0  0  0  0
  3  4  2  0  0  0  0
  4  5  1  0  0  0  0
  5  6  2  0  0  0  0
  5 26  1  0  0  0  0
  6  7  1  0  0  0  0
  6 27  1  0  0  0  0
  7  8  2  0  0  0  0
  7 28  1  0  0  0  0
  8  9  1  0  0  0  0
  9 10  1  0  0  0  0
  9 29  1  0  0  0  0
 10 11  2  0  0  0  0
 10 12  1  0  0  0  0
 12 13  1  0  0  0  0
 12 30  1  0  0  0  0
 13 22  1  0  0  0  0
 13 14  1  0  0  0  0
 13 31  1  0  0  0  0
 14 15  1  0  0  0  0
 14 32  1  0  0  0  0
 14 33  1  0  0  0  0
 15 16  1  0  0  0  0
 15 34  1  0  0  0  0
 15 35  1  0  0  0  0
 16 17  1  0  0  0  0
 16 21  1  0  0  0  0
 16 44  1  0  0  0  0
 17 18  1  0  0  0  0
 17 36  1  0  0  0  0
 17 37  1  0  0  0  0
 18 19  1  0  0  0  0
 18 20  2  0  0  0  0
 19 38  1  0  0  0  0
 19 39  1  0  0  0  0
 21 22  1  0  0  0  0
 21 40  1  0  0  0  0
 21 41  1  0  0  0  0
 22 42  1  0  0  0  0
 22 43  1  0  0  0  0
M  CHG  1  16   1
M  END
> <s_m_source_file>
AV-unprocessed.smi

> <i_m_source_file_index>
1428

> <i_lp_mmshare_version>
43012

> <i_f3d_flags>
0

> <s_epik_input>
W0NIM11PYzFuW2NIXVtjSF1bY0hdYzFbTkhdQyg9TylbTkhdW0NIXTJbQ0gyXVtDSDJdTihbQ0gyXVtDSDJdMilbQ0gyXUMoPU8pW05IMl0=

> <s_epik_cmdline>
J2VwaWtfcHl0aG9uJywgJy1waCcsICc3LjAnLCAnLXRuJywgJzgnLCAnLW1hJywgJzIwMCcsICctbWV0YWxfYmluZGluZycsICctaW1hZScsICc8aW5maWxlLm1hZT4nLCAnLW9tYWUnLCAnPG91dGZpbGUubWFlPic=

> <r_lp_tautomer_probability>
1

> <r_epik_Ionization_Penalty>
0.838963

> <r_epik_Ionization_Penalty_Charging>
0.838844

> <r_epik_Ionization_Penalty_Neutral>
0.000119189

> <r_epik_State_Penalty>
0.8734

> <r_epik_Charging_Adjusted_Penalty>
1.71224

> <i_epik_Tot_Q>
1

> <i_epik_Tot_abs_Q>
1

> <r_epik_Metal_State_Penalty>
0.890706

> <b_epik_Metal_Only>
0

> <s_lp_Force_Field>
OPLS_2005

> <r_lp_Energy>
15.1646

> <b_lp_Chiralities_Consistent>
1

> <s_lp_Variant>
AV-unprocessed.smi:1428-2

> <Gold.Version>
5.8.1

> <Gold.Id.Protein>
6NUR|6NUR_protein|mol2

> <Gold.PLP.Fitness>
46.4874

> <Gold.PLP.PLP>
-34.6950

> <Gold.PLP.part.hbond>
-4.8439

> <Gold.PLP.part.metal>
0.0000

> <Gold.PLP.part.buried>
-0.6859

> <Gold.PLP.part.nonpolar>
-32.9096

> <Gold.PLP.part.repulsive>
4.5813

> <Gold.PLP.ligand.clash>
0.0015

> <Gold.PLP.ligand.torsion>
1.1733

> <Gold.PLP.Chemscore.Hbond>
3.7045

> <Gold.PLP.Chemscore.CHOScore>
1.0000

> <Gold.PLP.Chemscore.Metal>
0.0000

> <Gold.Chemscore.Hbonds>
donor molecule, donor type, donor heavy atom, donor atom, acceptor molecule, acceptor atom, score
      L1  H     9    29       P1  7948  0.30
      L1  H    12    30       P1  7948  0.30
      L1  H    19    38       P1 10195  1.00
      L1  H    19    39       P1 10952  1.00
      P1  H  7918  7932       L1    20  0.64
      P1  H  7989  7998       L1     4  0.44
      L1  C     5    26       P1  8028  1.00

> <Gold.PLP.Chemscore.Internal.Correction>
0.0269

> <Gold.Rescore>
     Score         DG    S(hbond)    S(metal)    S(lipo)     H(rot)  DE(clash)    DE(int)     intcor
     12.50     -19.38       3.50        0.00      69.68       2.33       3.40       3.48       ----

> <Gold.Chemscore.Fitness>
12.5008

> <Gold.Chemscore.DG>
-19.3773

> <Gold.Chemscore.ZeroCoef>
-5.4800

> <Gold.Chemscore.Hbond>
3.5038

> <Gold.Chemscore.Metal>
0.0000

> <Gold.Chemscore.Lipo>
69.6751

> <Gold.Chemscore.Internal_Hbond>
0.0000

> <Gold.Chemscore.DEClash>
3.3952

> <Gold.Chemscore.DEInternal>
3.4814

> <Gold.Chemscore.Rot>
2.3271

> <Gold.Chemscore.Internal.Correction>
   9.000000E+99

> <Gold.Chemscore.Hbonds>
donor molecule, donor type, donor heavy atom, donor atom, acceptor molecule, acceptor atom, score
      L1  H     9    29       P1  7948  0.30
      L1  H    12    30       P1  7948  0.30
      L1  H    19    38       P1 10195  0.84
      L1  H    19    39       P1 10952  0.96
      P1  H  7918  7932       L1    20  0.62
      P1  H  7989  7998       L1     4  0.06

> <Gold.Chemscore.Hbond.Weighted>
-11.7027

> <Gold.Chemscore.Metal.Weighted>
-0.0000

> <Gold.Chemscore.Lipo.Weighted>
-8.1520

> <Gold.Chemscore.Internal_Hbond.Weighted>
0.0000

> <Gold.Chemscore.DEClash.Weighted>
3.3952

> <Gold.Chemscore.DEInternal.Weighted>
3.4814

> <Gold.Chemscore.Rot.Weighted>
5.9573

> <Gold.Chemscore.Internal.Correction.Weighted>
   9.000000E+99

> <Gold.Protein.RotatedTorsions>
[ 6907 6896 6895 6894 ] final  101.39 input  -60.11 | X-H torsion
[ 7974 7965 7964 7962 ] final  -65.66 input  175.53 | X-H torsion
[ 8008 7997 7996 7995 ] final  -26.61 input   59.86 | X-H torsion
[ 10167 10162 10161 10158 ] final   29.84 input  -65.29 | X-H torsion
[ 10718 10713 10712 10709 ] final   21.05 input   66.30 | X-H torsion
[ 10763 10752 10751 10750 ] final -158.31 input  -60.55 | X-H torsion
[ 11005 11000 10999 10996 ] final  165.85 input  -57.11 | X-H torsion

> <Gold.Protein.ActiveResidues>
 VAL166  LYS551  ARG553  GLY616  TRP617  ASP618  TYR619  PRO620  LYS621  CYS622 
 ASP623  PHE694  ASN695  SER759  ASP760  ASP761  ALA762  ILE779  LEU786  VAL792 
 PHE793  MET794  SER795  GLU796  ALA797  LYS798  CYS799  TRP800  GLU811  SER814 

> <Gold.Protein.RotatedAtoms>
  152.5350  134.0132  159.7947 H   0  0  0  0  0  0  0  0  0  0  0  0  # atno 6907 bound_to 6896
  151.0331  133.5765  159.2666 H   0  0  0  0  0  0  0  0  0  0  0  0  # atno 6908 bound_to 6896
  151.2762  135.0707  159.9206 H   0  0  0  0  0  0  0  0  0  0  0  0  # atno 6909 bound_to 6896
  145.7515  140.8906  143.0477 H   0  0  0  0  0  0  0  0  0  0  0  0  # atno 7974 bound_to 7965
  154.4417  140.1895  156.0802 H   0  0  0  0  0  0  0  0  0  0  0  0  # atno 8008 bound_to 7997
  156.0444  140.3316  155.7253 H   0  0  0  0  0  0  0  0  0  0  0  0  # atno 8009 bound_to 7997
  155.5651  140.0607  157.2810 H   0  0  0  0  0  0  0  0  0  0  0  0  # atno 8010 bound_to 7997
  140.4731  144.0732  150.6243 H   0  0  0  0  0  0  0  0  0  0  0  0  # atno 10167 bound_to 10162
  157.1330  130.6599  149.5957 H   0  0  0  0  0  0  0  0  0  0  0  0  # atno 10718 bound_to 10713
  154.7567  135.3106  154.8456 H   0  0  0  0  0  0  0  0  0  0  0  0  # atno 10763 bound_to 10752
  153.9228  135.6793  153.4751 H   0  0  0  0  0  0  0  0  0  0  0  0  # atno 10764 bound_to 10752
  153.1165  135.4842  154.9053 H   0  0  0  0  0  0  0  0  0  0  0  0  # atno 10765 bound_to 10752
  140.2604  134.7907  157.3584 H   0  0  0  0  0  0  0  0  0  0  0  0  # atno 11005 bound_to 11000
  144.6849  139.9598  143.7480 LP  0  0  0  0  0  0  0  0  0  0  0  0  # atno 17320 bound_to 7965
  146.0352  139.3371  143.0731 LP  0  0  0  0  0  0  0  0  0  0  0  0  # atno 17321 bound_to 7965
  140.3952  143.2731  152.0013 LP  0  0  0  0  0  0  0  0  0  0  0  0  # atno 17342 bound_to 10162
  139.4821  144.6044  151.7548 LP  0  0  0  0  0  0  0  0  0  0  0  0  # atno 17343 bound_to 10162
  155.9804  130.4804  150.6769 LP  0  0  0  0  0  0  0  0  0  0  0  0  # atno 17370 bound_to 10713
  157.4375  131.0857  151.0977 LP  0  0  0  0  0  0  0  0  0  0  0  0  # atno 17371 bound_to 10713
  140.1470  134.4898  155.7988 LP  0  0  0  0  0  0  0  0  0  0  0  0  # atno 17394 bound_to 11000
  141.2191  133.6847  156.7312 LP  0  0  0  0  0  0  0  0  0  0  0  0  # atno 17395 bound_to 11000

$$$$
