AV-unprocessed.smi:287|AV-procd|sdf|2177|dock1
  -GOLD-   2262021543D 1   1.00000     0.00000
 Structure written by MMmdl.
 55 58  0  0  0  0  0  0  0  0  1 V2000
  151.6182  141.3778  157.8467 C   0  0  0  0  0  0  0  0  0  0  0  0
  150.7112  141.0414  156.7132 C   0  0  0  0  0  0  0  0  0  0  0  0
  149.6336  141.6606  156.1505 C   0  0  0  0  0  0  0  0  0  0  0  0
  149.1713  140.8292  155.0865 C   0  0  0  0  0  0  0  0  0  0  0  0
  147.9884  141.1136  154.1706 C   0  0  1  0  0  0  0  0  0  0  0  0
  147.4392  142.5212  154.4536 C   0  0  0  0  0  0  0  0  0  0  0  0
  148.3461  141.1155  152.8018 O   0  0  0  0  0  0  0  0  0  0  0  0
  146.8602  140.0657  154.3112 C   0  0  0  0  0  0  0  0  0  0  0  0
  146.9892  138.9618  153.3654 N   0  0  0  0  0  0  0  0  0  0  0  0
  146.1801  137.8865  153.4613 C   0  0  0  0  0  0  0  0  0  0  0  0
  145.5987  137.5502  154.6425 N   0  0  0  0  0  0  0  0  0  0  0  0
  144.7997  136.4807  154.7135 C   0  0  0  0  0  0  0  0  0  0  0  0
  144.4544  135.6303  153.7436 N   0  0  0  0  0  0  0  0  0  0  0  0
  145.0367  135.9679  152.5564 C   0  0  0  0  0  0  0  0  0  0  0  0
  145.9053  137.0712  152.3336 C   0  0  0  0  0  0  0  0  0  0  0  0
  146.2995  137.0973  151.0020 N   0  0  0  0  0  0  0  0  0  0  0  0
  145.6914  136.0697  150.4717 C   0  0  0  0  0  0  0  0  0  0  0  0
  144.9058  135.3387  151.3384 N   0  0  0  0  0  0  0  0  0  0  0  0
  144.0746  134.1256  151.0725 C   0  0  2  0  0  0  0  0  0  0  0  0
  144.4698  133.1291  151.9715 O   0  0  0  0  0  0  0  0  0  0  0  0
  144.9981  131.9955  151.2828 C   0  0  2  0  0  0  0  0  0  0  0  0
  146.1496  131.3763  152.0899 C   0  0  0  0  0  0  0  0  0  0  0  0
  146.6558  130.2423  151.4195 O   0  0  0  0  0  0  0  0  0  0  0  0
  145.4369  132.5666  149.9343 C   0  0  1  0  0  0  0  0  0  0  0  0
  145.5292  131.5932  148.9122 O   0  0  0  0  0  0  0  0  0  0  0  0
  144.3666  133.6108  149.6576 C   0  0  1  0  0  0  0  0  0  0  0  0
  143.1983  133.0734  149.0644 O   0  0  0  0  0  0  0  0  0  0  0  0
  150.0370  139.7620  155.0754 C   0  0  0  0  0  0  0  0  0  0  0  0
  150.1659  138.5402  154.2268 C   0  0  0  0  0  0  0  0  0  0  0  0
  150.9683  139.8791  156.0627 O   0  0  0  0  0  0  0  0  0  0  0  0
  143.0479  134.4537  151.2403 H   0  0  0  0  0  0  0  0  0  0  0  0
  144.1928  131.2748  151.1264 H   0  0  0  0  0  0  0  0  0  0  0  0
  146.4030  133.0629  150.0415 H   0  0  0  0  0  0  0  0  0  0  0  0
  144.7348  134.4096  149.0120 H   0  0  0  0  0  0  0  0  0  0  0  0
  151.2616  142.2577  158.3823 H   0  0  0  0  0  0  0  0  0  0  0  0
  152.6255  141.5865  157.4864 H   0  0  0  0  0  0  0  0  0  0  0  0
  151.6746  140.5517  158.5558 H   0  0  0  0  0  0  0  0  0  0  0  0
  149.2161  142.6035  156.4713 H   0  0  0  0  0  0  0  0  0  0  0  0
  147.1033  142.6131  155.4871 H   0  0  0  0  0  0  0  0  0  0  0  0
  146.5891  142.7556  153.8116 H   0  0  0  0  0  0  0  0  0  0  0  0
  148.2001  143.2851  154.2870 H   0  0  0  0  0  0  0  0  0  0  0  0
  148.6962  140.2658  152.5825 H   0  0  0  0  0  0  0  0  0  0  0  0
  146.9038  139.6386  155.3143 H   0  0  0  0  0  0  0  0  0  0  0  0
  145.8798  140.5349  154.2151 H   0  0  0  0  0  0  0  0  0  0  0  0
  147.7103  139.0590  152.6644 H   0  0  0  0  0  0  0  0  0  0  0  0
  144.3750  136.2792  155.6858 H   0  0  0  0  0  0  0  0  0  0  0  0
  145.8009  135.8221  149.4263 H   0  0  0  0  0  0  0  0  0  0  0  0
  146.9676  132.0911  152.1843 H   0  0  0  0  0  0  0  0  0  0  0  0
  145.8338  131.1120  153.0992 H   0  0  0  0  0  0  0  0  0  0  0  0
  147.4707  130.4784  151.0034 H   0  0  0  0  0  0  0  0  0  0  0  0
  145.6059  132.0410  148.0830 H   0  0  0  0  0  0  0  0  0  0  0  0
  142.5376  133.7489  149.0401 H   0  0  0  0  0  0  0  0  0  0  0  0
  150.1303  138.7983  153.1686 H   0  0  0  0  0  0  0  0  0  0  0  0
  149.3567  137.8398  154.4331 H   0  0  0  0  0  0  0  0  0  0  0  0
  151.1101  138.0282  154.4129 H   0  0  0  0  0  0  0  0  0  0  0  0
  1  2  1  0  0  0  0
  1 35  1  0  0  0  0
  1 36  1  0  0  0  0
  1 37  1  0  0  0  0
  2 30  1  0  0  0  0
  2  3  2  0  0  0  0
  3  4  1  0  0  0  0
  3 38  1  0  0  0  0
  4  5  1  0  0  0  0
  4 28  2  0  0  0  0
  5  6  1  0  0  0  0
  5  7  1  0  0  0  0
  5  8  1  0  0  0  0
  6 39  1  0  0  0  0
  6 40  1  0  0  0  0
  6 41  1  0  0  0  0
  7 42  1  0  0  0  0
  8  9  1  0  0  0  0
  8 43  1  0  0  0  0
  8 44  1  0  0  0  0
  9 10  1  0  0  0  0
  9 45  1  0  0  0  0
 10 15  1  0  0  0  0
 10 11  2  0  0  0  0
 11 12  1  0  0  0  0
 12 13  2  0  0  0  0
 12 46  1  0  0  0  0
 13 14  1  0  0  0  0
 14 18  1  0  0  0  0
 14 15  2  0  0  0  0
 15 16  1  0  0  0  0
 16 17  2  0  0  0  0
 17 18  1  0  0  0  0
 17 47  1  0  0  0  0
 18 19  1  0  0  0  0
 19 31  1  0  0  0  0
 19 26  1  0  0  0  0
 19 20  1  0  0  0  0
 20 21  1  0  0  0  0
 21 32  1  0  0  0  0
 21 22  1  0  0  0  0
 21 24  1  0  0  0  0
 22 23  1  0  0  0  0
 22 48  1  0  0  0  0
 22 49  1  0  0  0  0
 23 50  1  0  0  0  0
 24 33  1  0  0  0  0
 24 25  1  0  0  0  0
 24 26  1  0  0  0  0
 25 51  1  0  0  0  0
 26 34  1  0  0  0  0
 26 27  1  0  0  0  0
 27 52  1  0  0  0  0
 28 29  1  0  0  0  0
 28 30  1  0  0  0  0
 29 53  1  0  0  0  0
 29 54  1  0  0  0  0
 29 55  1  0  0  0  0
M  END
> <s_m_source_file>
AV-unprocessed.smi

> <i_m_source_file_index>
287

> <i_lp_mmshare_version>
43012

> <i_f3d_flags>
0

> <s_epik_input>
W0NIM11jMVtjSF1jKGMobzEpW0NIM10pW0NAQF0oW0NIM10pKFtPSF0pW0NIMl1bTkhdYyhuW2NIXW4yKWMoYzIzKW5bY0hdbjNbQ0BASF00T1tDQEhdKFtDSDJdW09IXSlbQ0BASF0oW09IXSlbQ0BIXTRbT0hd

> <s_epik_cmdline>
J2VwaWtfcHl0aG9uJywgJy1waCcsICc3LjAnLCAnLXRuJywgJzgnLCAnLW1hJywgJzIwMCcsICctbWV0YWxfYmluZGluZycsICctaW1hZScsICc8aW5maWxlLm1hZT4nLCAnLW9tYWUnLCAnPG91dGZpbGUubWFlPic=

> <r_lp_tautomer_probability>
1

> <r_epik_Ionization_Penalty>
0.000992612

> <r_epik_Ionization_Penalty_Charging>
0

> <r_epik_Ionization_Penalty_Neutral>
0.000992612

> <r_epik_State_Penalty>
-0

> <r_epik_Charging_Adjusted_Penalty>
0

> <i_epik_Tot_Q>
0

> <i_epik_Tot_abs_Q>
0

> <r_epik_Metal_State_Penalty>
-0

> <b_epik_Metal_Only>
0

> <s_epik_Chemistry_Notes>
This compound contains an acetal/aminal-like group ( X-CH(R)-Y where X, Y are N, S, or O) that may be acid/base labile, releasing an aldehyde.

> <s_lp_Force_Field>
OPLS_2005

> <r_lp_Energy>
40.3349

> <b_lp_Chiralities_Consistent>
1

> <s_lp_Variant>
AV-unprocessed.smi:287-1

> <Gold.Version>
5.8.1

> <Gold.Id.Protein>
6NUR|6NUR_protein|mol2

> <Gold.PLP.Fitness>
51.8014

> <Gold.PLP.PLP>
-39.3094

> <Gold.PLP.part.hbond>
-4.6409

> <Gold.PLP.part.metal>
0.0000

> <Gold.PLP.part.buried>
1.4121

> <Gold.PLP.part.nonpolar>
-37.8468

> <Gold.PLP.part.repulsive>
2.4339

> <Gold.PLP.ligand.clash>
0.0000

> <Gold.PLP.ligand.torsion>
0.9621

> <Gold.PLP.Chemscore.Hbond>
3.7335

> <Gold.PLP.Chemscore.CHOScore>
1.0000

> <Gold.PLP.Chemscore.Metal>
0.0000

> <Gold.Chemscore.Hbonds>
donor molecule, donor type, donor heavy atom, donor atom, acceptor molecule, acceptor atom, score
      L1  H     7    42       P1  7957  0.40
      L1  H    23    50       P1 10747  1.00
      L1  H    27    52       P1 10186  1.00
      P1  H  7954  7966       L1    16  0.34
      P1  H  8011  8017       L1     7  0.93
      L1  C    17    47       P1  7921  1.00

> <Gold.PLP.Chemscore.Internal.Correction>
0.2157

> <Gold.Rescore>
     Score         DG    S(hbond)    S(metal)    S(lipo)     H(rot)  DE(clash)    DE(int)     intcor
     10.38     -15.60       3.65        0.00      97.68       5.27       3.46       1.77       ----

> <Gold.Chemscore.Fitness>
10.3796

> <Gold.Chemscore.DG>
-15.6036

> <Gold.Chemscore.ZeroCoef>
-5.4800

> <Gold.Chemscore.Hbond>
3.6463

> <Gold.Chemscore.Metal>
0.0000

> <Gold.Chemscore.Lipo>
97.6816

> <Gold.Chemscore.Internal_Hbond>
0.0000

> <Gold.Chemscore.DEClash>
3.4588

> <Gold.Chemscore.DEInternal>
1.7652

> <Gold.Chemscore.Rot>
5.2672

> <Gold.Chemscore.Internal.Correction>
   9.000000E+99

> <Gold.Chemscore.Hbonds>
donor molecule, donor type, donor heavy atom, donor atom, acceptor molecule, acceptor atom, score
      L1  H     7    42       P1  7957  0.40
      L1  H    23    50       P1 10747  1.00
      L1  H    27    52       P1 10186  0.96
      P1  H  7954  7966       L1    16  0.30
      P1  H  8011  8017       L1     7  0.39

> <Gold.Chemscore.Hbond.Weighted>
-12.1788

> <Gold.Chemscore.Metal.Weighted>
-0.0000

> <Gold.Chemscore.Lipo.Weighted>
-11.4287

> <Gold.Chemscore.Internal_Hbond.Weighted>
0.0000

> <Gold.Chemscore.DEClash.Weighted>
3.4588

> <Gold.Chemscore.DEInternal.Weighted>
1.7652

> <Gold.Chemscore.Rot.Weighted>
13.4839

> <Gold.Chemscore.Internal.Correction.Weighted>
   9.000000E+99

> <Gold.Protein.RotatedTorsions>
[ 6907 6896 6895 6894 ] final   89.77 input  -60.11 | X-H torsion
[ 7974 7965 7964 7962 ] final   -5.19 input  175.53 | X-H torsion
[ 8008 7997 7996 7995 ] final   57.58 input   59.86 | X-H torsion
[ 10167 10162 10161 10158 ] final   20.24 input  -65.29 | X-H torsion
[ 10718 10713 10712 10709 ] final  158.36 input   66.30 | X-H torsion
[ 10763 10752 10751 10750 ] final   86.82 input  -60.55 | X-H torsion
[ 11005 11000 10999 10996 ] final   49.50 input  -57.11 | X-H torsion

> <Gold.Protein.ActiveResidues>
 VAL166  LYS551  ARG553  GLY616  TRP617  ASP618  TYR619  PRO620  LYS621  CYS622 
 ASP623  PHE694  ASN695  SER759  ASP760  ASP761  ALA762  ILE779  LEU786  VAL792 
 PHE793  MET794  SER795  GLU796  ALA797  LYS798  CYS799  TRP800  GLU811  SER814 

> <Gold.Protein.RotatedAtoms>
  152.5439  134.1915  159.8675 H   0  0  0  0  0  0  0  0  0  0  0  0  # atno 6907 bound_to 6896
  151.1910  133.4660  159.2602 H   0  0  0  0  0  0  0  0  0  0  0  0  # atno 6908 bound_to 6896
  151.1083  135.0024  159.8537 H   0  0  0  0  0  0  0  0  0  0  0  0  # atno 6909 bound_to 6896
  146.2358  140.1984  142.8333 H   0  0  0  0  0  0  0  0  0  0  0  0  # atno 7974 bound_to 7965
  155.5361  140.3483  155.4436 H   0  0  0  0  0  0  0  0  0  0  0  0  # atno 8008 bound_to 7997
  156.0684  140.1357  156.9884 H   0  0  0  0  0  0  0  0  0  0  0  0  # atno 8009 bound_to 7997
  154.4515  140.0971  156.6607 H   0  0  0  0  0  0  0  0  0  0  0  0  # atno 8010 bound_to 7997
  140.5519  143.9494  150.6583 H   0  0  0  0  0  0  0  0  0  0  0  0  # atno 10167 bound_to 10162
  157.1790  131.0628  151.2142 H   0  0  0  0  0  0  0  0  0  0  0  0  # atno 10718 bound_to 10713
  153.1608  135.4566  154.9769 H   0  0  0  0  0  0  0  0  0  0  0  0  # atno 10763 bound_to 10752
  154.7896  135.3216  154.7811 H   0  0  0  0  0  0  0  0  0  0  0  0  # atno 10764 bound_to 10752
  153.8301  135.6939  153.4870 H   0  0  0  0  0  0  0  0  0  0  0  0  # atno 10765 bound_to 10752
  140.1098  134.4970  155.8688 H   0  0  0  0  0  0  0  0  0  0  0  0  # atno 11005 bound_to 11000
  144.9802  140.8452  143.5402 LP  0  0  0  0  0  0  0  0  0  0  0  0  # atno 17320 bound_to 7965
  145.1976  139.2268  143.5210 LP  0  0  0  0  0  0  0  0  0  0  0  0  # atno 17321 bound_to 7965
  140.2922  143.3316  152.1051 LP  0  0  0  0  0  0  0  0  0  0  0  0  # atno 17342 bound_to 10162
  139.5031  144.6748  151.6155 LP  0  0  0  0  0  0  0  0  0  0  0  0  # atno 17343 bound_to 10162
  157.3971  130.7313  149.6739 LP  0  0  0  0  0  0  0  0  0  0  0  0  # atno 17370 bound_to 10713
  155.9727  130.4131  150.4064 LP  0  0  0  0  0  0  0  0  0  0  0  0  # atno 17371 bound_to 10713
  141.2127  133.6723  156.6682 LP  0  0  0  0  0  0  0  0  0  0  0  0  # atno 17394 bound_to 11000
  140.3107  134.8088  157.4173 LP  0  0  0  0  0  0  0  0  0  0  0  0  # atno 17395 bound_to 11000

$$$$
