AV-unprocessed.smi:3317|AV-procd|sdf|12761|dock4
  -GOLD-   2272019103D 1   1.00000     0.00000
 Structure written by MMmdl.
 36 37  0  0  0  0  0  0  0  0  1 V2000
  145.3609  142.3960  154.7241 C   0  0  0  0  0  0  0  0  0  0  0  0
  146.6542  142.0714  155.2125 O   0  0  0  0  0  0  0  0  0  0  0  0
  147.3493  141.0498  154.5949 C   0  0  0  0  0  0  0  0  0  0  0  0
  146.7632  140.1510  153.6674 C   0  0  0  0  0  0  0  0  0  0  0  0
  147.5538  139.1427  153.0901 C   0  0  0  0  0  0  0  0  0  0  0  0
  148.9065  139.0661  153.4602 C   0  0  0  0  0  0  0  0  0  0  0  0
  149.4759  139.9120  154.3408 N   0  0  0  0  0  0  0  0  0  0  0  0
  148.7251  140.8904  154.9054 C   0  0  0  0  0  0  0  0  0  0  0  0
  149.2490  141.8204  155.8443 N   0  0  0  0  0  0  0  0  0  0  0  0
  150.1930  141.6282  156.7850 C   0  0  0  0  0  0  0  0  0  0  0  0
  150.7702  140.5613  156.9935 O   0  0  0  0  0  0  0  0  0  0  0  0
  150.5284  142.8423  157.6507 C   0  0  0  0  0  0  0  0  0  0  0  0
  151.4930  142.4681  158.6253 O   0  0  0  0  0  0  0  0  0  0  0  0
  152.4002  143.5061  158.9714 C   0  0  0  0  0  0  0  0  0  0  0  0
  153.1222  143.0871  160.2521 C   0  0  0  0  0  0  0  0  0  0  0  0
  152.1537  143.4272  161.3903 C   0  0  0  0  0  0  0  0  0  0  0  0
  151.2239  144.5240  160.8492 C   0  0  0  0  0  0  0  0  0  0  0  0
  151.6500  144.7735  159.3976 C   0  0  0  0  0  0  0  0  0  0  0  0
  144.9514  143.2181  155.3110 H   0  0  0  0  0  0  0  0  0  0  0  0
  144.6767  141.5515  154.8181 H   0  0  0  0  0  0  0  0  0  0  0  0
  145.3954  142.7204  153.6832 H   0  0  0  0  0  0  0  0  0  0  0  0
  145.7229  140.2142  153.3860 H   0  0  0  0  0  0  0  0  0  0  0  0
  147.1331  138.4451  152.3811 H   0  0  0  0  0  0  0  0  0  0  0  0
  149.5480  138.3061  153.0394 H   0  0  0  0  0  0  0  0  0  0  0  0
  148.8640  142.7522  155.7878 H   0  0  0  0  0  0  0  0  0  0  0  0
  150.9214  143.6328  157.0100 H   0  0  0  0  0  0  0  0  0  0  0  0
  149.6191  143.2164  158.1222 H   0  0  0  0  0  0  0  0  0  0  0  0
  153.1104  143.6888  158.1630 H   0  0  0  0  0  0  0  0  0  0  0  0
  153.4166  142.0370  160.2481 H   0  0  0  0  0  0  0  0  0  0  0  0
  154.0304  143.6809  160.3634 H   0  0  0  0  0  0  0  0  0  0  0  0
  151.5663  142.5473  161.6556 H   0  0  0  0  0  0  0  0  0  0  0  0
  152.6867  143.7461  162.2864 H   0  0  0  0  0  0  0  0  0  0  0  0
  150.1896  144.1794  160.8830 H   0  0  0  0  0  0  0  0  0  0  0  0
  151.2829  145.4372  161.4420 H   0  0  0  0  0  0  0  0  0  0  0  0
  152.3379  145.6194  159.3683 H   0  0  0  0  0  0  0  0  0  0  0  0
  150.8075  145.0234  158.7534 H   0  0  0  0  0  0  0  0  0  0  0  0
  1  2  1  0  0  0  0
  1 19  1  0  0  0  0
  1 20  1  0  0  0  0
  1 21  1  0  0  0  0
  2  3  1  0  0  0  0
  3  8  1  0  0  0  0
  3  4  2  0  0  0  0
  4  5  1  0  0  0  0
  4 22  1  0  0  0  0
  5  6  2  0  0  0  0
  5 23  1  0  0  0  0
  6  7  1  0  0  0  0
  6 24  1  0  0  0  0
  7  8  2  0  0  0  0
  8  9  1  0  0  0  0
  9 10  1  0  0  0  0
  9 25  1  0  0  0  0
 10 11  2  0  0  0  0
 10 12  1  0  0  0  0
 12 13  1  0  0  0  0
 12 26  1  0  0  0  0
 12 27  1  0  0  0  0
 13 14  1  0  0  0  0
 14 18  1  0  0  0  0
 14 15  1  0  0  0  0
 14 28  1  0  0  0  0
 15 16  1  0  0  0  0
 15 29  1  0  0  0  0
 15 30  1  0  0  0  0
 16 17  1  0  0  0  0
 16 31  1  0  0  0  0
 16 32  1  0  0  0  0
 17 18  1  0  0  0  0
 17 33  1  0  0  0  0
 17 34  1  0  0  0  0
 18 35  1  0  0  0  0
 18 36  1  0  0  0  0
M  END
> <s_m_source_file>
AV-unprocessed.smi

> <i_m_source_file_index>
3317

> <i_lp_mmshare_version>
43012

> <i_f3d_flags>
0

> <s_epik_input>
W0NIM11PYzFbY0hdW2NIXVtjSF1uYzFbTkhdQyg9TylbQ0gyXU9bQ0hdMltDSDJdW0NIMl1bQ0gyXVtDSDJdMg==

> <s_epik_cmdline>
J2VwaWtfcHl0aG9uJywgJy1waCcsICc3LjAnLCAnLXRuJywgJzgnLCAnLW1hJywgJzIwMCcsICctbWV0YWxfYmluZGluZycsICctaW1hZScsICc8aW5maWxlLm1hZT4nLCAnLW9tYWUnLCAnPG91dGZpbGUubWFlPic=

> <r_lp_tautomer_probability>
1

> <r_epik_Ionization_Penalty>
0.000545986

> <r_epik_Ionization_Penalty_Charging>
0

> <r_epik_Ionization_Penalty_Neutral>
0.000545986

> <r_epik_State_Penalty>
-0

> <r_epik_Charging_Adjusted_Penalty>
0

> <i_epik_Tot_Q>
0

> <i_epik_Tot_abs_Q>
0

> <r_epik_Metal_State_Penalty>
-0

> <b_epik_Metal_Only>
0

> <s_lp_Force_Field>
OPLS_2005

> <r_lp_Energy>
28.4297

> <b_lp_Chiralities_Consistent>
1

> <s_lp_Variant>
AV-unprocessed.smi:3317-1

> <Gold.Version>
5.8.1

> <Gold.Id.Protein>
6NUR|6NUR_protein|mol2

> <Gold.PLP.Fitness>
44.9295

> <Gold.PLP.PLP>
-40.1822

> <Gold.PLP.part.hbond>
-1.0000

> <Gold.PLP.part.metal>
0.0000

> <Gold.PLP.part.buried>
-3.6109

> <Gold.PLP.part.nonpolar>
-38.0833

> <Gold.PLP.part.repulsive>
1.8587

> <Gold.PLP.ligand.clash>
0.0000

> <Gold.PLP.ligand.torsion>
0.6451

> <Gold.PLP.Chemscore.Hbond>
1.0000

> <Gold.PLP.Chemscore.CHOScore>
1.0000

> <Gold.PLP.Chemscore.Metal>
0.0000

> <Gold.Chemscore.Hbonds>
donor molecule, donor type, donor heavy atom, donor atom, acceptor molecule, acceptor atom, score
      L1  H     9    25       P1  8028  1.00
      L1  C     6    24       P1  7948  1.00
      L1  C     6    24       P1  7957  0.02

> <Gold.PLP.Chemscore.Internal.Correction>
0.0375

> <Gold.Rescore>
     Score         DG    S(hbond)    S(metal)    S(lipo)     H(rot)  DE(clash)    DE(int)     intcor
     15.52     -16.16       0.99        0.00      98.29       1.61       0.15       0.48       ----

> <Gold.Chemscore.Fitness>
15.5235

> <Gold.Chemscore.DG>
-16.1561

> <Gold.Chemscore.ZeroCoef>
-5.4800

> <Gold.Chemscore.Hbond>
0.9893

> <Gold.Chemscore.Metal>
0.0000

> <Gold.Chemscore.Lipo>
98.2949

> <Gold.Chemscore.Internal_Hbond>
0.0000

> <Gold.Chemscore.DEClash>
0.1514

> <Gold.Chemscore.DEInternal>
0.4812

> <Gold.Chemscore.Rot>
1.6127

> <Gold.Chemscore.Internal.Correction>
   9.000000E+99

> <Gold.Chemscore.Hbonds>
donor molecule, donor type, donor heavy atom, donor atom, acceptor molecule, acceptor atom, score
      L1  H     9    25       P1  8028  0.97
      P1  H  7989  7998       L1     7  0.01

> <Gold.Chemscore.Hbond.Weighted>
-3.3041

> <Gold.Chemscore.Metal.Weighted>
-0.0000

> <Gold.Chemscore.Lipo.Weighted>
-11.5005

> <Gold.Chemscore.Internal_Hbond.Weighted>
0.0000

> <Gold.Chemscore.DEClash.Weighted>
0.1514

> <Gold.Chemscore.DEInternal.Weighted>
0.4812

> <Gold.Chemscore.Rot.Weighted>
4.1285

> <Gold.Chemscore.Internal.Correction.Weighted>
   9.000000E+99

> <Gold.Protein.RotatedTorsions>
[ 6907 6896 6895 6894 ] final  -77.14 input  -60.11 | X-H torsion
[ 7974 7965 7964 7962 ] final -105.28 input  175.53 | X-H torsion
[ 8008 7997 7996 7995 ] final   76.71 input   59.86 | X-H torsion
[ 10167 10162 10161 10158 ] final  150.07 input  -65.29 | X-H torsion
[ 10718 10713 10712 10709 ] final  -46.40 input   66.30 | X-H torsion
[ 10763 10752 10751 10750 ] final  -98.39 input  -60.55 | X-H torsion
[ 11005 11000 10999 10996 ] final  111.08 input  -57.11 | X-H torsion

> <Gold.Protein.ActiveResidues>
 VAL166  LYS551  ARG553  GLY616  TRP617  ASP618  TYR619  PRO620  LYS621  CYS622 
 ASP623  PHE694  ASN695  SER759  ASP760  ASP761  ALA762  ILE779  LEU786  VAL792 
 PHE793  MET794  SER795  GLU796  ALA797  LYS798  CYS799  TRP800  GLU811  SER814 

> <Gold.Protein.RotatedAtoms>
  150.7007  134.4468  159.5317 H   0  0  0  0  0  0  0  0  0  0  0  0  # atno 6907 bound_to 6896
  152.2167  134.8448  160.0500 H   0  0  0  0  0  0  0  0  0  0  0  0  # atno 6908 bound_to 6896
  151.9313  133.3577  159.3969 H   0  0  0  0  0  0  0  0  0  0  0  0  # atno 6909 bound_to 6896
  145.2325  140.9176  143.3196 H   0  0  0  0  0  0  0  0  0  0  0  0  # atno 7974 bound_to 7965
  155.8312  140.3466  155.5573 H   0  0  0  0  0  0  0  0  0  0  0  0  # atno 8008 bound_to 7997
  155.8240  140.0917  157.1852 H   0  0  0  0  0  0  0  0  0  0  0  0  # atno 8009 bound_to 7997
  154.4004  140.1425  156.3521 H   0  0  0  0  0  0  0  0  0  0  0  0  # atno 8010 bound_to 7997
  139.4854  144.5551  151.7332 H   0  0  0  0  0  0  0  0  0  0  0  0  # atno 10167 bound_to 10162
  156.2186  130.4165  149.9021 H   0  0  0  0  0  0  0  0  0  0  0  0  # atno 10718 bound_to 10713
  154.7410  135.5011  153.9123 H   0  0  0  0  0  0  0  0  0  0  0  0  # atno 10763 bound_to 10752
  153.1043  135.6693  153.9622 H   0  0  0  0  0  0  0  0  0  0  0  0  # atno 10764 bound_to 10752
  153.9399  135.3069  155.3422 H   0  0  0  0  0  0  0  0  0  0  0  0  # atno 10765 bound_to 10752
  139.8896  134.9499  156.6378 H   0  0  0  0  0  0  0  0  0  0  0  0  # atno 11005 bound_to 11000
  144.9663  139.3926  143.6331 LP  0  0  0  0  0  0  0  0  0  0  0  0  # atno 17320 bound_to 7965
  146.3349  139.8740  142.8835 LP  0  0  0  0  0  0  0  0  0  0  0  0  # atno 17321 bound_to 7965
  140.5111  144.1023  150.5995 LP  0  0  0  0  0  0  0  0  0  0  0  0  # atno 17342 bound_to 10162
  140.3949  143.2733  152.0016 LP  0  0  0  0  0  0  0  0  0  0  0  0  # atno 17343 bound_to 10162
  156.6675  130.8807  151.3557 LP  0  0  0  0  0  0  0  0  0  0  0  0  # atno 17370 bound_to 10713
  157.7076  130.9403  150.0982 LP  0  0  0  0  0  0  0  0  0  0  0  0  # atno 17371 bound_to 10713
  140.7617  133.8812  155.8423 LP  0  0  0  0  0  0  0  0  0  0  0  0  # atno 17394 bound_to 11000
  140.9916  134.1270  157.4402 LP  0  0  0  0  0  0  0  0  0  0  0  0  # atno 17395 bound_to 11000

$$$$
