AV-unprocessed.smi:1056|AV-procd|sdf|4647|dock7
  -GOLD-   22720 3153D 1   1.00000     0.00000
 Structure written by MMmdl.
 45 47  0  0  0  0  0  0  0  0  4 V2000
  152.3747  143.3517  160.4547 C   0  0  0  0  0  0  0  0  0  0  0  0
  152.0283  142.4600  159.2744 C   0  0  0  0  0  0  0  0  0  0  0  0
  151.1459  142.9580  158.2892 C   0  0  0  0  0  0  0  0  0  0  0  0
  150.8496  142.1197  157.2212 C   0  0  0  0  0  0  0  0  0  0  0  0
  150.0282  142.3103  156.1080 N   0  3  0  0  0  0  0  0  0  0  0  0
  150.0549  141.1953  155.3269 C   0  0  0  0  0  0  0  0  0  0  0  0
  150.8802  140.2946  155.9266 N   0  0  0  0  0  0  0  0  0  0  0  0
  151.2602  138.9385  155.5089 C   0  0  0  0  0  0  0  0  0  0  0  0
  150.0626  138.1039  155.0130 C   0  0  1  0  0  0  0  0  0  0  0  0
  149.7587  138.4810  153.6830 O   0  0  0  0  0  0  0  0  0  0  0  0
  150.3736  136.5940  155.0511 C   0  0  0  0  0  0  0  0  0  0  0  0
  149.2624  135.7670  154.5177 N   0  3  2  0  0  0  0  0  0  0  0  0
  147.9511  136.0441  155.1608 C   0  0  0  0  0  0  0  0  0  0  0  0
  146.8149  135.3919  154.3508 C   0  0  0  0  0  0  0  0  0  0  0  0
  147.1507  133.9984  154.0351 N   0  5  0  0  0  0  0  0  0  0  0  0
  148.4062  133.4518  153.9940 C   0  0  0  0  0  0  0  0  0  0  0  0
  148.6777  132.3179  153.6057 O   0  0  0  0  0  0  0  0  0  0  0  0
  149.5839  134.3127  154.5266 C   0  0  0  0  0  0  0  0  0  0  0  0
  151.3985  140.8273  157.1115 C   0  0  0  0  0  0  0  0  0  0  0  0
  152.2689  140.3203  158.0731 C   0  0  0  0  0  0  0  0  0  0  0  0
  152.5821  141.1576  159.1680 C   0  0  0  0  0  0  0  0  0  0  0  0
  153.5283  140.6326  160.2344 C   0  0  0  0  0  0  0  0  0  0  0  0
  151.8542  144.3083  160.3990 H   0  0  0  0  0  0  0  0  0  0  0  0
  153.4452  143.5562  160.4779 H   0  0  0  0  0  0  0  0  0  0  0  0
  152.0924  142.8736  161.3928 H   0  0  0  0  0  0  0  0  0  0  0  0
  150.7204  143.9483  158.3636 H   0  0  0  0  0  0  0  0  0  0  0  0
  149.5161  141.0502  154.4015 H   0  0  0  0  0  0  0  0  0  0  0  0
  152.0064  139.0376  154.7190 H   0  0  0  0  0  0  0  0  0  0  0  0
  151.7594  138.4485  156.3458 H   0  0  0  0  0  0  0  0  0  0  0  0
  149.1976  138.3329  155.6340 H   0  0  0  0  0  0  0  0  0  0  0  0
  149.4961  137.7133  153.1980 H   0  0  0  0  0  0  0  0  0  0  0  0
  151.2823  136.4112  154.4748 H   0  0  0  0  0  0  0  0  0  0  0  0
  150.5931  136.2722  156.0704 H   0  0  0  0  0  0  0  0  0  0  0  0
  147.9600  135.6604  156.1824 H   0  0  0  0  0  0  0  0  0  0  0  0
  147.7651  137.1149  155.2323 H   0  0  0  0  0  0  0  0  0  0  0  0
  145.8826  135.4715  154.9091 H   0  0  0  0  0  0  0  0  0  0  0  0
  146.6653  135.9685  153.4377 H   0  0  0  0  0  0  0  0  0  0  0  0
  150.4644  134.1292  153.9092 H   0  0  0  0  0  0  0  0  0  0  0  0
  149.8234  133.9907  155.5411 H   0  0  0  0  0  0  0  0  0  0  0  0
  152.6901  139.3293  157.9915 H   0  0  0  0  0  0  0  0  0  0  0  0
  153.8777  139.6270  159.9990 H   0  0  0  0  0  0  0  0  0  0  0  0
  153.0291  140.5934  161.2029 H   0  0  0  0  0  0  0  0  0  0  0  0
  154.4035  141.2770  160.3214 H   0  0  0  0  0  0  0  0  0  0  0  0
  149.1561  136.0121  153.5441 H   0  0  0  0  0  0  0  0  0  0  0  0
  149.4881  143.1392  155.8942 H   0  0  0  0  0  0  0  0  0  0  0  0
  1  2  1  0  0  0  0
  1 23  1  0  0  0  0
  1 24  1  0  0  0  0
  1 25  1  0  0  0  0
  2 21  1  0  0  0  0
  2  3  2  0  0  0  0
  3  4  1  0  0  0  0
  3 26  1  0  0  0  0
  4 19  2  0  0  0  0
  4  5  1  0  0  0  0
  5  6  2  0  0  0  0
  5 45  1  0  0  0  0
  6  7  1  0  0  0  0
  6 27  1  0  0  0  0
  7  8  1  0  0  0  0
  7 19  1  0  0  0  0
  8  9  1  0  0  0  0
  8 28  1  0  0  0  0
  8 29  1  0  0  0  0
  9 10  1  0  0  0  0
  9 11  1  0  0  0  0
  9 30  1  0  0  0  0
 10 31  1  0  0  0  0
 11 12  1  0  0  0  0
 11 32  1  0  0  0  0
 11 33  1  0  0  0  0
 12 18  1  0  0  0  0
 12 13  1  0  0  0  0
 12 44  1  0  0  0  0
 13 14  1  0  0  0  0
 13 34  1  0  0  0  0
 13 35  1  0  0  0  0
 14 15  1  0  0  0  0
 14 36  1  0  0  0  0
 14 37  1  0  0  0  0
 15 16  1  0  0  0  0
 16 17  2  0  0  0  0
 16 18  1  0  0  0  0
 18 38  1  0  0  0  0
 18 39  1  0  0  0  0
 19 20  1  0  0  0  0
 20 21  2  0  0  0  0
 20 40  1  0  0  0  0
 21 22  1  0  0  0  0
 22 41  1  0  0  0  0
 22 42  1  0  0  0  0
 22 43  1  0  0  0  0
M  CHG  1   5   1
M  CHG  1  12   1
M  CHG  1  15  -1
M  END
> <s_m_source_file>
AV-unprocessed.smi

> <i_m_source_file_index>
1056

> <i_lp_mmshare_version>
43012

> <i_f3d_flags>
0

> <s_epik_input>
W0NIM11jKFtjSF0xKWMoW0NIM10pW2NIXWMoYzEyKW4oW2NIXW4yKVtDSDJdW0NASF0oW09IXSlbQ0gyXU4zW0NIMl1bQ0gyXVtOSF1DKD1PKVtDSDJdMw==

> <s_epik_cmdline>
J2VwaWtfcHl0aG9uJywgJy1waCcsICc3LjAnLCAnLXRuJywgJzgnLCAnLW1hJywgJzIwMCcsICctbWV0YWxfYmluZGluZycsICctaW1hZScsICc8aW5maWxlLm1hZT4nLCAnLW9tYWUnLCAnPG91dGZpbGUubWFlPic=

> <r_epik_Ionization_Penalty>
6.22415

> <r_epik_Ionization_Penalty_Charging>
6.22415

> <r_epik_Ionization_Penalty_Neutral>
4.02797e-07

> <r_epik_State_Penalty>
6.37716

> <r_epik_Charging_Adjusted_Penalty>
12.6013

> <i_epik_Tot_Q>
1

> <i_epik_Tot_abs_Q>
3

> <r_epik_Metal_State_Penalty>
2.53509

> <b_epik_Metal_Only>
1

> <s_lp_Force_Field>
OPLS_2005

> <r_lp_Energy>
25.2777

> <b_lp_Chiralities_Consistent>
1

> <s_lp_Variant>
AV-unprocessed.smi:1056-18

> <Gold.Version>
5.8.1

> <Gold.Id.Protein>
6NUR|6NUR_protein|mol2

> <Gold.PLP.Fitness>
56.3352

> <Gold.PLP.PLP>
-42.1047

> <Gold.PLP.part.hbond>
-4.0000

> <Gold.PLP.part.metal>
0.0000

> <Gold.PLP.part.buried>
-5.3748

> <Gold.PLP.part.nonpolar>
-33.5812

> <Gold.PLP.part.repulsive>
0.3438

> <Gold.PLP.ligand.clash>
0.0000

> <Gold.PLP.ligand.torsion>
0.3999

> <Gold.PLP.Chemscore.Hbond>
5.0000

> <Gold.PLP.Chemscore.CHOScore>
0.0000

> <Gold.PLP.Chemscore.Metal>
0.0000

> <Gold.Chemscore.Hbonds>
donor molecule, donor type, donor heavy atom, donor atom, acceptor molecule, acceptor atom, score
      L1  H     5    45       P1  8028  2.00
      L1  H    10    31       P1  7948  0.99
      L1  H    12    44       P1  7948  2.00

> <Gold.PLP.Chemscore.Internal.Correction>
0.0304

> <Gold.Rescore>
     Score         DG    S(hbond)    S(metal)    S(lipo)     H(rot)  DE(clash)    DE(int)     intcor
     20.10     -20.55       2.96        0.00      96.24       2.37       0.12       0.34       ----

> <Gold.Chemscore.Fitness>
20.0970

> <Gold.Chemscore.DG>
-20.5512

> <Gold.Chemscore.ZeroCoef>
-5.4800

> <Gold.Chemscore.Hbond>
2.9595

> <Gold.Chemscore.Metal>
0.0000

> <Gold.Chemscore.Lipo>
96.2378

> <Gold.Chemscore.Internal_Hbond>
0.0000

> <Gold.Chemscore.DEClash>
0.1172

> <Gold.Chemscore.DEInternal>
0.3370

> <Gold.Chemscore.Rot>
2.3724

> <Gold.Chemscore.Internal.Correction>
   9.000000E+99

> <Gold.Chemscore.Hbonds>
donor molecule, donor type, donor heavy atom, donor atom, acceptor molecule, acceptor atom, score
      L1  H     5    45       P1  8028  1.00
      L1  H    10    31       P1  7948  0.84
      L1  H    12    44       P1  7948  0.88

> <Gold.Chemscore.Hbond.Weighted>
-9.8848

> <Gold.Chemscore.Metal.Weighted>
-0.0000

> <Gold.Chemscore.Lipo.Weighted>
-11.2598

> <Gold.Chemscore.Internal_Hbond.Weighted>
0.0000

> <Gold.Chemscore.DEClash.Weighted>
0.1172

> <Gold.Chemscore.DEInternal.Weighted>
0.3370

> <Gold.Chemscore.Rot.Weighted>
6.0734

> <Gold.Chemscore.Internal.Correction.Weighted>
   9.000000E+99

> <Gold.Protein.RotatedTorsions>
[ 6907 6896 6895 6894 ] final    4.82 input  -60.11 | X-H torsion
[ 7974 7965 7964 7962 ] final  156.41 input  175.53 | X-H torsion
[ 8008 7997 7996 7995 ] final   69.42 input   59.86 | X-H torsion
[ 10167 10162 10161 10158 ] final -137.25 input  -65.29 | X-H torsion
[ 10718 10713 10712 10709 ] final   69.19 input   66.30 | X-H torsion
[ 10763 10752 10751 10750 ] final  158.09 input  -60.55 | X-H torsion
[ 11005 11000 10999 10996 ] final -131.40 input  -57.11 | X-H torsion

> <Gold.Protein.ActiveResidues>
 VAL166  LYS551  ARG553  GLY616  TRP617  ASP618  TYR619  PRO620  LYS621  CYS622 
 ASP623  PHE694  ASN695  SER759  ASP760  ASP761  ALA762  ILE779  LEU786  VAL792 
 PHE793  MET794  SER795  GLU796  ALA797  LYS798  CYS799  TRP800  GLU811  SER814 

> <Gold.Protein.RotatedAtoms>
  151.6474  135.1005  160.0153 H   0  0  0  0  0  0  0  0  0  0  0  0  # atno 6907 bound_to 6896
  152.4020  133.6827  159.6333 H   0  0  0  0  0  0  0  0  0  0  0  0  # atno 6908 bound_to 6896
  150.7919  133.8692  159.3295 H   0  0  0  0  0  0  0  0  0  0  0  0  # atno 6909 bound_to 6896
  144.7965  139.7200  143.6200 H   0  0  0  0  0  0  0  0  0  0  0  0  # atno 7974 bound_to 7965
  155.7234  140.3493  155.5026 H   0  0  0  0  0  0  0  0  0  0  0  0  # atno 8008 bound_to 7997
  155.9249  140.1074  157.1199 H   0  0  0  0  0  0  0  0  0  0  0  0  # atno 8009 bound_to 7997
  154.4075  140.1242  156.4714 H   0  0  0  0  0  0  0  0  0  0  0  0  # atno 8010 bound_to 7997
  139.8596  143.7094  152.2651 H   0  0  0  0  0  0  0  0  0  0  0  0  # atno 10167 bound_to 10162
  157.6332  130.9413  150.0480 H   0  0  0  0  0  0  0  0  0  0  0  0  # atno 10718 bound_to 10713
  154.2106  135.2786  155.2959 H   0  0  0  0  0  0  0  0  0  0  0  0  # atno 10763 bound_to 10752
  154.5781  135.5598  153.7162 H   0  0  0  0  0  0  0  0  0  0  0  0  # atno 10764 bound_to 10752
  153.0065  135.6338  154.2245 H   0  0  0  0  0  0  0  0  0  0  0  0  # atno 10765 bound_to 10752
  140.9262  134.1380  157.4273 H   0  0  0  0  0  0  0  0  0  0  0  0  # atno 11005 bound_to 11000
  146.2234  139.5678  142.9603 LP  0  0  0  0  0  0  0  0  0  0  0  0  # atno 17320 bound_to 7965
  145.5661  141.0399  143.2200 LP  0  0  0  0  0  0  0  0  0  0  0  0  # atno 17321 bound_to 7965
  139.7386  144.7565  151.0688 LP  0  0  0  0  0  0  0  0  0  0  0  0  # atno 17342 bound_to 10162
  140.7777  143.5000  150.9784 LP  0  0  0  0  0  0  0  0  0  0  0  0  # atno 17343 bound_to 10162
  156.1551  130.3643  149.9381 LP  0  0  0  0  0  0  0  0  0  0  0  0  # atno 17370 bound_to 10713
  156.7392  130.9073  151.3631 LP  0  0  0  0  0  0  0  0  0  0  0  0  # atno 17371 bound_to 10713
  139.8786  134.9989  156.5925 LP  0  0  0  0  0  0  0  0  0  0  0  0  # atno 17394 bound_to 11000
  140.7923  133.8572  155.8656 LP  0  0  0  0  0  0  0  0  0  0  0  0  # atno 17395 bound_to 11000

$$$$
