AV-unprocessed.smi:2560|AV-procd|sdf|10038|dock9
  -GOLD-   2272014 83D 1   1.00000     0.00000
 Structure written by MMmdl.
 31 32  0  0  0  0  0  0  0  0  1 V2000
  149.8413  133.5748  154.9882 C   0  0  0  0  0  0  0  0  0  0  0  0
  150.8030  133.8889  156.4937 S   0  0  0  0  0  0  0  0  0  0  0  0
  151.1347  135.6210  156.5032 C   0  0  0  0  0  0  0  0  0  0  0  0
  151.3013  136.2940  155.3503 N   0  0  0  0  0  0  0  0  0  0  0  0
  151.6008  137.9180  155.7136 S   0  0  0  0  0  0  0  0  0  0  0  0
  151.4830  137.5904  157.4176 C   0  0  0  0  0  0  0  0  0  0  0  0
  151.6461  138.6042  158.4062 N   0  0  0  0  0  0  0  0  0  0  0  0
  152.2605  139.8057  158.3534 C   0  0  0  0  0  0  0  0  0  0  0  0
  152.8081  140.1945  157.3233 O   0  0  0  0  0  0  0  0  0  0  0  0
  152.2336  140.5335  159.4821 N   0  0  0  0  0  0  0  0  0  0  0  0
  152.8173  141.8567  159.6653 C   0  0  2  0  0  0  0  0  0  0  0  0
  152.7551  142.2230  161.1401 C   0  0  0  0  0  0  0  0  0  0  0  0
  152.3619  143.4236  161.5984 C   0  0  0  0  0  0  0  0  0  0  0  0
  151.9480  144.5691  160.6943 C   0  0  0  0  0  0  0  0  0  0  0  0
  152.3828  144.3394  159.2365 C   0  0  0  0  0  0  0  0  0  0  0  0
  152.0974  142.9008  158.7793 C   0  0  0  0  0  0  0  0  0  0  0  0
  151.2281  136.3043  157.6574 N   0  0  0  0  0  0  0  0  0  0  0  0
  149.5950  132.5159  154.9132 H   0  0  0  0  0  0  0  0  0  0  0  0
  150.4121  133.8606  154.1044 H   0  0  0  0  0  0  0  0  0  0  0  0
  148.9126  134.1457  155.0020 H   0  0  0  0  0  0  0  0  0  0  0  0
  151.2298  138.3864  159.3000 H   0  0  0  0  0  0  0  0  0  0  0  0
  151.7606  140.1348  160.2807 H   0  0  0  0  0  0  0  0  0  0  0  0
  153.8750  141.8203  159.3994 H   0  0  0  0  0  0  0  0  0  0  0  0
  153.0437  141.4561  161.8443 H   0  0  0  0  0  0  0  0  0  0  0  0
  152.3197  143.6040  162.6624 H   0  0  0  0  0  0  0  0  0  0  0  0
  150.8643  144.6736  160.7542 H   0  0  0  0  0  0  0  0  0  0  0  0
  152.3794  145.4977  161.0686 H   0  0  0  0  0  0  0  0  0  0  0  0
  151.8803  145.0519  158.5821 H   0  0  0  0  0  0  0  0  0  0  0  0
  153.4517  144.5358  159.1423 H   0  0  0  0  0  0  0  0  0  0  0  0
  152.3917  142.7745  157.7369 H   0  0  0  0  0  0  0  0  0  0  0  0
  151.0196  142.7341  158.8149 H   0  0  0  0  0  0  0  0  0  0  0  0
  1  2  1  0  0  0  0
  1 18  1  0  0  0  0
  1 19  1  0  0  0  0
  1 20  1  0  0  0  0
  2  3  1  0  0  0  0
  3 17  1  0  0  0  0
  3  4  2  0  0  0  0
  4  5  1  0  0  0  0
  5  6  1  0  0  0  0
  6  7  1  0  0  0  0
  6 17  2  0  0  0  0
  7  8  1  0  0  0  0
  7 21  1  0  0  0  0
  8  9  2  0  0  0  0
  8 10  1  0  0  0  0
 10 11  1  0  0  0  0
 10 22  1  0  0  0  0
 11 16  1  0  0  0  0
 11 12  1  0  0  0  0
 11 23  1  0  0  0  0
 12 13  2  0  0  0  0
 12 24  1  0  0  0  0
 13 14  1  0  0  0  0
 13 25  1  0  0  0  0
 14 15  1  0  0  0  0
 14 26  1  0  0  0  0
 14 27  1  0  0  0  0
 15 16  1  0  0  0  0
 15 28  1  0  0  0  0
 15 29  1  0  0  0  0
 16 30  1  0  0  0  0
 16 31  1  0  0  0  0
M  END
> <s_m_source_file>
AV-unprocessed.smi

> <i_m_source_file_index>
2560

> <i_lp_mmshare_version>
43012

> <i_f3d_flags>
0

> <s_epik_input>
W0NIM11TYzFuc2MobjEpW05IXUMoPU8pW05IXVtDQEBIXTJbQ0hdPVtDSF1bQ0gyXVtDSDJdW0NIMl0y

> <s_epik_cmdline>
J2VwaWtfcHl0aG9uJywgJy1waCcsICc3LjAnLCAnLXRuJywgJzgnLCAnLW1hJywgJzIwMCcsICctbWV0YWxfYmluZGluZycsICctaW1hZScsICc8aW5maWxlLm1hZT4nLCAnLW9tYWUnLCAnPG91dGZpbGUubWFlPic=

> <r_lp_tautomer_probability>
1

> <r_epik_Ionization_Penalty>
2.65559e-05

> <r_epik_Ionization_Penalty_Charging>
0

> <r_epik_Ionization_Penalty_Neutral>
2.65559e-05

> <r_epik_State_Penalty>
-0

> <r_epik_Charging_Adjusted_Penalty>
0

> <i_epik_Tot_Q>
0

> <i_epik_Tot_abs_Q>
0

> <r_epik_Metal_State_Penalty>
-0

> <b_epik_Metal_Only>
0

> <s_lp_Force_Field>
OPLS_2005

> <r_lp_Energy>
8.21818

> <b_lp_Chiralities_Consistent>
1

> <s_lp_Variant>
AV-unprocessed.smi:2560-1

> <Gold.Version>
5.8.1

> <Gold.Id.Protein>
6NUR|6NUR_protein|mol2

> <Gold.PLP.Fitness>
38.7647

> <Gold.PLP.PLP>
-33.8022

> <Gold.PLP.part.hbond>
-2.6641

> <Gold.PLP.part.metal>
0.0000

> <Gold.PLP.part.buried>
-2.6476

> <Gold.PLP.part.nonpolar>
-28.1372

> <Gold.PLP.part.repulsive>
0.3226

> <Gold.PLP.ligand.clash>
0.0000

> <Gold.PLP.ligand.torsion>
0.5220

> <Gold.PLP.Chemscore.Hbond>
2.0000

> <Gold.PLP.Chemscore.CHOScore>
0.0000

> <Gold.PLP.Chemscore.Metal>
0.0000

> <Gold.Chemscore.Hbonds>
donor molecule, donor type, donor heavy atom, donor atom, acceptor molecule, acceptor atom, score
      P1  H  7997  8010       L1     9  1.00
      P1  H 10752 10765       L1     4  0.95

> <Gold.PLP.Chemscore.Internal.Correction>
0.0065

> <Gold.Rescore>
     Score         DG    S(hbond)    S(metal)    S(lipo)     H(rot)  DE(clash)    DE(int)     intcor
     16.92     -18.34       1.86        0.00      84.11       1.25       0.06       1.36       ----

> <Gold.Chemscore.Fitness>
16.9231

> <Gold.Chemscore.DG>
-18.3354

> <Gold.Chemscore.ZeroCoef>
-5.4800

> <Gold.Chemscore.Hbond>
1.8625

> <Gold.Chemscore.Metal>
0.0000

> <Gold.Chemscore.Lipo>
84.1084

> <Gold.Chemscore.Internal_Hbond>
0.0000

> <Gold.Chemscore.DEClash>
0.0571

> <Gold.Chemscore.DEInternal>
1.3552

> <Gold.Chemscore.Rot>
1.2524

> <Gold.Chemscore.Internal.Correction>
   9.000000E+99

> <Gold.Chemscore.Hbonds>
donor molecule, donor type, donor heavy atom, donor atom, acceptor molecule, acceptor atom, score
      P1  H  7997  8010       L1     9  0.95
      P1  H 10752 10765       L1     4  0.12

> <Gold.Chemscore.Hbond.Weighted>
-6.2209

> <Gold.Chemscore.Metal.Weighted>
-0.0000

> <Gold.Chemscore.Lipo.Weighted>
-9.8407

> <Gold.Chemscore.Internal_Hbond.Weighted>
0.0000

> <Gold.Chemscore.DEClash.Weighted>
0.0571

> <Gold.Chemscore.DEInternal.Weighted>
1.3552

> <Gold.Chemscore.Rot.Weighted>
3.2062

> <Gold.Chemscore.Internal.Correction.Weighted>
   9.000000E+99

> <Gold.Protein.RotatedTorsions>
[ 6907 6896 6895 6894 ] final -176.85 input  -60.11 | X-H torsion
[ 7974 7965 7964 7962 ] final -102.58 input  175.53 | X-H torsion
[ 8008 7997 7996 7995 ] final   58.49 input   59.86 | X-H torsion
[ 10167 10162 10161 10158 ] final -129.97 input  -65.29 | X-H torsion
[ 10718 10713 10712 10709 ] final   53.40 input   66.30 | X-H torsion
[ 10763 10752 10751 10750 ] final -167.62 input  -60.55 | X-H torsion
[ 11005 11000 10999 10996 ] final   10.35 input  -57.11 | X-H torsion

> <Gold.Protein.ActiveResidues>
 VAL166  LYS551  ARG553  GLY616  TRP617  ASP618  TYR619  PRO620  LYS621  CYS622 
 ASP623  PHE694  ASN695  SER759  ASP760  ASP761  ALA762  ILE779  LEU786  VAL792 
 PHE793  MET794  SER795  GLU796  ALA797  LYS798  CYS799  TRP800  GLU811  SER814 

> <Gold.Protein.RotatedAtoms>
  151.6115  133.3347  159.3068 H   0  0  0  0  0  0  0  0  0  0  0  0  # atno 6907 bound_to 6896
  150.8154  134.7336  159.6737 H   0  0  0  0  0  0  0  0  0  0  0  0  # atno 6908 bound_to 6896
  152.4250  134.5890  160.0020 H   0  0  0  0  0  0  0  0  0  0  0  0  # atno 6909 bound_to 6896
  145.2669  140.9287  143.3008 H   0  0  0  0  0  0  0  0  0  0  0  0  # atno 7974 bound_to 7965
  155.5509  140.3486  155.4468 H   0  0  0  0  0  0  0  0  0  0  0  0  # atno 8008 bound_to 7997
  156.0584  140.1334  156.9996 H   0  0  0  0  0  0  0  0  0  0  0  0  # atno 8009 bound_to 7997
  154.4467  140.0990  156.6465 H   0  0  0  0  0  0  0  0  0  0  0  0  # atno 8010 bound_to 7997
  139.9342  143.6237  152.2521 H   0  0  0  0  0  0  0  0  0  0  0  0  # atno 10167 bound_to 10162
  157.5163  130.8535  149.8500 H   0  0  0  0  0  0  0  0  0  0  0  0  # atno 10718 bound_to 10713
  154.6713  135.2939  154.9738 H   0  0  0  0  0  0  0  0  0  0  0  0  # atno 10763 bound_to 10752
  154.0765  135.6610  153.4835 H   0  0  0  0  0  0  0  0  0  0  0  0  # atno 10764 bound_to 10752
  153.0488  135.5187  154.7710 H   0  0  0  0  0  0  0  0  0  0  0  0  # atno 10765 bound_to 10752
  140.5154  134.0611  155.7830 H   0  0  0  0  0  0  0  0  0  0  0  0  # atno 11005 bound_to 11000
  144.9369  139.4234  143.6468 LP  0  0  0  0  0  0  0  0  0  0  0  0  # atno 17320 bound_to 7965
  146.3258  139.8309  142.8908 LP  0  0  0  0  0  0  0  0  0  0  0  0  # atno 17321 bound_to 7965
  139.6757  144.7658  151.1700 LP  0  0  0  0  0  0  0  0  0  0  0  0  # atno 17342 bound_to 10162
  140.7629  143.5798  150.8907 LP  0  0  0  0  0  0  0  0  0  0  0  0  # atno 17343 bound_to 10162
  156.0323  130.3761  150.1655 LP  0  0  0  0  0  0  0  0  0  0  0  0  # atno 17370 bound_to 10713
  156.9844  130.9874  151.3430 LP  0  0  0  0  0  0  0  0  0  0  0  0  # atno 17371 bound_to 10713
  141.1363  133.9216  157.2426 LP  0  0  0  0  0  0  0  0  0  0  0  0  # atno 17394 bound_to 11000
  139.9635  135.0148  156.9325 LP  0  0  0  0  0  0  0  0  0  0  0  0  # atno 17395 bound_to 11000

$$$$
