AV-unprocessed.smi:103|AV-procd|sdf|983|dock9
  -GOLD-   2262017553D 1   1.00000     0.00000
 Structure written by MMmdl.
 53 55  0  0  0  0  0  0  0  0  1 V2000
  155.8588  138.0617  160.0344 C   0  0  0  0  0  0  0  0  0  0  0  0
  154.6928  138.3287  159.0917 C   0  0  0  0  0  0  0  0  0  0  0  0
  154.3709  139.4735  158.7735 O   0  0  0  0  0  0  0  0  0  0  0  0
  154.0998  137.1983  158.6825 O   0  0  0  0  0  0  0  0  0  0  0  0
  152.9875  137.2615  157.8051 C   0  0  0  0  0  0  0  0  0  0  0  0
  151.7899  137.8670  158.5462 C   0  0  2  0  0  0  0  0  0  0  0  0
  151.0407  136.8351  159.1680 O   0  0  0  0  0  0  0  0  0  0  0  0
  149.7249  137.2547  159.3460 C   0  0  2  0  0  0  0  0  0  0  0  0
  148.8310  136.0920  159.0250 N   0  0  0  0  0  0  0  0  0  0  0  0
  147.8551  135.4859  159.7914 C   0  0  0  0  0  0  0  0  0  0  0  0
  147.3488  135.9587  161.4418 S   0  0  0  0  0  0  0  0  0  0  0  0
  147.2472  134.3325  162.2952 C   0  0  0  0  0  0  0  0  0  0  0  0
  148.4535  136.7374  162.0235 O   0  0  0  0  0  0  0  0  0  0  0  0
  146.0020  136.5396  161.3334 O   0  0  0  0  0  0  0  0  0  0  0  0
  147.1864  134.5157  159.2290 N   0  0  0  0  0  0  0  0  0  0  0  0
  147.7643  134.4218  157.9712 C   0  0  0  0  0  0  0  0  0  0  0  0
  147.5418  133.5911  156.8443 C   0  0  0  0  0  0  0  0  0  0  0  0
  146.6135  132.6245  156.8197 N   0  0  0  0  0  0  0  0  0  0  0  0
  148.2994  133.7835  155.7394 N   0  0  0  0  0  0  0  0  0  0  0  0
  149.2299  134.7435  155.7373 C   0  0  0  0  0  0  0  0  0  0  0  0
  149.5529  135.5957  156.7135 N   0  0  0  0  0  0  0  0  0  0  0  0
  148.7918  135.3980  157.8304 C   0  0  0  0  0  0  0  0  0  0  0  0
  149.4798  138.4653  158.4191 C   0  0  2  0  0  0  0  0  0  0  0  0
  148.3677  138.2698  157.5501 O   0  0  0  0  0  0  0  0  0  0  0  0
  147.1272  138.1532  158.0466 C   0  0  0  0  0  0  0  0  0  0  0  0
  146.0798  138.0068  156.9515 C   0  0  0  0  0  0  0  0  0  0  0  0
  146.8189  138.1560  159.2382 O   0  0  0  0  0  0  0  0  0  0  0  0
  150.7794  138.5645  157.6348 C   0  0  1  0  0  0  0  0  0  0  0  0
  151.1140  139.9348  157.4502 O   0  0  0  0  0  0  0  0  0  0  0  0
  150.8898  140.5414  156.2717 C   0  0  0  0  0  0  0  0  0  0  0  0
  150.6157  142.0305  156.4305 C   0  0  0  0  0  0  0  0  0  0  0  0
  150.9018  140.0062  155.1634 O   0  0  0  0  0  0  0  0  0  0  0  0
  156.7251  137.7113  159.4733 H   0  0  0  0  0  0  0  0  0  0  0  0
  155.5890  137.3010  160.7674 H   0  0  0  0  0  0  0  0  0  0  0  0
  156.1356  138.9713  160.5676 H   0  0  0  0  0  0  0  0  0  0  0  0
  153.2195  137.8572  156.9207 H   0  0  0  0  0  0  0  0  0  0  0  0
  152.7489  136.2525  157.4667 H   0  0  0  0  0  0  0  0  0  0  0  0
  152.1257  138.5451  159.3331 H   0  0  0  0  0  0  0  0  0  0  0  0
  149.5504  137.4910  160.3919 H   0  0  0  0  0  0  0  0  0  0  0  0
  146.9927  134.4894  163.3430 H   0  0  0  0  0  0  0  0  0  0  0  0
  148.2097  133.8257  162.2272 H   0  0  0  0  0  0  0  0  0  0  0  0
  146.4802  133.7174  161.8275 H   0  0  0  0  0  0  0  0  0  0  0  0
  146.0339  132.4625  157.6307 H   0  0  0  0  0  0  0  0  0  0  0  0
  146.5002  132.0552  155.9936 H   0  0  0  0  0  0  0  0  0  0  0  0
  149.7967  134.8433  154.8232 H   0  0  0  0  0  0  0  0  0  0  0  0
  149.3451  139.3368  159.0624 H   0  0  0  0  0  0  0  0  0  0  0  0
  146.2909  137.1285  156.3414 H   0  0  0  0  0  0  0  0  0  0  0  0
  146.0821  138.8858  156.3068 H   0  0  0  0  0  0  0  0  0  0  0  0
  145.0850  137.8976  157.3840 H   0  0  0  0  0  0  0  0  0  0  0  0
  150.6809  138.0116  156.6990 H   0  0  0  0  0  0  0  0  0  0  0  0
  149.9527  142.2082  157.2773 H   0  0  0  0  0  0  0  0  0  0  0  0
  150.1430  142.4299  155.5332 H   0  0  0  0  0  0  0  0  0  0  0  0
  151.5482  142.5692  156.5997 H   0  0  0  0  0  0  0  0  0  0  0  0
  1  2  1  0  0  0  0
  1 33  1  0  0  0  0
  1 34  1  0  0  0  0
  1 35  1  0  0  0  0
  2  3  2  0  0  0  0
  2  4  1  0  0  0  0
  4  5  1  0  0  0  0
  5  6  1  0  0  0  0
  5 36  1  0  0  0  0
  5 37  1  0  0  0  0
  6 28  1  0  0  0  0
  6  7  1  0  0  0  0
  6 38  1  0  0  0  0
  7  8  1  0  0  0  0
  8  9  1  0  0  0  0
  8 23  1  0  0  0  0
  8 39  1  0  0  0  0
  9 22  1  0  0  0  0
  9 10  1  0  0  0  0
 10 11  1  0  0  0  0
 10 15  2  0  0  0  0
 11 12  1  0  0  0  0
 11 13  2  0  0  0  0
 11 14  2  0  0  0  0
 12 40  1  0  0  0  0
 12 41  1  0  0  0  0
 12 42  1  0  0  0  0
 15 16  1  0  0  0  0
 16 22  2  0  0  0  0
 16 17  1  0  0  0  0
 17 18  1  0  0  0  0
 17 19  2  0  0  0  0
 18 43  1  0  0  0  0
 18 44  1  0  0  0  0
 19 20  1  0  0  0  0
 20 21  2  0  0  0  0
 20 45  1  0  0  0  0
 21 22  1  0  0  0  0
 23 24  1  0  0  0  0
 23 28  1  0  0  0  0
 23 46  1  0  0  0  0
 24 25  1  0  0  0  0
 25 26  1  0  0  0  0
 25 27  2  0  0  0  0
 26 47  1  0  0  0  0
 26 48  1  0  0  0  0
 26 49  1  0  0  0  0
 28 29  1  0  0  0  0
 28 50  1  0  0  0  0
 29 30  1  0  0  0  0
 30 31  1  0  0  0  0
 30 32  2  0  0  0  0
 31 51  1  0  0  0  0
 31 52  1  0  0  0  0
 31 53  1  0  0  0  0
M  END
> <s_m_source_file>
AV-unprocessed.smi

> <i_m_source_file_index>
103

> <i_lp_mmshare_version>
43012

> <i_f3d_flags>
0

> <s_epik_input>
W0NIM11DKD1PKU9bQ0gyXVtDQEBIXTFPW0NASF0oW0NAQEhdKE9DKD1PKVtDSDNdKVtDQEhdMU9DKD1PKVtDSDNdKW4oYyhuMilTKD1PKSg9TylbQ0gzXSljKGMyMyluW2NIXW5jM1tOSDJd

> <s_epik_cmdline>
J2VwaWtfcHl0aG9uJywgJy1waCcsICc3LjAnLCAnLXRuJywgJzgnLCAnLW1hJywgJzIwMCcsICctbWV0YWxfYmluZGluZycsICctaW1hZScsICc8aW5maWxlLm1hZT4nLCAnLW9tYWUnLCAnPG91dGZpbGUubWFlPic=

> <r_lp_tautomer_probability>
1

> <r_epik_Ionization_Penalty>
1.51338e-05

> <r_epik_Ionization_Penalty_Charging>
0

> <r_epik_Ionization_Penalty_Neutral>
1.51338e-05

> <r_epik_State_Penalty>
-0

> <r_epik_Charging_Adjusted_Penalty>
0

> <i_epik_Tot_Q>
0

> <i_epik_Tot_abs_Q>
0

> <r_epik_Metal_State_Penalty>
-0

> <b_epik_Metal_Only>
0

> <s_epik_Chemistry_Notes>
This compound has an ester and may undergo hydrolysis at high or low pH. This compound contains an acetal/aminal-like group ( X-CH(R)-Y where X, Y are N, S, or O) that may be acid/base labile, releasing an aldehyde.

> <s_lp_Force_Field>
OPLS_2005

> <r_lp_Energy>
14.5233

> <b_lp_Chiralities_Consistent>
1

> <s_lp_Variant>
AV-unprocessed.smi:103-7

> <Gold.Version>
5.8.1

> <Gold.Id.Protein>
6NUR|6NUR_protein|mol2

> <Gold.PLP.Fitness>
42.3131

> <Gold.PLP.PLP>
-31.2754

> <Gold.PLP.part.hbond>
-4.9919

> <Gold.PLP.part.metal>
0.0000

> <Gold.PLP.part.buried>
-6.6283

> <Gold.PLP.part.nonpolar>
-21.0107

> <Gold.PLP.part.repulsive>
0.0524

> <Gold.PLP.ligand.clash>
0.0000

> <Gold.PLP.ligand.torsion>
2.4233

> <Gold.PLP.Chemscore.Hbond>
4.5193

> <Gold.PLP.Chemscore.CHOScore>
0.0000

> <Gold.PLP.Chemscore.Metal>
0.0000

> <Gold.Chemscore.Hbonds>
donor molecule, donor type, donor heavy atom, donor atom, acceptor molecule, acceptor atom, score
      P1  H  6896  6908       L1     7  1.00
      P1  H  6931  6943       L1    13  1.00
      P1  H  6934  6947       L1    27  0.56
      P1  H  7989  7998       L1    32  1.00
      P1  H  7997  8008       L1     3  1.00

> <Gold.PLP.Chemscore.Internal.Correction>
2.3266

> <Gold.Rescore>
     Score         DG    S(hbond)    S(metal)    S(lipo)     H(rot)  DE(clash)    DE(int)     intcor
      5.93     -12.99       4.24        0.00      36.01       4.25       0.00       7.07       ----

> <Gold.Chemscore.Fitness>
5.9257

> <Gold.Chemscore.DG>
-12.9918

> <Gold.Chemscore.ZeroCoef>
-5.4800

> <Gold.Chemscore.Hbond>
4.2419

> <Gold.Chemscore.Metal>
0.0000

> <Gold.Chemscore.Lipo>
36.0051

> <Gold.Chemscore.Internal_Hbond>
0.0000

> <Gold.Chemscore.DEClash>
0.0000

> <Gold.Chemscore.DEInternal>
7.0661

> <Gold.Chemscore.Rot>
4.2456

> <Gold.Chemscore.Internal.Correction>
   9.000000E+99

> <Gold.Chemscore.Hbonds>
donor molecule, donor type, donor heavy atom, donor atom, acceptor molecule, acceptor atom, score
      P1  H  6896  6908       L1     7  0.81
      P1  H  6931  6943       L1    13  0.99
      P1  H  6934  6947       L1    27  0.56
      P1  H  7989  7998       L1    32  0.95
      P1  H  7997  8008       L1     3  0.88

> <Gold.Chemscore.Hbond.Weighted>
-14.1679

> <Gold.Chemscore.Metal.Weighted>
-0.0000

> <Gold.Chemscore.Lipo.Weighted>
-4.2126

> <Gold.Chemscore.Internal_Hbond.Weighted>
0.0000

> <Gold.Chemscore.DEClash.Weighted>
0.0000

> <Gold.Chemscore.DEInternal.Weighted>
7.0661

> <Gold.Chemscore.Rot.Weighted>
10.8687

> <Gold.Chemscore.Internal.Correction.Weighted>
   9.000000E+99

> <Gold.Protein.RotatedTorsions>
[ 6907 6896 6895 6894 ] final -132.98 input  -60.11 | X-H torsion
[ 7974 7965 7964 7962 ] final  -84.61 input  175.53 | X-H torsion
[ 8008 7997 7996 7995 ] final -118.78 input   59.86 | X-H torsion
[ 10167 10162 10161 10158 ] final   28.52 input  -65.29 | X-H torsion
[ 10718 10713 10712 10709 ] final   55.89 input   66.30 | X-H torsion
[ 10763 10752 10751 10750 ] final   -0.12 input  -60.55 | X-H torsion
[ 11005 11000 10999 10996 ] final  -22.01 input  -57.11 | X-H torsion

> <Gold.Protein.ActiveResidues>
 VAL166  LYS551  ARG553  GLY616  TRP617  ASP618  TYR619  PRO620  LYS621  CYS622 
 ASP623  PHE694  ASN695  SER759  ASP760  ASP761  ALA762  ILE779  LEU786  VAL792 
 PHE793  MET794  SER795  GLU796  ALA797  LYS798  CYS799  TRP800  GLU811  SER814 

> <Gold.Protein.RotatedAtoms>
  150.9687  133.6367  159.2741 H   0  0  0  0  0  0  0  0  0  0  0  0  # atno 6907 bound_to 6896
  151.3664  135.0913  159.9461 H   0  0  0  0  0  0  0  0  0  0  0  0  # atno 6908 bound_to 6896
  152.5175  133.9250  159.7607 H   0  0  0  0  0  0  0  0  0  0  0  0  # atno 6909 bound_to 6896
  145.5044  140.9545  143.1742 H   0  0  0  0  0  0  0  0  0  0  0  0  # atno 7974 bound_to 7965
  155.1051  140.0396  157.2708 H   0  0  0  0  0  0  0  0  0  0  0  0  # atno 8008 bound_to 7997
  154.6728  140.2616  155.6964 H   0  0  0  0  0  0  0  0  0  0  0  0  # atno 8009 bound_to 7997
  156.2665  140.2794  156.1243 H   0  0  0  0  0  0  0  0  0  0  0  0  # atno 8010 bound_to 7997
  140.4846  144.0563  150.6276 H   0  0  0  0  0  0  0  0  0  0  0  0  # atno 10167 bound_to 10162
  157.5384  130.8679  149.8786 H   0  0  0  0  0  0  0  0  0  0  0  0  # atno 10718 bound_to 10713
  153.3278  135.6973  153.6974 H   0  0  0  0  0  0  0  0  0  0  0  0  # atno 10763 bound_to 10752
  153.5789  135.3502  155.2868 H   0  0  0  0  0  0  0  0  0  0  0  0  # atno 10764 bound_to 10752
  154.8611  135.4290  154.2459 H   0  0  0  0  0  0  0  0  0  0  0  0  # atno 10765 bound_to 10752
  140.8616  133.7784  156.0081 H   0  0  0  0  0  0  0  0  0  0  0  0  # atno 11005 bound_to 11000
  144.7762  139.6625  143.7174 LP  0  0  0  0  0  0  0  0  0  0  0  0  # atno 17320 bound_to 7965
  146.2206  139.5629  142.9621 LP  0  0  0  0  0  0  0  0  0  0  0  0  # atno 17321 bound_to 7965
  140.3815  143.2800  152.0165 LP  0  0  0  0  0  0  0  0  0  0  0  0  # atno 17342 bound_to 10162
  139.4839  144.6151  151.7361 LP  0  0  0  0  0  0  0  0  0  0  0  0  # atno 17343 bound_to 10162
  156.0477  130.3724  150.1278 LP  0  0  0  0  0  0  0  0  0  0  0  0  # atno 17370 bound_to 10713
  156.9459  130.9759  151.3507 LP  0  0  0  0  0  0  0  0  0  0  0  0  # atno 17371 bound_to 10713
  140.8676  134.2765  157.5206 LP  0  0  0  0  0  0  0  0  0  0  0  0  # atno 17394 bound_to 11000
  139.8707  134.9550  156.4195 LP  0  0  0  0  0  0  0  0  0  0  0  0  # atno 17395 bound_to 11000

$$$$
