#       Name:                AV-unprocessed.smi:198
#       Creating user name   scv26
#       Creation time:       Thu Mar 26 19:43:15 2020


#       File generated by GOLD software.
#

@<TRIPOS>MOLECULE
AV-unprocessed.smi:198
    67    71     1
SMALL
NO_CHARGES


@<TRIPOS>ATOM
      1 ****        -4.6072  -1.0193  -3.3871 C.3            1 S1                 0.0000
      2 ****        -4.1185  -0.3571  -2.1586 N.4            1 S1                 1.0000
      3 ****        -2.6586  -0.0985  -2.2017 C.3            1 S1                 0.0000
      4 ****        -2.1948   0.6832  -0.9624 C.3            1 S1                 0.0000
      5 ****        -2.5732  -0.0616   0.3381 C.3            1 S1                 0.0000
      6 ****        -4.1005  -0.3084   0.3348 C.3            1 S1                 0.0000
      7 ****        -4.5357  -1.0320   1.6208 C.3            1 S1                 0.0000
      8 ****        -4.0808  -0.2383   2.8529 C.3            1 S1                 0.0000
      9 ****        -2.5666   0.0132   2.8084 C.3            1 S1                 0.0000
     10 ****        -2.1743   0.6580   1.5563 N.3            1 S1                 0.0000
     11 ****        -0.8867   1.0668   1.6138 C.ar           1 S1                 0.0000
     12 ****        -0.6673   2.3791   1.8708 N.ar           1 S1                 0.0000
     13 ****         0.5836   2.8445   1.9399 C.ar           1 S1                 0.0000
     14 ****         1.7313   2.1809   1.7831 N.ar           1 S1                 0.0000
     15 ****         1.5134   0.8585   1.5273 C.ar           1 S1                 0.0000
     16 ****         0.2446   0.2204   1.4374 C.ar           1 S1                 0.0000
     17 ****         0.4126  -1.1368   1.1965 N.2            1 S1                 0.0000
     18 ****         1.7070  -1.2931   1.1511 C.2            1 S1                 0.0000
     19 ****         2.4469  -0.1397   1.3002 N.pl3          1 S1                 0.0000
     20 ****         3.8806  -0.0205   1.3222 C.3            1 S1                 0.0000
     21 ****         4.5786   1.0644   0.4937 C.3            1 S1                 0.0000
     22 ****         4.9784   0.0127  -0.5650 C.3            1 S1                 0.0000
     23 ****         4.0057  -0.1744  -1.7494 C.3            1 S1                 0.0000
     24 ****         3.8162   1.0184  -2.4823 O.3            1 S1                 0.0000
     25 ****         6.4184   0.0963  -1.1019 C.3            1 S1                 0.0000
     26 ****         6.6781   1.3323  -1.7347 O.3            1 S1                 0.0000
     27 ****         4.7810  -1.0125   0.5726 C.3            1 S1                 0.0000
     28 ****        -4.5201  -1.0834  -0.9287 C.3            1 S1                 0.0000
     29 ****        -4.1595  -2.0072  -3.5038 H              1 S1                 0.0000
     30 ****        -4.3615  -0.4258  -4.2683 H              1 S1                 0.0000
     31 ****        -5.6909  -1.1361  -3.3573 H              1 S1                 0.0000
     32 ****        -2.1209  -1.0458  -2.2689 H              1 S1                 0.0000
     33 ****        -2.4149   0.4689  -3.1006 H              1 S1                 0.0000
     34 ****        -1.1165   0.8297  -1.0304 H              1 S1                 0.0000
     35 ****        -2.6419   1.6785  -0.9649 H              1 S1                 0.0000
     36 ****        -2.0768  -1.0325   0.3401 H              1 S1                 0.0000
     37 ****        -4.6043   0.6601   0.3154 H              1 S1                 0.0000
     38 ****        -5.6191  -1.1560   1.6391 H              1 S1                 0.0000
     39 ****        -4.1049  -2.0338   1.6498 H              1 S1                 0.0000
     40 ****        -4.6086   0.7156   2.8910 H              1 S1                 0.0000
     41 ****        -4.3434  -0.7760   3.7644 H              1 S1                 0.0000
     42 ****        -2.2756   0.6348   3.6567 H              1 S1                 0.0000
     43 ****        -2.0328  -0.9330   2.9101 H              1 S1                 0.0000
     44 ****         0.6791   3.8996   2.1501 H              1 S1                 0.0000
     45 ****         2.1519  -2.2652   0.9996 H              1 S1                 0.0000
     46 ****         4.1552   0.0470   2.3756 H              1 S1                 0.0000
     47 ****         3.9280   1.8556   0.1214 H              1 S1                 0.0000
     48 ****         5.4399   1.4887   1.0133 H              1 S1                 0.0000
     49 ****         4.3599  -0.9487  -2.4305 H              1 S1                 0.0000
     50 ****         3.0250  -0.5033  -1.4066 H              1 S1                 0.0000
     51 ****         3.2376   0.8388  -3.2073 H              1 S1                 0.0000
     52 ****         7.1407  -0.0112  -0.2923 H              1 S1                 0.0000
     53 ****         6.6261  -0.7107  -1.8052 H              1 S1                 0.0000
     54 ****         7.5720   1.3320  -2.0410 H              1 S1                 0.0000
     55 ****         5.6995  -1.2199   1.1245 H              1 S1                 0.0000
     56 ****         4.3107  -1.9442   0.2597 H              1 S1                 0.0000
     57 ****        -5.6022  -1.2213  -0.9310 H              1 S1                 0.0000
     58 ****        -4.0732  -2.0792  -0.9298 H              1 S1                 0.0000
     59 ****        -4.5700   0.5457  -2.1197 H              1 S1                 0.0000
     60 ****        -2.7209   1.4903   1.4632 LP             1 S1                 0.0000
     61 ****        -1.4403   2.9984   2.0085 LP             1 S1                 0.0000
     62 ****         2.6369   2.6004   1.8453 LP             1 S1                 0.0000
     63 ****        -0.2955  -1.8338   1.0838 LP             1 S1                 0.0000
     64 ****         4.6962   1.3454  -2.8268 LP             1 S1                 0.0000
     65 ****         3.4096   1.7155  -1.8917 LP             1 S1                 0.0000
     66 ****         6.5455   2.0790  -1.0829 LP             1 S1                 0.0000
     67 ****         6.0566   1.4516  -2.5090 LP             1 S1                 0.0000
@<TRIPOS>BOND
    1    1    2 1     
    2    1   29 1     
    3    1   30 1     
    4    1   31 1     
    5    2   28 1     
    6    2    3 1     
    7    2   59 1     
    8    3    4 1     
    9    3   32 1     
   10    3   33 1     
   11    4    5 1     
   12    4   34 1     
   13    4   35 1     
   14    5   10 1     
   15    5    6 1     
   16    5   36 1     
   17    6    7 1     
   18    6   28 1     
   19    6   37 1     
   20    7    8 1     
   21    7   38 1     
   22    7   39 1     
   23    8    9 1     
   24    8   40 1     
   25    8   41 1     
   26    9   10 1     
   27    9   42 1     
   28    9   43 1     
   29   10   11 1     
   30   11   16 ar    
   31   11   12 ar    
   32   12   13 ar    
   33   13   14 ar    
   34   13   44 1     
   35   14   15 ar    
   36   15   19 1     
   37   15   16 ar    
   38   16   17 1     
   39   17   18 2     
   40   18   19 1     
   41   18   45 1     
   42   19   20 1     
   43   20   27 1     
   44   20   21 1     
   45   20   46 1     
   46   21   22 1     
   47   21   47 1     
   48   21   48 1     
   49   22   23 1     
   50   22   25 1     
   51   22   27 1     
   52   23   24 1     
   53   23   49 1     
   54   23   50 1     
   55   24   51 1     
   56   25   26 1     
   57   25   52 1     
   58   25   53 1     
   59   26   54 1     
   60   27   55 1     
   61   27   56 1     
   62   28   57 1     
   63   28   58 1     
   64   10   60 1     
   65   12   61 1     
   66   14   62 1     
   67   17   63 1     
   68   24   64 1     
   69   24   65 1     
   70   26   66 1     
   71   26   67 1     
@<TRIPOS>SUBSTRUCTURE
      1 S1             1
@<TRIPOS>SET
LONE_PAIRS      STATIC     ATOMS    <user>   **** ""
8 60 61 62 63 64 65 66 67
DONOR_HYDROGENS      STATIC     ATOMS    <user>   **** ""
3 59 51 54
ATOM$BLUE        STATIC     ATOMS    COLORGROUP SYSTEM
8 60 61 62 63 64 65 66 67
ATOM$RED        STATIC     ATOMS    COLORGROUP SYSTEM
3 59 51 54
