AV-unprocessed.smi:712|AV-procd|sdf|3469|dock4
  -GOLD-   22720 0463D 1   1.00000     0.00000
 Structure written by MMmdl.
 51 52  0  0  0  0  0  0  0  0  2 V2000
  151.4718  143.0043  157.8062 C   0  0  0  0  0  0  0  0  0  0  0  0
  150.9570  141.8874  156.9222 C   0  0  0  0  0  0  0  0  0  0  0  0
  151.1978  140.5014  157.2665 C   0  0  0  0  0  0  0  0  0  0  0  0
  150.7319  139.5361  156.4585 C   0  0  0  0  0  0  0  0  0  0  0  0
  150.0158  139.8315  155.2845 N   0  0  0  0  0  0  0  0  0  0  0  0
  149.5676  138.6968  154.4605 C   0  0  0  0  0  0  0  0  0  0  0  0
  148.5116  137.8565  155.1869 C   0  0  0  0  0  0  0  0  0  0  0  0
  148.2683  138.0599  156.3764 O   0  0  0  0  0  0  0  0  0  0  0  0
  147.9111  136.9012  154.4621 N   0  0  0  0  0  0  0  0  0  0  0  0
  146.9945  135.8931  154.9836 C   0  0  0  0  0  0  0  0  0  0  0  0
  146.4429  134.9968  153.8572 C   0  0  1  0  0  0  0  0  0  0  0  0
  145.4431  133.9228  154.3541 C   0  0  0  0  0  0  0  0  0  0  0  0
  144.8530  133.1512  153.2311 N   0  3  2  0  0  0  0  0  0  0  0  0
  145.7368  132.0884  152.6801 C   0  0  0  0  0  0  0  0  0  0  0  0
  145.0080  131.1692  151.6755 C   0  0  0  0  0  0  0  0  0  0  0  0
  145.6695  129.7841  151.6287 C   0  0  0  0  0  0  0  0  0  0  0  0
  144.9529  131.7867  150.2687 C   0  0  0  0  0  0  0  0  0  0  0  0
  144.2970  134.0657  152.2046 C   0  0  0  0  0  0  0  0  0  0  0  0
  145.3353  135.1150  151.7714 C   0  0  0  0  0  0  0  0  0  0  0  0
  145.7828  135.8342  152.9141 O   0  0  0  0  0  0  0  0  0  0  0  0
  149.7562  141.1192  154.9020 C   0  0  0  0  0  0  0  0  0  0  0  0
  149.1385  141.3854  153.8699 O   0  0  0  0  0  0  0  0  0  0  0  0
  150.2694  142.1657  155.7928 C   0  0  0  0  0  0  0  0  0  0  0  0
  151.7777  142.6233  158.7809 H   0  0  0  0  0  0  0  0  0  0  0  0
  150.6984  143.7568  157.9646 H   0  0  0  0  0  0  0  0  0  0  0  0
  152.3321  143.4870  157.3416 H   0  0  0  0  0  0  0  0  0  0  0  0
  151.7485  140.2430  158.1591 H   0  0  0  0  0  0  0  0  0  0  0  0
  150.8838  138.4847  156.6550 H   0  0  0  0  0  0  0  0  0  0  0  0
  149.1411  139.0404  153.5172 H   0  0  0  0  0  0  0  0  0  0  0  0
  150.4231  138.0781  154.1821 H   0  0  0  0  0  0  0  0  0  0  0  0
  148.1639  136.8219  153.4875 H   0  0  0  0  0  0  0  0  0  0  0  0
  147.4639  135.2936  155.7656 H   0  0  0  0  0  0  0  0  0  0  0  0
  146.1701  136.4245  155.4597 H   0  0  0  0  0  0  0  0  0  0  0  0
  147.2911  134.5223  153.3613 H   0  0  0  0  0  0  0  0  0  0  0  0
  145.9152  133.2450  155.0622 H   0  0  0  0  0  0  0  0  0  0  0  0
  144.6301  134.4093  154.8948 H   0  0  0  0  0  0  0  0  0  0  0  0
  146.5849  132.5454  152.1681 H   0  0  0  0  0  0  0  0  0  0  0  0
  146.1626  131.5006  153.4934 H   0  0  0  0  0  0  0  0  0  0  0  0
  143.9823  131.0149  152.0072 H   0  0  0  0  0  0  0  0  0  0  0  0
  146.7072  129.8501  151.3001 H   0  0  0  0  0  0  0  0  0  0  0  0
  145.1442  129.1200  150.9417 H   0  0  0  0  0  0  0  0  0  0  0  0
  145.6598  129.3103  152.6108 H   0  0  0  0  0  0  0  0  0  0  0  0
  145.9535  131.9621  149.8719 H   0  0  0  0  0  0  0  0  0  0  0  0
  144.4233  132.7395  150.2713 H   0  0  0  0  0  0  0  0  0  0  0  0
  144.4310  131.1290  149.5728 H   0  0  0  0  0  0  0  0  0  0  0  0
  143.9263  133.5051  151.3458 H   0  0  0  0  0  0  0  0  0  0  0  0
  143.4318  134.5735  152.6329 H   0  0  0  0  0  0  0  0  0  0  0  0
  146.1790  134.6503  151.2589 H   0  0  0  0  0  0  0  0  0  0  0  0
  144.8865  135.8168  151.0685 H   0  0  0  0  0  0  0  0  0  0  0  0
  150.0890  143.1977  155.5290 H   0  0  0  0  0  0  0  0  0  0  0  0
  144.0592  132.6542  153.6097 H   0  0  0  0  0  0  0  0  0  0  0  0
  1  2  1  0  0  0  0
  1 24  1  0  0  0  0
  1 25  1  0  0  0  0
  1 26  1  0  0  0  0
  2 23  2  0  0  0  0
  2  3  1  0  0  0  0
  3  4  2  0  0  0  0
  3 27  1  0  0  0  0
  4  5  1  0  0  0  0
  4 28  1  0  0  0  0
  5  6  1  0  0  0  0
  5 21  1  0  0  0  0
  6  7  1  0  0  0  0
  6 29  1  0  0  0  0
  6 30  1  0  0  0  0
  7  8  2  0  0  0  0
  7  9  1  0  0  0  0
  9 10  1  0  0  0  0
  9 31  1  0  0  0  0
 10 11  1  0  0  0  0
 10 32  1  0  0  0  0
 10 33  1  0  0  0  0
 11 20  1  0  0  0  0
 11 12  1  0  0  0  0
 11 34  1  0  0  0  0
 12 13  1  0  0  0  0
 12 35  1  0  0  0  0
 12 36  1  0  0  0  0
 13 14  1  0  0  0  0
 13 18  1  0  0  0  0
 13 51  1  0  0  0  0
 14 15  1  0  0  0  0
 14 37  1  0  0  0  0
 14 38  1  0  0  0  0
 15 16  1  0  0  0  0
 15 17  1  0  0  0  0
 15 39  1  0  0  0  0
 16 40  1  0  0  0  0
 16 41  1  0  0  0  0
 16 42  1  0  0  0  0
 17 43  1  0  0  0  0
 17 44  1  0  0  0  0
 17 45  1  0  0  0  0
 18 19  1  0  0  0  0
 18 46  1  0  0  0  0
 18 47  1  0  0  0  0
 19 20  1  0  0  0  0
 19 48  1  0  0  0  0
 19 49  1  0  0  0  0
 21 22  2  0  0  0  0
 21 23  1  0  0  0  0
 23 50  1  0  0  0  0
M  CHG  1  13   1
M  END
> <s_m_source_file>
AV-unprocessed.smi

> <i_m_source_file_index>
712

> <i_lp_mmshare_version>
43012

> <i_f3d_flags>
0

> <s_epik_input>
W0NIM11jMVtjSF1bY0hdbihjKD1PKVtjSF0xKVtDSDJdQyg9TylbTkhdW0NIMl1bQ0BASF0yW0NIMl1OKFtDSDJdW0NIMl1PMilbQ0gyXVtDSF0oW0NIM10pW0NIM10=

> <s_epik_cmdline>
J2VwaWtfcHl0aG9uJywgJy1waCcsICc3LjAnLCAnLXRuJywgJzgnLCAnLW1hJywgJzIwMCcsICctbWV0YWxfYmluZGluZycsICctaW1hZScsICc8aW5maWxlLm1hZT4nLCAnLW9tYWUnLCAnPG91dGZpbGUubWFlPic=

> <r_lp_tautomer_probability>
1

> <r_epik_Ionization_Penalty>
0.0975935

> <r_epik_Ionization_Penalty_Charging>
0.0975934

> <r_epik_Ionization_Penalty_Neutral>
6.27044e-08

> <r_epik_State_Penalty>
0.0877056

> <r_epik_Charging_Adjusted_Penalty>
0.185299

> <i_epik_Tot_Q>
1

> <i_epik_Tot_abs_Q>
1

> <r_epik_Metal_State_Penalty>
0.0877109

> <b_epik_Metal_Only>
0

> <s_lp_Force_Field>
OPLS_2005

> <r_lp_Energy>
28.3742

> <b_lp_Chiralities_Consistent>
1

> <s_lp_Variant>
AV-unprocessed.smi:712-2

> <Gold.Version>
5.8.1

> <Gold.Id.Protein>
6NUR|6NUR_protein|mol2

> <Gold.PLP.Fitness>
44.7224

> <Gold.PLP.PLP>
-34.0507

> <Gold.PLP.part.hbond>
-4.0000

> <Gold.PLP.part.metal>
0.0000

> <Gold.PLP.part.buried>
-3.9461

> <Gold.PLP.part.nonpolar>
-27.5133

> <Gold.PLP.part.repulsive>
0.6144

> <Gold.PLP.ligand.clash>
0.0000

> <Gold.PLP.ligand.torsion>
0.4007

> <Gold.PLP.Chemscore.Hbond>
3.7840

> <Gold.PLP.Chemscore.CHOScore>
0.0000

> <Gold.PLP.Chemscore.Metal>
0.0000

> <Gold.Chemscore.Hbonds>
donor molecule, donor type, donor heavy atom, donor atom, acceptor molecule, acceptor atom, score
      L1  H     9    31       P1  7948  1.00
      L1  H    13    51       P1 10957  2.00
      P1  H  8011  8017       L1    22  0.78

> <Gold.PLP.Chemscore.Internal.Correction>
0.1210

> <Gold.Rescore>
     Score         DG    S(hbond)    S(metal)    S(lipo)     H(rot)  DE(clash)    DE(int)     intcor
     16.96     -18.80       2.39        0.00      86.90       1.89       0.12       1.73       ----

> <Gold.Chemscore.Fitness>
16.9557

> <Gold.Chemscore.DG>
-18.7988

> <Gold.Chemscore.ZeroCoef>
-5.4800

> <Gold.Chemscore.Hbond>
2.3899

> <Gold.Chemscore.Metal>
0.0000

> <Gold.Chemscore.Lipo>
86.9029

> <Gold.Chemscore.Internal_Hbond>
0.0000

> <Gold.Chemscore.DEClash>
0.1178

> <Gold.Chemscore.DEInternal>
1.7254

> <Gold.Chemscore.Rot>
1.8871

> <Gold.Chemscore.Internal.Correction>
   9.000000E+99

> <Gold.Chemscore.Hbonds>
donor molecule, donor type, donor heavy atom, donor atom, acceptor molecule, acceptor atom, score
      L1  H     9    31       P1  7948  1.00
      L1  H    13    51       P1 10957  0.52
      P1  H  8011  8017       L1    22  0.77

> <Gold.Chemscore.Hbond.Weighted>
-7.9821

> <Gold.Chemscore.Metal.Weighted>
-0.0000

> <Gold.Chemscore.Lipo.Weighted>
-10.1676

> <Gold.Chemscore.Internal_Hbond.Weighted>
0.0000

> <Gold.Chemscore.DEClash.Weighted>
0.1178

> <Gold.Chemscore.DEInternal.Weighted>
1.7254

> <Gold.Chemscore.Rot.Weighted>
4.8309

> <Gold.Chemscore.Internal.Correction.Weighted>
   9.000000E+99

> <Gold.Protein.RotatedTorsions>
[ 6907 6896 6895 6894 ] final   90.69 input  -60.11 | X-H torsion
[ 7974 7965 7964 7962 ] final   42.43 input  175.53 | X-H torsion
[ 8008 7997 7996 7995 ] final   85.84 input   59.86 | X-H torsion
[ 10167 10162 10161 10158 ] final -156.71 input  -65.29 | X-H torsion
[ 10718 10713 10712 10709 ] final    6.98 input   66.30 | X-H torsion
[ 10763 10752 10751 10750 ] final   16.50 input  -60.55 | X-H torsion
[ 11005 11000 10999 10996 ] final -156.41 input  -57.11 | X-H torsion

> <Gold.Protein.ActiveResidues>
 VAL166  LYS551  ARG553  GLY616  TRP617  ASP618  TYR619  PRO620  LYS621  CYS622 
 ASP623  PHE694  ASN695  SER759  ASP760  ASP761  ALA762  ILE779  LEU786  VAL792 
 PHE793  MET794  SER795  GLU796  ALA797  LYS798  CYS799  TRP800  GLU811  SER814 

> <Gold.Protein.RotatedAtoms>
  152.5446  134.1772  159.8620 H   0  0  0  0  0  0  0  0  0  0  0  0  # atno 6907 bound_to 6896
  151.1778  133.4737  159.2601 H   0  0  0  0  0  0  0  0  0  0  0  0  # atno 6908 bound_to 6896
  151.1210  135.0090  159.8593 H   0  0  0  0  0  0  0  0  0  0  0  0  # atno 6909 bound_to 6896
  146.0741  139.5302  142.9579 H   0  0  0  0  0  0  0  0  0  0  0  0  # atno 7974 bound_to 7965
  155.9552  140.3398  155.6442 H   0  0  0  0  0  0  0  0  0  0  0  0  # atno 8008 bound_to 7997
  155.6869  140.0744  157.2481 H   0  0  0  0  0  0  0  0  0  0  0  0  # atno 8009 bound_to 7997
  154.4130  140.1664  156.2031 H   0  0  0  0  0  0  0  0  0  0  0  0  # atno 8010 bound_to 7997
  139.6828  143.9552  152.2345 H   0  0  0  0  0  0  0  0  0  0  0  0  # atno 10167 bound_to 10162
  156.9302  130.5823  149.5649 H   0  0  0  0  0  0  0  0  0  0  0  0  # atno 10718 bound_to 10713
  153.1425  135.6763  153.9005 H   0  0  0  0  0  0  0  0  0  0  0  0  # atno 10763 bound_to 10752
  153.8457  135.3099  155.3430 H   0  0  0  0  0  0  0  0  0  0  0  0  # atno 10764 bound_to 10752
  154.7799  135.4894  153.9906 H   0  0  0  0  0  0  0  0  0  0  0  0  # atno 10765 bound_to 10752
  140.6759  134.4197  157.5229 H   0  0  0  0  0  0  0  0  0  0  0  0  # atno 11005 bound_to 11000
  145.6338  141.0298  143.1849 LP  0  0  0  0  0  0  0  0  0  0  0  0  # atno 17320 bound_to 7965
  144.7250  139.7904  143.7368 LP  0  0  0  0  0  0  0  0  0  0  0  0  # atno 17321 bound_to 7965
  139.9347  144.6719  150.8327 LP  0  0  0  0  0  0  0  0  0  0  0  0  # atno 17342 bound_to 10162
  140.7658  143.3285  151.2463 LP  0  0  0  0  0  0  0  0  0  0  0  0  # atno 17343 bound_to 10162
  156.0450  130.5528  150.8861 LP  0  0  0  0  0  0  0  0  0  0  0  0  # atno 17370 bound_to 10713
  157.5851  131.0945  150.9208 LP  0  0  0  0  0  0  0  0  0  0  0  0  # atno 17371 bound_to 10713
  139.8967  134.8654  156.2077 LP  0  0  0  0  0  0  0  0  0  0  0  0  # atno 17394 bound_to 11000
  141.0356  133.6965  156.1506 LP  0  0  0  0  0  0  0  0  0  0  0  0  # atno 17395 bound_to 11000

$$$$
