AV-unprocessed.smi:556|AV-procd|sdf|2912|dock9
  -GOLD-   2262023403D 1   1.00000     0.00000
 Structure written by MMmdl.
 38 39  0  0  0  0  0  0  0  0  1 V2000
  152.7429  144.8401  158.3092 C   0  0  0  0  0  0  0  0  0  0  0  0
  151.6326  144.0933  159.0677 C   0  0  2  0  0  0  0  0  0  0  0  0
  151.2200  144.7833  160.3855 C   0  0  0  0  0  0  0  0  0  0  0  0
  152.1998  144.5960  161.3955 O   0  0  0  0  0  0  0  0  0  0  0  0
  152.3866  143.2217  161.6950 C   0  0  0  0  0  0  0  0  0  0  0  0
  152.9226  142.5054  160.4481 C   0  0  0  0  0  0  0  0  0  0  0  0
  152.0083  142.6807  159.3071 N   0  0  0  0  0  0  0  0  0  0  0  0
  151.5916  141.6160  158.5721 C   0  0  0  0  0  0  0  0  0  0  0  0
  152.0985  140.4959  158.6522 O   0  0  0  0  0  0  0  0  0  0  0  0
  150.6054  141.8830  157.7001 N   0  0  0  0  0  0  0  0  0  0  0  0
  150.0145  140.9109  156.7912 C   0  0  0  0  0  0  0  0  0  0  0  0
  150.1648  141.3739  155.3363 C   0  0  0  0  0  0  0  0  0  0  0  0
  148.9675  140.9956  154.5102 C   0  0  0  0  0  0  0  0  0  0  0  0
  147.9345  141.8492  154.0281 C   0  0  0  0  0  0  0  0  0  0  0  0
  147.0174  141.2029  153.3269 N   0  0  0  0  0  0  0  0  0  0  0  0
  147.4314  139.9193  153.3357 N   0  0  0  0  0  0  0  0  0  0  0  0
  146.6504  138.9139  152.6478 C   0  0  0  0  0  0  0  0  0  0  0  0
  148.6044  139.7639  154.0428 C   0  0  0  0  0  0  0  0  0  0  0  0
  152.4357  145.8592  158.0730 H   0  0  0  0  0  0  0  0  0  0  0  0
  152.9805  144.3426  157.3686 H   0  0  0  0  0  0  0  0  0  0  0  0
  153.6601  144.9025  158.8953 H   0  0  0  0  0  0  0  0  0  0  0  0
  150.7417  144.1572  158.4423 H   0  0  0  0  0  0  0  0  0  0  0  0
  151.0743  145.8520  160.2261 H   0  0  0  0  0  0  0  0  0  0  0  0
  150.2635  144.3907  160.7346 H   0  0  0  0  0  0  0  0  0  0  0  0
  153.1009  143.1337  162.5137 H   0  0  0  0  0  0  0  0  0  0  0  0
  151.4525  142.7723  162.0366 H   0  0  0  0  0  0  0  0  0  0  0  0
  153.8993  142.9097  160.1808 H   0  0  0  0  0  0  0  0  0  0  0  0
  153.0955  141.4583  160.6991 H   0  0  0  0  0  0  0  0  0  0  0  0
  150.2425  142.8244  157.6653 H   0  0  0  0  0  0  0  0  0  0  0  0
  150.4990  139.9427  156.9280 H   0  0  0  0  0  0  0  0  0  0  0  0
  148.9594  140.7842  157.0393 H   0  0  0  0  0  0  0  0  0  0  0  0
  150.3133  142.4543  155.3152 H   0  0  0  0  0  0  0  0  0  0  0  0
  151.0730  140.9420  154.9135 H   0  0  0  0  0  0  0  0  0  0  0  0
  147.8250  142.9146  154.1678 H   0  0  0  0  0  0  0  0  0  0  0  0
  147.1595  137.9506  152.6902 H   0  0  0  0  0  0  0  0  0  0  0  0
  146.5184  139.1986  151.6033 H   0  0  0  0  0  0  0  0  0  0  0  0
  145.6723  138.8199  153.1204 H   0  0  0  0  0  0  0  0  0  0  0  0
  149.0793  138.8001  154.1540 H   0  0  0  0  0  0  0  0  0  0  0  0
  1  2  1  0  0  0  0
  1 19  1  0  0  0  0
  1 20  1  0  0  0  0
  1 21  1  0  0  0  0
  2  7  1  0  0  0  0
  2  3  1  0  0  0  0
  2 22  1  0  0  0  0
  3  4  1  0  0  0  0
  3 23  1  0  0  0  0
  3 24  1  0  0  0  0
  4  5  1  0  0  0  0
  5  6  1  0  0  0  0
  5 25  1  0  0  0  0
  5 26  1  0  0  0  0
  6  7  1  0  0  0  0
  6 27  1  0  0  0  0
  6 28  1  0  0  0  0
  7  8  1  0  0  0  0
  8  9  2  0  0  0  0
  8 10  1  0  0  0  0
 10 11  1  0  0  0  0
 10 29  1  0  0  0  0
 11 12  1  0  0  0  0
 11 30  1  0  0  0  0
 11 31  1  0  0  0  0
 12 13  1  0  0  0  0
 12 32  1  0  0  0  0
 12 33  1  0  0  0  0
 13 18  2  0  0  0  0
 13 14  1  0  0  0  0
 14 15  2  0  0  0  0
 14 34  1  0  0  0  0
 15 16  1  0  0  0  0
 16 17  1  0  0  0  0
 16 18  1  0  0  0  0
 17 35  1  0  0  0  0
 17 36  1  0  0  0  0
 17 37  1  0  0  0  0
 18 38  1  0  0  0  0
M  END
> <s_m_source_file>
AV-unprocessed.smi

> <i_m_source_file_index>
556

> <i_lp_mmshare_version>
43012

> <i_f3d_flags>
0

> <s_epik_input>
W0NIM11bQ0BASF0xW0NIMl1PW0NIMl1bQ0gyXU4xQyg9TylbTkhdW0NIMl1bQ0gyXWMyW2NIXW5uKFtDSDNdKVtjSF0y

> <s_epik_cmdline>
J2VwaWtfcHl0aG9uJywgJy1waCcsICc3LjAnLCAnLXRuJywgJzgnLCAnLW1hJywgJzIwMCcsICctbWV0YWxfYmluZGluZycsICctaW1hZScsICc8aW5maWxlLm1hZT4nLCAnLW9tYWUnLCAnPG91dGZpbGUubWFlPic=

> <r_lp_tautomer_probability>
1

> <r_epik_Ionization_Penalty>
0.000536334

> <r_epik_Ionization_Penalty_Charging>
0

> <r_epik_Ionization_Penalty_Neutral>
0.000536334

> <r_epik_State_Penalty>
-0

> <r_epik_Charging_Adjusted_Penalty>
0

> <i_epik_Tot_Q>
0

> <i_epik_Tot_abs_Q>
0

> <r_epik_Metal_State_Penalty>
-0

> <b_epik_Metal_Only>
0

> <s_lp_Force_Field>
OPLS_2005

> <r_lp_Energy>
29.3296

> <b_lp_Chiralities_Consistent>
1

> <s_lp_Variant>
AV-unprocessed.smi:556-1

> <Gold.Version>
5.8.1

> <Gold.Id.Protein>
6NUR|6NUR_protein|mol2

> <Gold.PLP.Fitness>
43.8815

> <Gold.PLP.PLP>
-41.8191

> <Gold.PLP.part.hbond>
0.0000

> <Gold.PLP.part.metal>
0.0000

> <Gold.PLP.part.buried>
-2.6940

> <Gold.PLP.part.nonpolar>
-38.8072

> <Gold.PLP.part.repulsive>
0.4281

> <Gold.PLP.ligand.clash>
0.0000

> <Gold.PLP.ligand.torsion>
0.4674

> <Gold.PLP.Chemscore.Hbond>
0.0000

> <Gold.PLP.Chemscore.CHOScore>
0.9960

> <Gold.PLP.Chemscore.Metal>
0.0000

> <Gold.Chemscore.Hbonds>
donor molecule, donor type, donor heavy atom, donor atom, acceptor molecule, acceptor atom, score
      L1  C    14    34       P1  8028  1.00

> <Gold.PLP.Chemscore.Internal.Correction>
0.0091

> <Gold.Rescore>
     Score         DG    S(hbond)    S(metal)    S(lipo)     H(rot)  DE(clash)    DE(int)     intcor
     13.44     -14.05       0.00        0.00     103.87       1.40       0.26       0.35       ----

> <Gold.Chemscore.Fitness>
13.4355

> <Gold.Chemscore.DG>
-14.0485

> <Gold.Chemscore.ZeroCoef>
-5.4800

> <Gold.Chemscore.Hbond>
0.0000

> <Gold.Chemscore.Metal>
0.0000

> <Gold.Chemscore.Lipo>
103.8694

> <Gold.Chemscore.Internal_Hbond>
0.0000

> <Gold.Chemscore.DEClash>
0.2597

> <Gold.Chemscore.DEInternal>
0.3533

> <Gold.Chemscore.Rot>
1.4001

> <Gold.Chemscore.Internal.Correction>
   9.000000E+99

> <Gold.Chemscore.Hbond.Weighted>
-0.0000

> <Gold.Chemscore.Metal.Weighted>
-0.0000

> <Gold.Chemscore.Lipo.Weighted>
-12.1527

> <Gold.Chemscore.Internal_Hbond.Weighted>
0.0000

> <Gold.Chemscore.DEClash.Weighted>
0.2597

> <Gold.Chemscore.DEInternal.Weighted>
0.3533

> <Gold.Chemscore.Rot.Weighted>
3.5842

> <Gold.Chemscore.Internal.Correction.Weighted>
   9.000000E+99

> <Gold.Protein.RotatedTorsions>
[ 6907 6896 6895 6894 ] final   33.89 input  -60.11 | X-H torsion
[ 7974 7965 7964 7962 ] final  101.89 input  175.53 | X-H torsion
[ 8008 7997 7996 7995 ] final -140.67 input   59.86 | X-H torsion
[ 10167 10162 10161 10158 ] final    3.57 input  -65.29 | X-H torsion
[ 10718 10713 10712 10709 ] final   78.74 input   66.30 | X-H torsion
[ 10763 10752 10751 10750 ] final   -1.91 input  -60.55 | X-H torsion
[ 11005 11000 10999 10996 ] final  165.52 input  -57.11 | X-H torsion

> <Gold.Protein.ActiveResidues>
 VAL166  LYS551  ARG553  GLY616  TRP617  ASP618  TYR619  PRO620  LYS621  CYS622 
 ASP623  PHE694  ASN695  SER759  ASP760  ASP761  ALA762  ILE779  LEU786  VAL792 
 PHE793  MET794  SER795  GLU796  ALA797  LYS798  CYS799  TRP800  GLU811  SER814 

> <Gold.Protein.RotatedAtoms>
  152.0949  134.9382  160.0570 H   0  0  0  0  0  0  0  0  0  0  0  0  # atno 6907 bound_to 6896
  152.0619  133.4061  159.4430 H   0  0  0  0  0  0  0  0  0  0  0  0  # atno 6908 bound_to 6896
  150.6838  134.3111  159.4790 H   0  0  0  0  0  0  0  0  0  0  0  0  # atno 6909 bound_to 6896
  145.3664  139.2407  143.3479 H   0  0  0  0  0  0  0  0  0  0  0  0  # atno 7974 bound_to 7965
  155.4652  140.0549  157.2986 H   0  0  0  0  0  0  0  0  0  0  0  0  # atno 8008 bound_to 7997
  154.4721  140.2045  155.9924 H   0  0  0  0  0  0  0  0  0  0  0  0  # atno 8009 bound_to 7997
  156.1072  140.3210  155.8027 H   0  0  0  0  0  0  0  0  0  0  0  0  # atno 8010 bound_to 7997
  140.6579  143.7380  150.7686 H   0  0  0  0  0  0  0  0  0  0  0  0  # atno 10167 bound_to 10162
  157.6755  130.9882  150.1831 H   0  0  0  0  0  0  0  0  0  0  0  0  # atno 10718 bound_to 10713
  153.3511  135.6985  153.6788 H   0  0  0  0  0  0  0  0  0  0  0  0  # atno 10763 bound_to 10752
  153.5514  135.3553  155.2762 H   0  0  0  0  0  0  0  0  0  0  0  0  # atno 10764 bound_to 10752
  154.8653  135.4227  154.2746 H   0  0  0  0  0  0  0  0  0  0  0  0  # atno 10765 bound_to 10752
  140.2570  134.7932  157.3555 H   0  0  0  0  0  0  0  0  0  0  0  0  # atno 11005 bound_to 11000
  146.2905  140.4307  142.8741 LP  0  0  0  0  0  0  0  0  0  0  0  0  # atno 17320 bound_to 7965
  144.8609  140.7137  143.6108 LP  0  0  0  0  0  0  0  0  0  0  0  0  # atno 17321 bound_to 7965
  140.1043  143.4758  152.2407 LP  0  0  0  0  0  0  0  0  0  0  0  0  # atno 17342 bound_to 10162
  139.5806  144.7508  151.3651 LP  0  0  0  0  0  0  0  0  0  0  0  0  # atno 17343 bound_to 10162
  156.2559  130.3705  149.8182 LP  0  0  0  0  0  0  0  0  0  0  0  0  # atno 17370 bound_to 10713
  156.5941  130.8519  151.3415 LP  0  0  0  0  0  0  0  0  0  0  0  0  # atno 17371 bound_to 10713
  140.1502  134.4859  155.7967 LP  0  0  0  0  0  0  0  0  0  0  0  0  # atno 17394 bound_to 11000
  141.2195  133.6859  156.7365 LP  0  0  0  0  0  0  0  0  0  0  0  0  # atno 17395 bound_to 11000

$$$$
