AV-unprocessed.smi:2032|AV-procd|sdf|8233|dock3
  -GOLD-   2272010503D 1   1.00000     0.00000
 Structure written by MMmdl.
 42 43  0  0  0  0  0  0  0  0  1 V2000
  151.6989  138.0485  154.0692 C   0  0  0  0  0  0  0  0  0  0  0  0
  150.5893  138.8111  154.8007 C   0  0  2  0  0  0  0  0  0  0  0  0
  149.2380  138.7063  154.0707 C   0  0  0  0  0  0  0  0  0  0  0  0
  148.1883  139.4989  154.7136 N   0  0  0  0  0  0  0  0  0  0  0  0
  146.8815  139.3746  154.0306 C   0  0  1  0  0  0  0  0  0  0  0  0
  146.9622  139.5780  152.5006 C   0  0  0  0  0  0  0  0  0  0  0  0
  146.1477  138.0363  154.3111 C   0  0  0  0  0  0  0  0  0  0  0  0
  146.4738  137.0022  153.3306 N   0  0  0  0  0  0  0  0  0  0  0  0
  145.6070  136.1294  152.7976 C   0  0  0  0  0  0  0  0  0  0  0  0
  144.4114  136.0922  153.0906 O   0  0  0  0  0  0  0  0  0  0  0  0
  146.2154  135.3197  151.9134 N   0  0  0  0  0  0  0  0  0  0  0  0
  145.6426  134.2745  151.1422 C   0  0  0  0  0  0  0  0  0  0  0  0
  144.3352  134.1573  150.8828 N   0  0  0  0  0  0  0  0  0  0  0  0
  144.0544  133.0340  150.1010 C   0  0  0  0  0  0  0  0  0  0  0  0
  145.1678  132.3016  149.7719 C   0  0  0  0  0  0  0  0  0  0  0  0
  146.6225  132.9995  150.4326 S   0  0  0  0  0  0  0  0  0  0  0  0
  148.6503  140.8878  154.7914 C   0  0  0  0  0  0  0  0  0  0  0  0
  150.0150  141.0395  155.4916 C   0  0  1  0  0  0  0  0  0  0  0  0
  149.9414  140.8435  157.0156 C   0  0  0  0  0  0  0  0  0  0  0  0
  150.9792  140.1782  154.8894 O   0  0  0  0  0  0  0  0  0  0  0  0
  151.4569  136.9889  153.9849 H   0  0  0  0  0  0  0  0  0  0  0  0
  152.6455  138.1310  154.6038 H   0  0  0  0  0  0  0  0  0  0  0  0
  151.8492  138.4394  153.0625 H   0  0  0  0  0  0  0  0  0  0  0  0
  150.4938  138.3950  155.8038 H   0  0  0  0  0  0  0  0  0  0  0  0
  149.3549  139.0220  153.0329 H   0  0  0  0  0  0  0  0  0  0  0  0
  148.9619  137.6533  154.0504 H   0  0  0  0  0  0  0  0  0  0  0  0
  146.2299  140.1638  154.4087 H   0  0  0  0  0  0  0  0  0  0  0  0
  146.0099  139.3513  152.0203 H   0  0  0  0  0  0  0  0  0  0  0  0
  147.7189  138.9352  152.0498 H   0  0  0  0  0  0  0  0  0  0  0  0
  147.1957  140.6087  152.2360 H   0  0  0  0  0  0  0  0  0  0  0  0
  146.4016  137.6564  155.2999 H   0  0  0  0  0  0  0  0  0  0  0  0
  145.0696  138.2003  154.3556 H   0  0  0  0  0  0  0  0  0  0  0  0
  147.4344  136.9628  153.0227 H   0  0  0  0  0  0  0  0  0  0  0  0
  147.2043  135.4673  151.7763 H   0  0  0  0  0  0  0  0  0  0  0  0
  143.0308  132.8304  149.8237 H   0  0  0  0  0  0  0  0  0  0  0  0
  145.2200  131.3981  149.1828 H   0  0  0  0  0  0  0  0  0  0  0  0
  148.7225  141.3003  153.7838 H   0  0  0  0  0  0  0  0  0  0  0  0
  147.9327  141.5062  155.3277 H   0  0  0  0  0  0  0  0  0  0  0  0
  150.3670  142.0571  155.3199 H   0  0  0  0  0  0  0  0  0  0  0  0
  149.2881  141.5882  157.4704 H   0  0  0  0  0  0  0  0  0  0  0  0
  150.9273  140.9480  157.4688 H   0  0  0  0  0  0  0  0  0  0  0  0
  149.5514  139.8624  157.2854 H   0  0  0  0  0  0  0  0  0  0  0  0
  1  2  1  0  0  0  0
  1 21  1  0  0  0  0
  1 22  1  0  0  0  0
  1 23  1  0  0  0  0
  2 20  1  0  0  0  0
  2  3  1  0  0  0  0
  2 24  1  0  0  0  0
  3  4  1  0  0  0  0
  3 25  1  0  0  0  0
  3 26  1  0  0  0  0
  4  5  1  0  0  0  0
  4 17  1  0  0  0  0
  5  6  1  0  0  0  0
  5  7  1  0  0  0  0
  5 27  1  0  0  0  0
  6 28  1  0  0  0  0
  6 29  1  0  0  0  0
  6 30  1  0  0  0  0
  7  8  1  0  0  0  0
  7 31  1  0  0  0  0
  7 32  1  0  0  0  0
  8  9  1  0  0  0  0
  8 33  1  0  0  0  0
  9 10  2  0  0  0  0
  9 11  1  0  0  0  0
 11 12  1  0  0  0  0
 11 34  1  0  0  0  0
 12 16  1  0  0  0  0
 12 13  2  0  0  0  0
 13 14  1  0  0  0  0
 14 15  2  0  0  0  0
 14 35  1  0  0  0  0
 15 16  1  0  0  0  0
 15 36  1  0  0  0  0
 17 18  1  0  0  0  0
 17 37  1  0  0  0  0
 17 38  1  0  0  0  0
 18 19  1  0  0  0  0
 18 20  1  0  0  0  0
 18 39  1  0  0  0  0
 19 40  1  0  0  0  0
 19 41  1  0  0  0  0
 19 42  1  0  0  0  0
M  END
> <s_m_source_file>
AV-unprocessed.smi

> <i_m_source_file_index>
2032

> <i_lp_mmshare_version>
43012

> <i_f3d_flags>
0

> <s_epik_input>
W0NIM11bQ0BASF0xW0NIMl1OKFtDSDJdW0NASF0oTzEpW0NIM10pW0NASF0oW0NIM10pW0NIMl1bTkhdQyg9TylbTkhdYzJuW2NIXVtjSF1zMg==

> <s_epik_cmdline>
J2VwaWtfcHl0aG9uJywgJy1waCcsICc3LjAnLCAnLXRuJywgJzgnLCAnLW1hJywgJzIwMCcsICctbWV0YWxfYmluZGluZycsICctaW1hZScsICc8aW5maWxlLm1hZT4nLCAnLW9tYWUnLCAnPG91dGZpbGUubWFlPic=

> <r_lp_tautomer_probability>
0.999

> <r_epik_Ionization_Penalty>
0.219202

> <r_epik_Ionization_Penalty_Charging>
0

> <r_epik_Ionization_Penalty_Neutral>
0.219202

> <r_epik_State_Penalty>
0.209349

> <r_epik_Charging_Adjusted_Penalty>
0.209349

> <i_epik_Tot_Q>
0

> <i_epik_Tot_abs_Q>
0

> <r_epik_Metal_State_Penalty>
0.247737

> <b_epik_Metal_Only>
0

> <s_lp_Force_Field>
OPLS_2005

> <r_lp_Energy>
32.247

> <b_lp_Chiralities_Consistent>
1

> <s_lp_Variant>
AV-unprocessed.smi:2032-3

> <Gold.Version>
5.8.1

> <Gold.Id.Protein>
6NUR|6NUR_protein|mol2

> <Gold.PLP.Fitness>
44.9328

> <Gold.PLP.PLP>
-34.4061

> <Gold.PLP.part.hbond>
-3.0000

> <Gold.PLP.part.metal>
0.0000

> <Gold.PLP.part.buried>
-0.4893

> <Gold.PLP.part.nonpolar>
-31.9273

> <Gold.PLP.part.repulsive>
0.5940

> <Gold.PLP.ligand.clash>
0.0031

> <Gold.PLP.ligand.torsion>
0.7634

> <Gold.PLP.Chemscore.Hbond>
3.0000

> <Gold.PLP.Chemscore.CHOScore>
1.0000

> <Gold.PLP.Chemscore.Metal>
0.0000

> <Gold.Chemscore.Hbonds>
donor molecule, donor type, donor heavy atom, donor atom, acceptor molecule, acceptor atom, score
      L1  H     8    33       P1  7948  0.96
      L1  H    11    34       P1  7948  1.00
      P1  H  7989  7998       L1    20  1.00
      L1  C    14    35       P1 10186  0.86

> <Gold.PLP.Chemscore.Internal.Correction>
0.0565

> <Gold.Rescore>
     Score         DG    S(hbond)    S(metal)    S(lipo)     H(rot)  DE(clash)    DE(int)     intcor
     18.32     -20.89       2.79        0.00      86.45       1.57       0.56       2.02       ----

> <Gold.Chemscore.Fitness>
18.3175

> <Gold.Chemscore.DG>
-20.8936

> <Gold.Chemscore.ZeroCoef>
-5.4800

> <Gold.Chemscore.Hbond>
2.7935

> <Gold.Chemscore.Metal>
0.0000

> <Gold.Chemscore.Lipo>
86.4543

> <Gold.Chemscore.Internal_Hbond>
0.0000

> <Gold.Chemscore.DEClash>
0.5579

> <Gold.Chemscore.DEInternal>
2.0182

> <Gold.Chemscore.Rot>
1.5750

> <Gold.Chemscore.Internal.Correction>
   9.000000E+99

> <Gold.Chemscore.Hbonds>
donor molecule, donor type, donor heavy atom, donor atom, acceptor molecule, acceptor atom, score
      L1  H     8    33       P1  7948  0.88
      L1  H    11    34       P1  7948  0.99
      P1  H  7989  7998       L1    20  0.74

> <Gold.Chemscore.Hbond.Weighted>
-9.3304

> <Gold.Chemscore.Metal.Weighted>
-0.0000

> <Gold.Chemscore.Lipo.Weighted>
-10.1151

> <Gold.Chemscore.Internal_Hbond.Weighted>
0.0000

> <Gold.Chemscore.DEClash.Weighted>
0.5579

> <Gold.Chemscore.DEInternal.Weighted>
2.0182

> <Gold.Chemscore.Rot.Weighted>
4.0319

> <Gold.Chemscore.Internal.Correction.Weighted>
   9.000000E+99

> <Gold.Protein.RotatedTorsions>
[ 6907 6896 6895 6894 ] final -162.08 input  -60.11 | X-H torsion
[ 7974 7965 7964 7962 ] final  111.38 input  175.53 | X-H torsion
[ 8008 7997 7996 7995 ] final  -70.30 input   59.86 | X-H torsion
[ 10167 10162 10161 10158 ] final  -77.59 input  -65.29 | X-H torsion
[ 10718 10713 10712 10709 ] final -102.34 input   66.30 | X-H torsion
[ 10763 10752 10751 10750 ] final    1.46 input  -60.55 | X-H torsion
[ 11005 11000 10999 10996 ] final  -78.57 input  -57.11 | X-H torsion

> <Gold.Protein.ActiveResidues>
 VAL166  LYS551  ARG553  GLY616  TRP617  ASP618  TYR619  PRO620  LYS621  CYS622 
 ASP623  PHE694  ASN695  SER759  ASP760  ASP761  ALA762  ILE779  LEU786  VAL792 
 PHE793  MET794  SER795  GLU796  ALA797  LYS798  CYS799  TRP800  GLU811  SER814 

> <Gold.Protein.RotatedAtoms>
  151.3747  133.3842  159.2703 H   0  0  0  0  0  0  0  0  0  0  0  0  # atno 6907 bound_to 6896
  150.9623  134.9010  159.7749 H   0  0  0  0  0  0  0  0  0  0  0  0  # atno 6908 bound_to 6896
  152.5154  134.3707  159.9369 H   0  0  0  0  0  0  0  0  0  0  0  0  # atno 6909 bound_to 6896
  145.2430  139.2771  143.4108 H   0  0  0  0  0  0  0  0  0  0  0  0  # atno 7974 bound_to 7965
  154.5002  140.0837  156.7781 H   0  0  0  0  0  0  0  0  0  0  0  0  # atno 8008 bound_to 7997
  155.4022  140.3437  155.4239 H   0  0  0  0  0  0  0  0  0  0  0  0  # atno 8009 bound_to 7997
  156.1446  140.1540  156.8855 H   0  0  0  0  0  0  0  0  0  0  0  0  # atno 8010 bound_to 7997
  140.4757  143.2415  151.8136 H   0  0  0  0  0  0  0  0  0  0  0  0  # atno 10167 bound_to 10162
  156.0225  130.5415  150.7094 H   0  0  0  0  0  0  0  0  0  0  0  0  # atno 10718 bound_to 10713
  153.3078  135.6960  153.7143 H   0  0  0  0  0  0  0  0  0  0  0  0  # atno 10763 bound_to 10752
  153.6032  135.3458  155.2953 H   0  0  0  0  0  0  0  0  0  0  0  0  # atno 10764 bound_to 10752
  154.8567  135.4345  154.2208 H   0  0  0  0  0  0  0  0  0  0  0  0  # atno 10765 bound_to 10752
  141.1665  133.7069  156.7992 H   0  0  0  0  0  0  0  0  0  0  0  0  # atno 11005 bound_to 11000
  146.3323  140.2798  142.8610 LP  0  0  0  0  0  0  0  0  0  0  0  0  # atno 17320 bound_to 7965
  144.9572  140.8238  143.5535 LP  0  0  0  0  0  0  0  0  0  0  0  0  # atno 17321 bound_to 7965
  139.4825  144.4836  151.9275 LP  0  0  0  0  0  0  0  0  0  0  0  0  # atno 17342 bound_to 10162
  140.3921  144.2601  150.5899 LP  0  0  0  0  0  0  0  0  0  0  0  0  # atno 17343 bound_to 10162
  157.4736  131.0895  151.0615 LP  0  0  0  0  0  0  0  0  0  0  0  0  # atno 17370 bound_to 10713
  157.1069  130.6005  149.5473 LP  0  0  0  0  0  0  0  0  0  0  0  0  # atno 17371 bound_to 10713
  140.2269  134.8715  157.3436 LP  0  0  0  0  0  0  0  0  0  0  0  0  # atno 17394 bound_to 11000
  140.1931  134.4348  155.7705 LP  0  0  0  0  0  0  0  0  0  0  0  0  # atno 17395 bound_to 11000

$$$$
