AV-unprocessed.smi:3057|AV-procd|sdf|11666|dock1
  -GOLD-   2272017 73D 1   1.00000     0.00000
 Structure written by MMmdl.
 41 43  0  0  0  0  0  0  0  0  2 V2000
  152.9381  144.1027  158.4846 C   0  0  0  0  0  0  0  0  0  0  0  0
  152.2374  142.9066  159.1617 C   0  0  2  0  0  0  0  0  0  0  0  0
  152.7111  142.7306  160.6135 C   0  0  0  0  0  0  0  0  0  0  0  0
  153.8918  141.7534  160.5043 C   0  0  0  0  0  0  0  0  0  0  0  0
  153.5972  141.0250  159.2012 C   0  0  0  0  0  0  0  0  0  0  0  0
  154.1526  139.9768  158.8750 O   0  0  0  0  0  0  0  0  0  0  0  0
  152.6204  141.6573  158.5307 N   0  0  0  0  0  0  0  0  0  0  0  0
  151.7606  141.1715  157.4408 C   0  0  1  0  0  0  0  0  0  0  0  0
  151.2533  139.7338  157.6594 C   0  0  0  0  0  0  0  0  0  0  0  0
  150.8151  139.3893  158.7578 O   0  0  0  0  0  0  0  0  0  0  0  0
  151.3075  138.9122  156.6009 N   0  0  0  0  0  0  0  0  0  0  0  0
  150.8882  137.5176  156.6162 C   0  0  0  0  0  0  0  0  0  0  0  0
  150.7429  136.9816  155.1854 C   0  0  0  0  0  0  0  0  0  0  0  0
  150.6346  135.4696  155.1478 C   0  0  0  0  0  0  0  0  0  0  0  0
  151.1720  134.6514  156.1653 C   0  0  0  0  0  0  0  0  0  0  0  0
  151.0419  133.2505  156.0631 C   0  0  0  0  0  0  0  0  0  0  0  0
  150.3790  132.6982  154.9475 C   0  0  0  0  0  0  0  0  0  0  0  0
  149.8614  133.5621  153.9607 C   0  0  0  0  0  0  0  0  0  0  0  0
  150.0062  134.8989  154.0943 N   0  3  0  0  0  0  0  0  0  0  0  0
  150.5998  142.1826  157.3101 C   0  0  0  0  0  0  0  0  0  0  0  0
  150.4491  142.9777  158.9333 S   0  0  0  0  0  0  0  0  0  0  0  0
  154.0232  144.0302  158.5662 H   0  0  0  0  0  0  0  0  0  0  0  0
  152.6374  145.0427  158.9481 H   0  0  0  0  0  0  0  0  0  0  0  0
  152.6971  144.1693  157.4238 H   0  0  0  0  0  0  0  0  0  0  0  0
  152.9922  143.6737  161.0832 H   0  0  0  0  0  0  0  0  0  0  0  0
  151.9238  142.2833  161.2225 H   0  0  0  0  0  0  0  0  0  0  0  0
  154.8421  142.2811  160.4178 H   0  0  0  0  0  0  0  0  0  0  0  0
  153.9423  141.0686  161.3512 H   0  0  0  0  0  0  0  0  0  0  0  0
  152.3482  141.1928  156.5215 H   0  0  0  0  0  0  0  0  0  0  0  0
  151.6749  139.2753  155.7333 H   0  0  0  0  0  0  0  0  0  0  0  0
  151.6161  136.9148  157.1627 H   0  0  0  0  0  0  0  0  0  0  0  0
  149.9393  137.4393  157.1490 H   0  0  0  0  0  0  0  0  0  0  0  0
  149.8614  137.4152  154.7109 H   0  0  0  0  0  0  0  0  0  0  0  0
  151.5995  137.2874  154.5826 H   0  0  0  0  0  0  0  0  0  0  0  0
  151.6793  135.0886  157.0131 H   0  0  0  0  0  0  0  0  0  0  0  0
  151.4468  132.6075  156.8309 H   0  0  0  0  0  0  0  0  0  0  0  0
  150.2697  131.6279  154.8497 H   0  0  0  0  0  0  0  0  0  0  0  0
  149.3416  133.2271  153.0749 H   0  0  0  0  0  0  0  0  0  0  0  0
  150.8433  142.9441  156.5687 H   0  0  0  0  0  0  0  0  0  0  0  0
  149.6551  141.7266  157.0103 H   0  0  0  0  0  0  0  0  0  0  0  0
  149.6257  135.5052  153.3670 H   0  0  0  0  0  0  0  0  0  0  0  0
  1  2  1  0  0  0  0
  1 22  1  0  0  0  0
  1 23  1  0  0  0  0
  1 24  1  0  0  0  0
  2  7  1  0  0  0  0
  2 21  1  0  0  0  0
  2  3  1  0  0  0  0
  3  4  1  0  0  0  0
  3 25  1  0  0  0  0
  3 26  1  0  0  0  0
  4  5  1  0  0  0  0
  4 27  1  0  0  0  0
  4 28  1  0  0  0  0
  5  6  2  0  0  0  0
  5  7  1  0  0  0  0
  7  8  1  0  0  0  0
  8  9  1  0  0  0  0
  8 20  1  0  0  0  0
  8 29  1  0  0  0  0
  9 10  2  0  0  0  0
  9 11  1  0  0  0  0
 11 12  1  0  0  0  0
 11 30  1  0  0  0  0
 12 13  1  0  0  0  0
 12 31  1  0  0  0  0
 12 32  1  0  0  0  0
 13 14  1  0  0  0  0
 13 33  1  0  0  0  0
 13 34  1  0  0  0  0
 14 19  1  0  0  0  0
 14 15  2  0  0  0  0
 15 16  1  0  0  0  0
 15 35  1  0  0  0  0
 16 17  2  0  0  0  0
 16 36  1  0  0  0  0
 17 18  1  0  0  0  0
 17 37  1  0  0  0  0
 18 19  2  0  0  0  0
 18 38  1  0  0  0  0
 19 41  1  0  0  0  0
 20 21  1  0  0  0  0
 20 39  1  0  0  0  0
 20 40  1  0  0  0  0
M  CHG  1  19   1
M  END
> <s_m_source_file>
AV-unprocessed.smi

> <i_m_source_file_index>
3057

> <i_lp_mmshare_version>
43012

> <i_f3d_flags>
0

> <s_epik_input>
W0NIMl0xW0NIMl1DKD1PKU4oW0NAQF0xMltDSDNdKVtDQEhdKFtDSDJdUzIpQyg9TylbTkhdW0NIMl1bQ0gyXWMzW2NIXVtjSF1bY0hdW2NIXW4z

> <s_epik_cmdline>
J2VwaWtfcHl0aG9uJywgJy1waCcsICc3LjAnLCAnLXRuJywgJzgnLCAnLW1hJywgJzIwMCcsICctbWV0YWxfYmluZGluZycsICctaW1hZScsICc8aW5maWxlLm1hZT4nLCAnLW9tYWUnLCAnPG91dGZpbGUubWFlPic=

> <r_epik_Ionization_Penalty>
1.8888

> <r_epik_Ionization_Penalty_Charging>
1.8888

> <r_epik_Ionization_Penalty_Neutral>
1.66252e-07

> <r_epik_State_Penalty>
2.00916

> <r_epik_Charging_Adjusted_Penalty>
3.89796

> <i_epik_Tot_Q>
1

> <i_epik_Tot_abs_Q>
1

> <r_epik_Metal_State_Penalty>
2.03343

> <b_epik_Metal_Only>
0

> <s_lp_Force_Field>
OPLS_2005

> <r_lp_Energy>
32.3734

> <b_lp_Chiralities_Consistent>
1

> <s_lp_Variant>
AV-unprocessed.smi:3057-6

> <Gold.Version>
5.8.1

> <Gold.Id.Protein>
6NUR|6NUR_protein|mol2

> <Gold.PLP.Fitness>
47.0666

> <Gold.PLP.PLP>
-39.8452

> <Gold.PLP.part.hbond>
-2.0848

> <Gold.PLP.part.metal>
0.0000

> <Gold.PLP.part.buried>
-4.8945

> <Gold.PLP.part.nonpolar>
-33.0934

> <Gold.PLP.part.repulsive>
0.0864

> <Gold.PLP.ligand.clash>
0.0000

> <Gold.PLP.ligand.torsion>
0.8858

> <Gold.PLP.Chemscore.Hbond>
2.9913

> <Gold.PLP.Chemscore.CHOScore>
0.0000

> <Gold.PLP.Chemscore.Metal>
0.0000

> <Gold.Chemscore.Hbonds>
donor molecule, donor type, donor heavy atom, donor atom, acceptor molecule, acceptor atom, score
      L1  H    19    41       P1  7948  1.20
      P1  H  7997  8008       L1     6  1.00

> <Gold.PLP.Chemscore.Internal.Correction>
0.0192

> <Gold.Rescore>
     Score         DG    S(hbond)    S(metal)    S(lipo)     H(rot)  DE(clash)    DE(int)     intcor
     17.67     -18.46       1.74        0.00      96.85       1.62       0.05       0.75       ----

> <Gold.Chemscore.Fitness>
17.6661

> <Gold.Chemscore.DG>
-18.4625

> <Gold.Chemscore.ZeroCoef>
-5.4800

> <Gold.Chemscore.Hbond>
1.7385

> <Gold.Chemscore.Metal>
0.0000

> <Gold.Chemscore.Lipo>
96.8525

> <Gold.Chemscore.Internal_Hbond>
0.0000

> <Gold.Chemscore.DEClash>
0.0478

> <Gold.Chemscore.DEInternal>
0.7486

> <Gold.Chemscore.Rot>
1.6234

> <Gold.Chemscore.Internal.Correction>
   9.000000E+99

> <Gold.Chemscore.Hbonds>
donor molecule, donor type, donor heavy atom, donor atom, acceptor molecule, acceptor atom, score
      L1  H    19    41       P1  7948  0.04
      P1  H  7997  8008       L1     6  0.82

> <Gold.Chemscore.Hbond.Weighted>
-5.8065

> <Gold.Chemscore.Metal.Weighted>
-0.0000

> <Gold.Chemscore.Lipo.Weighted>
-11.3317

> <Gold.Chemscore.Internal_Hbond.Weighted>
0.0000

> <Gold.Chemscore.DEClash.Weighted>
0.0478

> <Gold.Chemscore.DEInternal.Weighted>
0.7486

> <Gold.Chemscore.Rot.Weighted>
4.1558

> <Gold.Chemscore.Internal.Correction.Weighted>
   9.000000E+99

> <Gold.Protein.RotatedTorsions>
[ 6907 6896 6895 6894 ] final -133.66 input  -60.11 | X-H torsion
[ 7974 7965 7964 7962 ] final   84.16 input  175.53 | X-H torsion
[ 8008 7997 7996 7995 ] final -103.13 input   59.86 | X-H torsion
[ 10167 10162 10161 10158 ] final   39.34 input  -65.29 | X-H torsion
[ 10718 10713 10712 10709 ] final   -3.53 input   66.30 | X-H torsion
[ 10763 10752 10751 10750 ] final -145.83 input  -60.55 | X-H torsion
[ 11005 11000 10999 10996 ] final  170.34 input  -57.11 | X-H torsion

> <Gold.Protein.ActiveResidues>
 VAL166  LYS551  ARG553  GLY616  TRP617  ASP618  TYR619  PRO620  LYS621  CYS622 
 ASP623  PHE694  ASN695  SER759  ASP760  ASP761  ALA762  ILE779  LEU786  VAL792 
 PHE793  MET794  SER795  GLU796  ALA797  LYS798  CYS799  TRP800  GLU811  SER814 

> <Gold.Protein.RotatedAtoms>
  150.9767  133.6288  159.2728 H   0  0  0  0  0  0  0  0  0  0  0  0  # atno 6907 bound_to 6896
  151.3557  135.0892  159.9427 H   0  0  0  0  0  0  0  0  0  0  0  0  # atno 6908 bound_to 6896
  152.5201  133.9351  159.7653 H   0  0  0  0  0  0  0  0  0  0  0  0  # atno 6909 bound_to 6896
  145.6024  139.2354  143.2238 H   0  0  0  0  0  0  0  0  0  0  0  0  # atno 7974 bound_to 7965
  154.8665  140.0424  157.1698 H   0  0  0  0  0  0  0  0  0  0  0  0  # atno 8008 bound_to 7997
  154.8784  140.2969  155.5419 H   0  0  0  0  0  0  0  0  0  0  0  0  # atno 8009 bound_to 7997
  156.2999  140.2416  156.3783 H   0  0  0  0  0  0  0  0  0  0  0  0  # atno 8010 bound_to 7997
  140.3849  144.1930  150.6130 H   0  0  0  0  0  0  0  0  0  0  0  0  # atno 10167 bound_to 10162
  156.7746  130.5311  149.5761 H   0  0  0  0  0  0  0  0  0  0  0  0  # atno 10718 bound_to 10713
  154.8365  135.3402  154.6566 H   0  0  0  0  0  0  0  0  0  0  0  0  # atno 10763 bound_to 10752
  153.7180  135.6960  153.5024 H   0  0  0  0  0  0  0  0  0  0  0  0  # atno 10764 bound_to 10752
  153.2402  135.4387  155.0643 H   0  0  0  0  0  0  0  0  0  0  0  0  # atno 10765 bound_to 10752
  140.3074  134.7545  157.3964 H   0  0  0  0  0  0  0  0  0  0  0  0  # atno 11005 bound_to 11000
  146.1566  140.6848  142.9297 LP  0  0  0  0  0  0  0  0  0  0  0  0  # atno 17320 bound_to 7965
  144.7304  140.4655  143.6942 LP  0  0  0  0  0  0  0  0  0  0  0  0  # atno 17321 bound_to 7965
  140.4900  143.2351  151.8833 LP  0  0  0  0  0  0  0  0  0  0  0  0  # atno 17342 bound_to 10162
  139.4793  144.5177  151.8845 LP  0  0  0  0  0  0  0  0  0  0  0  0  # atno 17343 bound_to 10162
  156.1256  130.6141  151.0258 LP  0  0  0  0  0  0  0  0  0  0  0  0  # atno 17370 bound_to 10713
  157.6675  131.0868  150.7694 LP  0  0  0  0  0  0  0  0  0  0  0  0  # atno 17371 bound_to 10713
  140.1055  134.5415  155.8313 LP  0  0  0  0  0  0  0  0  0  0  0  0  # atno 17394 bound_to 11000
  141.2115  133.6708  156.6591 LP  0  0  0  0  0  0  0  0  0  0  0  0  # atno 17395 bound_to 11000

$$$$
