AV-unprocessed.smi:2599|AV-procd|sdf|10180|dock8
  -GOLD-   2272014193D 1   1.00000     0.00000
 Structure written by MMmdl.
 40 41  0  0  0  0  0  0  0  0  1 V2000
  152.9118  139.4124  158.7164 C   0  0  0  0  0  0  0  0  0  0  0  0
  152.9125  139.5845  157.3034 O   0  0  0  0  0  0  0  0  0  0  0  0
  152.1777  138.7020  156.5387 C   0  0  0  0  0  0  0  0  0  0  0  0
  152.1271  138.8842  155.1462 C   0  0  0  0  0  0  0  0  0  0  0  0
  151.3656  137.9725  154.3962 C   0  0  0  0  0  0  0  0  0  0  0  0
  150.7072  136.9237  155.0839 C   0  0  0  0  0  0  0  0  0  0  0  0
  149.8920  135.9921  154.3883 N   0  0  0  0  0  0  0  0  0  0  0  0
  149.3553  134.8469  154.8437 C   0  0  0  0  0  0  0  0  0  0  0  0
  149.4584  134.4244  155.9956 O   0  0  0  0  0  0  0  0  0  0  0  0
  148.6713  134.2167  153.8769 N   0  0  0  0  0  0  0  0  0  0  0  0
  147.9774  132.9352  154.0090 C   0  0  1  0  0  0  0  0  0  0  0  0
  146.9713  133.0503  155.1672 C   0  0  0  0  0  0  0  0  0  0  0  0
  147.3228  132.5369  152.6596 C   0  0  0  0  0  0  0  0  0  0  0  0
  146.3943  133.6354  152.1030 C   0  0  0  0  0  0  0  0  0  0  0  0
  145.6972  133.1783  150.8112 C   0  0  0  0  0  0  0  0  0  0  0  0
  144.9700  131.9793  151.0467 O   0  0  0  0  0  0  0  0  0  0  0  0
  145.8081  130.8985  151.4355 C   0  0  0  0  0  0  0  0  0  0  0  0
  146.5091  131.2284  152.7626 C   0  0  0  0  0  0  0  0  0  0  0  0
  150.7921  136.8239  156.4321 N   0  0  0  0  0  0  0  0  0  0  0  0
  151.5168  137.6874  157.1506 N   0  0  0  0  0  0  0  0  0  0  0  0
  153.5220  140.1897  159.1758 H   0  0  0  0  0  0  0  0  0  0  0  0
  153.3357  138.4480  159.0003 H   0  0  0  0  0  0  0  0  0  0  0  0
  151.9050  139.4967  159.1281 H   0  0  0  0  0  0  0  0  0  0  0  0
  152.6484  139.7011  154.6699 H   0  0  0  0  0  0  0  0  0  0  0  0
  151.2879  138.1014  153.3275 H   0  0  0  0  0  0  0  0  0  0  0  0
  149.6276  136.2659  153.4534 H   0  0  0  0  0  0  0  0  0  0  0  0
  148.6397  134.6505  152.9660 H   0  0  0  0  0  0  0  0  0  0  0  0
  148.6929  132.1547  154.2737 H   0  0  0  0  0  0  0  0  0  0  0  0
  146.5157  132.0894  155.4043 H   0  0  0  0  0  0  0  0  0  0  0  0
  146.1712  133.7530  154.9323 H   0  0  0  0  0  0  0  0  0  0  0  0
  147.4619  133.3984  156.0769 H   0  0  0  0  0  0  0  0  0  0  0  0
  148.1197  132.3744  151.9318 H   0  0  0  0  0  0  0  0  0  0  0  0
  145.6408  133.8953  152.8478 H   0  0  0  0  0  0  0  0  0  0  0  0
  146.9546  134.5461  151.8938 H   0  0  0  0  0  0  0  0  0  0  0  0
  145.0037  133.9467  150.4689 H   0  0  0  0  0  0  0  0  0  0  0  0
  146.4225  133.0258  150.0104 H   0  0  0  0  0  0  0  0  0  0  0  0
  145.1966  130.0033  151.5485 H   0  0  0  0  0  0  0  0  0  0  0  0
  146.5369  130.6877  150.6513 H   0  0  0  0  0  0  0  0  0  0  0  0
  147.1503  130.3915  153.0395 H   0  0  0  0  0  0  0  0  0  0  0  0
  145.7622  131.3211  153.5523 H   0  0  0  0  0  0  0  0  0  0  0  0
  1  2  1  0  0  0  0
  1 21  1  0  0  0  0
  1 22  1  0  0  0  0
  1 23  1  0  0  0  0
  2  3  1  0  0  0  0
  3 20  1  0  0  0  0
  3  4  2  0  0  0  0
  4  5  1  0  0  0  0
  4 24  1  0  0  0  0
  5  6  2  0  0  0  0
  5 25  1  0  0  0  0
  6  7  1  0  0  0  0
  6 19  1  0  0  0  0
  7  8  1  0  0  0  0
  7 26  1  0  0  0  0
  8  9  2  0  0  0  0
  8 10  1  0  0  0  0
 10 11  1  0  0  0  0
 10 27  1  0  0  0  0
 11 12  1  0  0  0  0
 11 13  1  0  0  0  0
 11 28  1  0  0  0  0
 12 29  1  0  0  0  0
 12 30  1  0  0  0  0
 12 31  1  0  0  0  0
 13 18  1  0  0  0  0
 13 14  1  0  0  0  0
 13 32  1  0  0  0  0
 14 15  1  0  0  0  0
 14 33  1  0  0  0  0
 14 34  1  0  0  0  0
 15 16  1  0  0  0  0
 15 35  1  0  0  0  0
 15 36  1  0  0  0  0
 16 17  1  0  0  0  0
 17 18  1  0  0  0  0
 17 37  1  0  0  0  0
 17 38  1  0  0  0  0
 18 39  1  0  0  0  0
 18 40  1  0  0  0  0
 19 20  2  0  0  0  0
M  END
> <s_m_source_file>
AV-unprocessed.smi

> <i_m_source_file_index>
2599

> <i_lp_mmshare_version>
43012

> <i_f3d_flags>
0

> <s_epik_input>
W0NIM11PYzFbY0hdW2NIXWMobm4xKVtOSF1DKD1PKVtOSF1bQ0BIXShbQ0gzXSlbQ0hdMltDSDJdW0NIMl1PW0NIMl1bQ0gyXTI=

> <s_epik_cmdline>
J2VwaWtfcHl0aG9uJywgJy1waCcsICc3LjAnLCAnLXRuJywgJzgnLCAnLW1hJywgJzIwMCcsICctbWV0YWxfYmluZGluZycsICctaW1hZScsICc8aW5maWxlLm1hZT4nLCAnLW9tYWUnLCAnPG91dGZpbGUubWFlPic=

> <r_lp_tautomer_probability>
1

> <r_epik_Ionization_Penalty>
0.00150063

> <r_epik_Ionization_Penalty_Charging>
0

> <r_epik_Ionization_Penalty_Neutral>
0.00150063

> <r_epik_State_Penalty>
-0

> <r_epik_Charging_Adjusted_Penalty>
0

> <i_epik_Tot_Q>
0

> <i_epik_Tot_abs_Q>
0

> <r_epik_Metal_State_Penalty>
-0

> <b_epik_Metal_Only>
0

> <s_lp_Force_Field>
OPLS_2005

> <r_lp_Energy>
19.9533

> <b_lp_Chiralities_Consistent>
1

> <s_lp_Variant>
AV-unprocessed.smi:2599-2

> <Gold.Version>
5.8.1

> <Gold.Id.Protein>
6NUR|6NUR_protein|mol2

> <Gold.PLP.Fitness>
38.5992

> <Gold.PLP.PLP>
-30.0376

> <Gold.PLP.part.hbond>
-3.7052

> <Gold.PLP.part.metal>
0.0000

> <Gold.PLP.part.buried>
-3.3976

> <Gold.PLP.part.nonpolar>
-23.5004

> <Gold.PLP.part.repulsive>
0.1910

> <Gold.PLP.ligand.clash>
0.0000

> <Gold.PLP.ligand.torsion>
0.0718

> <Gold.PLP.Chemscore.Hbond>
2.8928

> <Gold.PLP.Chemscore.CHOScore>
0.0000

> <Gold.PLP.Chemscore.Metal>
0.0000

> <Gold.Chemscore.Hbonds>
donor molecule, donor type, donor heavy atom, donor atom, acceptor molecule, acceptor atom, score
      L1  H     7    26       P1  7948  1.00
      L1  H    10    27       P1  7948  0.94
      P1  H  7997  8009       L1     2  1.00

> <Gold.PLP.Chemscore.Internal.Correction>
0.0268

> <Gold.Rescore>
     Score         DG    S(hbond)    S(metal)    S(lipo)     H(rot)  DE(clash)    DE(int)     intcor
     15.48     -17.01       2.55        0.00      59.74       1.55       0.01       1.52       ----

> <Gold.Chemscore.Fitness>
15.4824

> <Gold.Chemscore.DG>
-17.0051

> <Gold.Chemscore.ZeroCoef>
-5.4800

> <Gold.Chemscore.Hbond>
2.5453

> <Gold.Chemscore.Metal>
0.0000

> <Gold.Chemscore.Lipo>
59.7414

> <Gold.Chemscore.Internal_Hbond>
0.0000

> <Gold.Chemscore.DEClash>
0.0060

> <Gold.Chemscore.DEInternal>
1.5167

> <Gold.Chemscore.Rot>
1.5492

> <Gold.Chemscore.Internal.Correction>
   9.000000E+99

> <Gold.Chemscore.Hbonds>
donor molecule, donor type, donor heavy atom, donor atom, acceptor molecule, acceptor atom, score
      L1  H     7    26       P1  7948  0.40
      L1  H    10    27       P1  7948  0.20
      P1  H  7997  8009       L1     2  0.85

> <Gold.Chemscore.Hbond.Weighted>
-8.5012

> <Gold.Chemscore.Metal.Weighted>
-0.0000

> <Gold.Chemscore.Lipo.Weighted>
-6.9897

> <Gold.Chemscore.Internal_Hbond.Weighted>
0.0000

> <Gold.Chemscore.DEClash.Weighted>
0.0060

> <Gold.Chemscore.DEInternal.Weighted>
1.5167

> <Gold.Chemscore.Rot.Weighted>
3.9659

> <Gold.Chemscore.Internal.Correction.Weighted>
   9.000000E+99

> <Gold.Protein.RotatedTorsions>
[ 6907 6896 6895 6894 ] final   49.00 input  -60.11 | X-H torsion
[ 7974 7965 7964 7962 ] final  -83.90 input  175.53 | X-H torsion
[ 8008 7997 7996 7995 ] final -176.96 input   59.86 | X-H torsion
[ 10167 10162 10161 10158 ] final -115.23 input  -65.29 | X-H torsion
[ 10718 10713 10712 10709 ] final -116.58 input   66.30 | X-H torsion
[ 10763 10752 10751 10750 ] final  -99.14 input  -60.55 | X-H torsion
[ 11005 11000 10999 10996 ] final   -7.18 input  -57.11 | X-H torsion

> <Gold.Protein.ActiveResidues>
 VAL166  LYS551  ARG553  GLY616  TRP617  ASP618  TYR619  PRO620  LYS621  CYS622 
 ASP623  PHE694  ASN695  SER759  ASP760  ASP761  ALA762  ILE779  LEU786  VAL792 
 PHE793  MET794  SER795  GLU796  ALA797  LYS798  CYS799  TRP800  GLU811  SER814 

> <Gold.Protein.RotatedAtoms>
  152.2858  134.7777  160.0387 H   0  0  0  0  0  0  0  0  0  0  0  0  # atno 6907 bound_to 6896
  151.8341  133.3408  159.3630 H   0  0  0  0  0  0  0  0  0  0  0  0  # atno 6908 bound_to 6896
  150.7209  134.5383  159.5779 H   0  0  0  0  0  0  0  0  0  0  0  0  # atno 6909 bound_to 6896
  145.5138  140.9537  143.1692 H   0  0  0  0  0  0  0  0  0  0  0  0  # atno 7974 bound_to 7965
  156.0012  140.1221  157.0546 H   0  0  0  0  0  0  0  0  0  0  0  0  # atno 8008 bound_to 7997
  154.4243  140.1106  156.5768 H   0  0  0  0  0  0  0  0  0  0  0  0  # atno 8009 bound_to 7997
  155.6210  140.3472  155.4654 H   0  0  0  0  0  0  0  0  0  0  0  0  # atno 8010 bound_to 7997
  140.0923  143.4688  152.1862 H   0  0  0  0  0  0  0  0  0  0  0  0  # atno 10167 bound_to 10162
  156.0974  130.6143  150.9055 H   0  0  0  0  0  0  0  0  0  0  0  0  # atno 10718 bound_to 10713
  154.7473  135.4983  153.9226 H   0  0  0  0  0  0  0  0  0  0  0  0  # atno 10763 bound_to 10752
  153.1105  135.6708  153.9516 H   0  0  0  0  0  0  0  0  0  0  0  0  # atno 10764 bound_to 10752
  153.9277  135.3081  155.3425 H   0  0  0  0  0  0  0  0  0  0  0  0  # atno 10765 bound_to 10752
  140.7099  133.8917  155.8743 H   0  0  0  0  0  0  0  0  0  0  0  0  # atno 11005 bound_to 11000
  144.7713  139.6729  143.7193 LP  0  0  0  0  0  0  0  0  0  0  0  0  # atno 17320 bound_to 7965
  146.2149  139.5532  142.9656 LP  0  0  0  0  0  0  0  0  0  0  0  0  # atno 17321 bound_to 7965
  139.5718  144.7466  151.3872 LP  0  0  0  0  0  0  0  0  0  0  0  0  # atno 17342 bound_to 10162
  140.7022  143.7604  150.7422 LP  0  0  0  0  0  0  0  0  0  0  0  0  # atno 17343 bound_to 10162
  157.6137  131.0934  150.8748 LP  0  0  0  0  0  0  0  0  0  0  0  0  # atno 17370 bound_to 10713
  156.8883  130.5204  149.5287 LP  0  0  0  0  0  0  0  0  0  0  0  0  # atno 17371 bound_to 10713
  141.0093  134.1043  157.4238 LP  0  0  0  0  0  0  0  0  0  0  0  0  # atno 17394 bound_to 11000
  139.8874  135.0089  156.6559 LP  0  0  0  0  0  0  0  0  0  0  0  0  # atno 17395 bound_to 11000

$$$$
