AV-unprocessed.smi:242|AV-procd|sdf|1845|dock5
  -GOLD-   2262020463D 1   1.00000     0.00000
 Structure written by MMmdl.
 58 61  0  0  0  0  0  0  0  0  2 V2000
  148.0934  133.2611  153.1696 C   0  0  0  0  0  0  0  0  0  0  0  0
  146.6694  133.4511  152.6124 C   0  0  0  0  0  0  0  0  0  0  0  0
  146.4677  132.5308  151.3935 C   0  0  0  0  0  0  0  0  0  0  0  0
  146.3989  134.8736  152.2604 N   0  3  1  0  0  0  0  0  0  0  0  0
  145.3710  135.0808  151.2080 C   0  0  0  0  0  0  0  0  0  0  0  0
  144.5052  136.2659  151.6526 C   0  0  0  0  0  0  0  0  0  0  0  0
  145.3336  136.9503  152.7437 C   0  0  1  0  0  0  0  0  0  0  0  0
  144.5588  137.7593  153.6870 N   0  0  0  0  0  0  0  0  0  0  0  0
  143.4082  137.1172  154.3108 C   0  0  0  0  0  0  0  0  0  0  0  0
  145.3062  138.4169  154.6005 C   0  0  0  0  0  0  0  0  0  0  0  0
  144.9458  138.2944  155.9012 N   0  0  0  0  0  0  0  0  0  0  0  0
  145.6404  138.9339  156.8476 C   0  0  0  0  0  0  0  0  0  0  0  0
  146.7041  139.7288  156.7099 N   0  0  0  0  0  0  0  0  0  0  0  0
  147.0691  139.8489  155.4009 C   0  0  0  0  0  0  0  0  0  0  0  0
  146.4332  139.2285  154.2899 C   0  0  0  0  0  0  0  0  0  0  0  0
  147.0862  139.5747  153.1132 N   0  0  0  0  0  0  0  0  0  0  0  0
  148.0546  140.3562  153.5071 C   0  0  0  0  0  0  0  0  0  0  0  0
  148.1103  140.5853  154.8639 N   0  0  0  0  0  0  0  0  0  0  0  0
  149.0720  141.4173  155.5708 C   0  0  0  0  0  0  0  0  0  0  0  0
  150.0416  140.6229  156.4814 C   0  0  0  0  0  0  0  0  0  0  0  0
  149.2673  139.9272  157.4433 O   0  0  0  0  0  0  0  0  0  0  0  0
  150.8317  139.5907  155.6518 C   0  0  0  0  0  0  0  0  0  0  0  0
  151.9322  138.9005  156.4773 C   0  0  0  0  0  0  0  0  0  0  0  0
  152.7971  139.8763  157.0449 O   0  0  0  0  0  0  0  0  0  0  0  0
  152.1266  140.7342  157.9600 C   0  0  0  0  0  0  0  0  0  0  0  0
  151.0349  141.5379  157.2309 C   0  0  0  0  0  0  0  0  0  0  0  0
  146.0293  135.7535  153.3906 C   0  0  0  0  0  0  0  0  0  0  0  0
  148.2917  132.2098  153.3810 H   0  0  0  0  0  0  0  0  0  0  0  0
  148.2434  133.8014  154.1042 H   0  0  0  0  0  0  0  0  0  0  0  0
  148.8472  133.6021  152.4591 H   0  0  0  0  0  0  0  0  0  0  0  0
  145.9621  133.1538  153.3884 H   0  0  0  0  0  0  0  0  0  0  0  0
  146.6900  131.4935  151.6460 H   0  0  0  0  0  0  0  0  0  0  0  0
  147.1231  132.8163  150.5699 H   0  0  0  0  0  0  0  0  0  0  0  0
  145.4422  132.5529  151.0252 H   0  0  0  0  0  0  0  0  0  0  0  0
  145.8729  135.2926  150.2636 H   0  0  0  0  0  0  0  0  0  0  0  0
  144.7440  134.2001  151.0625 H   0  0  0  0  0  0  0  0  0  0  0  0
  144.2554  136.9345  150.8277 H   0  0  0  0  0  0  0  0  0  0  0  0
  143.5696  135.8912  152.0715 H   0  0  0  0  0  0  0  0  0  0  0  0
  146.0934  137.5755  152.2723 H   0  0  0  0  0  0  0  0  0  0  0  0
  142.9769  137.7445  155.0927 H   0  0  0  0  0  0  0  0  0  0  0  0
  143.6894  136.1614  154.7547 H   0  0  0  0  0  0  0  0  0  0  0  0
  142.6290  136.9339  153.5709 H   0  0  0  0  0  0  0  0  0  0  0  0
  145.2932  138.7890  157.8601 H   0  0  0  0  0  0  0  0  0  0  0  0
  148.7553  140.7981  152.8134 H   0  0  0  0  0  0  0  0  0  0  0  0
  149.6322  141.9937  154.8332 H   0  0  0  0  0  0  0  0  0  0  0  0
  148.5153  142.1453  156.1624 H   0  0  0  0  0  0  0  0  0  0  0  0
  149.8096  139.2655  157.8452 H   0  0  0  0  0  0  0  0  0  0  0  0
  150.1590  138.8440  155.2276 H   0  0  0  0  0  0  0  0  0  0  0  0
  151.3018  140.0926  154.8051 H   0  0  0  0  0  0  0  0  0  0  0  0
  151.5035  138.2755  157.2622 H   0  0  0  0  0  0  0  0  0  0  0  0
  152.5196  138.2423  155.8370 H   0  0  0  0  0  0  0  0  0  0  0  0
  151.7038  140.1512  158.7795 H   0  0  0  0  0  0  0  0  0  0  0  0
  152.8558  141.4136  158.4013 H   0  0  0  0  0  0  0  0  0  0  0  0
  151.5158  142.2076  156.5169 H   0  0  0  0  0  0  0  0  0  0  0  0
  150.5140  142.1748  157.9467 H   0  0  0  0  0  0  0  0  0  0  0  0
  145.3386  135.2302  154.0550 H   0  0  0  0  0  0  0  0  0  0  0  0
  146.9043  136.0509  153.9696 H   0  0  0  0  0  0  0  0  0  0  0  0
  147.2570  135.2538  151.8873 H   0  0  0  0  0  0  0  0  0  0  0  0
  1  2  1  0  0  0  0
  1 28  1  0  0  0  0
  1 29  1  0  0  0  0
  1 30  1  0  0  0  0
  2  3  1  0  0  0  0
  2  4  1  0  0  0  0
  2 31  1  0  0  0  0
  3 32  1  0  0  0  0
  3 33  1  0  0  0  0
  3 34  1  0  0  0  0
  4 27  1  0  0  0  0
  4  5  1  0  0  0  0
  4 58  1  0  0  0  0
  5  6  1  0  0  0  0
  5 35  1  0  0  0  0
  5 36  1  0  0  0  0
  6  7  1  0  0  0  0
  6 37  1  0  0  0  0
  6 38  1  0  0  0  0
  7  8  1  0  0  0  0
  7 27  1  0  0  0  0
  7 39  1  0  0  0  0
  8  9  1  0  0  0  0
  8 10  1  0  0  0  0
  9 40  1  0  0  0  0
  9 41  1  0  0  0  0
  9 42  1  0  0  0  0
 10 15  1  0  0  0  0
 10 11  2  0  0  0  0
 11 12  1  0  0  0  0
 12 13  2  0  0  0  0
 12 43  1  0  0  0  0
 13 14  1  0  0  0  0
 14 18  1  0  0  0  0
 14 15  2  0  0  0  0
 15 16  1  0  0  0  0
 16 17  2  0  0  0  0
 17 18  1  0  0  0  0
 17 44  1  0  0  0  0
 18 19  1  0  0  0  0
 19 20  1  0  0  0  0
 19 45  1  0  0  0  0
 19 46  1  0  0  0  0
 20 26  1  0  0  0  0
 20 21  1  0  0  0  0
 20 22  1  0  0  0  0
 21 47  1  0  0  0  0
 22 23  1  0  0  0  0
 22 48  1  0  0  0  0
 22 49  1  0  0  0  0
 23 24  1  0  0  0  0
 23 50  1  0  0  0  0
 23 51  1  0  0  0  0
 24 25  1  0  0  0  0
 25 26  1  0  0  0  0
 25 52  1  0  0  0  0
 25 53  1  0  0  0  0
 26 54  1  0  0  0  0
 26 55  1  0  0  0  0
 27 56  1  0  0  0  0
 27 57  1  0  0  0  0
M  CHG  1   4   1
M  END
> <s_m_source_file>
AV-unprocessed.smi

> <i_m_source_file_index>
242

> <i_lp_mmshare_version>
43012

> <i_f3d_flags>
0

> <s_epik_input>
W0NIM11bQ0hdKFtDSDNdKU4xW0NIMl1bQ0gyXVtDQEhdKFtDSDJdMSlOKFtDSDNdKWMobltjSF1uMiljKGMyMyluW2NIXW4zW0NIMl1DNChbT0hdKVtDSDJdW0NIMl1PW0NIMl1bQ0gyXTQ=

> <s_epik_cmdline>
J2VwaWtfcHl0aG9uJywgJy1waCcsICc3LjAnLCAnLXRuJywgJzgnLCAnLW1hJywgJzIwMCcsICctbWV0YWxfYmluZGluZycsICctaW1hZScsICc8aW5maWxlLm1hZT4nLCAnLW9tYWUnLCAnPG91dGZpbGUubWFlPic=

> <r_lp_tautomer_probability>
1

> <r_epik_Ionization_Penalty>
0.000825961

> <r_epik_Ionization_Penalty_Charging>
0.00034898

> <r_epik_Ionization_Penalty_Neutral>
0.000476981

> <r_epik_State_Penalty>
-0

> <r_epik_Charging_Adjusted_Penalty>
0.00034898

> <i_epik_Tot_Q>
1

> <i_epik_Tot_abs_Q>
1

> <r_epik_Metal_State_Penalty>
-0

> <b_epik_Metal_Only>
0

> <s_lp_Force_Field>
OPLS_2005

> <r_lp_Energy>
46.4754

> <b_lp_Chiralities_Consistent>
1

> <s_lp_Variant>
AV-unprocessed.smi:242-2

> <Gold.Version>
5.8.1

> <Gold.Id.Protein>
6NUR|6NUR_protein|mol2

> <Gold.PLP.Fitness>
39.6004

> <Gold.PLP.PLP>
-28.7106

> <Gold.PLP.part.hbond>
-2.0000

> <Gold.PLP.part.metal>
0.0000

> <Gold.PLP.part.buried>
0.4095

> <Gold.PLP.part.nonpolar>
-27.6479

> <Gold.PLP.part.repulsive>
0.6558

> <Gold.PLP.ligand.clash>
0.0000

> <Gold.PLP.ligand.torsion>
0.7598

> <Gold.PLP.Chemscore.Hbond>
3.0000

> <Gold.PLP.Chemscore.CHOScore>
0.9964

> <Gold.PLP.Chemscore.Metal>
0.0000

> <Gold.Chemscore.Hbonds>
donor molecule, donor type, donor heavy atom, donor atom, acceptor molecule, acceptor atom, score
      L1  H     4    58       P1  7948  2.00
      P1  H  7997  8009       L1    24  1.00
      L1  C    17    44       P1  7957  0.93

> <Gold.PLP.Chemscore.Internal.Correction>
0.4200

> <Gold.Rescore>
     Score         DG    S(hbond)    S(metal)    S(lipo)     H(rot)  DE(clash)    DE(int)     intcor
     11.99     -13.83       1.94        0.00      70.76       2.50       0.05       1.79       ----

> <Gold.Chemscore.Fitness>
11.9890

> <Gold.Chemscore.DG>
-13.8276

> <Gold.Chemscore.ZeroCoef>
-5.4800

> <Gold.Chemscore.Hbond>
1.9365

> <Gold.Chemscore.Metal>
0.0000

> <Gold.Chemscore.Lipo>
70.7560

> <Gold.Chemscore.Internal_Hbond>
0.0000

> <Gold.Chemscore.DEClash>
0.0460

> <Gold.Chemscore.DEInternal>
1.7926

> <Gold.Chemscore.Rot>
2.4996

> <Gold.Chemscore.Internal.Correction>
   9.000000E+99

> <Gold.Chemscore.Hbonds>
donor molecule, donor type, donor heavy atom, donor atom, acceptor molecule, acceptor atom, score
      L1  H     4    58       P1  7948  0.98
      P1  H  7997  8009       L1    24  0.92

> <Gold.Chemscore.Hbond.Weighted>
-6.4681

> <Gold.Chemscore.Metal.Weighted>
-0.0000

> <Gold.Chemscore.Lipo.Weighted>
-8.2785

> <Gold.Chemscore.Internal_Hbond.Weighted>
0.0000

> <Gold.Chemscore.DEClash.Weighted>
0.0460

> <Gold.Chemscore.DEInternal.Weighted>
1.7926

> <Gold.Chemscore.Rot.Weighted>
6.3990

> <Gold.Chemscore.Internal.Correction.Weighted>
   9.000000E+99

> <Gold.Protein.RotatedTorsions>
[ 6907 6896 6895 6894 ] final  -46.53 input  -60.11 | X-H torsion
[ 7974 7965 7964 7962 ] final  -21.25 input  175.53 | X-H torsion
[ 8008 7997 7996 7995 ] final  166.17 input   59.86 | X-H torsion
[ 10167 10162 10161 10158 ] final  -41.99 input  -65.29 | X-H torsion
[ 10718 10713 10712 10709 ] final  -34.66 input   66.30 | X-H torsion
[ 10763 10752 10751 10750 ] final   86.17 input  -60.55 | X-H torsion
[ 11005 11000 10999 10996 ] final  -42.04 input  -57.11 | X-H torsion

> <Gold.Protein.ActiveResidues>
 VAL166  LYS551  ARG553  GLY616  TRP617  ASP618  TYR619  PRO620  LYS621  CYS622 
 ASP623  PHE694  ASN695  SER759  ASP760  ASP761  ALA762  ILE779  LEU786  VAL792 
 PHE793  MET794  SER795  GLU796  ALA797  LYS798  CYS799  TRP800  GLU811  SER814 

> <Gold.Protein.RotatedAtoms>
  150.9102  134.8519  159.7419 H   0  0  0  0  0  0  0  0  0  0  0  0  # atno 6907 bound_to 6896
  152.4940  134.4370  159.9541 H   0  0  0  0  0  0  0  0  0  0  0  0  # atno 6908 bound_to 6896
  151.4413  133.3603  159.2817 H   0  0  0  0  0  0  0  0  0  0  0  0  # atno 6909 bound_to 6896
  146.1743  140.4315  142.8520 H   0  0  0  0  0  0  0  0  0  0  0  0  # atno 7974 bound_to 7965
  156.1740  140.1650  156.8396 H   0  0  0  0  0  0  0  0  0  0  0  0  # atno 8008 bound_to 7997
  154.5287  140.0761  156.8339 H   0  0  0  0  0  0  0  0  0  0  0  0  # atno 8009 bound_to 7997
  155.3452  140.3387  155.4241 H   0  0  0  0  0  0  0  0  0  0  0  0  # atno 8010 bound_to 7997
  140.6984  143.3063  151.3145 H   0  0  0  0  0  0  0  0  0  0  0  0  # atno 10167 bound_to 10162
  156.3479  130.4304  149.7730 H   0  0  0  0  0  0  0  0  0  0  0  0  # atno 10718 bound_to 10713
  153.1544  135.4590  154.9684 H   0  0  0  0  0  0  0  0  0  0  0  0  # atno 10763 bound_to 10752
  154.7850  135.3201  154.7908 H   0  0  0  0  0  0  0  0  0  0  0  0  # atno 10764 bound_to 10752
  153.8408  135.6930  153.4857 H   0  0  0  0  0  0  0  0  0  0  0  0  # atno 10765 bound_to 10752
  141.0288  133.6829  156.2540 H   0  0  0  0  0  0  0  0  0  0  0  0  # atno 11005 bound_to 11000
  144.8212  140.6552  143.6352 LP  0  0  0  0  0  0  0  0  0  0  0  0  # atno 17320 bound_to 7965
  145.4254  139.1557  143.4051 LP  0  0  0  0  0  0  0  0  0  0  0  0  # atno 17321 bound_to 7965
  139.6470  144.0433  152.2598 LP  0  0  0  0  0  0  0  0  0  0  0  0  # atno 17342 bound_to 10162
  139.9957  144.6330  150.7774 LP  0  0  0  0  0  0  0  0  0  0  0  0  # atno 17343 bound_to 10162
  156.4942  130.8099  151.3107 LP  0  0  0  0  0  0  0  0  0  0  0  0  # atno 17370 bound_to 10713
  157.7457  130.9966  150.2784 LP  0  0  0  0  0  0  0  0  0  0  0  0  # atno 17371 bound_to 10713
  140.6444  134.5132  157.5572 LP  0  0  0  0  0  0  0  0  0  0  0  0  # atno 17394 bound_to 11000
  139.9194  134.8180  156.1261 LP  0  0  0  0  0  0  0  0  0  0  0  0  # atno 17395 bound_to 11000

$$$$
