#       Name:                AV-unprocessed.smi:157
#       Creating user name   scv26
#       Creation time:       Thu Mar 26 18:59:17 2020


#       File generated by GOLD software.
#

@<TRIPOS>MOLECULE
AV-unprocessed.smi:157
    45    47     1
SMALL
NO_CHARGES


@<TRIPOS>ATOM
      1 ****        -4.6218   3.1169  -1.0322 O.3            1 S1                 0.0000
      2 ****        -4.0270   1.8449  -0.8865 C.3            1 S1                 0.0000
      3 ****        -2.4947   1.9639  -0.8713 C.3            1 S1                 0.0000
      4 ****        -1.9186   0.6588  -0.9560 O.3            1 S1                 0.0000
      5 ****        -1.0132   0.4702   0.0872 C.3            1 S1                 0.0000
      6 ****         0.1712  -0.2839  -0.4295 N.pl3          1 S1                 0.0000
      7 ****         0.6805  -0.2051  -1.6658 C.2            1 S1                 0.0000
      8 ****         1.7392  -0.9692  -1.8734 N.2            1 S1                 0.0000
      9 ****         1.9434  -1.6005  -0.6478 C.2            1 S1                 0.0000
     10 ****         0.9849  -1.1838   0.2651 C.2            1 S1                 0.0000
     11 ****         0.6863  -1.4509   1.5876 N.2            1 S1                 0.0000
     12 ****         1.6020  -2.0005   2.3215 C.2            1 S1                 0.0000
     13 ****         2.8627  -2.4695   1.9810 N.pl3          1 S1                 0.0000
     14 ****         3.1149  -3.3287   0.8370 C.3            1 S1                 0.0000
     15 ****         3.0645  -2.5891  -0.5053 C.3            1 S1                 0.0000
     16 ****         4.2703  -1.8762  -0.6915 O.3            1 S1                 0.0000
     17 ****        -0.6008   1.8584   0.5543 C.3            1 S1                 0.0000
     18 ****        -1.9165   2.5904   0.4088 C.3            1 S1                 0.0000
     19 ****        -1.7039   3.9815   0.2855 O.3            1 S1                 0.0000
     20 ****        -2.1488   2.5094  -1.7511 H              1 S1                 0.0000
     21 ****        -1.4642  -0.1438   0.8675 H              1 S1                 0.0000
     22 ****         3.0093  -3.3290  -1.3043 H              1 S1                 0.0000
     23 ****        -2.5532   2.3815   1.2697 H              1 S1                 0.0000
     24 ****        -5.5606   3.0100  -1.0437 H              1 S1                 0.0000
     25 ****        -4.3930   1.3683   0.0235 H              1 S1                 0.0000
     26 ****        -4.3444   1.2243  -1.7249 H              1 S1                 0.0000
     27 ****         0.2632   0.4293  -2.4341 H              1 S1                 0.0000
     28 ****         1.3953  -2.1463   3.3828 H              1 S1                 0.0000
     29 ****         3.5276  -2.6423   2.7212 H              1 S1                 0.0000
     30 ****         4.0691  -3.8416   0.9617 H              1 S1                 0.0000
     31 ****         2.3485  -4.1054   0.8400 H              1 S1                 0.0000
     32 ****         4.2491  -1.4797  -1.5493 H              1 S1                 0.0000
     33 ****        -0.2087   1.8382   1.5716 H              1 S1                 0.0000
     34 ****         0.1551   2.2632  -0.1215 H              1 S1                 0.0000
     35 ****        -1.1687   4.1370  -0.4776 H              1 S1                 0.0000
     36 ****        -4.3194   3.5343  -1.8891 LP             1 S1                 0.0000
     37 ****        -4.3584   3.7021  -0.2653 LP             1 S1                 0.0000
     38 ****        -1.4420   0.5630  -1.8299 LP             1 S1                 0.0000
     39 ****        -2.6429  -0.0279  -0.8944 LP             1 S1                 0.0000
     40 ****         2.2703  -1.0707  -2.7146 LP             1 S1                 0.0000
     41 ****        -0.2110  -1.2264   1.9675 LP             1 S1                 0.0000
     42 ****         5.0473  -2.5024  -0.6270 LP             1 S1                 0.0000
     43 ****         4.3554  -1.1663   0.0077 LP             1 S1                 0.0000
     44 ****        -1.2370   4.3248   1.1005 LP             1 S1                 0.0000
     45 ****        -2.5819   4.4490   0.1825 LP             1 S1                 0.0000
@<TRIPOS>BOND
    1    1    2 1     
    2    1   24 1     
    3    2    3 1     
    4    2   25 1     
    5    2   26 1     
    6    3   20 1     
    7    3   18 1     
    8    3    4 1     
    9    4    5 1     
   10    5   21 1     
   11    5    6 1     
   12    5   17 1     
   13    6   10 1     
   14    6    7 1     
   15    7    8 2     
   16    7   27 1     
   17    8    9 1     
   18    9   15 1     
   19    9   10 2     
   20   10   11 1     
   21   11   12 2     
   22   12   13 1     
   23   12   28 1     
   24   13   14 1     
   25   13   29 1     
   26   14   15 1     
   27   14   30 1     
   28   14   31 1     
   29   15   22 1     
   30   15   16 1     
   31   16   32 1     
   32   17   18 1     
   33   17   33 1     
   34   17   34 1     
   35   18   23 1     
   36   18   19 1     
   37   19   35 1     
   38    1   36 1     
   39    1   37 1     
   40    4   38 1     
   41    4   39 1     
   42    8   40 1     
   43   11   41 1     
   44   16   42 1     
   45   16   43 1     
   46   19   44 1     
   47   19   45 1     
@<TRIPOS>SUBSTRUCTURE
      1 S1             1
@<TRIPOS>SET
LONE_PAIRS      STATIC     ATOMS    <user>   **** ""
10 36 37 38 39 40 41 42 43 44 45
DONOR_HYDROGENS      STATIC     ATOMS    <user>   **** ""
4 24 29 32 35
ATOM$BLUE        STATIC     ATOMS    COLORGROUP SYSTEM
10 36 37 38 39 40 41 42 43 44 45
ATOM$RED        STATIC     ATOMS    COLORGROUP SYSTEM
4 24 29 32 35
