AV-unprocessed.smi:1665|AV-procd|sdf|6670|dock5
  -GOLD-   22720 7383D 1   1.00000     0.00000
 Structure written by MMmdl.
 37 38  0  0  0  0  0  0  0  0  1 V2000
  149.4521  141.3598  157.4870 C   0  0  0  0  0  0  0  0  0  0  0  0
  150.9012  141.1246  157.0304 C   0  0  1  0  0  0  0  0  0  0  0  0
  151.9512  141.5728  158.0699 C   0  0  0  0  0  0  0  0  0  0  0  0
  151.7802  142.9523  158.4890 N   0  0  0  0  0  0  0  0  0  0  0  0
  152.5657  144.0448  158.1863 C   0  0  0  0  0  0  0  0  0  0  0  0
  152.0064  145.1293  158.7995 C   0  0  0  0  0  0  0  0  0  0  0  0
  150.8646  144.5936  159.4586 C   0  0  0  0  0  0  0  0  0  0  0  0
  150.7301  143.2911  159.2678 N   0  0  0  0  0  0  0  0  0  0  0  0
  151.0769  139.7099  156.7186 N   0  0  0  0  0  0  0  0  0  0  0  0
  151.0882  139.1821  155.4849 C   0  0  0  0  0  0  0  0  0  0  0  0
  151.0187  139.8524  154.4552 O   0  0  0  0  0  0  0  0  0  0  0  0
  151.1721  137.6568  155.3989 C   0  0  0  0  0  0  0  0  0  0  0  0
  149.8261  136.9553  155.6824 C   0  0  0  0  0  0  0  0  0  0  0  0
  149.8984  135.5030  155.5022 N   0  0  0  0  0  0  0  0  0  0  0  0
  148.7808  134.8085  154.8794 C   0  0  0  0  0  0  0  0  0  0  0  0
  149.2704  133.4157  154.4786 C   0  0  0  0  0  0  0  0  0  0  0  0
  150.6594  132.9990  155.5528 S   0  0  0  0  0  0  0  0  0  0  0  0
  150.9308  134.7174  155.9994 C   0  0  0  0  0  0  0  0  0  0  0  0
  151.9126  135.0796  156.6450 O   0  0  0  0  0  0  0  0  0  0  0  0
  149.2501  142.4193  157.6464 H   0  0  0  0  0  0  0  0  0  0  0  0
  149.2393  140.8351  158.4188 H   0  0  0  0  0  0  0  0  0  0  0  0
  148.7444  141.0059  156.7359 H   0  0  0  0  0  0  0  0  0  0  0  0
  151.0468  141.7033  156.1161 H   0  0  0  0  0  0  0  0  0  0  0  0
  151.8998  140.9367  158.9547 H   0  0  0  0  0  0  0  0  0  0  0  0
  152.9589  141.4628  157.6661 H   0  0  0  0  0  0  0  0  0  0  0  0
  153.4476  143.9603  157.5684 H   0  0  0  0  0  0  0  0  0  0  0  0
  152.3583  146.1501  158.7793 H   0  0  0  0  0  0  0  0  0  0  0  0
  150.1335  145.1087  160.0641 H   0  0  0  0  0  0  0  0  0  0  0  0
  151.1444  139.0779  157.5030 H   0  0  0  0  0  0  0  0  0  0  0  0
  151.5063  137.3982  154.3936 H   0  0  0  0  0  0  0  0  0  0  0  0
  151.9413  137.2848  156.0777 H   0  0  0  0  0  0  0  0  0  0  0  0
  149.4792  137.1950  156.6893 H   0  0  0  0  0  0  0  0  0  0  0  0
  149.0656  137.3532  155.0093 H   0  0  0  0  0  0  0  0  0  0  0  0
  147.9735  134.7313  155.6092 H   0  0  0  0  0  0  0  0  0  0  0  0
  148.3985  135.3577  154.0182 H   0  0  0  0  0  0  0  0  0  0  0  0
  148.4814  132.6659  154.5421 H   0  0  0  0  0  0  0  0  0  0  0  0
  149.6343  133.4311  153.4507 H   0  0  0  0  0  0  0  0  0  0  0  0
  1  2  1  0  0  0  0
  1 20  1  0  0  0  0
  1 21  1  0  0  0  0
  1 22  1  0  0  0  0
  2  3  1  0  0  0  0
  2  9  1  0  0  0  0
  2 23  1  0  0  0  0
  3  4  1  0  0  0  0
  3 24  1  0  0  0  0
  3 25  1  0  0  0  0
  4  8  1  0  0  0  0
  4  5  1  0  0  0  0
  5  6  2  0  0  0  0
  5 26  1  0  0  0  0
  6  7  1  0  0  0  0
  6 27  1  0  0  0  0
  7  8  2  0  0  0  0
  7 28  1  0  0  0  0
  9 10  1  0  0  0  0
  9 29  1  0  0  0  0
 10 11  2  0  0  0  0
 10 12  1  0  0  0  0
 12 13  1  0  0  0  0
 12 30  1  0  0  0  0
 12 31  1  0  0  0  0
 13 14  1  0  0  0  0
 13 32  1  0  0  0  0
 13 33  1  0  0  0  0
 14 18  1  0  0  0  0
 14 15  1  0  0  0  0
 15 16  1  0  0  0  0
 15 34  1  0  0  0  0
 15 35  1  0  0  0  0
 16 17  1  0  0  0  0
 16 36  1  0  0  0  0
 16 37  1  0  0  0  0
 17 18  1  0  0  0  0
 18 19  2  0  0  0  0
M  END
> <s_m_source_file>
AV-unprocessed.smi

> <i_m_source_file_index>
1665

> <i_lp_mmshare_version>
43012

> <i_f3d_flags>
0

> <s_epik_input>
bjFbY0hdW2NIXVtjSF1uMVtDSDJdW0NAQEhdKFtDSDNdKVtOSF1DKD1PKVtDSDJdW0NIMl1OMltDSDJdW0NIMl1TQzI9Tw==

> <s_epik_cmdline>
J2VwaWtfcHl0aG9uJywgJy1waCcsICc3LjAnLCAnLXRuJywgJzgnLCAnLW1hJywgJzIwMCcsICctbWV0YWxfYmluZGluZycsICctaW1hZScsICc8aW5maWxlLm1hZT4nLCAnLW9tYWUnLCAnPG91dGZpbGUubWFlPic=

> <r_lp_tautomer_probability>
1

> <r_epik_Ionization_Penalty>
0.000300775

> <r_epik_Ionization_Penalty_Charging>
0

> <r_epik_Ionization_Penalty_Neutral>
0.000300775

> <r_epik_State_Penalty>
-0

> <r_epik_Charging_Adjusted_Penalty>
0

> <i_epik_Tot_Q>
0

> <i_epik_Tot_abs_Q>
0

> <r_epik_Metal_State_Penalty>
-0

> <b_epik_Metal_Only>
0

> <s_lp_Force_Field>
OPLS_2005

> <r_lp_Energy>
3.63181

> <b_lp_Chiralities_Consistent>
1

> <s_lp_Variant>
AV-unprocessed.smi:1665-2

> <Gold.Version>
5.8.1

> <Gold.Id.Protein>
6NUR|6NUR_protein|mol2

> <Gold.PLP.Fitness>
41.0529

> <Gold.PLP.PLP>
-36.6381

> <Gold.PLP.part.hbond>
-2.1943

> <Gold.PLP.part.metal>
0.0000

> <Gold.PLP.part.buried>
-5.9660

> <Gold.PLP.part.nonpolar>
-28.6014

> <Gold.PLP.part.repulsive>
0.2244

> <Gold.PLP.ligand.clash>
0.0000

> <Gold.PLP.ligand.torsion>
0.8226

> <Gold.PLP.Chemscore.Hbond>
2.0000

> <Gold.PLP.Chemscore.CHOScore>
0.0000

> <Gold.PLP.Chemscore.Metal>
0.0000

> <Gold.Chemscore.Hbonds>
donor molecule, donor type, donor heavy atom, donor atom, acceptor molecule, acceptor atom, score
      P1  H  7989  7998       L1    11  0.99
      P1  H 10752 10763       L1    19  1.00

> <Gold.PLP.Chemscore.Internal.Correction>
0.0601

> <Gold.Rescore>
     Score         DG    S(hbond)    S(metal)    S(lipo)     H(rot)  DE(clash)    DE(int)     intcor
     13.32     -15.52       1.96        0.00      78.16       2.20       0.00       2.20       ----

> <Gold.Chemscore.Fitness>
13.3175

> <Gold.Chemscore.DG>
-15.5190

> <Gold.Chemscore.ZeroCoef>
-5.4800

> <Gold.Chemscore.Hbond>
1.9562

> <Gold.Chemscore.Metal>
0.0000

> <Gold.Chemscore.Lipo>
78.1552

> <Gold.Chemscore.Internal_Hbond>
0.0000

> <Gold.Chemscore.DEClash>
0.0048

> <Gold.Chemscore.DEInternal>
2.1967

> <Gold.Chemscore.Rot>
2.2026

> <Gold.Chemscore.Internal.Correction>
   9.000000E+99

> <Gold.Chemscore.Hbonds>
donor molecule, donor type, donor heavy atom, donor atom, acceptor molecule, acceptor atom, score
      P1  H  7989  7998       L1    11  0.92
      P1  H 10752 10763       L1    19  0.24

> <Gold.Chemscore.Hbond.Weighted>
-6.5335

> <Gold.Chemscore.Metal.Weighted>
-0.0000

> <Gold.Chemscore.Lipo.Weighted>
-9.1442

> <Gold.Chemscore.Internal_Hbond.Weighted>
0.0000

> <Gold.Chemscore.DEClash.Weighted>
0.0048

> <Gold.Chemscore.DEInternal.Weighted>
2.1967

> <Gold.Chemscore.Rot.Weighted>
5.6387

> <Gold.Chemscore.Internal.Correction.Weighted>
   9.000000E+99

> <Gold.Protein.RotatedTorsions>
[ 6907 6896 6895 6894 ] final -109.48 input  -60.11 | X-H torsion
[ 7974 7965 7964 7962 ] final   -8.65 input  175.53 | X-H torsion
[ 8008 7997 7996 7995 ] final  -16.67 input   59.86 | X-H torsion
[ 10167 10162 10161 10158 ] final -134.23 input  -65.29 | X-H torsion
[ 10718 10713 10712 10709 ] final  -81.60 input   66.30 | X-H torsion
[ 10763 10752 10751 10750 ] final   95.21 input  -60.55 | X-H torsion
[ 11005 11000 10999 10996 ] final   -9.04 input  -57.11 | X-H torsion

> <Gold.Protein.ActiveResidues>
 VAL166  LYS551  ARG553  GLY616  TRP617  ASP618  TYR619  PRO620  LYS621  CYS622 
 ASP623  PHE694  ASN695  SER759  ASP760  ASP761  ALA762  ILE779  LEU786  VAL792 
 PHE793  MET794  SER795  GLU796  ALA797  LYS798  CYS799  TRP800  GLU811  SER814 

> <Gold.Protein.RotatedAtoms>
  150.7565  133.9523  159.3489 H   0  0  0  0  0  0  0  0  0  0  0  0  # atno 6907 bound_to 6896
  151.7441  135.0845  160.0330 H   0  0  0  0  0  0  0  0  0  0  0  0  # atno 6908 bound_to 6896
  152.3509  133.6141  159.5980 H   0  0  0  0  0  0  0  0  0  0  0  0  # atno 6909 bound_to 6896
  146.2274  140.2500  142.8347 H   0  0  0  0  0  0  0  0  0  0  0  0  # atno 7974 bound_to 7965
  154.5036  140.2163  155.9297 H   0  0  0  0  0  0  0  0  0  0  0  0  # atno 8008 bound_to 7997
  156.1465  140.3170  155.8545 H   0  0  0  0  0  0  0  0  0  0  0  0  # atno 8009 bound_to 7997
  155.4021  140.0485  157.3027 H   0  0  0  0  0  0  0  0  0  0  0  0  # atno 8010 bound_to 7997
  139.8901  143.6733  152.2613 H   0  0  0  0  0  0  0  0  0  0  0  0  # atno 10167 bound_to 10162
  156.0047  130.4608  150.3977 H   0  0  0  0  0  0  0  0  0  0  0  0  # atno 10718 bound_to 10713
  153.2506  135.4262  155.0793 H   0  0  0  0  0  0  0  0  0  0  0  0  # atno 10763 bound_to 10752
  154.8380  135.3425  154.6519 H   0  0  0  0  0  0  0  0  0  0  0  0  # atno 10764 bound_to 10752
  153.6940  135.7032  153.5138 H   0  0  0  0  0  0  0  0  0  0  0  0  # atno 10765 bound_to 10752
  140.7300  133.8757  155.8885 H   0  0  0  0  0  0  0  0  0  0  0  0  # atno 11005 bound_to 11000
  144.9419  140.8087  143.5625 LP  0  0  0  0  0  0  0  0  0  0  0  0  # atno 17320 bound_to 7965
  145.2452  139.2055  143.4971 LP  0  0  0  0  0  0  0  0  0  0  0  0  # atno 17321 bound_to 7965
  139.7117  144.7619  151.1101 LP  0  0  0  0  0  0  0  0  0  0  0  0  # atno 17342 bound_to 10162
  140.7728  143.5322  150.9410 LP  0  0  0  0  0  0  0  0  0  0  0  0  # atno 17343 bound_to 10162
  157.2048  131.0446  151.2631 LP  0  0  0  0  0  0  0  0  0  0  0  0  # atno 17370 bound_to 10713
  157.3943  130.7299  149.6720 LP  0  0  0  0  0  0  0  0  0  0  0  0  # atno 17371 bound_to 10713
  140.9929  134.1254  157.4391 LP  0  0  0  0  0  0  0  0  0  0  0  0  # atno 17394 bound_to 11000
  139.8828  135.0046  156.6259 LP  0  0  0  0  0  0  0  0  0  0  0  0  # atno 17395 bound_to 11000

$$$$
