#       Name:                AV-unprocessed.smi:2523
#       Creating user name   scv26
#       Creation time:       Fri Mar 27 13:55:55 2020


#       File generated by GOLD software.
#

@<TRIPOS>MOLECULE
AV-unprocessed.smi:2523
    40    42     1
SMALL
NO_CHARGES


@<TRIPOS>ATOM
      1 ****        -3.8792   1.4368   2.6662 C.3            1 S1                 0.0000
      2 ****        -3.1074   1.8840   1.5090 N.am           1 S1                 0.0000
      3 ****        -3.3800   3.1920   1.0918 N.2            1 S1                 0.0000
      4 ****        -2.7635   3.7189   0.0803 C.2            1 S1                 0.0000
      5 ****        -1.7713   2.9104  -0.6215 C.2            1 S1                 0.0000
      6 ****        -0.9083   3.1138  -1.7332 C.2            1 S1                 0.0000
      7 ****        -0.1672   2.0384  -1.9935 N.2            1 S1                 0.0000
      8 ****        -0.5246   1.1109  -1.0682 N.pl3          1 S1                 0.0000
      9 ****         0.1132  -0.1966  -1.0791 C.3            1 S1                 0.0000
     10 ****         1.4561  -0.2135  -0.3213 C.3            1 S1                 0.0000
     11 ****         1.2736   0.2159   1.0145 O.3            1 S1                 0.0000
     12 ****         2.1096  -1.5845  -0.3933 C.ar           1 S1                 0.0000
     13 ****         1.6143  -2.6552   0.3832 C.ar           1 S1                 0.0000
     14 ****         2.2155  -3.9264   0.3054 C.ar           1 S1                 0.0000
     15 ****         3.3148  -4.1347  -0.5493 C.ar           1 S1                 0.0000
     16 ****         3.8123  -3.0710  -1.3269 C.ar           1 S1                 0.0000
     17 ****         5.1583  -3.3253  -2.3759 Cl             1 S1                 0.0000
     18 ****         3.2105  -1.7994  -1.2498 C.ar           1 S1                 0.0000
     19 ****        -1.4931   1.6399  -0.2380 C.2            1 S1                 0.0000
     20 ****        -2.2001   1.0462   0.9226 C.2            1 S1                 0.0000
     21 ****        -1.9732  -0.1010   1.3074 O.2            1 S1                 0.0000
     22 ****        -4.4625   0.5484   2.4201 H              1 S1                 0.0000
     23 ****        -4.5751   2.2019   3.0141 H              1 S1                 0.0000
     24 ****        -3.2162   1.1913   3.4970 H              1 S1                 0.0000
     25 ****        -2.9762   4.7380  -0.2421 H              1 S1                 0.0000
     26 ****        -0.7949   3.9925  -2.3508 H              1 S1                 0.0000
     27 ****        -0.5761  -0.9322  -0.6659 H              1 S1                 0.0000
     28 ****         0.2734  -0.4884  -2.1183 H              1 S1                 0.0000
     29 ****         2.1256   0.5100  -0.7888 H              1 S1                 0.0000
     30 ****         2.1220   0.2871   1.4244 H              1 S1                 0.0000
     31 ****         0.7685  -2.5045   1.0383 H              1 S1                 0.0000
     32 ****         1.8322  -4.7419   0.9010 H              1 S1                 0.0000
     33 ****         3.7741  -5.1105  -0.6079 H              1 S1                 0.0000
     34 ****         3.5954  -0.9897  -1.8523 H              1 S1                 0.0000
     35 ****        -4.0639   3.7307   1.5838 LP             1 S1                 0.0000
     36 ****         0.5120   1.9351  -2.7202 LP             1 S1                 0.0000
     37 ****         0.7144  -0.4493   1.5095 LP             1 S1                 0.0000
     38 ****         0.8186   1.1063   1.0236 LP             1 S1                 0.0000
     39 ****        -2.4667  -0.4712   2.0945 LP             1 S1                 0.0000
     40 ****        -1.2954  -0.6627   0.8330 LP             1 S1                 0.0000
@<TRIPOS>BOND
    1    1    2 1     
    2    1   22 1     
    3    1   23 1     
    4    1   24 1     
    5    2   20 am    
    6    2    3 1     
    7    3    4 2     
    8    4    5 1     
    9    4   25 1     
   10    5   19 2     
   11    5    6 1     
   12    6    7 2     
   13    6   26 1     
   14    7    8 1     
   15    8    9 1     
   16    8   19 1     
   17    9   10 1     
   18    9   27 1     
   19    9   28 1     
   20   10   11 1     
   21   10   12 1     
   22   10   29 1     
   23   11   30 1     
   24   12   18 ar    
   25   12   13 ar    
   26   13   14 ar    
   27   13   31 1     
   28   14   15 ar    
   29   14   32 1     
   30   15   16 ar    
   31   15   33 1     
   32   16   17 1     
   33   16   18 ar    
   34   18   34 1     
   35   19   20 1     
   36   20   21 2     
   37    3   35 1     
   38    7   36 1     
   39   11   37 1     
   40   11   38 1     
   41   21   39 1     
   42   21   40 1     
@<TRIPOS>SUBSTRUCTURE
      1 S1             1
@<TRIPOS>SET
LONE_PAIRS      STATIC     ATOMS    <user>   **** ""
6 35 36 37 38 39 40
DONOR_HYDROGENS      STATIC     ATOMS    <user>   **** ""
1 30
ATOM$BLUE        STATIC     ATOMS    COLORGROUP SYSTEM
6 35 36 37 38 39 40
ATOM$RED        STATIC     ATOMS    COLORGROUP SYSTEM
1 30
