#       Name:                AV-unprocessed.smi:1645
#       Creating user name   scv26
#       Creation time:       Fri Mar 27 07:31:01 2020


#       File generated by GOLD software.
#

@<TRIPOS>MOLECULE
AV-unprocessed.smi:1645
    59    62     1
SMALL
NO_CHARGES


@<TRIPOS>ATOM
      1 ****        -0.8595   1.5685  -0.5184 O.2            1 S1                 0.0000
      2 ****        -1.1875   0.4270  -0.8403 C.2            1 S1                 0.0000
      3 ****        -0.3473  -0.6078  -1.0118 N.am           1 S1                 0.0000
      4 ****         1.0620  -0.6509  -0.8303 C.ar           1 S1                 0.0000
      5 ****         1.8051   0.2936  -0.0843 C.ar           1 S1                 0.0000
      6 ****         3.1979   0.1252   0.0349 C.ar           1 S1                 0.0000
      7 ****         3.8181  -0.9849  -0.5851 C.ar           1 S1                 0.0000
      8 ****         5.2131  -1.1718  -0.4737 N.3            1 S1                 0.0000
      9 ****         5.8498  -2.1131  -1.3991 C.3            1 S1                 0.0000
     10 ****         7.3764  -1.9259  -1.4208 C.3            1 S1                 0.0000
     11 ****         7.9626  -2.0037  -0.0036 C.3            1 S1                 0.0000
     12 ****         7.2593  -0.9907   0.9116 C.3            1 S1                 0.0000
     13 ****         5.7345  -1.1938   0.8946 C.3            1 S1                 0.0000
     14 ****         3.1019  -1.8908  -1.2949 N.ar           1 S1                 0.0000
     15 ****         1.7674  -1.7267  -1.4053 C.ar           1 S1                 0.0000
     16 ****        -2.4559   0.0658  -1.0802 N.am           1 S1                 0.0000
     17 ****        -3.6128   0.9521  -0.9881 C.3            1 S1                 0.0000
     18 ****        -4.7749   0.5177  -1.8989 C.3            1 S1                 0.0000
     19 ****        -6.0570   0.8146  -1.0960 C.3            1 S1                 0.0000
     20 ****        -5.5991   1.4675   0.1452 N.4            1 S1                 1.0000
     21 ****        -6.4892   1.3762   1.3231 C.3            1 S1                 0.0000
     22 ****        -5.8812   2.1897   2.4829 C.3            1 S1                 0.0000
     23 ****        -4.4269   1.7681   2.7758 C.3            1 S1                 0.0000
     24 ****        -3.5711   1.7911   1.4946 C.3            1 S1                 0.0000
     25 ****        -4.2494   0.9432   0.4046 C.3            1 S1                 0.0000
     26 ****        -0.7612  -1.4632  -1.3528 H              1 S1                 0.0000
     27 ****         1.3418   1.1344   0.4071 H              1 S1                 0.0000
     28 ****         3.7732   0.8509   0.5903 H              1 S1                 0.0000
     29 ****         5.6037  -3.1323  -1.0981 H              1 S1                 0.0000
     30 ****         5.4603  -1.9708  -2.4080 H              1 S1                 0.0000
     31 ****         7.8359  -2.6812  -2.0590 H              1 S1                 0.0000
     32 ****         7.6182  -0.9581  -1.8624 H              1 S1                 0.0000
     33 ****         7.8345  -3.0115   0.3936 H              1 S1                 0.0000
     34 ****         9.0351  -1.8093  -0.0279 H              1 S1                 0.0000
     35 ****         7.6359  -1.0822   1.9306 H              1 S1                 0.0000
     36 ****         7.4948   0.0228   0.5839 H              1 S1                 0.0000
     37 ****         5.2705  -0.4293   1.5164 H              1 S1                 0.0000
     38 ****         5.4839  -2.1550   1.3452 H              1 S1                 0.0000
     39 ****         1.2462  -2.4814  -1.9762 H              1 S1                 0.0000
     40 ****        -2.6338  -0.8917  -1.3469 H              1 S1                 0.0000
     41 ****        -3.3341   1.9741  -1.2542 H              1 S1                 0.0000
     42 ****        -4.7543   1.0582  -2.8460 H              1 S1                 0.0000
     43 ****        -4.7243  -0.5476  -2.1294 H              1 S1                 0.0000
     44 ****        -6.7483   1.4599  -1.6388 H              1 S1                 0.0000
     45 ****        -6.5754  -0.1167  -0.8619 H              1 S1                 0.0000
     46 ****        -7.4758   1.7641   1.0676 H              1 S1                 0.0000
     47 ****        -6.6167   0.3321   1.6134 H              1 S1                 0.0000
     48 ****        -5.9024   3.2504   2.2286 H              1 S1                 0.0000
     49 ****        -6.4913   2.0765   3.3795 H              1 S1                 0.0000
     50 ****        -3.9904   2.4227   3.5308 H              1 S1                 0.0000
     51 ****        -4.4200   0.7624   3.1980 H              1 S1                 0.0000
     52 ****        -3.4446   2.8180   1.1493 H              1 S1                 0.0000
     53 ****        -2.5738   1.4075   1.7106 H              1 S1                 0.0000
     54 ****        -4.3382  -0.0892   0.7512 H              1 S1                 0.0000
     55 ****        -5.4864   2.4477  -0.0712 H              1 S1                 0.0000
     56 ****         0.1038   1.7865  -0.3617 LP             1 S1                 0.0000
     57 ****        -1.5562   2.2781  -0.4135 LP             1 S1                 0.0000
     58 ****         5.5402  -0.3027  -0.8446 LP             1 S1                 0.0000
     59 ****         3.5556  -2.6686  -1.7299 LP             1 S1                 0.0000
@<TRIPOS>BOND
    1    1    2 2     
    2    2    3 am    
    3    2   16 am    
    4    3    4 1     
    5    3   26 1     
    6    4   15 ar    
    7    4    5 ar    
    8    5    6 ar    
    9    5   27 1     
   10    6    7 ar    
   11    6   28 1     
   12    7    8 1     
   13    7   14 ar    
   14    8   13 1     
   15    8    9 1     
   16    9   10 1     
   17    9   29 1     
   18    9   30 1     
   19   10   11 1     
   20   10   31 1     
   21   10   32 1     
   22   11   12 1     
   23   11   33 1     
   24   11   34 1     
   25   12   13 1     
   26   12   35 1     
   27   12   36 1     
   28   13   37 1     
   29   13   38 1     
   30   14   15 ar    
   31   15   39 1     
   32   16   17 1     
   33   16   40 1     
   34   17   25 1     
   35   17   18 1     
   36   17   41 1     
   37   18   19 1     
   38   18   42 1     
   39   18   43 1     
   40   19   20 1     
   41   19   44 1     
   42   19   45 1     
   43   20   25 1     
   44   20   21 1     
   45   20   55 1     
   46   21   22 1     
   47   21   46 1     
   48   21   47 1     
   49   22   23 1     
   50   22   48 1     
   51   22   49 1     
   52   23   24 1     
   53   23   50 1     
   54   23   51 1     
   55   24   25 1     
   56   24   52 1     
   57   24   53 1     
   58   25   54 1     
   59    1   56 1     
   60    1   57 1     
   61    8   58 1     
   62   14   59 1     
@<TRIPOS>SUBSTRUCTURE
      1 S1             1
@<TRIPOS>SET
LONE_PAIRS      STATIC     ATOMS    <user>   **** ""
4 56 57 58 59
DONOR_HYDROGENS      STATIC     ATOMS    <user>   **** ""
3 26 40 55
ATOM$BLUE        STATIC     ATOMS    COLORGROUP SYSTEM
4 56 57 58 59
ATOM$RED        STATIC     ATOMS    COLORGROUP SYSTEM
3 26 40 55
