#       Name:                AV-unprocessed.smi:1715
#       Creating user name   scv26
#       Creation time:       Fri Mar 27 08:11:22 2020


#       File generated by GOLD software.
#

@<TRIPOS>MOLECULE
AV-unprocessed.smi:1715
    46    47     1
SMALL
NO_CHARGES


@<TRIPOS>ATOM
      1 ****        -4.3495   2.4254  -1.0416 C.3            1 S1                 0.0000
      2 ****        -3.7083   1.0971  -0.6263 C.3            1 S1                 0.0000
      3 ****        -2.1696   1.1689  -0.6213 C.3            1 S1                 0.0000
      4 ****        -1.5619  -0.1169  -0.2972 N.3            1 S1                 0.0000
      5 ****        -0.1036  -0.0175  -0.2911 C.3            1 S1                 0.0000
      6 ****         0.6296  -1.2505   0.2697 C.3            1 S1                 0.0000
      7 ****         2.0717  -1.0400   0.3025 N.am           1 S1                 0.0000
      8 ****         2.7286  -0.3610   1.2534 C.2            1 S1                 0.0000
      9 ****         2.1756   0.1681   2.2178 O.2            1 S1                 0.0000
     10 ****         4.0495  -0.3365   1.0112 N.am           1 S1                 0.0000
     11 ****         5.0570   0.2810   1.7947 C.2            1 S1                 0.0000
     12 ****         6.4434   0.2733   1.4817 C.2            1 S1                 0.0000
     13 ****         7.1488   0.9281   2.3929 N.2            1 S1                 0.0000
     14 ****         6.2257   1.3534   3.2848 N.pl3          1 S1                 0.0000
     15 ****         4.9389   0.9835   2.9612 C.2            1 S1                 0.0000
     16 ****        -2.0536  -1.1219  -1.2367 C.3            1 S1                 0.0000
     17 ****        -3.5928  -1.1971  -1.2487 C.3            1 S1                 0.0000
     18 ****        -4.1167  -2.1868  -2.2946 C.3            1 S1                 0.0000
     19 ****        -4.1222   0.0917  -1.5473 O.3            1 S1                 0.0000
     20 ****         6.4866   1.8892   4.1006 H              1 S1                 0.0000
     21 ****        -4.0695   3.2268  -0.3575 H              1 S1                 0.0000
     22 ****        -5.4372   2.3506  -1.0385 H              1 S1                 0.0000
     23 ****        -4.0382   2.7174  -2.0450 H              1 S1                 0.0000
     24 ****        -4.0651   0.8326   0.3706 H              1 S1                 0.0000
     25 ****        -1.8191   1.5060  -1.5984 H              1 S1                 0.0000
     26 ****        -1.8475   1.9203   0.1007 H              1 S1                 0.0000
     27 ****         0.2552   0.1940  -1.2996 H              1 S1                 0.0000
     28 ****         0.1818   0.8442   0.3141 H              1 S1                 0.0000
     29 ****         0.2625  -1.4928   1.2686 H              1 S1                 0.0000
     30 ****         0.4465  -2.1264  -0.3515 H              1 S1                 0.0000
     31 ****         2.6072  -1.4412  -0.4533 H              1 S1                 0.0000
     32 ****         4.3688  -0.8101   0.1791 H              1 S1                 0.0000
     33 ****         6.9509  -0.1763   0.6411 H              1 S1                 0.0000
     34 ****         4.0897   1.2476   3.5737 H              1 S1                 0.0000
     35 ****        -1.6928  -0.8949  -2.2412 H              1 S1                 0.0000
     36 ****        -1.6608  -2.1046  -0.9779 H              1 S1                 0.0000
     37 ****        -3.9503  -1.5058  -0.2648 H              1 S1                 0.0000
     38 ****        -3.7480  -3.1946  -2.1016 H              1 S1                 0.0000
     39 ****        -3.8037  -1.9018  -3.2994 H              1 S1                 0.0000
     40 ****        -5.2062  -2.2241  -2.2832 H              1 S1                 0.0000
     41 ****        -1.8241  -0.3974   0.6261 LP             1 S1                 0.0000
     42 ****         1.1832   0.1036   2.3224 LP             1 S1                 0.0000
     43 ****         2.7188   0.6625   2.8964 LP             1 S1                 0.0000
     44 ****         8.1378   1.0743   2.4155 LP             1 S1                 0.0000
     45 ****        -3.8187   0.3554  -2.4630 LP             1 S1                 0.0000
     46 ****        -5.1206   0.0368  -1.5301 LP             1 S1                 0.0000
@<TRIPOS>BOND
    1    1    2 1     
    2    1   21 1     
    3    1   22 1     
    4    1   23 1     
    5    2   19 1     
    6    2    3 1     
    7    2   24 1     
    8    3    4 1     
    9    3   25 1     
   10    3   26 1     
   11    4    5 1     
   12    4   16 1     
   13    5    6 1     
   14    5   27 1     
   15    5   28 1     
   16    6    7 1     
   17    6   29 1     
   18    6   30 1     
   19    7    8 am    
   20    7   31 1     
   21    8    9 2     
   22    8   10 am    
   23   10   11 1     
   24   10   32 1     
   25   11   15 2     
   26   11   12 1     
   27   12   13 2     
   28   12   33 1     
   29   13   14 1     
   30   14   20 1     
   31   14   15 1     
   32   15   34 1     
   33   16   17 1     
   34   16   35 1     
   35   16   36 1     
   36   17   18 1     
   37   17   19 1     
   38   17   37 1     
   39   18   38 1     
   40   18   39 1     
   41   18   40 1     
   42    4   41 1     
   43    9   42 1     
   44    9   43 1     
   45   13   44 1     
   46   19   45 1     
   47   19   46 1     
@<TRIPOS>SUBSTRUCTURE
      1 S1             1
@<TRIPOS>SET
LONE_PAIRS      STATIC     ATOMS    <user>   **** ""
6 41 42 43 44 45 46
DONOR_HYDROGENS      STATIC     ATOMS    <user>   **** ""
3 31 32 20
ATOM$BLUE        STATIC     ATOMS    COLORGROUP SYSTEM
6 41 42 43 44 45 46
ATOM$RED        STATIC     ATOMS    COLORGROUP SYSTEM
3 31 32 20
