#       Name:                AV-unprocessed.smi:696
#       Creating user name   scv26
#       Creation time:       Fri Mar 27 00:36:47 2020


#       File generated by GOLD software.
#

@<TRIPOS>MOLECULE
AV-unprocessed.smi:696
    43    44     1
SMALL
NO_CHARGES


@<TRIPOS>ATOM
      1 ****         0.8682   1.3222   0.1579 O.2            1 S1                 0.0000
      2 ****         0.3009   0.2890  -0.1991 C.2            1 S1                 0.0000
      3 ****         0.9587  -0.8043  -0.6157 N.am           1 S1                 0.0000
      4 ****         2.4093  -0.9306  -0.6980 C.3            1 S1                 0.0000
      5 ****         3.0245  -1.2719   0.6751 C.3            1 S1                 0.0000
      6 ****         4.5314  -1.4905   0.6736 C.2            1 S1                 0.0000
      7 ****         5.2672  -1.9179   1.6331 N.2            1 S1                 0.0000
      8 ****         6.5975  -1.9379   1.1009 N.pl3          1 S1                -1.0000
      9 ****         6.5186  -1.5019  -0.1797 C.2            1 S1                 0.0000
     10 ****         7.4214  -1.3640  -1.0023 O.2            1 S1                 0.0000
     11 ****         5.2500  -1.2217  -0.4581 N.am           1 S1                 0.0000
     12 ****        -1.2330   0.2057  -0.1841 C.3            1 S1                 0.0000
     13 ****        -1.8334   1.2782  -1.1231 C.3            1 S1                 0.0000
     14 ****        -3.2977   0.9957  -1.5004 C.3            1 S1                 0.0000
     15 ****        -4.3518   1.5470  -0.5234 C.3            1 S1                 0.0000
     16 ****        -4.0122   1.4688   0.9759 C.3            1 S1                 0.0000
     17 ****        -3.2771   0.1944   1.4214 C.3            1 S1                 0.0000
     18 ****        -1.7493   0.2996   1.2674 C.3            1 S1                 0.0000
     19 ****         4.8785  -0.8786  -1.3312 H              1 S1                 0.0000
     20 ****         0.4149  -1.6093  -0.8909 H              1 S1                 0.0000
     21 ****         2.6313  -1.7210  -1.4160 H              1 S1                 0.0000
     22 ****         2.8384  -0.0111  -1.1006 H              1 S1                 0.0000
     23 ****         2.7989  -0.4793   1.3894 H              1 S1                 0.0000
     24 ****         2.5542  -2.1761   1.0634 H              1 S1                 0.0000
     25 ****        -1.5066  -0.7767  -0.5733 H              1 S1                 0.0000
     26 ****        -1.7322   2.2775  -0.6972 H              1 S1                 0.0000
     27 ****        -1.2563   1.2935  -2.0495 H              1 S1                 0.0000
     28 ****        -3.4984   1.4253  -2.4825 H              1 S1                 0.0000
     29 ****        -3.4416  -0.0780  -1.6263 H              1 S1                 0.0000
     30 ****        -4.5542   2.5900  -0.7690 H              1 S1                 0.0000
     31 ****        -5.2888   1.0194  -0.7046 H              1 S1                 0.0000
     32 ****        -3.4276   2.3432   1.2643 H              1 S1                 0.0000
     33 ****        -4.9450   1.5532   1.5344 H              1 S1                 0.0000
     34 ****        -3.4904   0.0391   2.4796 H              1 S1                 0.0000
     35 ****        -3.6673  -0.6850   0.9077 H              1 S1                 0.0000
     36 ****        -1.2973  -0.5074   1.8465 H              1 S1                 0.0000
     37 ****        -1.4025   1.2227   1.7348 H              1 S1                 0.0000
     38 ****         1.8667   1.3740   0.1459 LP             1 S1                 0.0000
     39 ****         0.3302   2.1092   0.4598 LP             1 S1                 0.0000
     40 ****         4.9758  -2.1803   2.5530 LP             1 S1                 0.0000
     41 ****         7.4268  -2.2201   1.5831 LP             1 S1                 0.0000
     42 ****         8.3636  -1.5872  -0.7527 LP             1 S1                 0.0000
     43 ****         7.2136  -1.0286  -1.9212 LP             1 S1                 0.0000
@<TRIPOS>BOND
    1    1    2 2     
    2    2    3 am    
    3    2   12 1     
    4    3    4 1     
    5    3   20 1     
    6    4    5 1     
    7    4   21 1     
    8    4   22 1     
    9    5    6 1     
   10    5   23 1     
   11    5   24 1     
   12    6   11 1     
   13    6    7 2     
   14    7    8 1     
   15    8    9 1     
   16    9   10 2     
   17    9   11 am    
   18   11   19 1     
   19   12   18 1     
   20   12   13 1     
   21   12   25 1     
   22   13   14 1     
   23   13   26 1     
   24   13   27 1     
   25   14   15 1     
   26   14   28 1     
   27   14   29 1     
   28   15   16 1     
   29   15   30 1     
   30   15   31 1     
   31   16   17 1     
   32   16   32 1     
   33   16   33 1     
   34   17   18 1     
   35   17   34 1     
   36   17   35 1     
   37   18   36 1     
   38   18   37 1     
   39    1   38 1     
   40    1   39 1     
   41    7   40 1     
   42    8   41 1     
   43   10   42 1     
   44   10   43 1     
@<TRIPOS>SUBSTRUCTURE
      1 S1             1
@<TRIPOS>SET
LONE_PAIRS      STATIC     ATOMS    <user>   **** ""
6 38 39 40 41 42 43
DONOR_HYDROGENS      STATIC     ATOMS    <user>   **** ""
2 20 19
ATOM$BLUE        STATIC     ATOMS    COLORGROUP SYSTEM
6 38 39 40 41 42 43
ATOM$RED        STATIC     ATOMS    COLORGROUP SYSTEM
2 20 19
