#       Name:                AV-unprocessed.smi:679
#       Creating user name   scv26
#       Creation time:       Fri Mar 27 00:28:56 2020


#       File generated by GOLD software.
#

@<TRIPOS>MOLECULE
AV-unprocessed.smi:679
    48    50     1
SMALL
NO_CHARGES


@<TRIPOS>ATOM
      1 ****        -4.3241   2.0180   1.3422 C.3            1 S1                 0.0000
      2 ****        -2.8754   2.4784   1.1672 C.3            1 S1                 0.0000
      3 ****        -2.0418   1.3362   1.0758 O.3            1 S1                 0.0000
      4 ****        -0.6710   1.6629   0.9109 C.3            1 S1                 0.0000
      5 ****        -0.2797   2.0787  -0.5106 C.3            1 S1                 0.0000
      6 ****         1.0200   1.3113  -0.2605 C.3            1 S1                 0.0000
      7 ****         1.4906   0.6077  -1.4463 N.am           1 S1                 0.0000
      8 ****         2.6621  -0.0391  -1.5299 C.2            1 S1                 0.0000
      9 ****         3.5148  -0.0206  -0.6428 O.2            1 S1                 0.0000
     10 ****         2.8909  -0.8632  -2.7956 C.3            1 S1                 0.0000
     11 ****         2.1015  -2.0799  -2.7536 N.pl3          1 S1                 0.0000
     12 ****         2.3261  -3.2500  -2.1518 C.2            1 S1                 0.0000
     13 ****         1.3242  -4.0956  -2.3387 N.2            1 S1                 0.0000
     14 ****         0.4372  -3.3668  -3.1138 N.2            1 S1                 0.0000
     15 ****         0.8928  -2.1699  -3.3631 N.2            1 S1                 0.0000
     16 ****         0.2433   0.4232   0.7464 C.3            1 S1                 0.0000
     17 ****         0.9738  -0.0655   1.9932 C.3            1 S1                 0.0000
     18 ****         0.1328  -1.1918   2.6064 C.3            1 S1                 0.0000
     19 ****        -0.8273  -1.6522   1.5049 C.3            1 S1                 0.0000
     20 ****        -0.4143  -0.8745   0.2553 C.3            1 S1                 0.0000
     21 ****        -4.9978   2.8714   1.4197 H              1 S1                 0.0000
     22 ****        -4.4370   1.4189   2.2461 H              1 S1                 0.0000
     23 ****        -4.6467   1.4118   0.4954 H              1 S1                 0.0000
     24 ****        -2.7854   3.0877   0.2669 H              1 S1                 0.0000
     25 ****        -2.5755   3.0950   2.0158 H              1 S1                 0.0000
     26 ****        -0.2988   2.3552   1.6701 H              1 S1                 0.0000
     27 ****        -0.9160   1.6343  -1.2786 H              1 S1                 0.0000
     28 ****        -0.1576   3.1524  -0.6547 H              1 S1                 0.0000
     29 ****         1.7748   1.9369   0.2225 H              1 S1                 0.0000
     30 ****         0.8504   0.5406  -2.2245 H              1 S1                 0.0000
     31 ****         2.6240  -0.2825  -3.6800 H              1 S1                 0.0000
     32 ****         3.9445  -1.1302  -2.8863 H              1 S1                 0.0000
     33 ****         3.2104  -3.4758  -1.5740 H              1 S1                 0.0000
     34 ****         1.9540  -0.4564   1.7178 H              1 S1                 0.0000
     35 ****         1.1484   0.7344   2.7133 H              1 S1                 0.0000
     36 ****         0.7673  -2.0074   2.9549 H              1 S1                 0.0000
     37 ****        -0.4323  -0.8263   3.4647 H              1 S1                 0.0000
     38 ****        -0.7894  -2.7300   1.3443 H              1 S1                 0.0000
     39 ****        -1.8512  -1.3960   1.7800 H              1 S1                 0.0000
     40 ****        -1.2627  -0.7006  -0.4075 H              1 S1                 0.0000
     41 ****         0.3001  -1.4802  -0.3029 H              1 S1                 0.0000
     42 ****        -2.3356   0.7890   0.2921 LP             1 S1                 0.0000
     43 ****        -2.1431   0.7997   1.9137 LP             1 S1                 0.0000
     44 ****         3.3514   0.4971   0.1971 LP             1 S1                 0.0000
     45 ****         4.3711  -0.5232  -0.7617 LP             1 S1                 0.0000
     46 ****         1.2307  -5.0326  -2.0020 LP             1 S1                 0.0000
     47 ****        -0.4416  -3.7142  -3.4410 LP             1 S1                 0.0000
     48 ****         0.4394  -1.4577  -3.8990 LP             1 S1                 0.0000
@<TRIPOS>BOND
    1    1    2 1     
    2    1   21 1     
    3    1   22 1     
    4    1   23 1     
    5    2    3 1     
    6    2   24 1     
    7    2   25 1     
    8    3    4 1     
    9    4   16 1     
   10    4    5 1     
   11    4   26 1     
   12    5    6 1     
   13    5   27 1     
   14    5   28 1     
   15    6    7 1     
   16    6   16 1     
   17    6   29 1     
   18    7    8 am    
   19    7   30 1     
   20    8    9 2     
   21    8   10 1     
   22   10   11 1     
   23   10   31 1     
   24   10   32 1     
   25   11   15 1     
   26   11   12 1     
   27   12   13 2     
   28   12   33 1     
   29   13   14 1     
   30   14   15 2     
   31   16   20 1     
   32   16   17 1     
   33   17   18 1     
   34   17   34 1     
   35   17   35 1     
   36   18   19 1     
   37   18   36 1     
   38   18   37 1     
   39   19   20 1     
   40   19   38 1     
   41   19   39 1     
   42   20   40 1     
   43   20   41 1     
   44    3   42 1     
   45    3   43 1     
   46    9   44 1     
   47    9   45 1     
   48   13   46 1     
   49   14   47 1     
   50   15   48 1     
@<TRIPOS>SUBSTRUCTURE
      1 S1             1
@<TRIPOS>SET
LONE_PAIRS      STATIC     ATOMS    <user>   **** ""
7 42 43 44 45 46 47 48
DONOR_HYDROGENS      STATIC     ATOMS    <user>   **** ""
1 30
ATOM$BLUE        STATIC     ATOMS    COLORGROUP SYSTEM
7 42 43 44 45 46 47 48
ATOM$RED        STATIC     ATOMS    COLORGROUP SYSTEM
1 30
