AV-unprocessed.smi:1425|AV-procd|sdf|5803|dock1
  -GOLD-   22720 5453D 1   1.00000     0.00000
 Structure written by MMmdl.
 36 37  0  0  0  0  0  0  0  0  1 V2000
  147.6997  133.0146  152.4805 C   0  0  0  0  0  0  0  0  0  0  0  0
  146.3252  132.9449  151.8349 C   0  0  0  0  0  0  0  0  0  0  0  0
  145.7000  131.6898  151.6765 C   0  0  0  0  0  0  0  0  0  0  0  0
  144.4293  131.6268  151.0795 C   0  0  0  0  0  0  0  0  0  0  0  0
  143.8339  132.8298  150.6635 C   0  0  0  0  0  0  0  0  0  0  0  0
  144.4240  134.0333  150.8114 N   0  0  0  0  0  0  0  0  0  0  0  0
  145.6504  134.1119  151.3865 C   0  0  0  0  0  0  0  0  0  0  0  0
  146.3321  135.3477  151.5740 N   0  0  0  0  0  0  0  0  0  0  0  0
  145.8091  136.5805  151.6980 C   0  0  0  0  0  0  0  0  0  0  0  0
  144.6085  136.8531  151.6752 O   0  0  0  0  0  0  0  0  0  0  0  0
  146.7706  137.5021  151.8537 N   0  0  0  0  0  0  0  0  0  0  0  0
  146.5376  138.9330  152.0217 C   0  0  0  0  0  0  0  0  0  0  0  0
  147.0875  139.4681  153.3594 C   0  0  2  0  0  0  0  0  0  0  0  0
  147.3571  140.9874  153.3514 C   0  0  0  0  0  0  0  0  0  0  0  0
  148.1635  141.3461  154.6029 C   0  0  0  0  0  0  0  0  0  0  0  0
  149.2635  139.9143  154.9043 S   0  0  0  0  0  0  0  0  0  0  0  0
  150.5962  140.1963  154.3495 O   0  0  0  0  0  0  0  0  0  0  0  0
  149.1018  139.4688  156.2966 O   0  0  0  0  0  0  0  0  0  0  0  0
  148.3856  138.7605  153.7810 C   0  0  0  0  0  0  0  0  0  0  0  0
  148.0585  132.0231  152.7585 H   0  0  0  0  0  0  0  0  0  0  0  0
  147.6671  133.6246  153.3837 H   0  0  0  0  0  0  0  0  0  0  0  0
  148.4235  133.4513  151.7917 H   0  0  0  0  0  0  0  0  0  0  0  0
  146.1854  130.7836  152.0080 H   0  0  0  0  0  0  0  0  0  0  0  0
  143.9245  130.6816  150.9442 H   0  0  0  0  0  0  0  0  0  0  0  0
  142.8586  132.8270  150.1998 H   0  0  0  0  0  0  0  0  0  0  0  0
  147.3378  135.2817  151.6221 H   0  0  0  0  0  0  0  0  0  0  0  0
  147.7317  137.1930  151.8628 H   0  0  0  0  0  0  0  0  0  0  0  0
  146.9814  139.4772  151.1863 H   0  0  0  0  0  0  0  0  0  0  0  0
  145.4628  139.1071  151.9638 H   0  0  0  0  0  0  0  0  0  0  0  0
  146.3525  139.2763  154.1430 H   0  0  0  0  0  0  0  0  0  0  0  0
  147.9432  141.2435  152.4679 H   0  0  0  0  0  0  0  0  0  0  0  0
  146.4336  141.5650  153.3002 H   0  0  0  0  0  0  0  0  0  0  0  0
  148.7496  142.2583  154.4906 H   0  0  0  0  0  0  0  0  0  0  0  0
  147.5071  141.4547  155.4667 H   0  0  0  0  0  0  0  0  0  0  0  0
  148.2044  137.8109  154.2849 H   0  0  0  0  0  0  0  0  0  0  0  0
  149.0327  138.5776  152.9226 H   0  0  0  0  0  0  0  0  0  0  0  0
  1  2  1  0  0  0  0
  1 20  1  0  0  0  0
  1 21  1  0  0  0  0
  1 22  1  0  0  0  0
  2  7  1  0  0  0  0
  2  3  2  0  0  0  0
  3  4  1  0  0  0  0
  3 23  1  0  0  0  0
  4  5  2  0  0  0  0
  4 24  1  0  0  0  0
  5  6  1  0  0  0  0
  5 25  1  0  0  0  0
  6  7  2  0  0  0  0
  7  8  1  0  0  0  0
  8  9  1  0  0  0  0
  8 26  1  0  0  0  0
  9 10  2  0  0  0  0
  9 11  1  0  0  0  0
 11 12  1  0  0  0  0
 11 27  1  0  0  0  0
 12 13  1  0  0  0  0
 12 28  1  0  0  0  0
 12 29  1  0  0  0  0
 13 19  1  0  0  0  0
 13 14  1  0  0  0  0
 13 30  1  0  0  0  0
 14 15  1  0  0  0  0
 14 31  1  0  0  0  0
 14 32  1  0  0  0  0
 15 16  1  0  0  0  0
 15 33  1  0  0  0  0
 15 34  1  0  0  0  0
 16 17  2  0  0  0  0
 16 18  2  0  0  0  0
 16 19  1  0  0  0  0
 19 35  1  0  0  0  0
 19 36  1  0  0  0  0
M  END
> <s_m_source_file>
AV-unprocessed.smi

> <i_m_source_file_index>
1425

> <i_lp_mmshare_version>
43012

> <i_f3d_flags>
0

> <s_epik_input>
W0NIM11jMVtjSF1bY0hdW2NIXW5jMVtOSF1DKD1PKVtOSF1bQ0gyXVtDQEBIXShbQ0gyXTIpW0NIMl1bQ0gyXVMyKD1PKT1P

> <s_epik_cmdline>
J2VwaWtfcHl0aG9uJywgJy1waCcsICc3LjAnLCAnLXRuJywgJzgnLCAnLW1hJywgJzIwMCcsICctbWV0YWxfYmluZGluZycsICctaW1hZScsICc8aW5maWxlLm1hZT4nLCAnLW9tYWUnLCAnPG91dGZpbGUubWFlPic=

> <r_lp_tautomer_probability>
1

> <r_epik_Ionization_Penalty>
5.46275e-05

> <r_epik_Ionization_Penalty_Charging>
0

> <r_epik_Ionization_Penalty_Neutral>
5.46275e-05

> <r_epik_State_Penalty>
-0

> <r_epik_Charging_Adjusted_Penalty>
0

> <i_epik_Tot_Q>
0

> <i_epik_Tot_abs_Q>
0

> <r_epik_Metal_State_Penalty>
-0

> <b_epik_Metal_Only>
0

> <s_lp_Force_Field>
OPLS_2005

> <r_lp_Energy>
6.25093

> <b_lp_Chiralities_Consistent>
1

> <s_lp_Variant>
AV-unprocessed.smi:1425-1

> <Gold.Version>
5.8.1

> <Gold.Id.Protein>
6NUR|6NUR_protein|mol2

> <Gold.PLP.Fitness>
44.0797

> <Gold.PLP.PLP>
-32.9811

> <Gold.PLP.part.hbond>
-2.9401

> <Gold.PLP.part.metal>
0.0000

> <Gold.PLP.part.buried>
-5.5112

> <Gold.PLP.part.nonpolar>
-29.2494

> <Gold.PLP.part.repulsive>
3.6294

> <Gold.PLP.ligand.clash>
0.0000

> <Gold.PLP.ligand.torsion>
0.3942

> <Gold.PLP.Chemscore.Hbond>
2.9600

> <Gold.PLP.Chemscore.CHOScore>
1.0000

> <Gold.PLP.Chemscore.Metal>
0.0000

> <Gold.Chemscore.Hbonds>
donor molecule, donor type, donor heavy atom, donor atom, acceptor molecule, acceptor atom, score
      L1  H     8    26       P1  7948  0.94
      L1  H    11    27       P1  7948  0.99
      P1  H  7989  7998       L1    17  0.91
      L1  C     5    25       P1 10186  1.00

> <Gold.PLP.Chemscore.Internal.Correction>
0.0070

> <Gold.Rescore>
     Score         DG    S(hbond)    S(metal)    S(lipo)     H(rot)  DE(clash)    DE(int)     intcor
     17.29     -20.82       2.89        0.00      77.05       1.29       1.91       1.62       ----

> <Gold.Chemscore.Fitness>
17.2902

> <Gold.Chemscore.DG>
-20.8198

> <Gold.Chemscore.ZeroCoef>
-5.4800

> <Gold.Chemscore.Hbond>
2.8852

> <Gold.Chemscore.Metal>
0.0000

> <Gold.Chemscore.Lipo>
77.0543

> <Gold.Chemscore.Internal_Hbond>
0.0000

> <Gold.Chemscore.DEClash>
1.9142

> <Gold.Chemscore.DEInternal>
1.6154

> <Gold.Chemscore.Rot>
1.2939

> <Gold.Chemscore.Internal.Correction>
   9.000000E+99

> <Gold.Chemscore.Hbonds>
donor molecule, donor type, donor heavy atom, donor atom, acceptor molecule, acceptor atom, score
      L1  H     8    26       P1  7948  0.84
      L1  H    11    27       P1  7948  0.92
      P1  H  7989  7998       L1    17  0.88

> <Gold.Chemscore.Hbond.Weighted>
-9.6367

> <Gold.Chemscore.Metal.Weighted>
-0.0000

> <Gold.Chemscore.Lipo.Weighted>
-9.0154

> <Gold.Chemscore.Internal_Hbond.Weighted>
0.0000

> <Gold.Chemscore.DEClash.Weighted>
1.9142

> <Gold.Chemscore.DEInternal.Weighted>
1.6154

> <Gold.Chemscore.Rot.Weighted>
3.3123

> <Gold.Chemscore.Internal.Correction.Weighted>
   9.000000E+99

> <Gold.Protein.RotatedTorsions>
[ 6907 6896 6895 6894 ] final  -83.82 input  -60.11 | X-H torsion
[ 7974 7965 7964 7962 ] final  -58.92 input  175.53 | X-H torsion
[ 8008 7997 7996 7995 ] final -164.61 input   59.86 | X-H torsion
[ 10167 10162 10161 10158 ] final   47.01 input  -65.29 | X-H torsion
[ 10718 10713 10712 10709 ] final -109.40 input   66.30 | X-H torsion
[ 10763 10752 10751 10750 ] final  -25.71 input  -60.55 | X-H torsion
[ 11005 11000 10999 10996 ] final  124.93 input  -57.11 | X-H torsion

> <Gold.Protein.ActiveResidues>
 VAL166  LYS551  ARG553  GLY616  TRP617  ASP618  TYR619  PRO620  LYS621  CYS622 
 ASP623  PHE694  ASN695  SER759  ASP760  ASP761  ALA762  ILE779  LEU786  VAL792 
 PHE793  MET794  SER795  GLU796  ALA797  LYS798  CYS799  TRP800  GLU811  SER814 

> <Gold.Protein.RotatedAtoms>
  150.6882  134.3454  159.4885 H   0  0  0  0  0  0  0  0  0  0  0  0  # atno 6907 bound_to 6896
  152.1302  134.9138  160.0568 H   0  0  0  0  0  0  0  0  0  0  0  0  # atno 6908 bound_to 6896
  152.0311  133.3903  159.4334 H   0  0  0  0  0  0  0  0  0  0  0  0  # atno 6909 bound_to 6896
  145.8336  140.8464  143.0071 H   0  0  0  0  0  0  0  0  0  0  0  0  # atno 7974 bound_to 7965
  155.8381  140.0944  157.1752 H   0  0  0  0  0  0  0  0  0  0  0  0  # atno 8008 bound_to 7997
  154.3981  140.1406  156.3756 H   0  0  0  0  0  0  0  0  0  0  0  0  # atno 8009 bound_to 7997
  155.8094  140.3450  155.5451 H   0  0  0  0  0  0  0  0  0  0  0  0  # atno 8010 bound_to 7997
  140.3081  144.2854  150.6205 H   0  0  0  0  0  0  0  0  0  0  0  0  # atno 10167 bound_to 10162
  156.0535  130.5762  150.8094 H   0  0  0  0  0  0  0  0  0  0  0  0  # atno 10718 bound_to 10713
  153.7042  135.6954  153.5055 H   0  0  0  0  0  0  0  0  0  0  0  0  # atno 10763 bound_to 10752
  153.2320  135.4334  155.0604 H   0  0  0  0  0  0  0  0  0  0  0  0  # atno 10764 bound_to 10752
  154.8335  135.3486  154.6581 H   0  0  0  0  0  0  0  0  0  0  0  0  # atno 10765 bound_to 10752
  139.9382  134.9638  156.8482 H   0  0  0  0  0  0  0  0  0  0  0  0  # atno 11005 bound_to 11000
  144.6738  140.0708  143.7473 LP  0  0  0  0  0  0  0  0  0  0  0  0  # atno 17320 bound_to 7965
  145.9544  139.2756  143.1193 LP  0  0  0  0  0  0  0  0  0  0  0  0  # atno 17321 bound_to 7965
  140.5592  143.2194  151.7794 LP  0  0  0  0  0  0  0  0  0  0  0  0  # atno 17342 bound_to 10162
  139.4900  144.4371  151.9806 LP  0  0  0  0  0  0  0  0  0  0  0  0  # atno 17343 bound_to 10162
  157.5484  131.0943  150.9730 LP  0  0  0  0  0  0  0  0  0  0  0  0  # atno 17370 bound_to 10713
  156.9996  130.5595  149.5310 LP  0  0  0  0  0  0  0  0  0  0  0  0  # atno 17371 bound_to 10713
  140.6021  134.0162  155.7541 LP  0  0  0  0  0  0  0  0  0  0  0  0  # atno 17394 bound_to 11000
  141.1005  133.9776  157.3087 LP  0  0  0  0  0  0  0  0  0  0  0  0  # atno 17395 bound_to 11000

$$$$
