#       Name:                AV-unprocessed.smi:2562
#       Creating user name   scv26
#       Creation time:       Fri Mar 27 14:08:56 2020


#       File generated by GOLD software.
#

@<TRIPOS>MOLECULE
AV-unprocessed.smi:2562
    35    36     1
SMALL
NO_CHARGES


@<TRIPOS>ATOM
      1 ****        -2.5617   4.3988  -1.3454 C.3            1 S1                 0.0000
      2 ****        -1.9641   2.9875  -1.3436 C.3            1 S1                 0.0000
      3 ****        -0.4320   2.9948  -1.2389 C.3            1 S1                 0.0000
      4 ****         0.1385   1.6150  -1.2441 C.2            1 S1                 0.0000
      5 ****         0.4810   1.0132  -2.3822 N.2            1 S1                 0.0000
      6 ****         0.8901  -0.1971  -1.9478 N.pl3          1 S1                 0.0000
      7 ****         0.7626  -0.2571  -0.6202 C.2            1 S1                 0.0000
      8 ****         1.1068  -1.4866   0.1594 C.3            1 S1                 0.0000
      9 ****        -0.1415  -2.3040   0.5450 C.3            1 S1                 0.0000
     10 ****         0.2451  -3.4450   1.3975 N.4            1 S1                 1.0000
     11 ****         1.0105  -3.0005   2.5790 C.3            1 S1                 0.0000
     12 ****         2.2197  -2.1564   2.1393 C.3            1 S1                 0.0000
     13 ****         1.7784  -1.0615   1.3432 O.3            1 S1                 0.0000
     14 ****         0.2769   0.8693  -0.1068 N.2            1 S1                 0.0000
     15 ****         1.2259  -0.9197  -2.5686 H              1 S1                 0.0000
     16 ****        -3.6497   4.3590  -1.4015 H              1 S1                 0.0000
     17 ****        -2.2052   4.9760  -2.1992 H              1 S1                 0.0000
     18 ****        -2.2953   4.9412  -0.4380 H              1 S1                 0.0000
     19 ****        -2.3837   2.4214  -0.5112 H              1 S1                 0.0000
     20 ****        -2.2671   2.4688  -2.2539 H              1 S1                 0.0000
     21 ****        -0.0032   3.5623  -2.0660 H              1 S1                 0.0000
     22 ****        -0.1226   3.5013  -0.3238 H              1 S1                 0.0000
     23 ****         1.7859  -2.0972  -0.4391 H              1 S1                 0.0000
     24 ****        -0.8533  -1.6805   1.0885 H              1 S1                 0.0000
     25 ****        -0.6515  -2.6735  -0.3451 H              1 S1                 0.0000
     26 ****        -0.5848  -3.9357   1.6994 H              1 S1                 0.0000
     27 ****         0.3587  -2.4151   3.2290 H              1 S1                 0.0000
     28 ****         1.3359  -3.8713   3.1484 H              1 S1                 0.0000
     29 ****         2.7461  -1.7697   3.0120 H              1 S1                 0.0000
     30 ****         2.9338  -2.7621   1.5789 H              1 S1                 0.0000
     31 ****         0.8211  -4.0744   0.8567 H              1 S1                 0.0000
     32 ****         0.4443   1.3669  -3.3169 LP             1 S1                 0.0000
     33 ****         1.1510  -0.5025   1.8853 LP             1 S1                 0.0000
     34 ****         2.5729  -0.5132   1.0824 LP             1 S1                 0.0000
     35 ****         0.0710   1.1044   0.8431 LP             1 S1                 0.0000
@<TRIPOS>BOND
    1    1    2 1     
    2    1   16 1     
    3    1   17 1     
    4    1   18 1     
    5    2    3 1     
    6    2   19 1     
    7    2   20 1     
    8    3    4 1     
    9    3   21 1     
   10    3   22 1     
   11    4   14 1     
   12    4    5 2     
   13    5    6 1     
   14    6   15 1     
   15    6    7 1     
   16    7    8 1     
   17    7   14 2     
   18    8   13 1     
   19    8    9 1     
   20    8   23 1     
   21    9   10 1     
   22    9   24 1     
   23    9   25 1     
   24   10   11 1     
   25   10   26 1     
   26   10   31 1     
   27   11   12 1     
   28   11   27 1     
   29   11   28 1     
   30   12   13 1     
   31   12   29 1     
   32   12   30 1     
   33    5   32 1     
   34   13   33 1     
   35   13   34 1     
   36   14   35 1     
@<TRIPOS>SUBSTRUCTURE
      1 S1             1
@<TRIPOS>SET
LONE_PAIRS      STATIC     ATOMS    <user>   **** ""
4 32 33 34 35
DONOR_HYDROGENS      STATIC     ATOMS    <user>   **** ""
3 15 26 31
ATOM$BLUE        STATIC     ATOMS    COLORGROUP SYSTEM
4 32 33 34 35
ATOM$RED        STATIC     ATOMS    COLORGROUP SYSTEM
3 15 26 31
