AV-unprocessed.smi:2961|AV-procd|sdf|11313|dock4
  -GOLD-   2272016213D 1   1.00000     0.00000
 Structure written by MMmdl.
 48 50  0  0  0  0  0  0  0  0  1 V2000
  149.6140  133.2114  152.4984 C   0  0  0  0  0  0  0  0  0  0  0  0
  150.3354  133.7990  153.7064 C   0  0  0  0  0  0  0  0  0  0  0  0
  151.0028  133.0718  154.4417 O   0  0  0  0  0  0  0  0  0  0  0  0
  150.1943  135.1193  153.8983 N   0  0  0  0  0  0  0  0  0  0  0  0
  150.8090  135.8734  154.9846 C   0  0  0  0  0  0  0  0  0  0  0  0
  151.3819  137.2131  154.4935 C   0  0  0  0  0  0  0  0  0  0  0  0
  150.3285  138.2696  154.3567 C   0  0  0  0  0  0  0  0  0  0  0  0
  149.1137  137.9966  153.8795 N   0  0  0  0  0  0  0  0  0  0  0  0
  148.4929  139.2303  153.9068 C   0  0  0  0  0  0  0  0  0  0  0  0
  147.1843  139.6082  153.5301 C   0  0  0  0  0  0  0  0  0  0  0  0
  146.7674  140.9505  153.6472 C   0  0  0  0  0  0  0  0  0  0  0  0
  147.6507  141.9317  154.1424 C   0  0  0  0  0  0  0  0  0  0  0  0
  148.9593  141.5768  154.5229 C   0  0  0  0  0  0  0  0  0  0  0  0
  149.3708  140.2360  154.4026 C   0  0  0  0  0  0  0  0  0  0  0  0
  150.5602  139.5679  154.6750 N   0  0  0  0  0  0  0  0  0  0  0  0
  151.7819  140.1648  155.1926 C   0  0  0  0  0  0  0  0  0  0  0  0
  151.7003  140.4100  156.7040 C   0  0  0  0  0  0  0  0  0  0  0  0
  151.2375  141.7360  156.9161 O   0  0  0  0  0  0  0  0  0  0  0  0
  151.6132  142.3826  158.0740 C   0  0  0  0  0  0  0  0  0  0  0  0
  152.4304  141.6633  158.9699 C   0  0  0  0  0  0  0  0  0  0  0  0
  152.8602  142.2439  160.1781 C   0  0  0  0  0  0  0  0  0  0  0  0
  152.4756  143.5572  160.5037 C   0  0  0  0  0  0  0  0  0  0  0  0
  151.6591  144.2907  159.6199 C   0  0  0  0  0  0  0  0  0  0  0  0
  151.2446  145.7065  159.9648 C   0  0  0  0  0  0  0  0  0  0  0  0
  151.2317  143.7067  158.4091 C   0  0  0  0  0  0  0  0  0  0  0  0
  148.5680  133.5197  152.4877 H   0  0  0  0  0  0  0  0  0  0  0  0
  149.6475  132.1215  152.5197 H   0  0  0  0  0  0  0  0  0  0  0  0
  150.0845  133.5498  151.5748 H   0  0  0  0  0  0  0  0  0  0  0  0
  149.6263  135.6385  153.2444 H   0  0  0  0  0  0  0  0  0  0  0  0
  150.0787  136.0348  155.7790 H   0  0  0  0  0  0  0  0  0  0  0  0
  151.6045  135.2655  155.4162 H   0  0  0  0  0  0  0  0  0  0  0  0
  152.1371  137.5669  155.1966 H   0  0  0  0  0  0  0  0  0  0  0  0
  151.8985  137.0898  153.5421 H   0  0  0  0  0  0  0  0  0  0  0  0
  146.5001  138.8639  153.1500 H   0  0  0  0  0  0  0  0  0  0  0  0
  145.7650  141.2280  153.3558 H   0  0  0  0  0  0  0  0  0  0  0  0
  147.3237  142.9575  154.2293 H   0  0  0  0  0  0  0  0  0  0  0  0
  149.6376  142.3263  154.9022 H   0  0  0  0  0  0  0  0  0  0  0  0
  152.6285  139.5208  154.9549 H   0  0  0  0  0  0  0  0  0  0  0  0
  151.9587  141.1055  154.6702 H   0  0  0  0  0  0  0  0  0  0  0  0
  151.0157  139.6928  157.1602 H   0  0  0  0  0  0  0  0  0  0  0  0
  152.6844  140.2775  157.1554 H   0  0  0  0  0  0  0  0  0  0  0  0
  152.7298  140.6538  158.7286 H   0  0  0  0  0  0  0  0  0  0  0  0
  153.4850  141.6808  160.8556 H   0  0  0  0  0  0  0  0  0  0  0  0
  152.8089  143.9978  161.4320 H   0  0  0  0  0  0  0  0  0  0  0  0
  150.2173  145.8942  159.6509 H   0  0  0  0  0  0  0  0  0  0  0  0
  151.8948  146.4221  159.4612 H   0  0  0  0  0  0  0  0  0  0  0  0
  151.3058  145.8832  161.0391 H   0  0  0  0  0  0  0  0  0  0  0  0
  150.6113  144.2950  157.7498 H   0  0  0  0  0  0  0  0  0  0  0  0
  1  2  1  0  0  0  0
  1 26  1  0  0  0  0
  1 27  1  0  0  0  0
  1 28  1  0  0  0  0
  2  3  2  0  0  0  0
  2  4  1  0  0  0  0
  4  5  1  0  0  0  0
  4 29  1  0  0  0  0
  5  6  1  0  0  0  0
  5 30  1  0  0  0  0
  5 31  1  0  0  0  0
  6  7  1  0  0  0  0
  6 32  1  0  0  0  0
  6 33  1  0  0  0  0
  7 15  1  0  0  0  0
  7  8  2  0  0  0  0
  8  9  1  0  0  0  0
  9 14  2  0  0  0  0
  9 10  1  0  0  0  0
 10 11  2  0  0  0  0
 10 34  1  0  0  0  0
 11 12  1  0  0  0  0
 11 35  1  0  0  0  0
 12 13  2  0  0  0  0
 12 36  1  0  0  0  0
 13 14  1  0  0  0  0
 13 37  1  0  0  0  0
 14 15  1  0  0  0  0
 15 16  1  0  0  0  0
 16 17  1  0  0  0  0
 16 38  1  0  0  0  0
 16 39  1  0  0  0  0
 17 18  1  0  0  0  0
 17 40  1  0  0  0  0
 17 41  1  0  0  0  0
 18 19  1  0  0  0  0
 19 25  1  0  0  0  0
 19 20  2  0  0  0  0
 20 21  1  0  0  0  0
 20 42  1  0  0  0  0
 21 22  2  0  0  0  0
 21 43  1  0  0  0  0
 22 23  1  0  0  0  0
 22 44  1  0  0  0  0
 23 24  1  0  0  0  0
 23 25  2  0  0  0  0
 24 45  1  0  0  0  0
 24 46  1  0  0  0  0
 24 47  1  0  0  0  0
 25 48  1  0  0  0  0
M  END
> <s_m_source_file>
AV-unprocessed.smi

> <i_m_source_file_index>
2961

> <i_lp_mmshare_version>
43012

> <i_f3d_flags>
0

> <s_epik_input>
W0NIM11DKD1PKVtOSF1bQ0gyXVtDSDJdYyhuMSluKGMoYzEyKVtjSF1bY0hdW2NIXVtjSF0yKVtDSDJdW0NIMl1PYzNbY0hdW2NIXVtjSF1jKFtDSDNdKVtjSF0z

> <s_epik_cmdline>
J2VwaWtfcHl0aG9uJywgJy1waCcsICc3LjAnLCAnLXRuJywgJzgnLCAnLW1hJywgJzIwMCcsICctbWV0YWxfYmluZGluZycsICctaW1hZScsICc8aW5maWxlLm1hZT4nLCAnLW9tYWUnLCAnPG91dGZpbGUubWFlPic=

> <r_lp_tautomer_probability>
1

> <r_epik_Ionization_Penalty>
0.0984942

> <r_epik_Ionization_Penalty_Charging>
0

> <r_epik_Ionization_Penalty_Neutral>
0.0984942

> <r_epik_State_Penalty>
0.0885769

> <r_epik_Charging_Adjusted_Penalty>
0.0885769

> <i_epik_Tot_Q>
0

> <i_epik_Tot_abs_Q>
0

> <r_epik_Metal_State_Penalty>
0.0758518

> <b_epik_Metal_Only>
0

> <s_lp_Force_Field>
OPLS_2005

> <r_lp_Energy>
13.474

> <b_lp_Chiralities_Consistent>
1

> <s_lp_Variant>
AV-unprocessed.smi:2961-1

> <Gold.Version>
5.8.1

> <Gold.Id.Protein>
6NUR|6NUR_protein|mol2

> <Gold.PLP.Fitness>
56.0420

> <Gold.PLP.PLP>
-57.2974

> <Gold.PLP.part.hbond>
-1.0000

> <Gold.PLP.part.metal>
0.0000

> <Gold.PLP.part.buried>
-3.9354

> <Gold.PLP.part.nonpolar>
-53.4110

> <Gold.PLP.part.repulsive>
2.2764

> <Gold.PLP.ligand.clash>
2.1425

> <Gold.PLP.ligand.torsion>
1.1569

> <Gold.PLP.Chemscore.Hbond>
1.0000

> <Gold.PLP.Chemscore.CHOScore>
0.0000

> <Gold.PLP.Chemscore.Metal>
0.0000

> <Gold.Chemscore.Hbonds>
donor molecule, donor type, donor heavy atom, donor atom, acceptor molecule, acceptor atom, score
      L1  H     4    29       P1  7948  0.60

> <Gold.PLP.Chemscore.Internal.Correction>
0.2010

> <Gold.Rescore>
     Score         DG    S(hbond)    S(metal)    S(lipo)     H(rot)  DE(clash)    DE(int)     intcor
     15.46     -19.26       0.47        0.00     150.41       2.11       1.81       1.99       ----

> <Gold.Chemscore.Fitness>
15.4565

> <Gold.Chemscore.DG>
-19.2593

> <Gold.Chemscore.ZeroCoef>
-5.4800

> <Gold.Chemscore.Hbond>
0.4721

> <Gold.Chemscore.Metal>
0.0000

> <Gold.Chemscore.Lipo>
150.4134

> <Gold.Chemscore.Internal_Hbond>
0.0000

> <Gold.Chemscore.DEClash>
1.8149

> <Gold.Chemscore.DEInternal>
1.9878

> <Gold.Chemscore.Rot>
2.1078

> <Gold.Chemscore.Internal.Correction>
   9.000000E+99

> <Gold.Chemscore.Hbonds>
donor molecule, donor type, donor heavy atom, donor atom, acceptor molecule, acceptor atom, score
      L1  H     4    29       P1  7948  0.04

> <Gold.Chemscore.Hbond.Weighted>
-1.5770

> <Gold.Chemscore.Metal.Weighted>
-0.0000

> <Gold.Chemscore.Lipo.Weighted>
-17.5984

> <Gold.Chemscore.Internal_Hbond.Weighted>
0.0000

> <Gold.Chemscore.DEClash.Weighted>
1.8149

> <Gold.Chemscore.DEInternal.Weighted>
1.9878

> <Gold.Chemscore.Rot.Weighted>
5.3961

> <Gold.Chemscore.Internal.Correction.Weighted>
   9.000000E+99

> <Gold.Protein.RotatedTorsions>
[ 6907 6896 6895 6894 ] final  -83.40 input  -60.11 | X-H torsion
[ 7974 7965 7964 7962 ] final   51.10 input  175.53 | X-H torsion
[ 8008 7997 7996 7995 ] final  -97.28 input   59.86 | X-H torsion
[ 10167 10162 10161 10158 ] final  143.12 input  -65.29 | X-H torsion
[ 10718 10713 10712 10709 ] final  164.00 input   66.30 | X-H torsion
[ 10763 10752 10751 10750 ] final -175.51 input  -60.55 | X-H torsion
[ 11005 11000 10999 10996 ] final -164.01 input  -57.11 | X-H torsion

> <Gold.Protein.ActiveResidues>
 VAL166  LYS551  ARG553  GLY616  TRP617  ASP618  TYR619  PRO620  LYS621  CYS622 
 ASP623  PHE694  ASN695  SER759  ASP760  ASP761  ALA762  ILE779  LEU786  VAL792 
 PHE793  MET794  SER795  GLU796  ALA797  LYS798  CYS799  TRP800  GLU811  SER814 

> <Gold.Protein.RotatedAtoms>
  150.6886  134.3518  159.4911 H   0  0  0  0  0  0  0  0  0  0  0  0  # atno 6907 bound_to 6896
  152.1358  134.9098  160.0565 H   0  0  0  0  0  0  0  0  0  0  0  0  # atno 6908 bound_to 6896
  152.0250  133.3879  159.4311 H   0  0  0  0  0  0  0  0  0  0  0  0  # atno 6909 bound_to 6896
  145.9947  139.4376  143.0052 H   0  0  0  0  0  0  0  0  0  0  0  0  # atno 7974 bound_to 7965
  154.7856  140.0464  157.1161 H   0  0  0  0  0  0  0  0  0  0  0  0  # atno 8008 bound_to 7997
  154.9652  140.3082  155.4993 H   0  0  0  0  0  0  0  0  0  0  0  0  # atno 8009 bound_to 7997
  156.2943  140.2263  156.4740 H   0  0  0  0  0  0  0  0  0  0  0  0  # atno 8010 bound_to 7997
  139.4977  144.6061  151.6375 H   0  0  0  0  0  0  0  0  0  0  0  0  # atno 10167 bound_to 10162
  157.1005  131.0441  151.2500 H   0  0  0  0  0  0  0  0  0  0  0  0  # atno 10718 bound_to 10713
  154.5835  135.2838  155.0709 H   0  0  0  0  0  0  0  0  0  0  0  0  # atno 10763 bound_to 10752
  154.2036  135.6420  153.5098 H   0  0  0  0  0  0  0  0  0  0  0  0  # atno 10764 bound_to 10752
  153.0096  135.5475  154.6496 H   0  0  0  0  0  0  0  0  0  0  0  0  # atno 10765 bound_to 10752
  140.5917  134.5038  157.5193 H   0  0  0  0  0  0  0  0  0  0  0  0  # atno 11005 bound_to 11000
  145.7577  140.9947  143.1216 LP  0  0  0  0  0  0  0  0  0  0  0  0  # atno 17320 bound_to 7965
  144.6900  139.9292  143.7471 LP  0  0  0  0  0  0  0  0  0  0  0  0  # atno 17321 bound_to 7965
  140.5723  144.0087  150.6223 LP  0  0  0  0  0  0  0  0  0  0  0  0  # atno 17342 bound_to 10162
  140.3209  143.3138  152.0785 LP  0  0  0  0  0  0  0  0  0  0  0  0  # atno 17343 bound_to 10162
  157.4644  130.7672  149.7266 LP  0  0  0  0  0  0  0  0  0  0  0  0  # atno 17370 bound_to 10713
  155.9875  130.3966  150.3163 LP  0  0  0  0  0  0  0  0  0  0  0  0  # atno 17371 bound_to 10713
  139.9271  134.8034  156.1036 LP  0  0  0  0  0  0  0  0  0  0  0  0  # atno 17394 bound_to 11000
  141.0931  133.6706  156.2584 LP  0  0  0  0  0  0  0  0  0  0  0  0  # atno 17395 bound_to 11000

$$$$
