#       Name:                AV-unprocessed.smi:2111
#       Creating user name   scv26
#       Creation time:       Fri Mar 27 11:35:46 2020


#       File generated by GOLD software.
#

@<TRIPOS>MOLECULE
AV-unprocessed.smi:2111
    33    34     1
SMALL
NO_CHARGES


@<TRIPOS>ATOM
      1 ****        -2.0971   3.5137  -0.2711 C.3            1 S1                 0.0000
      2 ****        -1.3141   2.3278  -0.1868 O.3            1 S1                 0.0000
      3 ****         0.0585   2.4322  -0.3116 C.ar           1 S1                 0.0000
      4 ****         0.5951   3.6641  -0.4988 N.ar           1 S1                 0.0000
      5 ****         1.9335   3.7704  -0.6219 C.ar           1 S1                 0.0000
      6 ****         2.8009   2.6648  -0.5675 C.ar           1 S1                 0.0000
      7 ****         2.2475   1.3857  -0.3737 C.ar           1 S1                 0.0000
      8 ****         0.8424   1.2560  -0.2387 C.ar           1 S1                 0.0000
      9 ****         0.1600   0.0209  -0.0414 N.am           1 S1                 0.0000
     10 ****         0.6502  -1.2207   0.1203 C.2            1 S1                 0.0000
     11 ****         1.8416  -1.5277   0.1253 O.2            1 S1                 0.0000
     12 ****        -0.3411  -2.1078   0.2821 N.am           1 S1                 0.0000
     13 ****        -0.1736  -3.5131   0.4692 C.3            1 S1                 0.0000
     14 ****        -1.2401  -4.4275  -0.0938 C.3            1 S1                 0.0000
     15 ****        -1.1410  -4.2221   1.3924 C.3            1 S1                 0.0000
     16 ****        -3.1501   3.2595  -0.1521 H              1 S1                 0.0000
     17 ****        -1.9819   3.9998  -1.2409 H              1 S1                 0.0000
     18 ****        -1.8372   4.2210   0.5178 H              1 S1                 0.0000
     19 ****         2.3245   4.7661  -0.7697 H              1 S1                 0.0000
     20 ****         3.8678   2.7943  -0.6734 H              1 S1                 0.0000
     21 ****         2.9182   0.5432  -0.3376 H              1 S1                 0.0000
     22 ****        -0.8461   0.0984  -0.0083 H              1 S1                 0.0000
     23 ****        -1.2901  -1.7637   0.2682 H              1 S1                 0.0000
     24 ****         0.8435  -3.9021   0.4526 H              1 S1                 0.0000
     25 ****        -2.0832  -3.9705  -0.6088 H              1 S1                 0.0000
     26 ****        -0.9183  -5.3883  -0.4906 H              1 S1                 0.0000
     27 ****        -0.7516  -5.0450   1.9886 H              1 S1                 0.0000
     28 ****        -1.9186  -3.6291   1.8700 H              1 S1                 0.0000
     29 ****        -1.6302   1.7136  -0.9099 LP             1 S1                 0.0000
     30 ****        -1.4986   1.9152   0.7053 LP             1 S1                 0.0000
     31 ****         0.0113   4.4747  -0.5444 LP             1 S1                 0.0000
     32 ****         2.5401  -0.8229   0.0016 LP             1 S1                 0.0000
     33 ****         2.1115  -2.4821   0.2531 LP             1 S1                 0.0000
@<TRIPOS>BOND
    1    1    2 1     
    2    1   16 1     
    3    1   17 1     
    4    1   18 1     
    5    2    3 1     
    6    3    8 ar    
    7    3    4 ar    
    8    4    5 ar    
    9    5    6 ar    
   10    5   19 1     
   11    6    7 ar    
   12    6   20 1     
   13    7    8 ar    
   14    7   21 1     
   15    8    9 1     
   16    9   10 am    
   17    9   22 1     
   18   10   11 2     
   19   10   12 am    
   20   12   13 1     
   21   12   23 1     
   22   13   15 1     
   23   13   14 1     
   24   13   24 1     
   25   14   15 1     
   26   14   25 1     
   27   14   26 1     
   28   15   27 1     
   29   15   28 1     
   30    2   29 1     
   31    2   30 1     
   32    4   31 1     
   33   11   32 1     
   34   11   33 1     
@<TRIPOS>SUBSTRUCTURE
      1 S1             1
@<TRIPOS>SET
LONE_PAIRS      STATIC     ATOMS    <user>   **** ""
5 29 30 31 32 33
DONOR_HYDROGENS      STATIC     ATOMS    <user>   **** ""
2 22 23
ATOM$BLUE        STATIC     ATOMS    COLORGROUP SYSTEM
5 29 30 31 32 33
ATOM$RED        STATIC     ATOMS    COLORGROUP SYSTEM
2 22 23
