AV-unprocessed.smi:724|AV-procd|sdf|3507|dock1
  -GOLD-   22720 0503D 1   1.00000     0.00000
 Structure written by MMmdl.
 36 37  0  0  0  0  0  0  0  0  1 V2000
  151.1697  145.3423  160.1855 C   0  0  0  0  0  0  0  0  0  0  0  0
  151.6846  144.1989  159.2867 C   0  0  0  0  0  0  0  0  0  0  0  0
  150.5262  143.6908  158.4037 C   0  0  0  0  0  0  0  0  0  0  0  0
  152.8088  144.7441  158.3744 C   0  0  0  0  0  0  0  0  0  0  0  0
  152.1644  143.0417  160.1950 C   0  0  0  0  0  0  0  0  0  0  0  0
  152.1600  143.1899  161.4183 O   0  0  0  0  0  0  0  0  0  0  0  0
  152.5981  141.9093  159.6119 N   0  0  0  0  0  0  0  0  0  0  0  0
  153.1639  140.7547  160.3081 C   0  0  0  0  0  0  0  0  0  0  0  0
  153.0160  139.4471  159.5043 C   0  0  0  0  0  0  0  0  0  0  0  0
  153.3152  138.2147  160.2953 C   0  0  0  0  0  0  0  0  0  0  0  0
  153.6277  138.1469  161.5866 N   0  0  0  0  0  0  0  0  0  0  0  0
  153.9269  136.8250  161.7112 C   0  0  0  0  0  0  0  0  0  0  0  0
  154.3589  136.2116  163.0037 C   0  0  0  0  0  0  0  0  0  0  0  0
  153.6789  134.9635  163.5260 C   0  0  0  0  0  0  0  0  0  0  0  0
  153.4651  136.2780  164.2245 C   0  0  0  0  0  0  0  0  0  0  0  0
  153.7757  136.0882  160.6177 N   0  0  0  0  0  0  0  0  0  0  0  0
  153.3846  137.0244  159.6507 O   0  0  0  0  0  0  0  0  0  0  0  0
  150.8005  146.1772  159.5892 H   0  0  0  0  0  0  0  0  0  0  0  0
  151.9600  145.7285  160.8308 H   0  0  0  0  0  0  0  0  0  0  0  0
  150.3501  145.0183  160.8288 H   0  0  0  0  0  0  0  0  0  0  0  0
  149.6815  143.3431  159.0006 H   0  0  0  0  0  0  0  0  0  0  0  0
  150.8427  142.8629  157.7673 H   0  0  0  0  0  0  0  0  0  0  0  0
  150.1536  144.4799  157.7496 H   0  0  0  0  0  0  0  0  0  0  0  0
  152.4423  145.5563  157.7458 H   0  0  0  0  0  0  0  0  0  0  0  0
  153.1973  143.9738  157.7067 H   0  0  0  0  0  0  0  0  0  0  0  0
  153.6447  145.1412  158.9528 H   0  0  0  0  0  0  0  0  0  0  0  0
  152.5695  141.8621  158.6036 H   0  0  0  0  0  0  0  0  0  0  0  0
  154.2166  140.9283  160.5377 H   0  0  0  0  0  0  0  0  0  0  0  0
  152.6601  140.6520  161.2692 H   0  0  0  0  0  0  0  0  0  0  0  0
  152.0035  139.3696  159.1071 H   0  0  0  0  0  0  0  0  0  0  0  0
  153.6831  139.4704  158.6419 H   0  0  0  0  0  0  0  0  0  0  0  0
  155.4333  136.3086  163.1471 H   0  0  0  0  0  0  0  0  0  0  0  0
  152.8466  134.5611  162.9514 H   0  0  0  0  0  0  0  0  0  0  0  0
  154.3028  134.2240  164.0237 H   0  0  0  0  0  0  0  0  0  0  0  0
  153.9453  136.4184  165.1907 H   0  0  0  0  0  0  0  0  0  0  0  0
  152.4901  136.7494  164.1150 H   0  0  0  0  0  0  0  0  0  0  0  0
  1  2  1  0  0  0  0
  1 18  1  0  0  0  0
  1 19  1  0  0  0  0
  1 20  1  0  0  0  0
  2  3  1  0  0  0  0
  2  4  1  0  0  0  0
  2  5  1  0  0  0  0
  3 21  1  0  0  0  0
  3 22  1  0  0  0  0
  3 23  1  0  0  0  0
  4 24  1  0  0  0  0
  4 25  1  0  0  0  0
  4 26  1  0  0  0  0
  5  6  2  0  0  0  0
  5  7  1  0  0  0  0
  7  8  1  0  0  0  0
  7 27  1  0  0  0  0
  8  9  1  0  0  0  0
  8 28  1  0  0  0  0
  8 29  1  0  0  0  0
  9 10  1  0  0  0  0
  9 30  1  0  0  0  0
  9 31  1  0  0  0  0
 10 17  1  0  0  0  0
 10 11  2  0  0  0  0
 11 12  1  0  0  0  0
 12 13  1  0  0  0  0
 12 16  2  0  0  0  0
 13 15  1  0  0  0  0
 13 14  1  0  0  0  0
 13 32  1  0  0  0  0
 14 15  1  0  0  0  0
 14 33  1  0  0  0  0
 14 34  1  0  0  0  0
 15 35  1  0  0  0  0
 15 36  1  0  0  0  0
 16 17  1  0  0  0  0
M  END
> <s_m_source_file>
AV-unprocessed.smi

> <i_m_source_file_index>
724

> <i_lp_mmshare_version>
43012

> <i_f3d_flags>
0

> <s_epik_input>
W0NIM11DKFtDSDNdKShbQ0gzXSlDKD1PKVtOSF1bQ0gyXVtDSDJdYzFuYyhubzEpW0NIXTJbQ0gyXVtDSDJdMg==

> <s_epik_cmdline>
J2VwaWtfcHl0aG9uJywgJy1waCcsICc3LjAnLCAnLXRuJywgJzgnLCAnLW1hJywgJzIwMCcsICctbWV0YWxfYmluZGluZycsICctaW1hZScsICc8aW5maWxlLm1hZT4nLCAnLW9tYWUnLCAnPG91dGZpbGUubWFlPic=

> <r_lp_tautomer_probability>
1

> <r_epik_Ionization_Penalty>
2.89377e-08

> <r_epik_Ionization_Penalty_Charging>
0

> <r_epik_Ionization_Penalty_Neutral>
2.89377e-08

> <r_epik_State_Penalty>
-0

> <r_epik_Charging_Adjusted_Penalty>
0

> <i_epik_Tot_Q>
0

> <i_epik_Tot_abs_Q>
0

> <r_epik_Metal_State_Penalty>
-0

> <b_epik_Metal_Only>
0

> <s_lp_Force_Field>
OPLS_2005

> <r_lp_Energy>
6.75537

> <b_lp_Chiralities_Consistent>
1

> <s_lp_Variant>
AV-unprocessed.smi:724-1

> <Gold.Version>
5.8.1

> <Gold.Id.Protein>
6NUR|6NUR_protein|mol2

> <Gold.PLP.Fitness>
41.1031

> <Gold.PLP.PLP>
-40.5157

> <Gold.PLP.part.hbond>
-0.8059

> <Gold.PLP.part.metal>
0.0000

> <Gold.PLP.part.buried>
-5.7364

> <Gold.PLP.part.nonpolar>
-33.5398

> <Gold.PLP.part.repulsive>
0.1624

> <Gold.PLP.ligand.clash>
0.0000

> <Gold.PLP.ligand.torsion>
0.3725

> <Gold.PLP.Chemscore.Hbond>
0.3819

> <Gold.PLP.Chemscore.CHOScore>
0.0000

> <Gold.PLP.Chemscore.Metal>
0.0000

> <Gold.Chemscore.Hbonds>
donor molecule, donor type, donor heavy atom, donor atom, acceptor molecule, acceptor atom, score
      P1  H  6896  6907       L1    16  0.75

> <Gold.PLP.Chemscore.Internal.Correction>
0.1868

> <Gold.Rescore>
     Score         DG    S(hbond)    S(metal)    S(lipo)     H(rot)  DE(clash)    DE(int)     intcor
     11.75     -12.46       0.64        0.00      83.24       1.91       0.40       0.31       ----

> <Gold.Chemscore.Fitness>
11.7532

> <Gold.Chemscore.DG>
-12.4614

> <Gold.Chemscore.ZeroCoef>
-5.4800

> <Gold.Chemscore.Hbond>
0.6404

> <Gold.Chemscore.Metal>
0.0000

> <Gold.Chemscore.Lipo>
83.2443

> <Gold.Chemscore.Internal_Hbond>
0.0000

> <Gold.Chemscore.DEClash>
0.3979

> <Gold.Chemscore.DEInternal>
0.3103

> <Gold.Chemscore.Rot>
1.9129

> <Gold.Chemscore.Internal.Correction>
   9.000000E+99

> <Gold.Chemscore.Hbonds>
donor molecule, donor type, donor heavy atom, donor atom, acceptor molecule, acceptor atom, score
      P1  H  6896  6907       L1    16  0.09

> <Gold.Chemscore.Hbond.Weighted>
-2.1388

> <Gold.Chemscore.Metal.Weighted>
-0.0000

> <Gold.Chemscore.Lipo.Weighted>
-9.7396

> <Gold.Chemscore.Internal_Hbond.Weighted>
0.0000

> <Gold.Chemscore.DEClash.Weighted>
0.3979

> <Gold.Chemscore.DEInternal.Weighted>
0.3103

> <Gold.Chemscore.Rot.Weighted>
4.8970

> <Gold.Chemscore.Internal.Correction.Weighted>
   9.000000E+99

> <Gold.Protein.RotatedTorsions>
[ 6907 6896 6895 6894 ] final   60.47 input  -60.11 | X-H torsion
[ 7974 7965 7964 7962 ] final   98.06 input  175.53 | X-H torsion
[ 8008 7997 7996 7995 ] final  -78.29 input   59.86 | X-H torsion
[ 10167 10162 10161 10158 ] final  115.61 input  -65.29 | X-H torsion
[ 10718 10713 10712 10709 ] final  -64.70 input   66.30 | X-H torsion
[ 10763 10752 10751 10750 ] final   -7.73 input  -60.55 | X-H torsion
[ 11005 11000 10999 10996 ] final  158.95 input  -57.11 | X-H torsion

> <Gold.Protein.ActiveResidues>
 VAL166  LYS551  ARG553  GLY616  TRP617  ASP618  TYR619  PRO620  LYS621  CYS622 
 ASP623  PHE694  ASN695  SER759  ASP760  ASP761  ALA762  ILE779  LEU786  VAL792 
 PHE793  MET794  SER795  GLU796  ALA797  LYS798  CYS799  TRP800  GLU811  SER814 

> <Gold.Protein.RotatedAtoms>
  152.4005  134.6293  160.0071 H   0  0  0  0  0  0  0  0  0  0  0  0  # atno 6907 bound_to 6896
  151.6500  133.3316  159.3157 H   0  0  0  0  0  0  0  0  0  0  0  0  # atno 6908 bound_to 6896
  150.7906  134.6970  159.6573 H   0  0  0  0  0  0  0  0  0  0  0  0  # atno 6909 bound_to 6896
  145.4172  139.2326  143.3216 H   0  0  0  0  0  0  0  0  0  0  0  0  # atno 7974 bound_to 7965
  154.5675  140.0696  156.8914 H   0  0  0  0  0  0  0  0  0  0  0  0  # atno 8008 bound_to 7997
  155.2695  140.3364  155.4248 H   0  0  0  0  0  0  0  0  0  0  0  0  # atno 8009 bound_to 7997
  156.2092  140.1752  156.7717 H   0  0  0  0  0  0  0  0  0  0  0  0  # atno 8010 bound_to 7997
  139.6305  144.7114  151.2442 H   0  0  0  0  0  0  0  0  0  0  0  0  # atno 10167 bound_to 10162
  156.0713  130.4237  150.1458 H   0  0  0  0  0  0  0  0  0  0  0  0  # atno 10718 bound_to 10713
  153.4305  135.7012  153.6234 H   0  0  0  0  0  0  0  0  0  0  0  0  # atno 10763 bound_to 10752
  153.4651  135.3727  155.2360 H   0  0  0  0  0  0  0  0  0  0  0  0  # atno 10764 bound_to 10752
  154.8725  135.4029  154.3688 H   0  0  0  0  0  0  0  0  0  0  0  0  # atno 10765 bound_to 10752
  140.1914  134.8404  157.2916 H   0  0  0  0  0  0  0  0  0  0  0  0  # atno 11005 bound_to 11000
  146.2675  140.4892  142.8828 LP  0  0  0  0  0  0  0  0  0  0  0  0  # atno 17320 bound_to 7965
  144.8269  140.6643  143.6316 LP  0  0  0  0  0  0  0  0  0  0  0  0  # atno 17321 bound_to 7965
  140.7436  143.6489  150.8267 LP  0  0  0  0  0  0  0  0  0  0  0  0  # atno 17342 bound_to 10162
  140.0113  143.5639  152.2838 LP  0  0  0  0  0  0  0  0  0  0  0  0  # atno 17343 bound_to 10162
  156.9509  130.9774  151.3498 LP  0  0  0  0  0  0  0  0  0  0  0  0  # atno 17370 bound_to 10713
  157.5785  130.8360  149.8489 LP  0  0  0  0  0  0  0  0  0  0  0  0  # atno 17371 bound_to 10713
  140.2155  134.4086  155.7591 LP  0  0  0  0  0  0  0  0  0  0  0  0  # atno 17394 bound_to 11000
  141.2226  133.7140  156.8407 LP  0  0  0  0  0  0  0  0  0  0  0  0  # atno 17395 bound_to 11000

$$$$
