AV-unprocessed.smi:2712|AV-procd|sdf|10474|dock1
  -GOLD-   2272014513D 1   1.00000     0.00000
 Structure written by MMmdl.
 52 53  0  0  0  0  0  0  0  0  1 V2000
  146.3153  137.3891  162.4801 C   0  0  0  0  0  0  0  0  0  0  0  0
  147.0330  136.5961  161.4282 C   0  0  0  0  0  0  0  0  0  0  0  0
  147.5495  135.2612  161.6629 C   0  0  0  0  0  0  0  0  0  0  0  0
  148.1850  134.6124  160.6639 C   0  0  0  0  0  0  0  0  0  0  0  0
  148.3646  135.2184  159.3465 C   0  0  0  0  0  0  0  0  0  0  0  0
  148.9259  134.6476  158.4119 O   0  0  0  0  0  0  0  0  0  0  0  0
  147.8377  136.4751  159.2430 N   0  0  0  0  0  0  0  0  0  0  0  0
  147.9017  137.2291  157.9798 C   0  0  0  0  0  0  0  0  0  0  0  0
  148.8589  138.4343  157.9951 C   0  0  0  0  0  0  0  0  0  0  0  0
  148.9636  139.1037  159.0222 O   0  0  0  0  0  0  0  0  0  0  0  0
  149.5511  138.7032  156.8750 N   0  0  0  0  0  0  0  0  0  0  0  0
  150.5291  139.7722  156.6993 C   0  0  2  0  0  0  0  0  0  0  0  0
  151.7993  139.4381  157.5034 C   0  0  0  0  0  0  0  0  0  0  0  0
  151.7440  139.8365  158.9859 C   0  0  0  0  0  0  0  0  0  0  0  0
  152.2355  141.2729  159.2453 C   0  0  0  0  0  0  0  0  0  0  0  0
  151.2802  142.4184  158.8075 C   0  0  1  0  0  0  0  0  0  0  0  0
  151.8223  143.8517  159.1670 C   0  0  0  0  0  0  0  0  0  0  0  0
  153.0204  144.2524  158.2788 C   0  0  0  0  0  0  0  0  0  0  0  0
  152.2701  143.9281  160.6451 C   0  0  0  0  0  0  0  0  0  0  0  0
  150.7074  144.9122  159.0011 C   0  0  0  0  0  0  0  0  0  0  0  0
  150.8624  142.2811  157.3145 C   0  0  0  0  0  0  0  0  0  0  0  0
  149.8795  141.1278  157.0494 C   0  0  0  0  0  0  0  0  0  0  0  0
  147.1889  137.1441  160.2680 N   0  0  0  0  0  0  0  0  0  0  0  0
  146.1798  136.8053  163.3909 H   0  0  0  0  0  0  0  0  0  0  0  0
  145.3288  137.6961  162.1311 H   0  0  0  0  0  0  0  0  0  0  0  0
  146.8772  138.2868  162.7390 H   0  0  0  0  0  0  0  0  0  0  0  0
  147.4240  134.7985  162.6305 H   0  0  0  0  0  0  0  0  0  0  0  0
  148.5702  133.6186  160.8404 H   0  0  0  0  0  0  0  0  0  0  0  0
  148.2116  136.5662  157.1700 H   0  0  0  0  0  0  0  0  0  0  0  0
  146.9066  137.5789  157.6990 H   0  0  0  0  0  0  0  0  0  0  0  0
  149.3976  138.1006  156.0794 H   0  0  0  0  0  0  0  0  0  0  0  0
  150.8237  139.7920  155.6483 H   0  0  0  0  0  0  0  0  0  0  0  0
  151.9945  138.3673  157.4270 H   0  0  0  0  0  0  0  0  0  0  0  0
  152.6631  139.9119  157.0356 H   0  0  0  0  0  0  0  0  0  0  0  0
  150.7486  139.6781  159.4031 H   0  0  0  0  0  0  0  0  0  0  0  0
  152.4021  139.1622  159.5348 H   0  0  0  0  0  0  0  0  0  0  0  0
  152.4004  141.3345  160.3198 H   0  0  0  0  0  0  0  0  0  0  0  0
  153.2161  141.4023  158.7875 H   0  0  0  0  0  0  0  0  0  0  0  0
  150.3744  142.2912  159.4020 H   0  0  0  0  0  0  0  0  0  0  0  0
  153.3977  145.2386  158.5514 H   0  0  0  0  0  0  0  0  0  0  0  0
  152.7489  144.2986  157.2241 H   0  0  0  0  0  0  0  0  0  0  0  0
  153.8515  143.5544  158.3757 H   0  0  0  0  0  0  0  0  0  0  0  0
  153.1718  143.3454  160.8329 H   0  0  0  0  0  0  0  0  0  0  0  0
  151.4900  143.5689  161.3176 H   0  0  0  0  0  0  0  0  0  0  0  0
  152.5055  144.9519  160.9377 H   0  0  0  0  0  0  0  0  0  0  0  0
  151.0301  145.8869  159.3690 H   0  0  0  0  0  0  0  0  0  0  0  0
  149.8115  144.6393  159.5597 H   0  0  0  0  0  0  0  0  0  0  0  0
  150.4174  145.0651  157.9629 H   0  0  0  0  0  0  0  0  0  0  0  0
  150.3532  143.1846  156.9893 H   0  0  0  0  0  0  0  0  0  0  0  0
  151.7354  142.1973  156.6666 H   0  0  0  0  0  0  0  0  0  0  0  0
  149.2319  141.4092  156.2179 H   0  0  0  0  0  0  0  0  0  0  0  0
  149.2088  141.0200  157.9032 H   0  0  0  0  0  0  0  0  0  0  0  0
  1  2  1  0  0  0  0
  1 24  1  0  0  0  0
  1 25  1  0  0  0  0
  1 26  1  0  0  0  0
  2 23  2  0  0  0  0
  2  3  1  0  0  0  0
  3  4  2  0  0  0  0
  3 27  1  0  0  0  0
  4  5  1  0  0  0  0
  4 28  1  0  0  0  0
  5  6  2  0  0  0  0
  5  7  1  0  0  0  0
  7  8  1  0  0  0  0
  7 23  1  0  0  0  0
  8  9  1  0  0  0  0
  8 29  1  0  0  0  0
  8 30  1  0  0  0  0
  9 10  2  0  0  0  0
  9 11  1  0  0  0  0
 11 12  1  0  0  0  0
 11 31  1  0  0  0  0
 12 22  1  0  0  0  0
 12 13  1  0  0  0  0
 12 32  1  0  0  0  0
 13 14  1  0  0  0  0
 13 33  1  0  0  0  0
 13 34  1  0  0  0  0
 14 15  1  0  0  0  0
 14 35  1  0  0  0  0
 14 36  1  0  0  0  0
 15 16  1  0  0  0  0
 15 37  1  0  0  0  0
 15 38  1  0  0  0  0
 16 17  1  0  0  0  0
 16 21  1  0  0  0  0
 16 39  1  0  0  0  0
 17 18  1  0  0  0  0
 17 19  1  0  0  0  0
 17 20  1  0  0  0  0
 18 40  1  0  0  0  0
 18 41  1  0  0  0  0
 18 42  1  0  0  0  0
 19 43  1  0  0  0  0
 19 44  1  0  0  0  0
 19 45  1  0  0  0  0
 20 46  1  0  0  0  0
 20 47  1  0  0  0  0
 20 48  1  0  0  0  0
 21 22  1  0  0  0  0
 21 49  1  0  0  0  0
 21 50  1  0  0  0  0
 22 51  1  0  0  0  0
 22 52  1  0  0  0  0
M  END
> <s_m_source_file>
AV-unprocessed.smi

> <i_m_source_file_index>
2712

> <i_lp_mmshare_version>
43012

> <i_f3d_flags>
0

> <s_epik_input>
W0NIM11jMVtjSF1bY0hdYyg9TyluKG4xKVtDSDJdQyg9TylbTkhdW0NAQEhdMltDSDJdW0NIMl1bQ0gyXVtDQEBIXShDKFtDSDNdKShbQ0gzXSlbQ0gzXSlbQ0gyXVtDSDJdMg==

> <s_epik_cmdline>
J2VwaWtfcHl0aG9uJywgJy1waCcsICc3LjAnLCAnLXRuJywgJzgnLCAnLW1hJywgJzIwMCcsICctbWV0YWxfYmluZGluZycsICctaW1hZScsICc8aW5maWxlLm1hZT4nLCAnLW9tYWUnLCAnPG91dGZpbGUubWFlPic=

> <r_lp_tautomer_probability>
1

> <r_epik_Ionization_Penalty>
8.71758e-07

> <r_epik_Ionization_Penalty_Charging>
8.50442e-07

> <r_epik_Ionization_Penalty_Neutral>
2.13165e-08

> <r_epik_State_Penalty>
-0

> <r_epik_Charging_Adjusted_Penalty>
8.50442e-07

> <i_epik_Tot_Q>
0

> <i_epik_Tot_abs_Q>
0

> <r_epik_Metal_State_Penalty>
-0

> <b_epik_Metal_Only>
0

> <s_lp_Force_Field>
OPLS_2005

> <r_lp_Energy>
38.8827

> <b_lp_Chiralities_Consistent>
1

> <s_lp_Variant>
AV-unprocessed.smi:2712-1

> <Gold.Version>
5.8.1

> <Gold.Id.Protein>
6NUR|6NUR_protein|mol2

> <Gold.PLP.Fitness>
41.6757

> <Gold.PLP.PLP>
-37.4149

> <Gold.PLP.part.hbond>
-3.9737

> <Gold.PLP.part.metal>
0.0000

> <Gold.PLP.part.buried>
-1.2832

> <Gold.PLP.part.nonpolar>
-32.7650

> <Gold.PLP.part.repulsive>
0.0120

> <Gold.PLP.ligand.clash>
0.0000

> <Gold.PLP.ligand.torsion>
0.6136

> <Gold.PLP.Chemscore.Hbond>
1.8000

> <Gold.PLP.Chemscore.CHOScore>
0.0000

> <Gold.PLP.Chemscore.Metal>
0.0000

> <Gold.Chemscore.Hbonds>
donor molecule, donor type, donor heavy atom, donor atom, acceptor molecule, acceptor atom, score
      P1  H  6896  6909       L1     6  0.85
      P1  H  6934  6947       L1    23  0.80

> <Gold.PLP.Chemscore.Internal.Correction>
0.0880

> <Gold.Rescore>
     Score         DG    S(hbond)    S(metal)    S(lipo)     H(rot)  DE(clash)    DE(int)     intcor
     15.64     -22.15       1.68        0.00     127.83       1.52       2.34       4.17       ----

> <Gold.Chemscore.Fitness>
15.6415

> <Gold.Chemscore.DG>
-22.1513

> <Gold.Chemscore.ZeroCoef>
-5.4800

> <Gold.Chemscore.Hbond>
1.6757

> <Gold.Chemscore.Metal>
0.0000

> <Gold.Chemscore.Lipo>
127.8272

> <Gold.Chemscore.Internal_Hbond>
0.0000

> <Gold.Chemscore.DEClash>
2.3443

> <Gold.Chemscore.DEInternal>
4.1655

> <Gold.Chemscore.Rot>
1.5162

> <Gold.Chemscore.Internal.Correction>
   9.000000E+99

> <Gold.Chemscore.Hbonds>
donor molecule, donor type, donor heavy atom, donor atom, acceptor molecule, acceptor atom, score
      P1  H  6896  6909       L1     6  0.14
      P1  H  6934  6947       L1    23  0.11

> <Gold.Chemscore.Hbond.Weighted>
-5.5969

> <Gold.Chemscore.Metal.Weighted>
-0.0000

> <Gold.Chemscore.Lipo.Weighted>
-14.9558

> <Gold.Chemscore.Internal_Hbond.Weighted>
0.0000

> <Gold.Chemscore.DEClash.Weighted>
2.3443

> <Gold.Chemscore.DEInternal.Weighted>
4.1655

> <Gold.Chemscore.Rot.Weighted>
3.8814

> <Gold.Chemscore.Internal.Correction.Weighted>
   9.000000E+99

> <Gold.Protein.RotatedTorsions>
[ 6907 6896 6895 6894 ] final   24.31 input  -60.11 | X-H torsion
[ 7974 7965 7964 7962 ] final  -14.17 input  175.53 | X-H torsion
[ 8008 7997 7996 7995 ] final  149.05 input   59.86 | X-H torsion
[ 10167 10162 10161 10158 ] final -132.22 input  -65.29 | X-H torsion
[ 10718 10713 10712 10709 ] final  105.61 input   66.30 | X-H torsion
[ 10763 10752 10751 10750 ] final -156.64 input  -60.55 | X-H torsion
[ 11005 11000 10999 10996 ] final  169.17 input  -57.11 | X-H torsion

> <Gold.Protein.ActiveResidues>
 VAL166  LYS551  ARG553  GLY616  TRP617  ASP618  TYR619  PRO620  LYS621  CYS622 
 ASP623  PHE694  ASN695  SER759  ASP760  ASP761  ALA762  ILE779  LEU786  VAL792 
 PHE793  MET794  SER795  GLU796  ALA797  LYS798  CYS799  TRP800  GLU811  SER814 

> <Gold.Protein.RotatedAtoms>
  151.9556  135.0148  160.0544 H   0  0  0  0  0  0  0  0  0  0  0  0  # atno 6907 bound_to 6896
  152.1914  133.4771  159.5018 H   0  0  0  0  0  0  0  0  0  0  0  0  # atno 6908 bound_to 6896
  150.6936  134.1624  159.4224 H   0  0  0  0  0  0  0  0  0  0  0  0  # atno 6909 bound_to 6896
  146.2085  140.3309  142.8399 H   0  0  0  0  0  0  0  0  0  0  0  0  # atno 7974 bound_to 7965
  156.2769  140.2112  156.5796 H   0  0  0  0  0  0  0  0  0  0  0  0  # atno 8008 bound_to 7997
  154.7069  140.0515  157.0536 H   0  0  0  0  0  0  0  0  0  0  0  0  # atno 8009 bound_to 7997
  155.0658  140.3171  155.4649 H   0  0  0  0  0  0  0  0  0  0  0  0  # atno 8010 bound_to 7997
  139.9108  143.6496  152.2576 H   0  0  0  0  0  0  0  0  0  0  0  0  # atno 10167 bound_to 10162
  157.6699  131.0832  150.5883 H   0  0  0  0  0  0  0  0  0  0  0  0  # atno 10718 bound_to 10713
  154.7697  135.3141  154.8213 H   0  0  0  0  0  0  0  0  0  0  0  0  # atno 10763 bound_to 10752
  153.8952  135.6821  153.4762 H   0  0  0  0  0  0  0  0  0  0  0  0  # atno 10764 bound_to 10752
  153.1309  135.4780  154.9282 H   0  0  0  0  0  0  0  0  0  0  0  0  # atno 10765 bound_to 10752
  140.2950  134.7642  157.3869 H   0  0  0  0  0  0  0  0  0  0  0  0  # atno 11005 bound_to 11000
  144.8853  140.7454  143.5961 LP  0  0  0  0  0  0  0  0  0  0  0  0  # atno 17320 bound_to 7965
  145.3230  139.1782  143.4577 LP  0  0  0  0  0  0  0  0  0  0  0  0  # atno 17321 bound_to 7965
  139.6944  144.7643  151.1382 LP  0  0  0  0  0  0  0  0  0  0  0  0  # atno 17342 bound_to 10162
  140.7686  143.5544  150.9169 LP  0  0  0  0  0  0  0  0  0  0  0  0  # atno 17343 bound_to 10162
  156.6183  130.4399  149.5832 LP  0  0  0  0  0  0  0  0  0  0  0  0  # atno 17370 bound_to 10713
  156.2376  130.6832  151.1524 LP  0  0  0  0  0  0  0  0  0  0  0  0  # atno 17371 bound_to 10713
  140.1161  134.5281  155.8224 LP  0  0  0  0  0  0  0  0  0  0  0  0  # atno 17394 bound_to 11000
  141.2139  133.6740  156.6779 LP  0  0  0  0  0  0  0  0  0  0  0  0  # atno 17395 bound_to 11000

$$$$
