#       Name:                AV-unprocessed.smi:527
#       Creating user name   scv26
#       Creation time:       Thu Mar 26 23:30:31 2020


#       File generated by GOLD software.
#

@<TRIPOS>MOLECULE
AV-unprocessed.smi:527
    47    48     1
SMALL
NO_CHARGES


@<TRIPOS>ATOM
      1 ****        -4.2193  -0.9699   1.5511 C.3            1 S1                 0.0000
      2 ****        -3.5457  -0.2996   0.3421 C.3            1 S1                 0.0000
      3 ****        -3.9393  -0.9813  -0.9842 C.3            1 S1                 0.0000
      4 ****        -3.3445  -0.2439  -2.1943 C.3            1 S1                 0.0000
      5 ****        -1.8213  -0.0872  -2.0697 C.3            1 S1                 0.0000
      6 ****        -1.4362   0.5973  -0.7438 C.3            1 S1                 0.0000
      7 ****         0.0144   0.7588  -0.6736 N.am           1 S1                 0.0000
      8 ****         0.6605   1.6729   0.0655 C.2            1 S1                 0.0000
      9 ****         0.0857   2.5057   0.7698 O.2            1 S1                 0.0000
     10 ****         1.9937   1.5419  -0.0679 N.am           1 S1                 0.0000
     11 ****         2.9583   2.2639   0.5394 C.2            1 S1                 0.0000
     12 ****         2.7622   3.1970   1.3201 O.2            1 S1                 0.0000
     13 ****         4.3970   1.8653   0.2005 C.3            1 S1                 0.0000
     14 ****         4.6763   0.4949   0.5913 N.pl3          1 S1                 0.0000
     15 ****         4.7325  -0.6192  -0.2370 C.2            1 S1                 0.0000
     16 ****         5.0171  -1.6963   0.5717 C.2            1 S1                 0.0000
     17 ****         5.1411  -1.2711   1.8923 N.2            1 S1                 0.0000
     18 ****         4.9281   0.0366   1.8259 C.2            1 S1                 0.0000
     19 ****        -2.0054  -0.1688   0.4825 C.3            1 S1                 0.0000
     20 ****        -1.2917  -1.5156   0.7439 C.3            1 S1                 0.0000
     21 ****        -3.9698  -2.0287   1.6200 H              1 S1                 0.0000
     22 ****        -5.3049  -0.8978   1.4788 H              1 S1                 0.0000
     23 ****        -3.9210  -0.4915   2.4842 H              1 S1                 0.0000
     24 ****        -3.9424   0.7163   0.3043 H              1 S1                 0.0000
     25 ****        -3.6089  -2.0204  -0.9867 H              1 S1                 0.0000
     26 ****        -5.0255  -1.0084  -1.0787 H              1 S1                 0.0000
     27 ****        -3.5897  -0.7779  -3.1127 H              1 S1                 0.0000
     28 ****        -3.8038   0.7417  -2.2796 H              1 S1                 0.0000
     29 ****        -1.3452  -1.0655  -2.1436 H              1 S1                 0.0000
     30 ****        -1.4486   0.4970  -2.9121 H              1 S1                 0.0000
     31 ****        -1.8808   1.5946  -0.7578 H              1 S1                 0.0000
     32 ****         0.5667   0.1132  -1.2187 H              1 S1                 0.0000
     33 ****         2.3112   0.8073  -0.6830 H              1 S1                 0.0000
     34 ****         4.5660   1.9748  -0.8714 H              1 S1                 0.0000
     35 ****         5.1019   2.5254   0.7082 H              1 S1                 0.0000
     36 ****         4.5677  -0.5564  -1.3026 H              1 S1                 0.0000
     37 ****         5.1403  -2.7361   0.3070 H              1 S1                 0.0000
     38 ****         4.9505   0.6760   2.6963 H              1 S1                 0.0000
     39 ****        -1.8199   0.4488   1.3626 H              1 S1                 0.0000
     40 ****        -1.4357  -2.2217  -0.0730 H              1 S1                 0.0000
     41 ****        -1.6541  -1.9889   1.6557 H              1 S1                 0.0000
     42 ****        -0.2181  -1.3817   0.8758 H              1 S1                 0.0000
     43 ****        -0.9133   2.5222   0.8101 LP             1 S1                 0.0000
     44 ****         0.6185   3.1646   1.3008 LP             1 S1                 0.0000
     45 ****         1.8277   3.4711   1.5470 LP             1 S1                 0.0000
     46 ****         3.5376   3.6800   1.7268 LP             1 S1                 0.0000
     47 ****         5.3434  -1.8228   2.7015 LP             1 S1                 0.0000
@<TRIPOS>BOND
    1    1    2 1     
    2    1   21 1     
    3    1   22 1     
    4    1   23 1     
    5    2   19 1     
    6    2    3 1     
    7    2   24 1     
    8    3    4 1     
    9    3   25 1     
   10    3   26 1     
   11    4    5 1     
   12    4   27 1     
   13    4   28 1     
   14    5    6 1     
   15    5   29 1     
   16    5   30 1     
   17    6    7 1     
   18    6   19 1     
   19    6   31 1     
   20    7    8 1     
   21    7   32 1     
   22    8    9 2     
   23    8   10 1     
   24   10   11 1     
   25   10   33 1     
   26   11   12 2     
   27   11   13 1     
   28   13   14 1     
   29   13   34 1     
   30   13   35 1     
   31   14   18 1     
   32   14   15 1     
   33   15   16 2     
   34   15   36 1     
   35   16   17 1     
   36   16   37 1     
   37   17   18 2     
   38   18   38 1     
   39   19   20 1     
   40   19   39 1     
   41   20   40 1     
   42   20   41 1     
   43   20   42 1     
   44    9   43 1     
   45    9   44 1     
   46   12   45 1     
   47   12   46 1     
   48   17   47 1     
@<TRIPOS>SUBSTRUCTURE
      1 S1             1
@<TRIPOS>SET
LONE_PAIRS      STATIC     ATOMS    <user>   **** ""
5 43 44 45 46 47
DONOR_HYDROGENS      STATIC     ATOMS    <user>   **** ""
2 32 33
ATOM$BLUE        STATIC     ATOMS    COLORGROUP SYSTEM
5 43 44 45 46 47
ATOM$RED        STATIC     ATOMS    COLORGROUP SYSTEM
2 32 33
