#       Name:                AV-unprocessed.smi:421
#       Creating user name   scv26
#       Creation time:       Thu Mar 26 22:49:22 2020


#       File generated by GOLD software.
#

@<TRIPOS>MOLECULE
AV-unprocessed.smi:421
    49    51     1
SMALL
NO_CHARGES


@<TRIPOS>ATOM
      1 ****        -4.6924   1.5578  -2.1036 C.3            1 S1                 0.0000
      2 ****        -3.6415   1.7600  -1.1138 N.am           1 S1                 0.0000
      3 ****        -2.3056   1.6753  -1.3145 C.2            1 S1                 0.0000
      4 ****        -1.7474   1.4103  -2.3791 O.2            1 S1                 0.0000
      5 ****        -1.6873   1.9266  -0.1358 N.am           1 S1                 0.0000
      6 ****        -0.2447   1.9384   0.1038 C.3            1 S1                 0.0000
      7 ****         0.3167   0.5135   0.2870 C.3            1 S1                 0.0000
      8 ****         0.0335   0.1054   1.6108 O.3            1 S1                 0.0000
      9 ****         1.8440   0.4711   0.1124 C.3            1 S1                 0.0000
     10 ****         2.2393  -0.8675  -0.1371 O.3            1 S1                 0.0000
     11 ****         3.6392  -1.0083  -0.3187 C.3            1 S1                 0.0000
     12 ****         4.0421  -2.4558  -0.5303 C.ar           1 S1                 0.0000
     13 ****         3.3644  -3.4917   0.1479 C.ar           1 S1                 0.0000
     14 ****         3.7508  -4.8332  -0.0393 C.ar           1 S1                 0.0000
     15 ****         4.8218  -5.1446  -0.8991 C.ar           1 S1                 0.0000
     16 ****         5.5083  -4.1134  -1.5689 C.ar           1 S1                 0.0000
     17 ****         5.1213  -2.7717  -1.3829 C.ar           1 S1                 0.0000
     18 ****        -2.6570   2.1688   0.8486 C.ar           1 S1                 0.0000
     19 ****        -2.5362   2.4627   2.2183 C.ar           1 S1                 0.0000
     20 ****        -3.7339   2.6516   2.9473 C.ar           1 S1                 0.0000
     21 ****        -4.9978   2.5446   2.3105 C.ar           1 S1                 0.0000
     22 ****        -5.0910   2.2451   0.9311 C.ar           1 S1                 0.0000
     23 ****        -3.8858   2.0633   0.2314 C.ar           1 S1                 0.0000
     24 ****        -4.2942   1.5036  -3.1177 H              1 S1                 0.0000
     25 ****        -5.4082   2.3794  -2.0702 H              1 S1                 0.0000
     26 ****        -5.2273   0.6301  -1.8988 H              1 S1                 0.0000
     27 ****         0.2249   2.4098  -0.7610 H              1 S1                 0.0000
     28 ****         0.0073   2.5746   0.9533 H              1 S1                 0.0000
     29 ****        -0.1485  -0.1714  -0.4235 H              1 S1                 0.0000
     30 ****        -0.9045   0.0728   1.7197 H              1 S1                 0.0000
     31 ****         2.1359   1.0751  -0.7480 H              1 S1                 0.0000
     32 ****         2.3553   0.8833   0.9846 H              1 S1                 0.0000
     33 ****         3.9579  -0.4140  -1.1766 H              1 S1                 0.0000
     34 ****         4.1700  -0.6296   0.5561 H              1 S1                 0.0000
     35 ****         2.5456  -3.2618   0.8142 H              1 S1                 0.0000
     36 ****         3.2266  -5.6227   0.4785 H              1 S1                 0.0000
     37 ****         5.1185  -6.1733  -1.0415 H              1 S1                 0.0000
     38 ****         6.3331  -4.3511  -2.2244 H              1 S1                 0.0000
     39 ****         5.6552  -1.9866  -1.8981 H              1 S1                 0.0000
     40 ****        -1.5726   2.5407   2.6998 H              1 S1                 0.0000
     41 ****        -3.6855   2.8800   4.0019 H              1 S1                 0.0000
     42 ****        -5.8999   2.6926   2.8859 H              1 S1                 0.0000
     43 ****        -6.0486   2.1603   0.4389 H              1 S1                 0.0000
     44 ****        -2.2922   1.2337  -3.1989 LP             1 S1                 0.0000
     45 ****        -0.7492   1.3716  -2.4242 LP             1 S1                 0.0000
     46 ****         0.4257   0.7601   2.2570 LP             1 S1                 0.0000
     47 ****         0.4240  -0.8003   1.7756 LP             1 S1                 0.0000
     48 ****         1.7770  -1.1872  -0.9642 LP             1 S1                 0.0000
     49 ****         1.9605  -1.4320   0.6399 LP             1 S1                 0.0000
@<TRIPOS>BOND
    1    1    2 1     
    2    1   24 1     
    3    1   25 1     
    4    1   26 1     
    5    2   23 1     
    6    2    3 am    
    7    3    4 2     
    8    3    5 am    
    9    5    6 1     
   10    5   18 1     
   11    6    7 1     
   12    6   27 1     
   13    6   28 1     
   14    7    8 1     
   15    7    9 1     
   16    7   29 1     
   17    8   30 1     
   18    9   10 1     
   19    9   31 1     
   20    9   32 1     
   21   10   11 1     
   22   11   12 1     
   23   11   33 1     
   24   11   34 1     
   25   12   17 ar    
   26   12   13 ar    
   27   13   14 ar    
   28   13   35 1     
   29   14   15 ar    
   30   14   36 1     
   31   15   16 ar    
   32   15   37 1     
   33   16   17 ar    
   34   16   38 1     
   35   17   39 1     
   36   18   23 ar    
   37   18   19 ar    
   38   19   20 ar    
   39   19   40 1     
   40   20   21 ar    
   41   20   41 1     
   42   21   22 ar    
   43   21   42 1     
   44   22   23 ar    
   45   22   43 1     
   46    4   44 1     
   47    4   45 1     
   48    8   46 1     
   49    8   47 1     
   50   10   48 1     
   51   10   49 1     
@<TRIPOS>SUBSTRUCTURE
      1 S1             1
@<TRIPOS>SET
LONE_PAIRS      STATIC     ATOMS    <user>   **** ""
6 44 45 46 47 48 49
DONOR_HYDROGENS      STATIC     ATOMS    <user>   **** ""
1 30
ATOM$BLUE        STATIC     ATOMS    COLORGROUP SYSTEM
6 44 45 46 47 48 49
ATOM$RED        STATIC     ATOMS    COLORGROUP SYSTEM
1 30
