AV-unprocessed.smi:490|AV-procd|sdf|2703|dock9
  -GOLD-   2262023143D 1   1.00000     0.00000
 Structure written by MMmdl.
 49 51  0  0  0  0  0  0  0  0  1 V2000
  155.7753  132.0206  161.5130 C   0  0  0  0  0  0  0  0  0  0  0  0
  155.2915  133.2591  162.2474 C   0  0  0  0  0  0  0  0  0  0  0  0
  155.0273  133.1733  163.6294 C   0  0  0  0  0  0  0  0  0  0  0  0
  154.5800  134.3003  164.3404 C   0  0  0  0  0  0  0  0  0  0  0  0
  154.3805  135.5246  163.6738 C   0  0  0  0  0  0  0  0  0  0  0  0
  153.8988  136.7338  164.4535 C   0  0  0  0  0  0  0  0  0  0  0  0
  154.6260  135.6170  162.2847 C   0  0  0  0  0  0  0  0  0  0  0  0
  154.4158  136.8123  161.6465 O   0  0  0  0  0  0  0  0  0  0  0  0
  155.5891  137.6032  161.5207 C   0  0  0  0  0  0  0  0  0  0  0  0
  155.3076  138.7608  160.5534 C   0  0  2  0  0  0  0  0  0  0  0  0
  156.4959  139.5086  160.3885 O   0  0  0  0  0  0  0  0  0  0  0  0
  154.1695  139.6762  161.0493 C   0  0  0  0  0  0  0  0  0  0  0  0
  153.2818  140.1011  159.9757 N   0  0  0  0  0  0  0  0  0  0  0  0
  152.6363  139.3225  159.0710 C   0  0  0  0  0  0  0  0  0  0  0  0
  152.7705  137.8257  159.0903 C   0  0  0  0  0  0  0  0  0  0  0  0
  151.5694  137.1450  159.3934 O   0  0  0  0  0  0  0  0  0  0  0  0
  151.8753  139.9745  158.1886 N   0  0  0  0  0  0  0  0  0  0  0  0
  152.0453  141.2954  158.5538 C   0  0  0  0  0  0  0  0  0  0  0  0
  151.5022  142.4776  158.0019 C   0  0  0  0  0  0  0  0  0  0  0  0
  151.8217  143.7355  158.5539 C   0  0  0  0  0  0  0  0  0  0  0  0
  152.6866  143.8289  159.6634 C   0  0  0  0  0  0  0  0  0  0  0  0
  153.2396  142.6631  160.2277 C   0  0  0  0  0  0  0  0  0  0  0  0
  152.9181  141.4099  159.6724 C   0  0  0  0  0  0  0  0  0  0  0  0
  155.1035  134.4896  161.5693 C   0  0  0  0  0  0  0  0  0  0  0  0
  155.4120  134.6002  160.0821 C   0  0  0  0  0  0  0  0  0  0  0  0
  155.7155  131.1346  162.1459 H   0  0  0  0  0  0  0  0  0  0  0  0
  156.8136  132.1429  161.2044 H   0  0  0  0  0  0  0  0  0  0  0  0
  155.1677  131.8363  160.6267 H   0  0  0  0  0  0  0  0  0  0  0  0
  155.1710  132.2402  164.1543 H   0  0  0  0  0  0  0  0  0  0  0  0
  154.3884  134.2190  165.4003 H   0  0  0  0  0  0  0  0  0  0  0  0
  154.4919  137.6139  164.2034 H   0  0  0  0  0  0  0  0  0  0  0  0
  153.9790  136.5698  165.5283 H   0  0  0  0  0  0  0  0  0  0  0  0
  152.8553  136.9436  164.2190 H   0  0  0  0  0  0  0  0  0  0  0  0
  155.9113  137.9860  162.4906 H   0  0  0  0  0  0  0  0  0  0  0  0
  156.3995  136.9829  161.1343 H   0  0  0  0  0  0  0  0  0  0  0  0
  155.0511  138.3467  159.5781 H   0  0  0  0  0  0  0  0  0  0  0  0
  156.3266  140.4029  160.6422 H   0  0  0  0  0  0  0  0  0  0  0  0
  153.5766  139.1681  161.8102 H   0  0  0  0  0  0  0  0  0  0  0  0
  154.5802  140.5627  161.5339 H   0  0  0  0  0  0  0  0  0  0  0  0
  153.1197  137.4767  158.1192 H   0  0  0  0  0  0  0  0  0  0  0  0
  153.5252  137.5487  159.8267 H   0  0  0  0  0  0  0  0  0  0  0  0
  150.8758  137.5107  158.8665 H   0  0  0  0  0  0  0  0  0  0  0  0
  150.8386  142.4159  157.1521 H   0  0  0  0  0  0  0  0  0  0  0  0
  151.4013  144.6325  158.1235 H   0  0  0  0  0  0  0  0  0  0  0  0
  152.9261  144.7962  160.0802 H   0  0  0  0  0  0  0  0  0  0  0  0
  153.9049  142.7322  161.0751 H   0  0  0  0  0  0  0  0  0  0  0  0
  155.5188  135.6357  159.7608 H   0  0  0  0  0  0  0  0  0  0  0  0
  154.6117  134.1448  159.4987 H   0  0  0  0  0  0  0  0  0  0  0  0
  156.3466  134.0962  159.8375 H   0  0  0  0  0  0  0  0  0  0  0  0
  1  2  1  0  0  0  0
  1 26  1  0  0  0  0
  1 27  1  0  0  0  0
  1 28  1  0  0  0  0
  2 24  1  0  0  0  0
  2  3  2  0  0  0  0
  3  4  1  0  0  0  0
  3 29  1  0  0  0  0
  4  5  2  0  0  0  0
  4 30  1  0  0  0  0
  5  6  1  0  0  0  0
  5  7  1  0  0  0  0
  6 31  1  0  0  0  0
  6 32  1  0  0  0  0
  6 33  1  0  0  0  0
  7  8  1  0  0  0  0
  7 24  2  0  0  0  0
  8  9  1  0  0  0  0
  9 10  1  0  0  0  0
  9 34  1  0  0  0  0
  9 35  1  0  0  0  0
 10 11  1  0  0  0  0
 10 12  1  0  0  0  0
 10 36  1  0  0  0  0
 11 37  1  0  0  0  0
 12 13  1  0  0  0  0
 12 38  1  0  0  0  0
 12 39  1  0  0  0  0
 13 23  1  0  0  0  0
 13 14  1  0  0  0  0
 14 15  1  0  0  0  0
 14 17  2  0  0  0  0
 15 16  1  0  0  0  0
 15 40  1  0  0  0  0
 15 41  1  0  0  0  0
 16 42  1  0  0  0  0
 17 18  1  0  0  0  0
 18 23  2  0  0  0  0
 18 19  1  0  0  0  0
 19 20  2  0  0  0  0
 19 43  1  0  0  0  0
 20 21  1  0  0  0  0
 20 44  1  0  0  0  0
 21 22  2  0  0  0  0
 21 45  1  0  0  0  0
 22 23  1  0  0  0  0
 22 46  1  0  0  0  0
 24 25  1  0  0  0  0
 25 47  1  0  0  0  0
 25 48  1  0  0  0  0
 25 49  1  0  0  0  0
M  END
> <s_m_source_file>
AV-unprocessed.smi

> <i_m_source_file_index>
490

> <i_lp_mmshare_version>
43012

> <i_f3d_flags>
0

> <s_epik_input>
W0NIM11jMVtjSF1bY0hdYyhbQ0gzXSljKGMxW0NIM10pT1tDSDJdW0NASF0oW09IXSlbQ0gyXW4oYyhuMilbQ0gyXVtPSF0pYyhjMjMpW2NIXVtjSF1bY0hdW2NIXTM=

> <s_epik_cmdline>
J2VwaWtfcHl0aG9uJywgJy1waCcsICc3LjAnLCAnLXRuJywgJzgnLCAnLW1hJywgJzIwMCcsICctbWV0YWxfYmluZGluZycsICctaW1hZScsICc8aW5maWxlLm1hZT4nLCAnLW9tYWUnLCAnPG91dGZpbGUubWFlPic=

> <r_lp_tautomer_probability>
1

> <r_epik_Ionization_Penalty>
0.0555874

> <r_epik_Ionization_Penalty_Charging>
0

> <r_epik_Ionization_Penalty_Neutral>
0.0555874

> <r_epik_State_Penalty>
0.0478234

> <r_epik_Charging_Adjusted_Penalty>
0.0478234

> <i_epik_Tot_Q>
0

> <i_epik_Tot_abs_Q>
0

> <r_epik_Metal_State_Penalty>
4.98044e-05

> <b_epik_Metal_Only>
0

> <s_lp_Force_Field>
OPLS_2005

> <r_lp_Energy>
19.7492

> <b_lp_Chiralities_Consistent>
1

> <s_lp_Variant>
AV-unprocessed.smi:490-1

> <Gold.Version>
5.8.1

> <Gold.Id.Protein>
6NUR|6NUR_protein|mol2

> <Gold.PLP.Fitness>
47.0960

> <Gold.PLP.PLP>
-46.0509

> <Gold.PLP.part.hbond>
-0.9962

> <Gold.PLP.part.metal>
0.0000

> <Gold.PLP.part.buried>
-5.8788

> <Gold.PLP.part.nonpolar>
-39.9295

> <Gold.PLP.part.repulsive>
0.0000

> <Gold.PLP.ligand.clash>
0.0000

> <Gold.PLP.ligand.torsion>
1.0150

> <Gold.PLP.Chemscore.Hbond>
0.9913

> <Gold.PLP.Chemscore.CHOScore>
0.0000

> <Gold.PLP.Chemscore.Metal>
0.0000

> <Gold.Chemscore.Hbonds>
donor molecule, donor type, donor heavy atom, donor atom, acceptor molecule, acceptor atom, score
      P1  H  6896  6909       L1    16  0.94

> <Gold.PLP.Chemscore.Internal.Correction>
0.1012

> <Gold.Rescore>
     Score         DG    S(hbond)    S(metal)    S(lipo)     H(rot)  DE(clash)    DE(int)     intcor
     15.83     -17.66       0.91        0.00     142.07       2.93       0.05       1.78       ----

> <Gold.Chemscore.Fitness>
15.8311

> <Gold.Chemscore.DG>
-17.6560

> <Gold.Chemscore.ZeroCoef>
-5.4800

> <Gold.Chemscore.Hbond>
0.9128

> <Gold.Chemscore.Metal>
0.0000

> <Gold.Chemscore.Lipo>
142.0732

> <Gold.Chemscore.Internal_Hbond>
0.0000

> <Gold.Chemscore.DEClash>
0.0475

> <Gold.Chemscore.DEInternal>
1.7775

> <Gold.Chemscore.Rot>
2.9279

> <Gold.Chemscore.Internal.Correction>
   9.000000E+99

> <Gold.Chemscore.Hbonds>
donor molecule, donor type, donor heavy atom, donor atom, acceptor molecule, acceptor atom, score
      P1  H  6896  6909       L1    16  0.87

> <Gold.Chemscore.Hbond.Weighted>
-3.0489

> <Gold.Chemscore.Metal.Weighted>
-0.0000

> <Gold.Chemscore.Lipo.Weighted>
-16.6226

> <Gold.Chemscore.Internal_Hbond.Weighted>
0.0000

> <Gold.Chemscore.DEClash.Weighted>
0.0475

> <Gold.Chemscore.DEInternal.Weighted>
1.7775

> <Gold.Chemscore.Rot.Weighted>
7.4954

> <Gold.Chemscore.Internal.Correction.Weighted>
   9.000000E+99

> <Gold.Protein.RotatedTorsions>
[ 6907 6896 6895 6894 ] final  115.42 input  -60.11 | X-H torsion
[ 7974 7965 7964 7962 ] final  121.12 input  175.53 | X-H torsion
[ 8008 7997 7996 7995 ] final   -3.11 input   59.86 | X-H torsion
[ 10167 10162 10161 10158 ] final -166.56 input  -65.29 | X-H torsion
[ 10718 10713 10712 10709 ] final    6.03 input   66.30 | X-H torsion
[ 10763 10752 10751 10750 ] final  134.32 input  -60.55 | X-H torsion
[ 11005 11000 10999 10996 ] final  175.60 input  -57.11 | X-H torsion

> <Gold.Protein.ActiveResidues>
 VAL166  LYS551  ARG553  GLY616  TRP617  ASP618  TYR619  PRO620  LYS621  CYS622 
 ASP623  PHE694  ASN695  SER759  ASP760  ASP761  ALA762  ILE779  LEU786  VAL792 
 PHE793  MET794  SER795  GLU796  ALA797  LYS798  CYS799  TRP800  GLU811  SER814 

> <Gold.Protein.RotatedAtoms>
  152.4742  133.8101  159.6998 H   0  0  0  0  0  0  0  0  0  0  0  0  # atno 6907 bound_to 6896
  150.8750  133.7443  159.2956 H   0  0  0  0  0  0  0  0  0  0  0  0  # atno 6908 bound_to 6896
  151.4965  135.1063  159.9869 H   0  0  0  0  0  0  0  0  0  0  0  0  # atno 6909 bound_to 6896
  145.1231  139.3376  143.4704 H   0  0  0  0  0  0  0  0  0  0  0  0  # atno 7974 bound_to 7965
  154.6285  140.2517  155.7463 H   0  0  0  0  0  0  0  0  0  0  0  0  # atno 8008 bound_to 7997
  156.2466  140.2912  156.0545 H   0  0  0  0  0  0  0  0  0  0  0  0  # atno 8009 bound_to 7997
  155.1783  140.0388  157.2867 H   0  0  0  0  0  0  0  0  0  0  0  0  # atno 8010 bound_to 7997
  139.6107  144.0821  152.1839 H   0  0  0  0  0  0  0  0  0  0  0  0  # atno 10167 bound_to 10162
  156.9162  130.5774  149.5647 H   0  0  0  0  0  0  0  0  0  0  0  0  # atno 10718 bound_to 10713
  153.8216  135.3115  155.3410 H   0  0  0  0  0  0  0  0  0  0  0  0  # atno 10763 bound_to 10752
  154.8010  135.4726  154.0280 H   0  0  0  0  0  0  0  0  0  0  0  0  # atno 10764 bound_to 10752
  153.1690  135.6874  153.8724 H   0  0  0  0  0  0  0  0  0  0  0  0  # atno 10765 bound_to 10752
  140.3639  134.7089  157.4349 H   0  0  0  0  0  0  0  0  0  0  0  0  # atno 11005 bound_to 11000
  146.3519  140.1198  142.8600 LP  0  0  0  0  0  0  0  0  0  0  0  0  # atno 17320 bound_to 7965
  145.0719  140.9161  143.4877 LP  0  0  0  0  0  0  0  0  0  0  0  0  # atno 17321 bound_to 7965
  140.0439  144.5986  150.7389 LP  0  0  0  0  0  0  0  0  0  0  0  0  # atno 17342 bound_to 10162
  140.7317  143.2697  151.3928 LP  0  0  0  0  0  0  0  0  0  0  0  0  # atno 17343 bound_to 10162
  156.0512  130.5581  150.8994 LP  0  0  0  0  0  0  0  0  0  0  0  0  # atno 17370 bound_to 10713
  157.5936  131.0944  150.9077 LP  0  0  0  0  0  0  0  0  0  0  0  0  # atno 17371 bound_to 10713
  140.0605  134.6003  155.8755 LP  0  0  0  0  0  0  0  0  0  0  0  0  # atno 17394 bound_to 11000
  141.1975  133.6597  156.5747 LP  0  0  0  0  0  0  0  0  0  0  0  0  # atno 17395 bound_to 11000

$$$$
