AV-unprocessed.smi:740|AV-procd|sdf|3551|dock8
  -GOLD-   22720 0543D 1   1.00000     0.00000
 Structure written by MMmdl.
 45 47  0  0  0  0  0  0  0  0  2 V2000
  152.3656  142.8029  160.9589 C   0  0  0  0  0  0  0  0  0  0  0  0
  152.0854  142.1690  159.6069 C   0  0  0  0  0  0  0  0  0  0  0  0
  151.1762  142.8111  158.7367 C   0  0  0  0  0  0  0  0  0  0  0  0
  150.9420  142.2084  157.5068 C   0  0  0  0  0  0  0  0  0  0  0  0
  150.1179  142.5891  156.4460 N   0  3  0  0  0  0  0  0  0  0  0  0
  150.2209  141.6766  155.4408 C   0  0  0  0  0  0  0  0  0  0  0  0
  151.0964  140.7167  155.8448 N   0  0  0  0  0  0  0  0  0  0  0  0
  151.5550  139.5140  155.1352 C   0  0  0  0  0  0  0  0  0  0  0  0
  150.3915  138.6201  154.6637 C   0  0  1  0  0  0  0  0  0  0  0  0
  150.8703  137.7329  153.6718 O   0  0  0  0  0  0  0  0  0  0  0  0
  149.8018  137.7960  155.8273 C   0  0  0  0  0  0  0  0  0  0  0  0
  149.7859  136.3584  155.5336 N   0  0  0  0  0  0  0  0  0  0  0  0
  150.8193  135.5350  155.7563 C   0  0  0  0  0  0  0  0  0  0  0  0
  151.9137  135.8500  156.2226 O   0  0  0  0  0  0  0  0  0  0  0  0
  150.4743  134.1063  155.3600 C   0  0  0  0  0  0  0  0  0  0  0  0
  149.0245  134.2170  154.8645 C   0  0  1  0  0  0  0  0  0  0  0  0
  148.0341  133.3383  155.6464 C   0  0  0  0  0  0  0  0  0  0  0  0
  148.7244  135.7044  155.0408 C   0  0  0  0  0  0  0  0  0  0  0  0
  147.6336  136.2010  154.7591 O   0  0  0  0  0  0  0  0  0  0  0  0
  151.5734  141.0071  157.1290 C   0  0  0  0  0  0  0  0  0  0  0  0
  152.4715  140.3611  157.9758 C   0  0  0  0  0  0  0  0  0  0  0  0
  152.7262  140.9603  159.2303 C   0  0  0  0  0  0  0  0  0  0  0  0
  153.7056  140.2801  160.1719 C   0  0  0  0  0  0  0  0  0  0  0  0
  151.7634  143.6990  161.1115 H   0  0  0  0  0  0  0  0  0  0  0  0
  153.4148  143.0888  161.0360 H   0  0  0  0  0  0  0  0  0  0  0  0
  152.1354  142.1066  161.7655 H   0  0  0  0  0  0  0  0  0  0  0  0
  150.6860  143.7325  159.0152 H   0  0  0  0  0  0  0  0  0  0  0  0
  149.7018  141.7083  154.4937 H   0  0  0  0  0  0  0  0  0  0  0  0
  152.2010  139.8029  154.3058 H   0  0  0  0  0  0  0  0  0  0  0  0
  152.1848  138.9605  155.8328 H   0  0  0  0  0  0  0  0  0  0  0  0
  149.6207  139.2530  154.2216 H   0  0  0  0  0  0  0  0  0  0  0  0
  150.1322  137.3982  153.1858 H   0  0  0  0  0  0  0  0  0  0  0  0
  150.3331  138.0068  156.7574 H   0  0  0  0  0  0  0  0  0  0  0  0
  148.7732  138.1114  156.0111 H   0  0  0  0  0  0  0  0  0  0  0  0
  151.1450  133.7565  154.5745 H   0  0  0  0  0  0  0  0  0  0  0  0
  150.5729  133.4441  156.2211 H   0  0  0  0  0  0  0  0  0  0  0  0
  148.9751  133.9728  153.8025 H   0  0  0  0  0  0  0  0  0  0  0  0
  147.0265  133.4211  155.2380 H   0  0  0  0  0  0  0  0  0  0  0  0
  147.9918  133.6192  156.6996 H   0  0  0  0  0  0  0  0  0  0  0  0
  148.3228  132.2882  155.5953 H   0  0  0  0  0  0  0  0  0  0  0  0
  152.9623  139.4430  157.6899 H   0  0  0  0  0  0  0  0  0  0  0  0
  154.1503  139.3955  159.7151 H   0  0  0  0  0  0  0  0  0  0  0  0
  153.2007  139.9659  161.0857 H   0  0  0  0  0  0  0  0  0  0  0  0
  154.5165  140.9581  160.4389 H   0  0  0  0  0  0  0  0  0  0  0  0
  149.5280  143.4107  156.4080 H   0  0  0  0  0  0  0  0  0  0  0  0
  1  2  1  0  0  0  0
  1 24  1  0  0  0  0
  1 25  1  0  0  0  0
  1 26  1  0  0  0  0
  2 22  1  0  0  0  0
  2  3  2  0  0  0  0
  3  4  1  0  0  0  0
  3 27  1  0  0  0  0
  4 20  2  0  0  0  0
  4  5  1  0  0  0  0
  5  6  2  0  0  0  0
  5 45  1  0  0  0  0
  6  7  1  0  0  0  0
  6 28  1  0  0  0  0
  7  8  1  0  0  0  0
  7 20  1  0  0  0  0
  8  9  1  0  0  0  0
  8 29  1  0  0  0  0
  8 30  1  0  0  0  0
  9 10  1  0  0  0  0
  9 11  1  0  0  0  0
  9 31  1  0  0  0  0
 10 32  1  0  0  0  0
 11 12  1  0  0  0  0
 11 33  1  0  0  0  0
 11 34  1  0  0  0  0
 12 18  1  0  0  0  0
 12 13  1  0  0  0  0
 13 14  2  0  0  0  0
 13 15  1  0  0  0  0
 15 16  1  0  0  0  0
 15 35  1  0  0  0  0
 15 36  1  0  0  0  0
 16 17  1  0  0  0  0
 16 18  1  0  0  0  0
 16 37  1  0  0  0  0
 17 38  1  0  0  0  0
 17 39  1  0  0  0  0
 17 40  1  0  0  0  0
 18 19  2  0  0  0  0
 20 21  1  0  0  0  0
 21 22  2  0  0  0  0
 21 41  1  0  0  0  0
 22 23  1  0  0  0  0
 23 42  1  0  0  0  0
 23 43  1  0  0  0  0
 23 44  1  0  0  0  0
M  CHG  1   5   1
M  END
> <s_m_source_file>
AV-unprocessed.smi

> <i_m_source_file_index>
740

> <i_lp_mmshare_version>
43012

> <i_f3d_flags>
0

> <s_epik_input>
W0NIM11jKFtjSF0xKWMoW0NIM10pW2NIXWMoYzEyKW4oW2NIXW4yKVtDSDJdW0NASF0oW09IXSlbQ0gyXU4zQyg9TylbQ0gyXVtDQEBIXShbQ0gzXSlDMz1P

> <s_epik_cmdline>
J2VwaWtfcHl0aG9uJywgJy1waCcsICc3LjAnLCAnLXRuJywgJzgnLCAnLW1hJywgJzIwMCcsICctbWV0YWxfYmluZGluZycsICctaW1hZScsICc8aW5maWxlLm1hZT4nLCAnLW9tYWUnLCAnPG91dGZpbGUubWFlPic=

> <r_lp_tautomer_probability>
1

> <r_epik_Ionization_Penalty>
1.08202

> <r_epik_Ionization_Penalty_Charging>
1.08202

> <r_epik_Ionization_Penalty_Neutral>
1.16605e-06

> <r_epik_State_Penalty>
1.13754

> <r_epik_Charging_Adjusted_Penalty>
2.21956

> <i_epik_Tot_Q>
1

> <i_epik_Tot_abs_Q>
1

> <r_epik_Metal_State_Penalty>
5.13645

> <b_epik_Metal_Only>
0

> <s_lp_Force_Field>
OPLS_2005

> <r_lp_Energy>
22.2654

> <b_lp_Chiralities_Consistent>
1

> <s_lp_Variant>
AV-unprocessed.smi:740-6

> <Gold.Version>
5.8.1

> <Gold.Id.Protein>
6NUR|6NUR_protein|mol2

> <Gold.PLP.Fitness>
50.4925

> <Gold.PLP.PLP>
-41.2629

> <Gold.PLP.part.hbond>
-4.0000

> <Gold.PLP.part.metal>
0.0000

> <Gold.PLP.part.buried>
-4.4049

> <Gold.PLP.part.nonpolar>
-32.7671

> <Gold.PLP.part.repulsive>
0.1490

> <Gold.PLP.ligand.clash>
0.0000

> <Gold.PLP.ligand.torsion>
1.2601

> <Gold.PLP.Chemscore.Hbond>
3.9100

> <Gold.PLP.Chemscore.CHOScore>
0.0000

> <Gold.PLP.Chemscore.Metal>
0.0000

> <Gold.Chemscore.Hbonds>
donor molecule, donor type, donor heavy atom, donor atom, acceptor molecule, acceptor atom, score
      L1  H     5    45       P1  8028  2.00
      L1  H    10    32       P1  7948  0.76
      P1  H 10752 10765       L1    14  1.00

> <Gold.PLP.Chemscore.Internal.Correction>
0.0198

> <Gold.Rescore>
     Score         DG    S(hbond)    S(metal)    S(lipo)     H(rot)  DE(clash)    DE(int)     intcor
     16.55     -18.86       2.60        0.00      92.06       2.37       0.09       2.23       ----

> <Gold.Chemscore.Fitness>
16.5491

> <Gold.Chemscore.DG>
-18.8629

> <Gold.Chemscore.ZeroCoef>
-5.4800

> <Gold.Chemscore.Hbond>
2.6003

> <Gold.Chemscore.Metal>
0.0000

> <Gold.Chemscore.Lipo>
92.0633

> <Gold.Chemscore.Internal_Hbond>
0.0000

> <Gold.Chemscore.DEClash>
0.0888

> <Gold.Chemscore.DEInternal>
2.2251

> <Gold.Chemscore.Rot>
2.3724

> <Gold.Chemscore.Internal.Correction>
   9.000000E+99

> <Gold.Chemscore.Hbonds>
donor molecule, donor type, donor heavy atom, donor atom, acceptor molecule, acceptor atom, score
      L1  H     5    45       P1  8028  0.97
      L1  H    10    32       P1  7948  0.13
      P1  H 10752 10765       L1    14  0.50

> <Gold.Chemscore.Hbond.Weighted>
-8.6849

> <Gold.Chemscore.Metal.Weighted>
-0.0000

> <Gold.Chemscore.Lipo.Weighted>
-10.7714

> <Gold.Chemscore.Internal_Hbond.Weighted>
0.0000

> <Gold.Chemscore.DEClash.Weighted>
0.0888

> <Gold.Chemscore.DEInternal.Weighted>
2.2251

> <Gold.Chemscore.Rot.Weighted>
6.0734

> <Gold.Chemscore.Internal.Correction.Weighted>
   9.000000E+99

> <Gold.Protein.RotatedTorsions>
[ 6907 6896 6895 6894 ] final   77.22 input  -60.11 | X-H torsion
[ 7974 7965 7964 7962 ] final  146.36 input  175.53 | X-H torsion
[ 8008 7997 7996 7995 ] final  -50.20 input   59.86 | X-H torsion
[ 10167 10162 10161 10158 ] final  -29.26 input  -65.29 | X-H torsion
[ 10718 10713 10712 10709 ] final   99.81 input   66.30 | X-H torsion
[ 10763 10752 10751 10750 ] final -158.86 input  -60.55 | X-H torsion
[ 11005 11000 10999 10996 ] final  160.84 input  -57.11 | X-H torsion

> <Gold.Protein.ActiveResidues>
 VAL166  LYS551  ARG553  GLY616  TRP617  ASP618  TYR619  PRO620  LYS621  CYS622 
 ASP623  PHE694  ASN695  SER759  ASP760  ASP761  ALA762  ILE779  LEU786  VAL792 
 PHE793  MET794  SER795  GLU796  ALA797  LYS798  CYS799  TRP800  GLU811  SER814 

> <Gold.Protein.RotatedAtoms>
  152.5108  134.3850  159.9364 H   0  0  0  0  0  0  0  0  0  0  0  0  # atno 6907 bound_to 6896
  151.3808  133.3815  159.2717 H   0  0  0  0  0  0  0  0  0  0  0  0  # atno 6908 bound_to 6896
  150.9506  134.8926  159.7728 H   0  0  0  0  0  0  0  0  0  0  0  0  # atno 6909 bound_to 6896
  144.8678  139.5895  143.5901 H   0  0  0  0  0  0  0  0  0  0  0  0  # atno 7974 bound_to 7965
  154.4057  140.1278  156.4628 H   0  0  0  0  0  0  0  0  0  0  0  0  # atno 8008 bound_to 7997
  155.7256  140.3492  155.5016 H   0  0  0  0  0  0  0  0  0  0  0  0  # atno 8009 bound_to 7997
  155.9174  140.1046  157.1223 H   0  0  0  0  0  0  0  0  0  0  0  0  # atno 8010 bound_to 7997
  140.7262  143.3943  151.1376 H   0  0  0  0  0  0  0  0  0  0  0  0  # atno 10167 bound_to 10162
  157.6868  131.0680  150.5005 H   0  0  0  0  0  0  0  0  0  0  0  0  # atno 10718 bound_to 10713
  154.7522  135.3095  154.8536 H   0  0  0  0  0  0  0  0  0  0  0  0  # atno 10763 bound_to 10752
  153.9319  135.6784  153.4749 H   0  0  0  0  0  0  0  0  0  0  0  0  # atno 10764 bound_to 10752
  153.1119  135.4862  154.8978 H   0  0  0  0  0  0  0  0  0  0  0  0  # atno 10765 bound_to 10752
  140.2099  134.8275  157.3109 H   0  0  0  0  0  0  0  0  0  0  0  0  # atno 11005 bound_to 11000
  146.2908  139.7134  142.9162 LP  0  0  0  0  0  0  0  0  0  0  0  0  # atno 17320 bound_to 7965
  145.4189  141.0404  143.2975 LP  0  0  0  0  0  0  0  0  0  0  0  0  # atno 17321 bound_to 7965
  139.7553  143.8717  152.3087 LP  0  0  0  0  0  0  0  0  0  0  0  0  # atno 17342 bound_to 10162
  139.8585  144.7129  150.9128 LP  0  0  0  0  0  0  0  0  0  0  0  0  # atno 17343 bound_to 10162
  156.5327  130.4189  149.6193 LP  0  0  0  0  0  0  0  0  0  0  0  0  # atno 17370 bound_to 10713
  156.3055  130.7200  151.2081 LP  0  0  0  0  0  0  0  0  0  0  0  0  # atno 17371 bound_to 10713
  140.1962  134.4311  155.7688 LP  0  0  0  0  0  0  0  0  0  0  0  0  # atno 17394 bound_to 11000
  141.2226  133.7050  156.8109 LP  0  0  0  0  0  0  0  0  0  0  0  0  # atno 17395 bound_to 11000

$$$$
