AV-unprocessed.smi:1097|AV-procd|sdf|4751|dock8
  -GOLD-   22720 3283D 1   1.00000     0.00000
 Structure written by MMmdl.
 40 41  0  0  0  0  0  0  0  0  1 V2000
  145.4756  142.6358  154.9770 C   0  0  0  0  0  0  0  0  0  0  0  0
  146.0430  141.6324  155.8007 O   0  0  0  0  0  0  0  0  0  0  0  0
  146.8133  140.6976  155.0642 C   0  0  0  0  0  0  0  0  0  0  0  0
  148.0472  141.4040  154.4963 C   0  0  0  0  0  0  0  0  0  0  0  0
  149.1065  141.2955  155.4419 O   0  0  0  0  0  0  0  0  0  0  0  0
  149.9692  140.2182  155.3609 C   0  0  0  0  0  0  0  0  0  0  0  0
  149.7183  139.2735  154.4186 N   0  0  0  0  0  0  0  0  0  0  0  0
  150.5548  138.2209  154.3158 C   0  0  0  0  0  0  0  0  0  0  0  0
  151.6806  138.0503  155.1409 C   0  0  0  0  0  0  0  0  0  0  0  0
  151.9448  139.0262  156.1190 C   0  0  0  0  0  0  0  0  0  0  0  0
  151.0833  140.1414  156.2372 C   0  0  0  0  0  0  0  0  0  0  0  0
  151.3315  141.1855  157.2906 C   0  0  0  0  0  0  0  0  0  0  0  0
  150.4472  141.9693  157.6368 O   0  0  0  0  0  0  0  0  0  0  0  0
  152.5802  141.2154  157.7835 N   0  0  0  0  0  0  0  0  0  0  0  0
  153.0574  142.1527  158.7961 C   0  0  2  0  0  0  0  0  0  0  0  0
  152.5796  141.7602  160.2031 C   0  0  0  0  0  0  0  0  0  0  0  0
  152.0534  143.0636  160.7799 C   0  0  0  0  0  0  0  0  0  0  0  0
  151.6804  143.1753  161.9466 O   0  0  0  0  0  0  0  0  0  0  0  0
  152.0615  144.0326  159.8598 N   0  0  0  0  0  0  0  0  0  0  0  0
  151.6210  145.4055  160.0651 C   0  0  0  0  0  0  0  0  0  0  0  0
  152.5187  143.5780  158.5587 C   0  0  0  0  0  0  0  0  0  0  0  0
  144.8876  143.3213  155.5870 H   0  0  0  0  0  0  0  0  0  0  0  0
  144.8135  142.2018  154.2265 H   0  0  0  0  0  0  0  0  0  0  0  0
  146.2488  143.2143  154.4698 H   0  0  0  0  0  0  0  0  0  0  0  0
  147.1217  139.8754  155.7119 H   0  0  0  0  0  0  0  0  0  0  0  0
  146.2183  140.2744  154.2534 H   0  0  0  0  0  0  0  0  0  0  0  0
  148.3321  140.9434  153.5488 H   0  0  0  0  0  0  0  0  0  0  0  0
  147.8137  142.4533  154.3077 H   0  0  0  0  0  0  0  0  0  0  0  0
  150.3192  137.4928  153.5538 H   0  0  0  0  0  0  0  0  0  0  0  0
  152.3234  137.1896  155.0288 H   0  0  0  0  0  0  0  0  0  0  0  0
  152.7986  138.9091  156.7705 H   0  0  0  0  0  0  0  0  0  0  0  0
  153.2476  140.5458  157.4289 H   0  0  0  0  0  0  0  0  0  0  0  0
  154.1490  142.1708  158.7937 H   0  0  0  0  0  0  0  0  0  0  0  0
  151.7704  141.0289  160.1794 H   0  0  0  0  0  0  0  0  0  0  0  0
  153.3905  141.3603  160.8128 H   0  0  0  0  0  0  0  0  0  0  0  0
  152.1740  145.8674  160.8841 H   0  0  0  0  0  0  0  0  0  0  0  0
  150.5584  145.4325  160.3091 H   0  0  0  0  0  0  0  0  0  0  0  0
  151.7784  146.0072  159.1692 H   0  0  0  0  0  0  0  0  0  0  0  0
  153.2920  144.2358  158.1599 H   0  0  0  0  0  0  0  0  0  0  0  0
  151.6749  143.5888  157.8666 H   0  0  0  0  0  0  0  0  0  0  0  0
  1  2  1  0  0  0  0
  1 22  1  0  0  0  0
  1 23  1  0  0  0  0
  1 24  1  0  0  0  0
  2  3  1  0  0  0  0
  3  4  1  0  0  0  0
  3 25  1  0  0  0  0
  3 26  1  0  0  0  0
  4  5  1  0  0  0  0
  4 27  1  0  0  0  0
  4 28  1  0  0  0  0
  5  6  1  0  0  0  0
  6 11  1  0  0  0  0
  6  7  2  0  0  0  0
  7  8  1  0  0  0  0
  8  9  2  0  0  0  0
  8 29  1  0  0  0  0
  9 10  1  0  0  0  0
  9 30  1  0  0  0  0
 10 11  2  0  0  0  0
 10 31  1  0  0  0  0
 11 12  1  0  0  0  0
 12 13  2  0  0  0  0
 12 14  1  0  0  0  0
 14 15  1  0  0  0  0
 14 32  1  0  0  0  0
 15 21  1  0  0  0  0
 15 16  1  0  0  0  0
 15 33  1  0  0  0  0
 16 17  1  0  0  0  0
 16 34  1  0  0  0  0
 16 35  1  0  0  0  0
 17 18  2  0  0  0  0
 17 19  1  0  0  0  0
 19 20  1  0  0  0  0
 19 21  1  0  0  0  0
 20 36  1  0  0  0  0
 20 37  1  0  0  0  0
 20 38  1  0  0  0  0
 21 39  1  0  0  0  0
 21 40  1  0  0  0  0
M  END
> <s_m_source_file>
AV-unprocessed.smi

> <i_m_source_file_index>
1097

> <i_lp_mmshare_version>
43012

> <i_f3d_flags>
0

> <s_epik_input>
W0NIM11PW0NIMl1bQ0gyXU9jMW5bY0hdW2NIXVtjSF1jMUMoPU8pW05IXVtDQEBIXTJbQ0gyXUMoPU8pTihbQ0gzXSlbQ0gyXTI=

> <s_epik_cmdline>
J2VwaWtfcHl0aG9uJywgJy1waCcsICc3LjAnLCAnLXRuJywgJzgnLCAnLW1hJywgJzIwMCcsICctbWV0YWxfYmluZGluZycsICctaW1hZScsICc8aW5maWxlLm1hZT4nLCAnLW9tYWUnLCAnPG91dGZpbGUubWFlPic=

> <r_lp_tautomer_probability>
1

> <r_epik_Ionization_Penalty>
2.30122e-06

> <r_epik_Ionization_Penalty_Charging>
0

> <r_epik_Ionization_Penalty_Neutral>
2.30122e-06

> <r_epik_State_Penalty>
-0

> <r_epik_Charging_Adjusted_Penalty>
0

> <i_epik_Tot_Q>
0

> <i_epik_Tot_abs_Q>
0

> <r_epik_Metal_State_Penalty>
-0

> <b_epik_Metal_Only>
0

> <s_lp_Force_Field>
OPLS_2005

> <r_lp_Energy>
19.8502

> <b_lp_Chiralities_Consistent>
1

> <s_lp_Variant>
AV-unprocessed.smi:1097-1

> <Gold.Version>
5.8.1

> <Gold.Id.Protein>
6NUR|6NUR_protein|mol2

> <Gold.PLP.Fitness>
43.2489

> <Gold.PLP.PLP>
-39.4606

> <Gold.PLP.part.hbond>
-1.1623

> <Gold.PLP.part.metal>
0.0000

> <Gold.PLP.part.buried>
-2.7547

> <Gold.PLP.part.nonpolar>
-39.4695

> <Gold.PLP.part.repulsive>
3.0005

> <Gold.PLP.ligand.clash>
0.0000

> <Gold.PLP.ligand.torsion>
0.8043

> <Gold.PLP.Chemscore.Hbond>
0.6344

> <Gold.PLP.Chemscore.CHOScore>
1.1306

> <Gold.PLP.Chemscore.Metal>
0.0000

> <Gold.Chemscore.Hbonds>
donor molecule, donor type, donor heavy atom, donor atom, acceptor molecule, acceptor atom, score
      P1  H  6933  6945       L1    18  0.47
      L1  C     8    29       P1  7948  0.89
      L1  C     8    29       P1  7949  0.23

> <Gold.PLP.Chemscore.Internal.Correction>
0.1017

> <Gold.Rescore>
     Score         DG    S(hbond)    S(metal)    S(lipo)     H(rot)  DE(clash)    DE(int)     intcor
      8.24     -12.86       0.63        0.00      87.60       1.95       0.87       3.75       ----

> <Gold.Chemscore.Fitness>
8.2389

> <Gold.Chemscore.DG>
-12.8636

> <Gold.Chemscore.ZeroCoef>
-5.4800

> <Gold.Chemscore.Hbond>
0.6342

> <Gold.Chemscore.Metal>
0.0000

> <Gold.Chemscore.Lipo>
87.6011

> <Gold.Chemscore.Internal_Hbond>
0.0000

> <Gold.Chemscore.DEClash>
0.8722

> <Gold.Chemscore.DEInternal>
3.7524

> <Gold.Chemscore.Rot>
1.9468

> <Gold.Chemscore.Internal.Correction>
   9.000000E+99

> <Gold.Chemscore.Hbonds>
donor molecule, donor type, donor heavy atom, donor atom, acceptor molecule, acceptor atom, score
      P1  H  6933  6945       L1    18  0.28

> <Gold.Chemscore.Hbond.Weighted>
-2.1181

> <Gold.Chemscore.Metal.Weighted>
-0.0000

> <Gold.Chemscore.Lipo.Weighted>
-10.2493

> <Gold.Chemscore.Internal_Hbond.Weighted>
0.0000

> <Gold.Chemscore.DEClash.Weighted>
0.8722

> <Gold.Chemscore.DEInternal.Weighted>
3.7524

> <Gold.Chemscore.Rot.Weighted>
4.9839

> <Gold.Chemscore.Internal.Correction.Weighted>
   9.000000E+99

> <Gold.Protein.RotatedTorsions>
[ 6907 6896 6895 6894 ] final   95.92 input  -60.11 | X-H torsion
[ 7974 7965 7964 7962 ] final  139.57 input  175.53 | X-H torsion
[ 8008 7997 7996 7995 ] final  140.73 input   59.86 | X-H torsion
[ 10167 10162 10161 10158 ] final  -96.29 input  -65.29 | X-H torsion
[ 10718 10713 10712 10709 ] final  -13.59 input   66.30 | X-H torsion
[ 10763 10752 10751 10750 ] final  136.82 input  -60.55 | X-H torsion
[ 11005 11000 10999 10996 ] final  -65.03 input  -57.11 | X-H torsion

> <Gold.Protein.ActiveResidues>
 VAL166  LYS551  ARG553  GLY616  TRP617  ASP618  TYR619  PRO620  LYS621  CYS622 
 ASP623  PHE694  ASN695  SER759  ASP760  ASP761  ALA762  ILE779  LEU786  VAL792 
 PHE793  MET794  SER795  GLU796  ALA797  LYS798  CYS799  TRP800  GLU811  SER814 

> <Gold.Protein.RotatedAtoms>
  152.5440  134.0966  159.8299 H   0  0  0  0  0  0  0  0  0  0  0  0  # atno 6907 bound_to 6896
  151.1049  133.5209  159.2615 H   0  0  0  0  0  0  0  0  0  0  0  0  # atno 6908 bound_to 6896
  151.1950  135.0427  159.8902 H   0  0  0  0  0  0  0  0  0  0  0  0  # atno 6909 bound_to 6896
  144.9267  139.5099  143.5637 H   0  0  0  0  0  0  0  0  0  0  0  0  # atno 7974 bound_to 7965
  156.2975  140.2334  156.4449 H   0  0  0  0  0  0  0  0  0  0  0  0  # atno 8008 bound_to 7997
  154.8153  140.0441  157.1392 H   0  0  0  0  0  0  0  0  0  0  0  0  # atno 8009 bound_to 7997
  154.9377  140.3025  155.5140 H   0  0  0  0  0  0  0  0  0  0  0  0  # atno 8010 bound_to 7997
  140.2954  143.3195  152.0303 H   0  0  0  0  0  0  0  0  0  0  0  0  # atno 10167 bound_to 10162
  156.6280  130.4894  149.6139 H   0  0  0  0  0  0  0  0  0  0  0  0  # atno 10718 bound_to 10713
  153.8628  135.3065  155.3438 H   0  0  0  0  0  0  0  0  0  0  0  0  # atno 10763 bound_to 10752
  154.7841  135.4819  153.9911 H   0  0  0  0  0  0  0  0  0  0  0  0  # atno 10764 bound_to 10752
  153.1452  135.6832  153.9061 H   0  0  0  0  0  0  0  0  0  0  0  0  # atno 10765 bound_to 10752
  141.1442  133.6675  156.5923 H   0  0  0  0  0  0  0  0  0  0  0  0  # atno 11005 bound_to 11000
  146.3229  139.8187  142.8931 LP  0  0  0  0  0  0  0  0  0  0  0  0  # atno 17320 bound_to 7965
  145.3208  141.0243  143.3501 LP  0  0  0  0  0  0  0  0  0  0  0  0  # atno 17321 bound_to 7965
  139.4928  144.6495  151.6707 LP  0  0  0  0  0  0  0  0  0  0  0  0  # atno 17342 bound_to 10162
  140.5697  144.0130  150.6210 LP  0  0  0  0  0  0  0  0  0  0  0  0  # atno 17343 bound_to 10162
  156.2257  130.6764  151.1413 LP  0  0  0  0  0  0  0  0  0  0  0  0  # atno 17370 bound_to 10713
  157.7208  131.0682  150.6142 LP  0  0  0  0  0  0  0  0  0  0  0  0  # atno 17371 bound_to 10713
  140.3753  134.7570  157.4626 LP  0  0  0  0  0  0  0  0  0  0  0  0  # atno 17394 bound_to 11000
  140.0679  134.5904  155.8675 LP  0  0  0  0  0  0  0  0  0  0  0  0  # atno 17395 bound_to 11000

$$$$
