AV-unprocessed.smi:2069|AV-procd|sdf|8432|dock4
  -GOLD-   2272011123D 1   1.00000     0.00000
 Structure written by MMmdl.
 38 39  0  0  0  0  0  0  0  0  1 V2000
  142.0676  144.5008  160.8227 C   0  0  0  0  0  0  0  0  0  0  0  0
  143.5560  144.5210  160.7427 C   0  0  0  0  0  0  0  0  0  0  0  0
  144.3420  144.1165  161.7479 N   0  0  0  0  0  0  0  0  0  0  0  0
  145.6906  144.2273  161.4388 N   0  0  0  0  0  0  0  0  0  0  0  0
  145.8824  144.7125  160.2044 C   0  0  0  0  0  0  0  0  0  0  0  0
  147.1635  144.9275  159.6307 N   0  0  0  0  0  0  0  0  0  0  0  0
  148.3698  144.7899  160.2088 C   0  0  0  0  0  0  0  0  0  0  0  0
  148.5644  144.4452  161.3747 O   0  0  0  0  0  0  0  0  0  0  0  0
  149.3547  145.0845  159.3469 N   0  0  0  0  0  0  0  0  0  0  0  0
  150.7859  145.0375  159.6398 C   0  0  0  0  0  0  0  0  0  0  0  0
  151.5549  144.0168  158.7536 C   0  0  1  0  0  0  0  0  0  0  0  0
  152.8107  144.7059  158.1619 C   0  0  0  0  0  0  0  0  0  0  0  0
  151.8762  142.7559  159.4633 N   0  0  0  0  0  0  0  0  0  0  0  0
  152.2764  141.6759  158.5533 C   0  0  0  0  0  0  0  0  0  0  0  0
  152.6378  140.3748  159.2911 C   0  0  0  0  0  0  0  0  0  0  0  0
  153.6713  140.6279  160.2322 O   0  0  0  0  0  0  0  0  0  0  0  0
  153.2931  141.6119  161.1846 C   0  0  0  0  0  0  0  0  0  0  0  0
  152.9396  142.9230  160.4613 C   0  0  0  0  0  0  0  0  0  0  0  0
  144.4152  145.0763  159.3112 S   0  0  0  0  0  0  0  0  0  0  0  0
  141.7399  144.3910  161.8570 H   0  0  0  0  0  0  0  0  0  0  0  0
  141.6750  143.6672  160.2405 H   0  0  0  0  0  0  0  0  0  0  0  0
  141.6587  145.4299  160.4254 H   0  0  0  0  0  0  0  0  0  0  0  0
  147.1608  145.2205  158.6650 H   0  0  0  0  0  0  0  0  0  0  0  0
  149.0967  145.3620  158.4113 H   0  0  0  0  0  0  0  0  0  0  0  0
  151.2459  146.0236  159.5555 H   0  0  0  0  0  0  0  0  0  0  0  0
  150.8382  144.7652  160.6921 H   0  0  0  0  0  0  0  0  0  0  0  0
  150.9035  143.7713  157.9133 H   0  0  0  0  0  0  0  0  0  0  0  0
  152.5756  145.6491  157.6707 H   0  0  0  0  0  0  0  0  0  0  0  0
  153.2916  144.1034  157.3928 H   0  0  0  0  0  0  0  0  0  0  0  0
  153.5472  144.9154  158.9383 H   0  0  0  0  0  0  0  0  0  0  0  0
  151.4695  141.4318  157.8654 H   0  0  0  0  0  0  0  0  0  0  0  0
  153.1253  141.9971  157.9479 H   0  0  0  0  0  0  0  0  0  0  0  0
  151.7641  139.9640  159.7995 H   0  0  0  0  0  0  0  0  0  0  0  0
  152.9795  139.6203  158.5823 H   0  0  0  0  0  0  0  0  0  0  0  0
  152.4469  141.2547  161.7734 H   0  0  0  0  0  0  0  0  0  0  0  0
  154.1191  141.7729  161.8774 H   0  0  0  0  0  0  0  0  0  0  0  0
  153.8349  143.3256  159.9852 H   0  0  0  0  0  0  0  0  0  0  0  0
  152.6398  143.6357  161.2273 H   0  0  0  0  0  0  0  0  0  0  0  0
  1  2  1  0  0  0  0
  1 20  1  0  0  0  0
  1 21  1  0  0  0  0
  1 22  1  0  0  0  0
  2 19  1  0  0  0  0
  2  3  2  0  0  0  0
  3  4  1  0  0  0  0
  4  5  2  0  0  0  0
  5  6  1  0  0  0  0
  5 19  1  0  0  0  0
  6  7  1  0  0  0  0
  6 23  1  0  0  0  0
  7  8  2  0  0  0  0
  7  9  1  0  0  0  0
  9 10  1  0  0  0  0
  9 24  1  0  0  0  0
 10 11  1  0  0  0  0
 10 25  1  0  0  0  0
 10 26  1  0  0  0  0
 11 12  1  0  0  0  0
 11 13  1  0  0  0  0
 11 27  1  0  0  0  0
 12 28  1  0  0  0  0
 12 29  1  0  0  0  0
 12 30  1  0  0  0  0
 13 18  1  0  0  0  0
 13 14  1  0  0  0  0
 14 15  1  0  0  0  0
 14 31  1  0  0  0  0
 14 32  1  0  0  0  0
 15 16  1  0  0  0  0
 15 33  1  0  0  0  0
 15 34  1  0  0  0  0
 16 17  1  0  0  0  0
 17 18  1  0  0  0  0
 17 35  1  0  0  0  0
 17 36  1  0  0  0  0
 18 37  1  0  0  0  0
 18 38  1  0  0  0  0
M  END
> <s_m_source_file>
AV-unprocessed.smi

> <i_m_source_file_index>
2069

> <i_lp_mmshare_version>
43012

> <i_f3d_flags>
0

> <s_epik_input>
W0NIM11jMW5uYyhzMSlbTkhdQyg9TylbTkhdW0NIMl1bQ0BIXShbQ0gzXSlOMltDSDJdW0NIMl1PW0NIMl1bQ0gyXTI=

> <s_epik_cmdline>
J2VwaWtfcHl0aG9uJywgJy1waCcsICc3LjAnLCAnLXRuJywgJzgnLCAnLW1hJywgJzIwMCcsICctbWV0YWxfYmluZGluZycsICctaW1hZScsICc8aW5maWxlLm1hZT4nLCAnLW9tYWUnLCAnPG91dGZpbGUubWFlPic=

> <r_lp_tautomer_probability>
1

> <r_epik_Ionization_Penalty>
0.221104

> <r_epik_Ionization_Penalty_Charging>
0

> <r_epik_Ionization_Penalty_Neutral>
0.221104

> <r_epik_State_Penalty>
0.209349

> <r_epik_Charging_Adjusted_Penalty>
0.209349

> <i_epik_Tot_Q>
0

> <i_epik_Tot_abs_Q>
0

> <r_epik_Metal_State_Penalty>
0.561068

> <b_epik_Metal_Only>
0

> <s_lp_Force_Field>
OPLS_2005

> <r_lp_Energy>
28.2693

> <b_lp_Chiralities_Consistent>
1

> <s_lp_Variant>
AV-unprocessed.smi:2069-2

> <Gold.Version>
5.8.1

> <Gold.Id.Protein>
6NUR|6NUR_protein|mol2

> <Gold.PLP.Fitness>
43.8533

> <Gold.PLP.PLP>
-37.1014

> <Gold.PLP.part.hbond>
-3.0000

> <Gold.PLP.part.metal>
0.0000

> <Gold.PLP.part.buried>
-8.8882

> <Gold.PLP.part.nonpolar>
-26.1418

> <Gold.PLP.part.repulsive>
0.7042

> <Gold.PLP.ligand.clash>
0.0000

> <Gold.PLP.ligand.torsion>
0.7903

> <Gold.PLP.Chemscore.Hbond>
2.7680

> <Gold.PLP.Chemscore.CHOScore>
0.0000

> <Gold.PLP.Chemscore.Metal>
0.0000

> <Gold.Chemscore.Hbonds>
donor molecule, donor type, donor heavy atom, donor atom, acceptor molecule, acceptor atom, score
      L1  H     6    23       P1  8029  1.00
      L1  H     9    24       P1  8029  1.00
      P1  H  6933  6944       L1     8  0.74

> <Gold.PLP.Chemscore.Internal.Correction>
0.0284

> <Gold.Rescore>
     Score         DG    S(hbond)    S(metal)    S(lipo)     H(rot)  DE(clash)    DE(int)     intcor
     18.74     -20.85       2.82        0.00      85.92       1.60       0.01       2.10       ----

> <Gold.Chemscore.Fitness>
18.7387

> <Gold.Chemscore.DG>
-20.8507

> <Gold.Chemscore.ZeroCoef>
-5.4800

> <Gold.Chemscore.Hbond>
2.8198

> <Gold.Chemscore.Metal>
0.0000

> <Gold.Chemscore.Lipo>
85.9211

> <Gold.Chemscore.Internal_Hbond>
0.0000

> <Gold.Chemscore.DEClash>
0.0126

> <Gold.Chemscore.DEInternal>
2.0994

> <Gold.Chemscore.Rot>
1.6016

> <Gold.Chemscore.Internal.Correction>
   9.000000E+99

> <Gold.Chemscore.Hbonds>
donor molecule, donor type, donor heavy atom, donor atom, acceptor molecule, acceptor atom, score
      L1  H     6    23       P1  8029  0.98
      L1  H     9    24       P1  8029  0.88
      P1  H  6933  6944       L1     8  0.49

> <Gold.Chemscore.Hbond.Weighted>
-9.4181

> <Gold.Chemscore.Metal.Weighted>
-0.0000

> <Gold.Chemscore.Lipo.Weighted>
-10.0528

> <Gold.Chemscore.Internal_Hbond.Weighted>
0.0000

> <Gold.Chemscore.DEClash.Weighted>
0.0126

> <Gold.Chemscore.DEInternal.Weighted>
2.0994

> <Gold.Chemscore.Rot.Weighted>
4.1001

> <Gold.Chemscore.Internal.Correction.Weighted>
   9.000000E+99

> <Gold.Protein.RotatedTorsions>
[ 6907 6896 6895 6894 ] final   -2.44 input  -60.11 | X-H torsion
[ 7974 7965 7964 7962 ] final   33.00 input  175.53 | X-H torsion
[ 8008 7997 7996 7995 ] final  -83.63 input   59.86 | X-H torsion
[ 10167 10162 10161 10158 ] final   35.30 input  -65.29 | X-H torsion
[ 10718 10713 10712 10709 ] final   -7.65 input   66.30 | X-H torsion
[ 10763 10752 10751 10750 ] final -176.63 input  -60.55 | X-H torsion
[ 11005 11000 10999 10996 ] final  -84.00 input  -57.11 | X-H torsion

> <Gold.Protein.ActiveResidues>
 VAL166  LYS551  ARG553  GLY616  TRP617  ASP618  TYR619  PRO620  LYS621  CYS622 
 ASP623  PHE694  ASN695  SER759  ASP760  ASP761  ALA762  ILE779  LEU786  VAL792 
 PHE793  MET794  SER795  GLU796  ALA797  LYS798  CYS799  TRP800  GLU811  SER814 

> <Gold.Protein.RotatedAtoms>
  151.5299  135.1068  159.9899 H   0  0  0  0  0  0  0  0  0  0  0  0  # atno 6907 bound_to 6896
  152.4583  133.7764  159.6837 H   0  0  0  0  0  0  0  0  0  0  0  0  # atno 6908 bound_to 6896
  150.8535  133.7686  159.3042 H   0  0  0  0  0  0  0  0  0  0  0  0  # atno 6909 bound_to 6896
  146.1449  139.6453  142.9138 H   0  0  0  0  0  0  0  0  0  0  0  0  # atno 7974 bound_to 7965
  154.6211  140.0616  156.9616 H   0  0  0  0  0  0  0  0  0  0  0  0  # atno 8008 bound_to 7997
  155.1816  140.3299  155.4356 H   0  0  0  0  0  0  0  0  0  0  0  0  # atno 8009 bound_to 7997
  156.2432  140.1896  156.6912 H   0  0  0  0  0  0  0  0  0  0  0  0  # atno 8010 bound_to 7997
  140.4235  144.1426  150.6150 H   0  0  0  0  0  0  0  0  0  0  0  0  # atno 10167 bound_to 10162
  156.7141  130.5131  149.5884 H   0  0  0  0  0  0  0  0  0  0  0  0  # atno 10718 bound_to 10713
  154.5700  135.2827  155.0836 H   0  0  0  0  0  0  0  0  0  0  0  0  # atno 10763 bound_to 10752
  154.2212  135.6391  153.5149 H   0  0  0  0  0  0  0  0  0  0  0  0  # atno 10764 bound_to 10752
  153.0055  135.5515  154.6321 H   0  0  0  0  0  0  0  0  0  0  0  0  # atno 10765 bound_to 10752
  141.1654  133.7323  156.8803 H   0  0  0  0  0  0  0  0  0  0  0  0  # atno 11005 bound_to 11000
  145.4960  141.0438  143.2566 LP  0  0  0  0  0  0  0  0  0  0  0  0  # atno 17320 bound_to 7965
  144.7835  139.6476  143.7144 LP  0  0  0  0  0  0  0  0  0  0  0  0  # atno 17321 bound_to 7965
  140.4507  143.2488  151.9351 LP  0  0  0  0  0  0  0  0  0  0  0  0  # atno 17342 bound_to 10162
  139.4783  144.5565  151.8306 LP  0  0  0  0  0  0  0  0  0  0  0  0  # atno 17343 bound_to 10162
  156.1640  130.6393  151.0755 LP  0  0  0  0  0  0  0  0  0  0  0  0  # atno 17370 bound_to 10713
  157.6924  131.0805  150.7068 LP  0  0  0  0  0  0  0  0  0  0  0  0  # atno 17371 bound_to 10713
  140.1719  134.9094  157.2844 LP  0  0  0  0  0  0  0  0  0  0  0  0  # atno 17394 bound_to 11000
  140.2492  134.3703  155.7449 LP  0  0  0  0  0  0  0  0  0  0  0  0  # atno 17395 bound_to 11000

$$$$
