AV-unprocessed.smi:2695|AV-procd|sdf|10407|dock1
  -GOLD-   2272014443D 1   1.00000     0.00000
 Structure written by MMmdl.
 41 42  0  0  0  0  0  0  0  0  2 V2000
  148.5335  134.6767  157.6406 C   0  0  0  0  0  0  0  0  0  0  0  0
  148.1954  134.7716  159.1237 C   0  0  0  0  0  0  0  0  0  0  0  0
  147.9369  133.6555  159.8404 C   0  0  0  0  0  0  0  0  0  0  0  0
  147.6561  133.7084  161.1994 C   0  0  0  0  0  0  0  0  0  0  0  0
  147.4131  132.6788  161.8669 O   0  5  0  0  0  0  0  0  0  0  0  0
  147.6673  134.9737  161.7720 C   0  0  0  0  0  0  0  0  0  0  0  0
  147.9453  136.2114  161.0534 C   0  0  0  0  0  0  0  0  0  0  0  0
  147.9561  137.3077  161.6165 O   0  0  0  0  0  0  0  0  0  0  0  0
  148.1853  136.0605  159.7204 N   0  0  0  0  0  0  0  0  0  0  0  0
  148.4254  137.2716  158.9022 C   0  0  0  0  0  0  0  0  0  0  0  0
  149.8200  137.3151  158.2598 C   0  0  0  0  0  0  0  0  0  0  0  0
  150.5913  136.3590  158.3499 O   0  0  0  0  0  0  0  0  0  0  0  0
  150.1206  138.4471  157.6050 N   0  0  0  0  0  0  0  0  0  0  0  0
  151.3855  138.7449  156.9306 C   0  0  2  0  0  0  0  0  0  0  0  0
  151.9898  140.0428  157.5263 C   0  0  0  0  0  0  0  0  0  0  0  0
  152.5401  139.9103  158.9516 C   0  0  0  0  0  0  0  0  0  0  0  0
  152.6172  141.3419  159.4927 C   0  0  0  0  0  0  0  0  0  0  0  0
  151.6203  142.1684  158.6683 C   0  0  0  0  0  0  0  0  0  0  0  0
  150.9894  141.1996  157.6636 C   0  0  0  0  0  0  0  0  0  0  0  0
  151.1338  138.8109  155.4067 C   0  0  0  0  0  0  0  0  0  0  0  0
  150.2329  139.7571  155.1389 F   0  0  0  0  0  0  0  0  0  0  0  0
  152.2612  139.0985  154.7547 F   0  0  0  0  0  0  0  0  0  0  0  0
  150.6543  137.6546  154.9507 F   0  0  0  0  0  0  0  0  0  0  0  0
  148.7300  133.6428  157.3543 H   0  0  0  0  0  0  0  0  0  0  0  0
  149.4283  135.2476  157.3925 H   0  0  0  0  0  0  0  0  0  0  0  0
  147.7012  135.0321  157.0329 H   0  0  0  0  0  0  0  0  0  0  0  0
  147.9536  132.6967  159.3421 H   0  0  0  0  0  0  0  0  0  0  0  0
  147.4570  135.0605  162.8283 H   0  0  0  0  0  0  0  0  0  0  0  0
  147.6755  137.4031  158.1242 H   0  0  0  0  0  0  0  0  0  0  0  0
  148.3048  138.1659  159.5168 H   0  0  0  0  0  0  0  0  0  0  0  0
  149.4173  139.1709  157.5778 H   0  0  0  0  0  0  0  0  0  0  0  0
  152.0946  137.9344  157.1076 H   0  0  0  0  0  0  0  0  0  0  0  0
  152.8022  140.3829  156.8818 H   0  0  0  0  0  0  0  0  0  0  0  0
  151.8493  139.3286  159.5635 H   0  0  0  0  0  0  0  0  0  0  0  0
  153.5106  139.4150  158.9853 H   0  0  0  0  0  0  0  0  0  0  0  0
  152.3942  141.3769  160.5594 H   0  0  0  0  0  0  0  0  0  0  0  0
  153.6239  141.7393  159.3580 H   0  0  0  0  0  0  0  0  0  0  0  0
  150.8624  142.6390  159.2953 H   0  0  0  0  0  0  0  0  0  0  0  0
  152.1485  142.9646  158.1419 H   0  0  0  0  0  0  0  0  0  0  0  0
  150.7709  141.6828  156.7105 H   0  0  0  0  0  0  0  0  0  0  0  0
  150.0456  140.8262  158.0645 H   0  0  0  0  0  0  0  0  0  0  0  0
  1  2  1  0  0  0  0
  1 24  1  0  0  0  0
  1 25  1  0  0  0  0
  1 26  1  0  0  0  0
  2  9  1  0  0  0  0
  2  3  2  0  0  0  0
  3  4  1  0  0  0  0
  3 27  1  0  0  0  0
  4  5  1  0  0  0  0
  4  6  2  0  0  0  0
  6  7  1  0  0  0  0
  6 28  1  0  0  0  0
  7  8  2  0  0  0  0
  7  9  1  0  0  0  0
  9 10  1  0  0  0  0
 10 11  1  0  0  0  0
 10 29  1  0  0  0  0
 10 30  1  0  0  0  0
 11 12  2  0  0  0  0
 11 13  1  0  0  0  0
 13 14  1  0  0  0  0
 13 31  1  0  0  0  0
 14 15  1  0  0  0  0
 14 20  1  0  0  0  0
 14 32  1  0  0  0  0
 15 19  1  0  0  0  0
 15 16  1  0  0  0  0
 15 33  1  0  0  0  0
 16 17  1  0  0  0  0
 16 34  1  0  0  0  0
 16 35  1  0  0  0  0
 17 18  1  0  0  0  0
 17 36  1  0  0  0  0
 17 37  1  0  0  0  0
 18 19  1  0  0  0  0
 18 38  1  0  0  0  0
 18 39  1  0  0  0  0
 19 40  1  0  0  0  0
 19 41  1  0  0  0  0
 20 21  1  0  0  0  0
 20 22  1  0  0  0  0
 20 23  1  0  0  0  0
M  CHG  1   5  -1
M  END
> <s_m_source_file>
AV-unprocessed.smi

> <i_m_source_file_index>
2695

> <i_lp_mmshare_version>
43012

> <i_f3d_flags>
0

> <s_epik_input>
W0NIM11jMVtjSF1jKFtPSF0pW2NIXWMoPU8pbjFbQ0gyXUMoPU8pW05IXVtDQEBIXShDKEYpKEYpRilbQ0hdMltDSDJdW0NIMl1bQ0gyXVtDSDJdMg==

> <s_epik_cmdline>
J2VwaWtfcHl0aG9uJywgJy1waCcsICc3LjAnLCAnLXRuJywgJzgnLCAnLW1hJywgJzIwMCcsICctbWV0YWxfYmluZGluZycsICctaW1hZScsICc8aW5maWxlLm1hZT4nLCAnLW9tYWUnLCAnPG91dGZpbGUubWFlPic=

> <r_lp_tautomer_probability>
1

> <r_epik_Ionization_Penalty>
0.176977

> <r_epik_Ionization_Penalty_Charging>
0.176977

> <r_epik_Ionization_Penalty_Neutral>
1.44272e-07

> <r_epik_State_Penalty>
0.160849

> <r_epik_Charging_Adjusted_Penalty>
0.337826

> <i_epik_Tot_Q>
-1

> <i_epik_Tot_abs_Q>
1

> <r_epik_Metal_State_Penalty>
0.16085

> <b_epik_Metal_Only>
0

> <s_lp_Force_Field>
OPLS_2005

> <r_lp_Energy>
43.1089

> <b_lp_Chiralities_Consistent>
1

> <s_lp_Variant>
AV-unprocessed.smi:2695-1

> <Gold.Version>
5.8.1

> <Gold.Id.Protein>
6NUR|6NUR_protein|mol2

> <Gold.PLP.Fitness>
44.8528

> <Gold.PLP.PLP>
-37.9708

> <Gold.PLP.part.hbond>
-2.9252

> <Gold.PLP.part.metal>
0.0000

> <Gold.PLP.part.buried>
-4.6502

> <Gold.PLP.part.nonpolar>
-30.4542

> <Gold.PLP.part.repulsive>
0.0558

> <Gold.PLP.ligand.clash>
0.0010

> <Gold.PLP.ligand.torsion>
0.2445

> <Gold.PLP.Chemscore.Hbond>
2.3169

> <Gold.PLP.Chemscore.CHOScore>
0.0000

> <Gold.PLP.Chemscore.Metal>
0.0000

> <Gold.Chemscore.Hbonds>
donor molecule, donor type, donor heavy atom, donor atom, acceptor molecule, acceptor atom, score
      P1  H  6896  6907       L1    12  0.58
      P1  H  6931  6943       L1     8  0.81
      P1  H  6934  6947       L1     8  0.61

> <Gold.PLP.Chemscore.Internal.Correction>
0.4211

> <Gold.Rescore>
     Score         DG    S(hbond)    S(metal)    S(lipo)     H(rot)  DE(clash)    DE(int)     intcor
     16.42     -17.03       2.65        0.00      61.37       1.75       0.00       0.61       ----

> <Gold.Chemscore.Fitness>
16.4241

> <Gold.Chemscore.DG>
-17.0343

> <Gold.Chemscore.ZeroCoef>
-5.4800

> <Gold.Chemscore.Hbond>
2.6540

> <Gold.Chemscore.Metal>
0.0000

> <Gold.Chemscore.Lipo>
61.3659

> <Gold.Chemscore.Internal_Hbond>
0.0000

> <Gold.Chemscore.DEClash>
0.0000

> <Gold.Chemscore.DEInternal>
0.6101

> <Gold.Chemscore.Rot>
1.7539

> <Gold.Chemscore.Internal.Correction>
   9.000000E+99

> <Gold.Chemscore.Hbonds>
donor molecule, donor type, donor heavy atom, donor atom, acceptor molecule, acceptor atom, score
      P1  H  6896  6907       L1    12  0.55
      P1  H  6931  6943       L1     8  0.78
      P1  H  6934  6947       L1     8  0.58

> <Gold.Chemscore.Hbond.Weighted>
-8.8643

> <Gold.Chemscore.Metal.Weighted>
-0.0000

> <Gold.Chemscore.Lipo.Weighted>
-7.1798

> <Gold.Chemscore.Internal_Hbond.Weighted>
0.0000

> <Gold.Chemscore.DEClash.Weighted>
0.0000

> <Gold.Chemscore.DEInternal.Weighted>
0.6101

> <Gold.Chemscore.Rot.Weighted>
4.4899

> <Gold.Chemscore.Internal.Correction.Weighted>
   9.000000E+99

> <Gold.Protein.RotatedTorsions>
[ 6907 6896 6895 6894 ] final  -64.66 input  -60.11 | X-H torsion
[ 7974 7965 7964 7962 ] final -166.55 input  175.53 | X-H torsion
[ 8008 7997 7996 7995 ] final   64.76 input   59.86 | X-H torsion
[ 10167 10162 10161 10158 ] final  161.62 input  -65.29 | X-H torsion
[ 10718 10713 10712 10709 ] final  176.83 input   66.30 | X-H torsion
[ 10763 10752 10751 10750 ] final  112.06 input  -60.55 | X-H torsion
[ 11005 11000 10999 10996 ] final   22.69 input  -57.11 | X-H torsion

> <Gold.Protein.ActiveResidues>
 VAL166  LYS551  ARG553  GLY616  TRP617  ASP618  TYR619  PRO620  LYS621  CYS622 
 ASP623  PHE694  ASN695  SER759  ASP760  ASP761  ALA762  ILE779  LEU786  VAL792 
 PHE793  MET794  SER795  GLU796  ALA797  LYS798  CYS799  TRP800  GLU811  SER814 

> <Gold.Protein.RotatedAtoms>
  150.7571  134.6267  159.6164 H   0  0  0  0  0  0  0  0  0  0  0  0  # atno 6907 bound_to 6896
  152.3557  134.6940  160.0232 H   0  0  0  0  0  0  0  0  0  0  0  0  # atno 6908 bound_to 6896
  151.7347  133.3283  159.3386 H   0  0  0  0  0  0  0  0  0  0  0  0  # atno 6909 bound_to 6896
  144.7243  140.2650  143.6259 H   0  0  0  0  0  0  0  0  0  0  0  0  # atno 7974 bound_to 7965
  155.6511  140.3497  155.4748 H   0  0  0  0  0  0  0  0  0  0  0  0  # atno 8008 bound_to 7997
  155.9847  140.1181  157.0717 H   0  0  0  0  0  0  0  0  0  0  0  0  # atno 8009 bound_to 7997
  154.4201  140.1131  156.5469 H   0  0  0  0  0  0  0  0  0  0  0  0  # atno 8010 bound_to 7997
  139.4851  144.4518  151.8819 H   0  0  0  0  0  0  0  0  0  0  0  0  # atno 10167 bound_to 10162
  156.9143  130.9920  151.3015 H   0  0  0  0  0  0  0  0  0  0  0  0  # atno 10718 bound_to 10713
  153.4724  135.3698  155.2398 H   0  0  0  0  0  0  0  0  0  0  0  0  # atno 10763 bound_to 10752
  154.8757  135.3934  154.3797 H   0  0  0  0  0  0  0  0  0  0  0  0  # atno 10764 bound_to 10752
  153.4387  135.7084  153.6248 H   0  0  0  0  0  0  0  0  0  0  0  0  # atno 10765 bound_to 10752
  140.3778  134.1953  155.7664 H   0  0  0  0  0  0  0  0  0  0  0  0  # atno 11005 bound_to 11000
  145.8099  139.1999  143.1999 LP  0  0  0  0  0  0  0  0  0  0  0  0  # atno 17320 bound_to 7965
  146.0605  140.7976  142.9737 LP  0  0  0  0  0  0  0  0  0  0  0  0  # atno 17321 bound_to 7965
  140.3975  144.2535  150.5895 LP  0  0  0  0  0  0  0  0  0  0  0  0  # atno 17342 bound_to 10162
  140.5088  143.2296  151.8567 LP  0  0  0  0  0  0  0  0  0  0  0  0  # atno 17343 bound_to 10162
  157.5947  130.8469  149.8712 LP  0  0  0  0  0  0  0  0  0  0  0  0  # atno 17370 bound_to 10713
  156.0521  130.3715  150.1177 LP  0  0  0  0  0  0  0  0  0  0  0  0  # atno 17371 bound_to 10713
  141.1933  133.8153  157.0802 LP  0  0  0  0  0  0  0  0  0  0  0  0  # atno 17394 bound_to 11000
  140.0502  134.9809  157.1122 LP  0  0  0  0  0  0  0  0  0  0  0  0  # atno 17395 bound_to 11000

$$$$
