AV-unprocessed.smi:213|AV-procd|sdf|1647|dock4
  -GOLD-   2262020 23D 1   1.00000     0.00000
 Structure written by MMmdl.
 58 61  0  0  0  0  0  0  0  0  1 V2000
  146.7933  134.7975  155.0980 C   0  0  0  0  0  0  0  0  0  0  0  0
  147.8519  134.3378  154.0801 C   0  0  2  0  0  0  0  0  0  0  0  0
  147.3618  133.1488  153.2235 C   0  0  0  0  0  0  0  0  0  0  0  0
  146.1339  133.3848  152.4631 N   0  0  0  0  0  0  0  0  0  0  0  0
  145.7671  132.2070  151.6838 C   0  0  0  0  0  0  0  0  0  0  0  0
  144.4753  132.4293  150.8787 C   0  0  0  0  0  0  0  0  0  0  0  0
  144.6321  133.5622  150.0311 O   0  0  0  0  0  0  0  0  0  0  0  0
  144.9489  134.7476  150.7534 C   0  0  0  0  0  0  0  0  0  0  0  0
  146.2394  134.5325  151.5634 C   0  0  0  0  0  0  0  0  0  0  0  0
  149.1156  134.0145  154.7482 N   0  0  0  0  0  0  0  0  0  0  0  0
  149.6871  132.6714  154.6782 C   0  0  0  0  0  0  0  0  0  0  0  0
  149.8337  134.9879  155.3685 C   0  0  0  0  0  0  0  0  0  0  0  0
  150.8485  134.6128  156.1921 N   0  0  0  0  0  0  0  0  0  0  0  0
  151.5887  135.5306  156.8198 C   0  0  0  0  0  0  0  0  0  0  0  0
  151.4858  136.8593  156.7726 N   0  0  0  0  0  0  0  0  0  0  0  0
  150.4596  137.2465  155.9626 C   0  0  0  0  0  0  0  0  0  0  0  0
  149.5909  136.3874  155.2293 C   0  0  0  0  0  0  0  0  0  0  0  0
  148.6584  137.1522  154.5349 N   0  0  0  0  0  0  0  0  0  0  0  0
  148.9650  138.3854  154.8296 C   0  0  0  0  0  0  0  0  0  0  0  0
  150.0329  138.5330  155.6831 N   0  0  0  0  0  0  0  0  0  0  0  0
  150.5762  139.7847  156.1807 C   0  0  0  0  0  0  0  0  0  0  0  0
  151.7286  139.5680  157.1813 C   0  0  1  0  0  0  0  0  0  0  0  0
  152.8430  138.9770  156.5394 O   0  0  0  0  0  0  0  0  0  0  0  0
  152.1408  140.8644  157.9094 C   0  0  1  0  0  0  0  0  0  0  0  0
  151.0309  141.6174  158.6493 C   0  0  0  0  0  0  0  0  0  0  0  0
  151.8334  142.4070  159.6592 C   0  0  0  0  0  0  0  0  0  0  0  0
  152.9236  141.4079  160.0387 C   0  0  0  0  0  0  0  0  0  0  0  0
  153.1733  140.6378  158.8660 O   0  0  0  0  0  0  0  0  0  0  0  0
  145.8865  135.1333  154.5947 H   0  0  0  0  0  0  0  0  0  0  0  0
  147.1599  135.6315  155.6965 H   0  0  0  0  0  0  0  0  0  0  0  0
  146.5124  133.9960  155.7810 H   0  0  0  0  0  0  0  0  0  0  0  0
  148.0366  135.1630  153.3972 H   0  0  0  0  0  0  0  0  0  0  0  0
  148.1551  132.8489  152.5366 H   0  0  0  0  0  0  0  0  0  0  0  0
  147.2068  132.2959  153.8857 H   0  0  0  0  0  0  0  0  0  0  0  0
  146.5776  131.9475  151.0007 H   0  0  0  0  0  0  0  0  0  0  0  0
  145.6330  131.3514  152.3466 H   0  0  0  0  0  0  0  0  0  0  0  0
  144.2537  131.5543  150.2677 H   0  0  0  0  0  0  0  0  0  0  0  0
  143.6246  132.5793  151.5456 H   0  0  0  0  0  0  0  0  0  0  0  0
  145.0755  135.5708  150.0500 H   0  0  0  0  0  0  0  0  0  0  0  0
  144.1202  135.0134  151.4116 H   0  0  0  0  0  0  0  0  0  0  0  0
  146.4480  135.4419  152.1253 H   0  0  0  0  0  0  0  0  0  0  0  0
  147.0758  134.3897  150.8773 H   0  0  0  0  0  0  0  0  0  0  0  0
  150.1612  132.4007  155.6225 H   0  0  0  0  0  0  0  0  0  0  0  0
  150.4366  132.6183  153.8880 H   0  0  0  0  0  0  0  0  0  0  0  0
  148.9218  131.9251  154.4673 H   0  0  0  0  0  0  0  0  0  0  0  0
  152.3766  135.1451  157.4497 H   0  0  0  0  0  0  0  0  0  0  0  0
  148.4135  139.2262  154.4348 H   0  0  0  0  0  0  0  0  0  0  0  0
  150.9102  140.3825  155.3317 H   0  0  0  0  0  0  0  0  0  0  0  0
  149.7671  140.3420  156.6542 H   0  0  0  0  0  0  0  0  0  0  0  0
  151.3975  138.8555  157.9379 H   0  0  0  0  0  0  0  0  0  0  0  0
  152.9411  138.0935  156.8595 H   0  0  0  0  0  0  0  0  0  0  0  0
  152.5677  141.5468  157.1723 H   0  0  0  0  0  0  0  0  0  0  0  0
  150.4320  142.2473  157.9911 H   0  0  0  0  0  0  0  0  0  0  0  0
  150.3593  140.9368  159.1736 H   0  0  0  0  0  0  0  0  0  0  0  0
  152.2749  143.2848  159.1849 H   0  0  0  0  0  0  0  0  0  0  0  0
  151.2434  142.7394  160.5138 H   0  0  0  0  0  0  0  0  0  0  0  0
  153.8306  141.8950  160.3972 H   0  0  0  0  0  0  0  0  0  0  0  0
  152.5673  140.7375  160.8217 H   0  0  0  0  0  0  0  0  0  0  0  0
  1  2  1  0  0  0  0
  1 29  1  0  0  0  0
  1 30  1  0  0  0  0
  1 31  1  0  0  0  0
  2  3  1  0  0  0  0
  2 10  1  0  0  0  0
  2 32  1  0  0  0  0
  3  4  1  0  0  0  0
  3 33  1  0  0  0  0
  3 34  1  0  0  0  0
  4  9  1  0  0  0  0
  4  5  1  0  0  0  0
  5  6  1  0  0  0  0
  5 35  1  0  0  0  0
  5 36  1  0  0  0  0
  6  7  1  0  0  0  0
  6 37  1  0  0  0  0
  6 38  1  0  0  0  0
  7  8  1  0  0  0  0
  8  9  1  0  0  0  0
  8 39  1  0  0  0  0
  8 40  1  0  0  0  0
  9 41  1  0  0  0  0
  9 42  1  0  0  0  0
 10 11  1  0  0  0  0
 10 12  1  0  0  0  0
 11 43  1  0  0  0  0
 11 44  1  0  0  0  0
 11 45  1  0  0  0  0
 12 17  1  0  0  0  0
 12 13  2  0  0  0  0
 13 14  1  0  0  0  0
 14 15  2  0  0  0  0
 14 46  1  0  0  0  0
 15 16  1  0  0  0  0
 16 20  1  0  0  0  0
 16 17  2  0  0  0  0
 17 18  1  0  0  0  0
 18 19  2  0  0  0  0
 19 20  1  0  0  0  0
 19 47  1  0  0  0  0
 20 21  1  0  0  0  0
 21 22  1  0  0  0  0
 21 48  1  0  0  0  0
 21 49  1  0  0  0  0
 22 23  1  0  0  0  0
 22 24  1  0  0  0  0
 22 50  1  0  0  0  0
 23 51  1  0  0  0  0
 24 28  1  0  0  0  0
 24 25  1  0  0  0  0
 24 52  1  0  0  0  0
 25 26  1  0  0  0  0
 25 53  1  0  0  0  0
 25 54  1  0  0  0  0
 26 27  1  0  0  0  0
 26 55  1  0  0  0  0
 26 56  1  0  0  0  0
 27 28  1  0  0  0  0
 27 57  1  0  0  0  0
 27 58  1  0  0  0  0
M  END
> <s_m_source_file>
AV-unprocessed.smi

> <i_m_source_file_index>
213

> <i_lp_mmshare_version>
43012

> <i_f3d_flags>
0

> <s_epik_input>
W0NIMl0xW0NIMl1PW0NIMl1bQ0gyXU4xW0NIMl1bQ0BASF0oW0NIM10pTihbQ0gzXSljKG5bY0hdbjIpYyhjMjMpbltjSF1uM1tDSDJdW0NASF0oW09IXSlbQ0BASF00W0NIMl1bQ0gyXVtDSDJdTzQ=

> <s_epik_cmdline>
J2VwaWtfcHl0aG9uJywgJy1waCcsICc3LjAnLCAnLXRuJywgJzgnLCAnLW1hJywgJzIwMCcsICctbWV0YWxfYmluZGluZycsICctaW1hZScsICc8aW5maWxlLm1hZT4nLCAnLW9tYWUnLCAnPG91dGZpbGUubWFlPic=

> <r_lp_tautomer_probability>
1

> <r_epik_Ionization_Penalty>
0.423322

> <r_epik_Ionization_Penalty_Charging>
0

> <r_epik_Ionization_Penalty_Neutral>
0.423322

> <r_epik_State_Penalty>
0.569486

> <r_epik_Charging_Adjusted_Penalty>
0.569486

> <i_epik_Tot_Q>
0

> <i_epik_Tot_abs_Q>
0

> <r_epik_Metal_State_Penalty>
0.568671

> <b_epik_Metal_Only>
0

> <s_lp_Force_Field>
OPLS_2005

> <r_lp_Energy>
53.6453

> <b_lp_Chiralities_Consistent>
1

> <s_lp_Variant>
AV-unprocessed.smi:213-15

> <Gold.Version>
5.8.1

> <Gold.Id.Protein>
6NUR|6NUR_protein|mol2

> <Gold.PLP.Fitness>
37.8701

> <Gold.PLP.PLP>
-35.1804

> <Gold.PLP.part.hbond>
-1.8853

> <Gold.PLP.part.metal>
0.0000

> <Gold.PLP.part.buried>
-4.5159

> <Gold.PLP.part.nonpolar>
-31.1193

> <Gold.PLP.part.repulsive>
2.3824

> <Gold.PLP.ligand.clash>
0.0000

> <Gold.PLP.ligand.torsion>
0.2461

> <Gold.PLP.Chemscore.Hbond>
1.0000

> <Gold.PLP.Chemscore.CHOScore>
0.0000

> <Gold.PLP.Chemscore.Metal>
0.0000

> <Gold.Chemscore.Hbonds>
donor molecule, donor type, donor heavy atom, donor atom, acceptor molecule, acceptor atom, score
      P1  H  7997  8008       L1    23  1.00

> <Gold.PLP.Chemscore.Internal.Correction>
0.1821

> <Gold.Rescore>
     Score         DG    S(hbond)    S(metal)    S(lipo)     H(rot)  DE(clash)    DE(int)     intcor
      7.83     -10.81       0.82        0.00      82.10       2.74       0.06       2.92       ----

> <Gold.Chemscore.Fitness>
7.8316

> <Gold.Chemscore.DG>
-10.8095

> <Gold.Chemscore.ZeroCoef>
-5.4800

> <Gold.Chemscore.Hbond>
0.8180

> <Gold.Chemscore.Metal>
0.0000

> <Gold.Chemscore.Lipo>
82.1037

> <Gold.Chemscore.Internal_Hbond>
0.0000

> <Gold.Chemscore.DEClash>
0.0585

> <Gold.Chemscore.DEInternal>
2.9194

> <Gold.Chemscore.Rot>
2.7378

> <Gold.Chemscore.Internal.Correction>
   9.000000E+99

> <Gold.Chemscore.Hbonds>
donor molecule, donor type, donor heavy atom, donor atom, acceptor molecule, acceptor atom, score
      P1  H  7997  8008       L1    23  0.74

> <Gold.Chemscore.Hbond.Weighted>
-2.7320

> <Gold.Chemscore.Metal.Weighted>
-0.0000

> <Gold.Chemscore.Lipo.Weighted>
-9.6061

> <Gold.Chemscore.Internal_Hbond.Weighted>
0.0000

> <Gold.Chemscore.DEClash.Weighted>
0.0585

> <Gold.Chemscore.DEInternal.Weighted>
2.9194

> <Gold.Chemscore.Rot.Weighted>
7.0087

> <Gold.Chemscore.Internal.Correction.Weighted>
   9.000000E+99

> <Gold.Protein.RotatedTorsions>
[ 6907 6896 6895 6894 ] final   72.26 input  -60.11 | X-H torsion
[ 7974 7965 7964 7962 ] final -130.39 input  175.53 | X-H torsion
[ 8008 7997 7996 7995 ] final  -63.14 input   59.86 | X-H torsion
[ 10167 10162 10161 10158 ] final   -6.29 input  -65.29 | X-H torsion
[ 10718 10713 10712 10709 ] final  -81.49 input   66.30 | X-H torsion
[ 10763 10752 10751 10750 ] final -117.66 input  -60.55 | X-H torsion
[ 11005 11000 10999 10996 ] final  115.92 input  -57.11 | X-H torsion

> <Gold.Protein.ActiveResidues>
 VAL166  LYS551  ARG553  GLY616  TRP617  ASP618  TYR619  PRO620  LYS621  CYS622 
 ASP623  PHE694  ASN695  SER759  ASP760  ASP761  ALA762  ILE779  LEU786  VAL792 
 PHE793  MET794  SER795  GLU796  ALA797  LYS798  CYS799  TRP800  GLU811  SER814 

> <Gold.Protein.RotatedAtoms>
  152.4858  134.4598  159.9601 H   0  0  0  0  0  0  0  0  0  0  0  0  # atno 6907 bound_to 6896
  151.4594  133.3590  159.2815 H   0  0  0  0  0  0  0  0  0  0  0  0  # atno 6908 bound_to 6896
  150.8966  134.8400  159.7392 H   0  0  0  0  0  0  0  0  0  0  0  0  # atno 6909 bound_to 6896
  144.9480  140.7313  143.4805 H   0  0  0  0  0  0  0  0  0  0  0  0  # atno 7974 bound_to 7965
  154.4538  140.0981  156.6697 H   0  0  0  0  0  0  0  0  0  0  0  0  # atno 8008 bound_to 7997
  155.5202  140.3478  155.4387 H   0  0  0  0  0  0  0  0  0  0  0  0  # atno 8009 bound_to 7997
  156.0736  140.1355  156.9788 H   0  0  0  0  0  0  0  0  0  0  0  0  # atno 8010 bound_to 7997
  140.6992  143.6211  150.8611 H   0  0  0  0  0  0  0  0  0  0  0  0  # atno 10167 bound_to 10162
  156.0049  130.4605  150.3960 H   0  0  0  0  0  0  0  0  0  0  0  0  # atno 10718 bound_to 10713
  154.8562  135.4301  154.2016 H   0  0  0  0  0  0  0  0  0  0  0  0  # atno 10763 bound_to 10752
  153.3061  135.6972  153.7164 H   0  0  0  0  0  0  0  0  0  0  0  0  # atno 10764 bound_to 10752
  153.6275  135.3491  155.3005 H   0  0  0  0  0  0  0  0  0  0  0  0  # atno 10765 bound_to 10752
  139.9025  134.9591  156.7120 H   0  0  0  0  0  0  0  0  0  0  0  0  # atno 11005 bound_to 11000
  145.2888  139.1891  143.4751 LP  0  0  0  0  0  0  0  0  0  0  0  0  # atno 17320 bound_to 7965
  146.3310  140.2862  142.8613 LP  0  0  0  0  0  0  0  0  0  0  0  0  # atno 17321 bound_to 7965
  139.9932  143.5824  152.2903 LP  0  0  0  0  0  0  0  0  0  0  0  0  # atno 17342 bound_to 10162
  139.6487  144.7659  151.2191 LP  0  0  0  0  0  0  0  0  0  0  0  0  # atno 17343 bound_to 10162
  157.2032  131.0443  151.2639 LP  0  0  0  0  0  0  0  0  0  0  0  0  # atno 17370 bound_to 10713
  157.3957  130.7306  149.6730 LP  0  0  0  0  0  0  0  0  0  0  0  0  # atno 17371 bound_to 10713
  140.7068  133.9258  155.8059 LP  0  0  0  0  0  0  0  0  0  0  0  0  # atno 17394 bound_to 11000
  141.0330  134.0729  157.3992 LP  0  0  0  0  0  0  0  0  0  0  0  0  # atno 17395 bound_to 11000

$$$$
