#       Name:                AV-unprocessed.smi:2200
#       Creating user name   scv26
#       Creation time:       Fri Mar 27 12:14:09 2020


#       File generated by GOLD software.
#

@<TRIPOS>MOLECULE
AV-unprocessed.smi:2200
    37    37     1
SMALL
NO_CHARGES


@<TRIPOS>ATOM
      1 ****        -2.2333  -0.9380  -3.5945 C.3            1 S1                 0.0000
      2 ****        -1.5954  -0.2635  -2.3716 C.3            1 S1                 0.0000
      3 ****        -2.4585   0.9150  -1.8873 C.3            1 S1                 0.0000
      4 ****        -0.1405   0.1557  -2.6757 C.3            1 S1                 0.0000
      5 ****         0.5237   0.7521  -1.5215 N.am           1 S1                 0.0000
      6 ****         1.0177   0.0698  -0.4776 C.2            1 S1                 0.0000
      7 ****         0.9993  -1.1597  -0.4059 O.2            1 S1                 0.0000
      8 ****         1.6397   0.9076   0.6481 C.3            1 S1                 0.0000
      9 ****         1.4714   0.2895   1.9711 N.am           1 S1                 0.0000
     10 ****         2.5152  -0.4130   2.5566 C.2            1 S1                 0.0000
     11 ****         2.4221  -1.0166   3.7653 C.2            1 S1                 0.0000
     12 ****         1.1806  -0.9535   4.5290 C.2            1 S1                 0.0000
     13 ****         0.9993  -1.4659   5.6313 O.2            1 S1                 0.0000
     14 ****         0.1534  -0.2401   3.9056 N.am           1 S1                 0.0000
     15 ****         0.2421   0.3835   2.6600 C.2            1 S1                 0.0000
     16 ****        -0.7272   0.9853   2.1989 O.2            1 S1                 0.0000
     17 ****        -0.7267  -0.1719   4.3956 H              1 S1                 0.0000
     18 ****        -2.2980  -0.2500  -4.4382 H              1 S1                 0.0000
     19 ****        -3.2420  -1.2861  -3.3697 H              1 S1                 0.0000
     20 ****        -1.6519  -1.8035  -3.9137 H              1 S1                 0.0000
     21 ****        -1.5755  -1.0051  -1.5721 H              1 S1                 0.0000
     22 ****        -2.5011   1.7082  -2.6346 H              1 S1                 0.0000
     23 ****        -2.0697   1.3463  -0.9643 H              1 S1                 0.0000
     24 ****        -3.4806   0.5938  -1.6858 H              1 S1                 0.0000
     25 ****         0.4377  -0.7011  -3.0262 H              1 S1                 0.0000
     26 ****        -0.1260   0.8856  -3.4858 H              1 S1                 0.0000
     27 ****         0.5886   1.7597  -1.5034 H              1 S1                 0.0000
     28 ****         2.6981   1.0442   0.4220 H              1 S1                 0.0000
     29 ****         1.2132   1.9131   0.6499 H              1 S1                 0.0000
     30 ****         3.4530  -0.4905   2.0250 H              1 S1                 0.0000
     31 ****         3.2704  -1.5505   4.1689 H              1 S1                 0.0000
     32 ****         0.6022  -1.6980  -1.1492 LP             1 S1                 0.0000
     33 ****         1.3815  -1.6196   0.3957 LP             1 S1                 0.0000
     34 ****         1.7376  -1.9753   6.0734 LP             1 S1                 0.0000
     35 ****         0.1135  -1.3734   6.0861 LP             1 S1                 0.0000
     36 ****        -0.6609   1.4300   1.3057 LP             1 S1                 0.0000
     37 ****        -1.5811   1.0296   2.7174 LP             1 S1                 0.0000
@<TRIPOS>BOND
    1    1    2 1     
    2    1   18 1     
    3    1   19 1     
    4    1   20 1     
    5    2    3 1     
    6    2    4 1     
    7    2   21 1     
    8    3   22 1     
    9    3   23 1     
   10    3   24 1     
   11    4    5 1     
   12    4   25 1     
   13    4   26 1     
   14    5    6 am    
   15    5   27 1     
   16    6    7 2     
   17    6    8 1     
   18    8    9 1     
   19    8   28 1     
   20    8   29 1     
   21    9   15 1     
   22    9   10 1     
   23   10   11 2     
   24   10   30 1     
   25   11   12 1     
   26   11   31 1     
   27   12   13 2     
   28   12   14 1     
   29   14   17 1     
   30   14   15 1     
   31   15   16 2     
   32    7   32 1     
   33    7   33 1     
   34   13   34 1     
   35   13   35 1     
   36   16   36 1     
   37   16   37 1     
@<TRIPOS>SUBSTRUCTURE
      1 S1             1
@<TRIPOS>SET
LONE_PAIRS      STATIC     ATOMS    <user>   **** ""
6 32 33 34 35 36 37
DONOR_HYDROGENS      STATIC     ATOMS    <user>   **** ""
2 27 17
ATOM$BLUE        STATIC     ATOMS    COLORGROUP SYSTEM
6 32 33 34 35 36 37
ATOM$RED        STATIC     ATOMS    COLORGROUP SYSTEM
2 27 17
