AV-unprocessed.smi:3294|AV-procd|sdf|12634|dock8
  -GOLD-   2272018573D 1   1.00000     0.00000
 Structure written by MMmdl.
 38 40  0  0  0  0  0  0  0  0  2 V2000
  146.8646  139.4139  152.6767 C   0  0  0  0  0  0  0  0  0  0  0  0
  148.1363  139.6000  153.4772 C   0  0  0  0  0  0  0  0  0  0  0  0
  148.3936  140.7706  154.2226 C   0  0  0  0  0  0  0  0  0  0  0  0
  149.6067  140.8818  154.9488 C   0  0  0  0  0  0  0  0  0  0  0  0
  149.9497  142.0091  155.7436 N   0  0  0  0  0  0  0  0  0  0  0  0
  150.8756  142.0928  156.7146 C   0  0  0  0  0  0  0  0  0  0  0  0
  151.5756  141.1592  157.1054 O   0  0  0  0  0  0  0  0  0  0  0  0
  150.9288  143.3319  157.2275 N   0  0  0  0  0  0  0  0  0  0  0  0
  151.8021  143.7949  158.3051 C   0  0  0  0  0  0  0  0  0  0  0  0
  151.9680  142.7916  159.4375 C   0  0  0  0  0  0  0  0  0  0  0  0
  153.1365  142.8714  160.3907 C   0  0  0  0  0  0  0  0  0  0  0  0
  153.0470  141.7367  159.3948 C   0  0  0  0  0  0  0  0  0  0  0  0
  151.4329  145.1681  158.8464 C   0  0  0  0  0  0  0  0  0  0  0  0
  151.9195  145.6319  160.1982 C   0  0  0  0  0  0  0  0  0  0  0  0
  150.4540  145.3237  159.9858 C   0  0  0  0  0  0  0  0  0  0  0  0
  150.5110  139.7975  154.9229 C   0  0  0  0  0  0  0  0  0  0  0  0
  150.2018  138.6531  154.1605 C   0  0  0  0  0  0  0  0  0  0  0  0
  149.0417  138.5970  153.4721 N   0  3  0  0  0  0  0  0  0  0  0  0
  146.2684  140.3268  152.6679 H   0  0  0  0  0  0  0  0  0  0  0  0
  146.2595  138.6157  153.1072 H   0  0  0  0  0  0  0  0  0  0  0  0
  147.0982  139.1513  151.6445 H   0  0  0  0  0  0  0  0  0  0  0  0
  147.6535  141.5564  154.2362 H   0  0  0  0  0  0  0  0  0  0  0  0
  149.3851  142.8330  155.5969 H   0  0  0  0  0  0  0  0  0  0  0  0
  150.3059  144.0244  156.8381 H   0  0  0  0  0  0  0  0  0  0  0  0
  152.7805  143.8978  157.8335 H   0  0  0  0  0  0  0  0  0  0  0  0
  151.0269  142.4829  159.8886 H   0  0  0  0  0  0  0  0  0  0  0  0
  153.8912  143.6343  160.2116 H   0  0  0  0  0  0  0  0  0  0  0  0
  152.9465  142.6403  161.4368 H   0  0  0  0  0  0  0  0  0  0  0  0
  152.7974  140.7491  159.7771 H   0  0  0  0  0  0  0  0  0  0  0  0
  153.7389  141.7513  158.5551 H   0  0  0  0  0  0  0  0  0  0  0  0
  151.3733  145.9377  158.0789 H   0  0  0  0  0  0  0  0  0  0  0  0
  152.4977  144.9315  160.7976 H   0  0  0  0  0  0  0  0  0  0  0  0
  152.2060  146.6769  160.2960 H   0  0  0  0  0  0  0  0  0  0  0  0
  149.7634  146.1633  159.9419 H   0  0  0  0  0  0  0  0  0  0  0  0
  150.0615  144.4210  160.4498 H   0  0  0  0  0  0  0  0  0  0  0  0
  151.4384  139.8417  155.4757 H   0  0  0  0  0  0  0  0  0  0  0  0
  150.8416  137.7863  154.0832 H   0  0  0  0  0  0  0  0  0  0  0  0
  148.8370  137.7584  152.9279 H   0  0  0  0  0  0  0  0  0  0  0  0
  1  2  1  0  0  0  0
  1 19  1  0  0  0  0
  1 20  1  0  0  0  0
  1 21  1  0  0  0  0
  2 18  1  0  0  0  0
  2  3  2  0  0  0  0
  3  4  1  0  0  0  0
  3 22  1  0  0  0  0
  4  5  1  0  0  0  0
  4 16  2  0  0  0  0
  5  6  1  0  0  0  0
  5 23  1  0  0  0  0
  6  7  2  0  0  0  0
  6  8  1  0  0  0  0
  8  9  1  0  0  0  0
  8 24  1  0  0  0  0
  9 10  1  0  0  0  0
  9 13  1  0  0  0  0
  9 25  1  0  0  0  0
 10 12  1  0  0  0  0
 10 11  1  0  0  0  0
 10 26  1  0  0  0  0
 11 12  1  0  0  0  0
 11 27  1  0  0  0  0
 11 28  1  0  0  0  0
 12 29  1  0  0  0  0
 12 30  1  0  0  0  0
 13 15  1  0  0  0  0
 13 14  1  0  0  0  0
 13 31  1  0  0  0  0
 14 15  1  0  0  0  0
 14 32  1  0  0  0  0
 14 33  1  0  0  0  0
 15 34  1  0  0  0  0
 15 35  1  0  0  0  0
 16 17  1  0  0  0  0
 16 36  1  0  0  0  0
 17 18  2  0  0  0  0
 17 37  1  0  0  0  0
 18 38  1  0  0  0  0
M  CHG  1  18   1
M  END
> <s_m_source_file>
AV-unprocessed.smi

> <i_m_source_file_index>
3294

> <i_lp_mmshare_version>
43012

> <i_f3d_flags>
0

> <s_epik_input>
W0NIM11jMVtjSF1jKFtjSF1bY0hdbjEpW05IXUMoPU8pW05IXVtDSF0oW0NIXTJbQ0gyXVtDSDJdMilbQ0hdM1tDSDJdW0NIMl0z

> <s_epik_cmdline>
J2VwaWtfcHl0aG9uJywgJy1waCcsICc3LjAnLCAnLXRuJywgJzgnLCAnLW1hJywgJzIwMCcsICctbWV0YWxfYmluZGluZycsICctaW1hZScsICc8aW5maWxlLm1hZT4nLCAnLW9tYWUnLCAnPG91dGZpbGUubWFlPic=

> <r_epik_Ionization_Penalty>
0.432398

> <r_epik_Ionization_Penalty_Charging>
0.432376

> <r_epik_Ionization_Penalty_Neutral>
2.18467e-05

> <r_epik_State_Penalty>
0.433859

> <r_epik_Charging_Adjusted_Penalty>
0.866235

> <i_epik_Tot_Q>
1

> <i_epik_Tot_abs_Q>
1

> <r_epik_Metal_State_Penalty>
0.667026

> <b_epik_Metal_Only>
0

> <s_lp_Force_Field>
OPLS_2005

> <r_lp_Energy>
34.1615

> <b_lp_Chiralities_Consistent>
1

> <s_lp_Variant>
AV-unprocessed.smi:3294-2

> <Gold.Version>
5.8.1

> <Gold.Id.Protein>
6NUR|6NUR_protein|mol2

> <Gold.PLP.Fitness>
58.3741

> <Gold.PLP.PLP>
-46.9136

> <Gold.PLP.part.hbond>
-4.0000

> <Gold.PLP.part.metal>
0.0000

> <Gold.PLP.part.buried>
-1.0066

> <Gold.PLP.part.nonpolar>
-41.7190

> <Gold.PLP.part.repulsive>
0.2340

> <Gold.PLP.ligand.clash>
0.0000

> <Gold.PLP.ligand.torsion>
1.3536

> <Gold.PLP.Chemscore.Hbond>
4.0000

> <Gold.PLP.Chemscore.CHOScore>
0.0000

> <Gold.PLP.Chemscore.Metal>
0.0000

> <Gold.Chemscore.Hbonds>
donor molecule, donor type, donor heavy atom, donor atom, acceptor molecule, acceptor atom, score
      L1  H     5    23       P1  8028  1.00
      L1  H     8    24       P1  8028  1.00
      L1  H    18    38       P1  7948  2.00

> <Gold.PLP.Chemscore.Internal.Correction>
2.1676

> <Gold.Rescore>
     Score         DG    S(hbond)    S(metal)    S(lipo)     H(rot)  DE(clash)    DE(int)     intcor
     19.07     -26.53       2.96        0.00     124.16       1.31       1.05       6.40       ----

> <Gold.Chemscore.Fitness>
19.0745

> <Gold.Chemscore.DG>
-26.5266

> <Gold.Chemscore.ZeroCoef>
-5.4800

> <Gold.Chemscore.Hbond>
2.9570

> <Gold.Chemscore.Metal>
0.0000

> <Gold.Chemscore.Lipo>
124.1590

> <Gold.Chemscore.Internal_Hbond>
0.0000

> <Gold.Chemscore.DEClash>
1.0504

> <Gold.Chemscore.DEInternal>
6.4017

> <Gold.Chemscore.Rot>
1.3111

> <Gold.Chemscore.Internal.Correction>
   9.000000E+99

> <Gold.Chemscore.Hbonds>
donor molecule, donor type, donor heavy atom, donor atom, acceptor molecule, acceptor atom, score
      L1  H     5    23       P1  8028  0.98
      L1  H     8    24       P1  8028  0.97
      L1  H    18    38       P1  7948  1.00

> <Gold.Chemscore.Hbond.Weighted>
-9.8764

> <Gold.Chemscore.Metal.Weighted>
-0.0000

> <Gold.Chemscore.Lipo.Weighted>
-14.5266

> <Gold.Chemscore.Internal_Hbond.Weighted>
0.0000

> <Gold.Chemscore.DEClash.Weighted>
1.0504

> <Gold.Chemscore.DEInternal.Weighted>
6.4017

> <Gold.Chemscore.Rot.Weighted>
3.3564

> <Gold.Chemscore.Internal.Correction.Weighted>
   9.000000E+99

> <Gold.Protein.RotatedTorsions>
[ 6907 6896 6895 6894 ] final  105.16 input  -60.11 | X-H torsion
[ 7974 7965 7964 7962 ] final  -78.72 input  175.53 | X-H torsion
[ 8008 7997 7996 7995 ] final   36.94 input   59.86 | X-H torsion
[ 10167 10162 10161 10158 ] final  125.15 input  -65.29 | X-H torsion
[ 10718 10713 10712 10709 ] final  -87.81 input   66.30 | X-H torsion
[ 10763 10752 10751 10750 ] final   11.70 input  -60.55 | X-H torsion
[ 11005 11000 10999 10996 ] final  -48.57 input  -57.11 | X-H torsion

> <Gold.Protein.ActiveResidues>
 VAL166  LYS551  ARG553  GLY616  TRP617  ASP618  TYR619  PRO620  LYS621  CYS622 
 ASP623  PHE694  ASN695  SER759  ASP760  ASP761  ALA762  ILE779  LEU786  VAL792 
 PHE793  MET794  SER795  GLU796  ALA797  LYS798  CYS799  TRP800  GLU811  SER814 

> <Gold.Protein.RotatedAtoms>
  152.5240  133.9569  159.7698 H   0  0  0  0  0  0  0  0  0  0  0  0  # atno 6907 bound_to 6896
  150.9867  133.6182  159.2721 H   0  0  0  0  0  0  0  0  0  0  0  0  # atno 6908 bound_to 6896
  151.3340  135.0854  159.9401 H   0  0  0  0  0  0  0  0  0  0  0  0  # atno 6909 bound_to 6896
  145.5827  140.9445  143.1335 H   0  0  0  0  0  0  0  0  0  0  0  0  # atno 7974 bound_to 7965
  155.1956  140.3311  155.4351 H   0  0  0  0  0  0  0  0  0  0  0  0  # atno 8008 bound_to 7997
  156.2426  140.1902  156.6996 H   0  0  0  0  0  0  0  0  0  0  0  0  # atno 8009 bound_to 7997
  154.6176  140.0600  156.9560 H   0  0  0  0  0  0  0  0  0  0  0  0  # atno 8010 bound_to 7997
  139.5701  144.6934  151.3801 H   0  0  0  0  0  0  0  0  0  0  0  0  # atno 10167 bound_to 10162
  155.9984  130.4813  150.4923 H   0  0  0  0  0  0  0  0  0  0  0  0  # atno 10718 bound_to 10713
  153.1899  135.6840  153.8366 H   0  0  0  0  0  0  0  0  0  0  0  0  # atno 10763 bound_to 10752
  153.7669  135.3201  155.3347 H   0  0  0  0  0  0  0  0  0  0  0  0  # atno 10764 bound_to 10752
  154.8111  135.4717  154.0617 H   0  0  0  0  0  0  0  0  0  0  0  0  # atno 10765 bound_to 10752
  141.0709  133.6679  156.3461 H   0  0  0  0  0  0  0  0  0  0  0  0  # atno 11005 bound_to 11000
  144.7386  139.7512  143.7319 LP  0  0  0  0  0  0  0  0  0  0  0  0  # atno 17320 bound_to 7965
  146.1704  139.4852  142.9931 LP  0  0  0  0  0  0  0  0  0  0  0  0  # atno 17321 bound_to 7965
  140.6986  143.7688  150.7366 LP  0  0  0  0  0  0  0  0  0  0  0  0  # atno 17342 bound_to 10162
  140.1192  143.4627  152.2323 LP  0  0  0  0  0  0  0  0  0  0  0  0  # atno 17343 bound_to 10162
  157.2917  131.0627  151.2129 LP  0  0  0  0  0  0  0  0  0  0  0  0  # atno 17370 bound_to 10713
  157.3140  130.6904  149.6231 LP  0  0  0  0  0  0  0  0  0  0  0  0  # atno 17371 bound_to 10713
  140.5676  134.5872  157.5449 LP  0  0  0  0  0  0  0  0  0  0  0  0  # atno 17394 bound_to 11000
  139.9522  134.7597  156.0422 LP  0  0  0  0  0  0  0  0  0  0  0  0  # atno 17395 bound_to 11000

$$$$
