#       Name:                AV-unprocessed.smi:105
#       Creating user name   scv26
#       Creation time:       Thu Mar 26 18:00:46 2020


#       File generated by GOLD software.
#

@<TRIPOS>MOLECULE
AV-unprocessed.smi:105
    47    50     1
SMALL
NO_CHARGES


@<TRIPOS>ATOM
      1 ****        -4.5091   3.1511   2.0531 C.ar           1 S1                 0.0000
      2 ****        -5.2170   2.2197   1.2690 C.ar           1 S1                 0.0000
      3 ****        -4.8765   0.8538   1.3176 C.ar           1 S1                 0.0000
      4 ****        -3.8248   0.4137   2.1483 C.ar           1 S1                 0.0000
      5 ****        -3.4666  -1.0632   2.2010 C.3            1 S1                 0.0000
      6 ****        -2.0390  -1.3555   2.1219 N.pl3          1 S1                 0.0000
      7 ****        -1.3457  -1.0965   0.9913 C.ar           1 S1                 0.0000
      8 ****        -1.9844  -0.8049  -0.1723 N.ar           1 S1                 0.0000
      9 ****        -1.2777  -0.5629  -1.2807 C.ar           1 S1                 0.0000
     10 ****         0.0473  -0.5649  -1.4433 N.ar           1 S1                 0.0000
     11 ****         0.6910  -0.8582  -0.2764 C.ar           1 S1                 0.0000
     12 ****         0.0726  -1.1355   0.9752 C.ar           1 S1                 0.0000
     13 ****         1.0381  -1.3949   1.9388 N.2            1 S1                 0.0000
     14 ****         2.1666  -1.2818   1.2924 C.2            1 S1                 0.0000
     15 ****         2.0535  -0.9572  -0.0416 N.pl3          1 S1                 0.0000
     16 ****         3.1489  -0.7881  -0.9822 C.3            1 S1                 0.0000
     17 ****         3.2350   0.6528  -1.5269 C.3            1 S1                 0.0000
     18 ****         4.4079   0.7262  -2.5119 C.3            1 S1                 0.0000
     19 ****         4.2149  -0.3239  -3.6108 C.3            1 S1                 0.0000
     20 ****         4.0160  -1.7109  -2.9773 C.3            1 S1                 0.0000
     21 ****         2.9373  -1.6690  -2.0467 O.3            1 S1                 0.0000
     22 ****        -3.1201   1.3501   2.9355 C.ar           1 S1                 0.0000
     23 ****        -3.4608   2.7158   2.8867 C.ar           1 S1                 0.0000
     24 ****        -4.7704   4.1983   2.0160 H              1 S1                 0.0000
     25 ****        -6.0215   2.5530   0.6302 H              1 S1                 0.0000
     26 ****        -5.4237   0.1457   0.7125 H              1 S1                 0.0000
     27 ****        -3.8405  -1.4670   3.1419 H              1 S1                 0.0000
     28 ****        -3.9903  -1.6019   1.4101 H              1 S1                 0.0000
     29 ****        -1.5910  -1.5954   2.9946 H              1 S1                 0.0000
     30 ****        -1.8570  -0.3373  -2.1638 H              1 S1                 0.0000
     31 ****         3.1200  -1.4342   1.7775 H              1 S1                 0.0000
     32 ****         4.0709  -1.0686  -0.4691 H              1 S1                 0.0000
     33 ****         2.3001   0.9164  -2.0221 H              1 S1                 0.0000
     34 ****         3.3800   1.3435  -0.6958 H              1 S1                 0.0000
     35 ****         4.4723   1.7230  -2.9489 H              1 S1                 0.0000
     36 ****         5.3483   0.5510  -1.9879 H              1 S1                 0.0000
     37 ****         3.3432  -0.0693  -4.2147 H              1 S1                 0.0000
     38 ****         5.0728  -0.3335  -4.2837 H              1 S1                 0.0000
     39 ****         3.7884  -2.4467  -3.7487 H              1 S1                 0.0000
     40 ****         4.9270  -2.0452  -2.4784 H              1 S1                 0.0000
     41 ****        -2.3157   1.0244   3.5788 H              1 S1                 0.0000
     42 ****        -2.9185   3.4292   3.4895 H              1 S1                 0.0000
     43 ****        -2.9835  -0.7714  -0.1992 LP             1 S1                 0.0000
     44 ****         0.5092  -0.3756  -2.3097 LP             1 S1                 0.0000
     45 ****         0.9008  -1.6169   2.9042 LP             1 S1                 0.0000
     46 ****         2.1113  -1.3841  -2.5331 LP             1 S1                 0.0000
     47 ****         2.8049  -2.5879  -1.6749 LP             1 S1                 0.0000
@<TRIPOS>BOND
    1    1   23 ar    
    2    1    2 ar    
    3    1   24 1     
    4    2    3 ar    
    5    2   25 1     
    6    3    4 ar    
    7    3   26 1     
    8    4    5 1     
    9    4   22 ar    
   10    5    6 1     
   11    5   27 1     
   12    5   28 1     
   13    6    7 1     
   14    6   29 1     
   15    7   12 ar    
   16    7    8 ar    
   17    8    9 ar    
   18    9   10 ar    
   19    9   30 1     
   20   10   11 ar    
   21   11   15 1     
   22   11   12 ar    
   23   12   13 1     
   24   13   14 2     
   25   14   15 1     
   26   14   31 1     
   27   15   16 1     
   28   16   21 1     
   29   16   17 1     
   30   16   32 1     
   31   17   18 1     
   32   17   33 1     
   33   17   34 1     
   34   18   19 1     
   35   18   35 1     
   36   18   36 1     
   37   19   20 1     
   38   19   37 1     
   39   19   38 1     
   40   20   21 1     
   41   20   39 1     
   42   20   40 1     
   43   22   23 ar    
   44   22   41 1     
   45   23   42 1     
   46    8   43 1     
   47   10   44 1     
   48   13   45 1     
   49   21   46 1     
   50   21   47 1     
@<TRIPOS>SUBSTRUCTURE
      1 S1             1
@<TRIPOS>SET
LONE_PAIRS      STATIC     ATOMS    <user>   **** ""
5 43 44 45 46 47
DONOR_HYDROGENS      STATIC     ATOMS    <user>   **** ""
1 29
ATOM$BLUE        STATIC     ATOMS    COLORGROUP SYSTEM
5 43 44 45 46 47
ATOM$RED        STATIC     ATOMS    COLORGROUP SYSTEM
1 29
