AV-unprocessed.smi:2819|AV-procd|sdf|10850|dock3
  -GOLD-   2272015293D 1   1.00000     0.00000
 Structure written by MMmdl.
 50 51  0  0  0  0  0  0  0  0  2 V2000
  144.9879  130.9676  151.3609 C   0  0  0  0  0  0  0  0  0  0  0  0
  145.7592  132.1072  151.8486 N   0  0  0  0  0  0  0  0  0  0  0  0
  146.8412  131.8997  152.8028 C   0  0  0  0  0  0  0  0  0  0  0  0
  145.3772  133.4188  151.4886 C   0  0  0  0  0  0  0  0  0  0  0  0
  144.4120  133.6748  150.4915 C   0  0  0  0  0  0  0  0  0  0  0  0
  144.1138  135.0205  150.2134 C   0  0  0  0  0  0  0  0  0  0  0  0
  144.7378  136.0166  150.8866 N   0  3  0  0  0  0  0  0  0  0  0  0
  145.6459  135.7210  151.8297 C   0  0  0  0  0  0  0  0  0  0  0  0
  146.2388  136.7864  152.4724 N   0  0  0  0  0  0  0  0  0  0  0  0
  145.7277  137.6676  153.3536 C   0  0  0  0  0  0  0  0  0  0  0  0
  144.5631  137.6793  153.7551 O   0  0  0  0  0  0  0  0  0  0  0  0
  146.6538  138.5555  153.7442 N   0  0  0  0  0  0  0  0  0  0  0  0
  146.4374  139.6630  154.6757 C   0  0  0  0  0  0  0  0  0  0  0  0
  147.4801  140.8083  154.5098 C   0  0  0  0  0  0  0  0  0  0  0  0
  147.5019  141.1738  153.0036 C   0  0  0  0  0  0  0  0  0  0  0  0
  146.9270  142.0401  155.2670 C   0  0  0  0  0  0  0  0  0  0  0  0
  148.8324  140.3938  154.9797 N   0  0  0  0  0  0  0  0  0  0  0  0
  149.5057  139.4050  154.1290 C   0  0  0  0  0  0  0  0  0  0  0  0
  150.8410  138.9349  154.7310 C   0  0  0  0  0  0  0  0  0  0  0  0
  151.6857  140.0559  154.9602 O   0  0  0  0  0  0  0  0  0  0  0  0
  151.0937  141.0125  155.8301 C   0  0  0  0  0  0  0  0  0  0  0  0
  149.7627  141.5006  155.2342 C   0  0  0  0  0  0  0  0  0  0  0  0
  145.9665  134.4527  152.1311 N   0  0  0  0  0  0  0  0  0  0  0  0
  144.9719  130.9525  150.2706 H   0  0  0  0  0  0  0  0  0  0  0  0
  143.9600  131.0180  151.7214 H   0  0  0  0  0  0  0  0  0  0  0  0
  145.4155  130.0236  151.6990 H   0  0  0  0  0  0  0  0  0  0  0  0
  146.6202  132.3970  153.7477 H   0  0  0  0  0  0  0  0  0  0  0  0
  147.7796  132.2935  152.4112 H   0  0  0  0  0  0  0  0  0  0  0  0
  146.9874  130.8396  153.0119 H   0  0  0  0  0  0  0  0  0  0  0  0
  143.9088  132.8873  149.9505 H   0  0  0  0  0  0  0  0  0  0  0  0
  143.3938  135.3339  149.4715 H   0  0  0  0  0  0  0  0  0  0  0  0
  147.2108  136.9282  152.2420 H   0  0  0  0  0  0  0  0  0  0  0  0
  147.5824  138.4770  153.3556 H   0  0  0  0  0  0  0  0  0  0  0  0
  145.4241  140.0563  154.5745 H   0  0  0  0  0  0  0  0  0  0  0  0
  146.4661  139.2551  155.6858 H   0  0  0  0  0  0  0  0  0  0  0  0
  146.4935  141.2968  152.6068 H   0  0  0  0  0  0  0  0  0  0  0  0
  147.9944  140.4044  152.4082 H   0  0  0  0  0  0  0  0  0  0  0  0
  148.0182  142.1151  152.8148 H   0  0  0  0  0  0  0  0  0  0  0  0
  145.9432  142.3216  154.8891 H   0  0  0  0  0  0  0  0  0  0  0  0
  147.5666  142.9152  155.1552 H   0  0  0  0  0  0  0  0  0  0  0  0
  146.8095  141.8498  156.3337 H   0  0  0  0  0  0  0  0  0  0  0  0
  148.8812  138.5251  153.9847 H   0  0  0  0  0  0  0  0  0  0  0  0
  149.6958  139.8242  153.1409 H   0  0  0  0  0  0  0  0  0  0  0  0
  150.6753  138.3972  155.6657 H   0  0  0  0  0  0  0  0  0  0  0  0
  151.3415  138.2461  154.0502 H   0  0  0  0  0  0  0  0  0  0  0  0
  150.9369  140.5722  156.8160 H   0  0  0  0  0  0  0  0  0  0  0  0
  151.7801  141.8495  155.9586 H   0  0  0  0  0  0  0  0  0  0  0  0
  149.9701  142.0391  154.3094 H   0  0  0  0  0  0  0  0  0  0  0  0
  149.3332  142.2195  155.9291 H   0  0  0  0  0  0  0  0  0  0  0  0
  144.5064  136.9859  150.6675 H   0  0  0  0  0  0  0  0  0  0  0  0
  1  2  1  0  0  0  0
  1 24  1  0  0  0  0
  1 25  1  0  0  0  0
  1 26  1  0  0  0  0
  2  3  1  0  0  0  0
  2  4  1  0  0  0  0
  3 27  1  0  0  0  0
  3 28  1  0  0  0  0
  3 29  1  0  0  0  0
  4 23  1  0  0  0  0
  4  5  2  0  0  0  0
  5  6  1  0  0  0  0
  5 30  1  0  0  0  0
  6  7  2  0  0  0  0
  6 31  1  0  0  0  0
  7  8  1  0  0  0  0
  7 50  1  0  0  0  0
  8  9  1  0  0  0  0
  8 23  2  0  0  0  0
  9 10  1  0  0  0  0
  9 32  1  0  0  0  0
 10 11  2  0  0  0  0
 10 12  1  0  0  0  0
 12 13  1  0  0  0  0
 12 33  1  0  0  0  0
 13 14  1  0  0  0  0
 13 34  1  0  0  0  0
 13 35  1  0  0  0  0
 14 15  1  0  0  0  0
 14 16  1  0  0  0  0
 14 17  1  0  0  0  0
 15 36  1  0  0  0  0
 15 37  1  0  0  0  0
 15 38  1  0  0  0  0
 16 39  1  0  0  0  0
 16 40  1  0  0  0  0
 16 41  1  0  0  0  0
 17 22  1  0  0  0  0
 17 18  1  0  0  0  0
 18 19  1  0  0  0  0
 18 42  1  0  0  0  0
 18 43  1  0  0  0  0
 19 20  1  0  0  0  0
 19 44  1  0  0  0  0
 19 45  1  0  0  0  0
 20 21  1  0  0  0  0
 21 22  1  0  0  0  0
 21 46  1  0  0  0  0
 21 47  1  0  0  0  0
 22 48  1  0  0  0  0
 22 49  1  0  0  0  0
M  CHG  1   7   1
M  END
> <s_m_source_file>
AV-unprocessed.smi

> <i_m_source_file_index>
2819

> <i_lp_mmshare_version>
43012

> <i_f3d_flags>
0

> <s_epik_input>
W0NIM11OKFtDSDNdKWMxW2NIXVtjSF1uYyhuMSlbTkhdQyg9TylbTkhdW0NIMl1DKFtDSDNdKShbQ0gzXSlOMltDSDJdW0NIMl1PW0NIMl1bQ0gyXTI=

> <s_epik_cmdline>
J2VwaWtfcHl0aG9uJywgJy1waCcsICc3LjAnLCAnLXRuJywgJzgnLCAnLW1hJywgJzIwMCcsICctbWV0YWxfYmluZGluZycsICctaW1hZScsICc8aW5maWxlLm1hZT4nLCAnLW9tYWUnLCAnPG91dGZpbGUubWFlPic=

> <r_lp_tautomer_probability>
0.999336

> <r_epik_Ionization_Penalty>
0.36245

> <r_epik_Ionization_Penalty_Charging>
0.09642

> <r_epik_Ionization_Penalty_Neutral>
0.26603

> <r_epik_State_Penalty>
0.34182

> <r_epik_Charging_Adjusted_Penalty>
0.43824

> <i_epik_Tot_Q>
1

> <i_epik_Tot_abs_Q>
1

> <r_epik_Metal_State_Penalty>
0.680072

> <b_epik_Metal_Only>
0

> <s_lp_Force_Field>
OPLS_2005

> <r_lp_Energy>
46.6514

> <b_lp_Chiralities_Consistent>
1

> <s_lp_Variant>
AV-unprocessed.smi:2819-1

> <Gold.Version>
5.8.1

> <Gold.Id.Protein>
6NUR|6NUR_protein|mol2

> <Gold.PLP.Fitness>
42.5225

> <Gold.PLP.PLP>
-35.8939

> <Gold.PLP.part.hbond>
-3.0000

> <Gold.PLP.part.metal>
0.0000

> <Gold.PLP.part.buried>
-5.1965

> <Gold.PLP.part.nonpolar>
-28.9513

> <Gold.PLP.part.repulsive>
0.4339

> <Gold.PLP.ligand.clash>
0.0000

> <Gold.PLP.ligand.torsion>
1.2771

> <Gold.PLP.Chemscore.Hbond>
3.0000

> <Gold.PLP.Chemscore.CHOScore>
0.0000

> <Gold.PLP.Chemscore.Metal>
0.0000

> <Gold.Chemscore.Hbonds>
donor molecule, donor type, donor heavy atom, donor atom, acceptor molecule, acceptor atom, score
      L1  H     7    50       P1 10171  1.00
      L1  H     9    32       P1  7948  1.00
      P1  H  7989  7998       L1    20  1.00

> <Gold.PLP.Chemscore.Internal.Correction>
0.1827

> <Gold.Rescore>
     Score         DG    S(hbond)    S(metal)    S(lipo)     H(rot)  DE(clash)    DE(int)     intcor
     14.39     -17.50       1.99        0.00      79.47       1.53       0.88       2.23       ----

> <Gold.Chemscore.Fitness>
14.3928

> <Gold.Chemscore.DG>
-17.5050

> <Gold.Chemscore.ZeroCoef>
-5.4800

> <Gold.Chemscore.Hbond>
1.9877

> <Gold.Chemscore.Metal>
0.0000

> <Gold.Chemscore.Lipo>
79.4715

> <Gold.Chemscore.Internal_Hbond>
0.0000

> <Gold.Chemscore.DEClash>
0.8816

> <Gold.Chemscore.DEInternal>
2.2305

> <Gold.Chemscore.Rot>
1.5282

> <Gold.Chemscore.Internal.Correction>
   9.000000E+99

> <Gold.Chemscore.Hbonds>
donor molecule, donor type, donor heavy atom, donor atom, acceptor molecule, acceptor atom, score
      L1  H     7    50       P1 10171  1.00
      L1  H     9    32       P1  7948  0.95
      P1  H  7989  7998       L1    20  0.15

> <Gold.Chemscore.Hbond.Weighted>
-6.6389

> <Gold.Chemscore.Metal.Weighted>
-0.0000

> <Gold.Chemscore.Lipo.Weighted>
-9.2982

> <Gold.Chemscore.Internal_Hbond.Weighted>
0.0000

> <Gold.Chemscore.DEClash.Weighted>
0.8816

> <Gold.Chemscore.DEInternal.Weighted>
2.2305

> <Gold.Chemscore.Rot.Weighted>
3.9121

> <Gold.Chemscore.Internal.Correction.Weighted>
   9.000000E+99

> <Gold.Protein.RotatedTorsions>
[ 6907 6896 6895 6894 ] final   54.69 input  -60.11 | X-H torsion
[ 7974 7965 7964 7962 ] final  153.30 input  175.53 | X-H torsion
[ 8008 7997 7996 7995 ] final -172.69 input   59.86 | X-H torsion
[ 10167 10162 10161 10158 ] final   16.34 input  -65.29 | X-H torsion
[ 10718 10713 10712 10709 ] final  -20.42 input   66.30 | X-H torsion
[ 10763 10752 10751 10750 ] final    4.12 input  -60.55 | X-H torsion
[ 11005 11000 10999 10996 ] final   -9.82 input  -57.11 | X-H torsion

> <Gold.Protein.ActiveResidues>
 VAL166  LYS551  ARG553  GLY616  TRP617  ASP618  TYR619  PRO620  LYS621  CYS622 
 ASP623  PHE694  ASN695  SER759  ASP760  ASP761  ALA762  ILE779  LEU786  VAL792 
 PHE793  MET794  SER795  GLU796  ALA797  LYS798  CYS799  TRP800  GLU811  SER814 

> <Gold.Protein.RotatedAtoms>
  152.3464  134.7065  160.0248 H   0  0  0  0  0  0  0  0  0  0  0  0  # atno 6907 bound_to 6896
  151.7433  133.3318  159.3380 H   0  0  0  0  0  0  0  0  0  0  0  0  # atno 6908 bound_to 6896
  150.7512  134.6191  159.6171 H   0  0  0  0  0  0  0  0  0  0  0  0  # atno 6909 bound_to 6896
  144.8164  139.6782  143.6119 H   0  0  0  0  0  0  0  0  0  0  0  0  # atno 7974 bound_to 7965
  155.9478  140.1120  157.1002 H   0  0  0  0  0  0  0  0  0  0  0  0  # atno 8008 bound_to 7997
  154.4103  140.1206  156.5078 H   0  0  0  0  0  0  0  0  0  0  0  0  # atno 8009 bound_to 7997
  155.6881  140.3473  155.4884 H   0  0  0  0  0  0  0  0  0  0  0  0  # atno 8010 bound_to 7997
  140.5804  143.8992  150.6785 H   0  0  0  0  0  0  0  0  0  0  0  0  # atno 10167 bound_to 10162
  156.5321  130.4657  149.6542 H   0  0  0  0  0  0  0  0  0  0  0  0  # atno 10718 bound_to 10713
  153.2751  135.6935  153.7441 H   0  0  0  0  0  0  0  0  0  0  0  0  # atno 10763 bound_to 10752
  153.6450  135.3387  155.3083 H   0  0  0  0  0  0  0  0  0  0  0  0  # atno 10764 bound_to 10752
  154.8477  135.4440  154.1786 H   0  0  0  0  0  0  0  0  0  0  0  0  # atno 10765 bound_to 10752
  140.7382  133.8692  155.8947 H   0  0  0  0  0  0  0  0  0  0  0  0  # atno 11005 bound_to 11000
  146.2467  139.6113  142.9455 LP  0  0  0  0  0  0  0  0  0  0  0  0  # atno 17320 bound_to 7965
  145.5205  141.0432  143.2438 LP  0  0  0  0  0  0  0  0  0  0  0  0  # atno 17321 bound_to 7965
  140.2490  143.3607  152.1422 LP  0  0  0  0  0  0  0  0  0  0  0  0  # atno 17342 bound_to 10162
  139.5166  144.6980  151.5574 LP  0  0  0  0  0  0  0  0  0  0  0  0  # atno 17343 bound_to 10162
  156.3050  130.7198  151.2078 LP  0  0  0  0  0  0  0  0  0  0  0  0  # atno 17370 bound_to 10713
  157.7420  131.0496  150.5057 LP  0  0  0  0  0  0  0  0  0  0  0  0  # atno 17371 bound_to 10713
  140.9860  134.1342  157.4451 LP  0  0  0  0  0  0  0  0  0  0  0  0  # atno 17394 bound_to 11000
  139.8811  135.0025  156.6134 LP  0  0  0  0  0  0  0  0  0  0  0  0  # atno 17395 bound_to 11000

$$$$
