AV-unprocessed.smi:227|AV-procd|sdf|1733|dock6
  -GOLD-   2262020223D 1   1.00000     0.00000
 Structure written by MMmdl.
 54 58  0  0  0  0  0  0  0  0  1 V2000
  151.2416  132.1552  157.5511 O   0  0  0  0  0  0  0  0  0  0  0  0
  151.2636  132.4190  156.1626 C   0  0  0  0  0  0  0  0  0  0  0  0
  151.4033  131.1201  155.3350 C   0  0  2  0  0  0  0  0  0  0  0  0
  150.1885  130.1983  155.6161 C   0  0  0  0  0  0  0  0  0  0  0  0
  149.0487  130.4299  154.7459 N   0  0  0  0  0  0  0  0  0  0  0  0
  148.1184  129.4985  154.3457 C   0  0  0  0  0  0  0  0  0  0  0  0
  147.1858  129.9509  153.5539 N   0  0  0  0  0  0  0  0  0  0  0  0
  147.5076  131.2912  153.3715 C   0  0  0  0  0  0  0  0  0  0  0  0
  146.9263  132.3663  152.6386 C   0  0  0  0  0  0  0  0  0  0  0  0
  145.8004  132.2432  151.8834 N   0  0  0  0  0  0  0  0  0  0  0  0
  144.5844  132.9727  152.2203 C   0  0  1  0  0  0  0  0  0  0  0  0
  144.8857  134.4265  151.7987 C   0  0  0  0  0  0  0  0  0  0  0  0
  145.7917  134.2012  150.5795 C   0  0  0  0  0  0  0  0  0  0  0  0
  145.8031  132.6591  150.4888 C   0  0  2  0  0  0  0  0  0  0  0  0
  144.4431  132.1016  150.0073 C   0  0  2  0  0  0  0  0  0  0  0  0
  143.8864  132.6430  148.6772 C   0  0  0  0  0  0  0  0  0  0  0  0
  142.5695  132.1772  148.4730 O   0  0  0  0  0  0  0  0  0  0  0  0
  143.5595  132.3794  151.2375 C   0  0  0  0  0  0  0  0  0  0  0  0
  147.5282  133.5819  152.7363 N   0  0  0  0  0  0  0  0  0  0  0  0
  148.6338  133.7353  153.4697 C   0  0  0  0  0  0  0  0  0  0  0  0
  149.2906  132.8237  154.1878 N   0  0  0  0  0  0  0  0  0  0  0  0
  148.6821  131.6059  154.1144 C   0  0  0  0  0  0  0  0  0  0  0  0
  152.7855  130.4331  155.5387 C   0  0  2  0  0  0  0  0  0  0  0  0
  153.0458  129.2470  154.6229 C   0  0  0  0  0  0  0  0  0  0  0  0
  154.1847  128.5347  155.3367 C   0  0  0  0  0  0  0  0  0  0  0  0
  153.8652  128.6560  156.7138 O   0  0  0  0  0  0  0  0  0  0  0  0
  153.0193  129.7853  156.9136 C   0  0  0  0  0  0  0  0  0  0  0  0
  150.3644  131.9031  157.7963 H   0  0  0  0  0  0  0  0  0  0  0  0
  150.3464  132.9442  155.8945 H   0  0  0  0  0  0  0  0  0  0  0  0
  152.0788  133.1104  155.9497 H   0  0  0  0  0  0  0  0  0  0  0  0
  151.3449  131.4285  154.2904 H   0  0  0  0  0  0  0  0  0  0  0  0
  150.4840  129.1514  155.5407 H   0  0  0  0  0  0  0  0  0  0  0  0
  149.8405  130.3424  156.6396 H   0  0  0  0  0  0  0  0  0  0  0  0
  148.1475  128.4685  154.6702 H   0  0  0  0  0  0  0  0  0  0  0  0
  144.2659  132.8795  153.2592 H   0  0  0  0  0  0  0  0  0  0  0  0
  143.9837  134.9898  151.5576 H   0  0  0  0  0  0  0  0  0  0  0  0
  145.4203  134.9667  152.5807 H   0  0  0  0  0  0  0  0  0  0  0  0
  145.4357  134.6968  149.6778 H   0  0  0  0  0  0  0  0  0  0  0  0
  146.7953  134.5782  150.7808 H   0  0  0  0  0  0  0  0  0  0  0  0
  146.6290  132.2771  149.8915 H   0  0  0  0  0  0  0  0  0  0  0  0
  144.5462  131.0193  149.9072 H   0  0  0  0  0  0  0  0  0  0  0  0
  143.8647  133.7326  148.7028 H   0  0  0  0  0  0  0  0  0  0  0  0
  144.5101  132.3663  147.8280 H   0  0  0  0  0  0  0  0  0  0  0  0
  141.9662  132.8509  148.7469 H   0  0  0  0  0  0  0  0  0  0  0  0
  143.1391  131.4496  151.6228 H   0  0  0  0  0  0  0  0  0  0  0  0
  142.7337  133.0625  151.0346 H   0  0  0  0  0  0  0  0  0  0  0  0
  149.0498  134.7319  153.4843 H   0  0  0  0  0  0  0  0  0  0  0  0
  153.5773  131.1647  155.3687 H   0  0  0  0  0  0  0  0  0  0  0  0
  152.1704  128.5974  154.5760 H   0  0  0  0  0  0  0  0  0  0  0  0
  153.3132  129.5378  153.6064 H   0  0  0  0  0  0  0  0  0  0  0  0
  154.2855  127.4913  155.0372 H   0  0  0  0  0  0  0  0  0  0  0  0
  155.1322  129.0403  155.1454 H   0  0  0  0  0  0  0  0  0  0  0  0
  153.4833  130.4772  157.6157 H   0  0  0  0  0  0  0  0  0  0  0  0
  152.0858  129.4315  157.3522 H   0  0  0  0  0  0  0  0  0  0  0  0
  1  2  1  0  0  0  0
  1 28  1  0  0  0  0
  2  3  1  0  0  0  0
  2 29  1  0  0  0  0
  2 30  1  0  0  0  0
  3  4  1  0  0  0  0
  3 23  1  0  0  0  0
  3 31  1  0  0  0  0
  4  5  1  0  0  0  0
  4 32  1  0  0  0  0
  4 33  1  0  0  0  0
  5 22  1  0  0  0  0
  5  6  1  0  0  0  0
  6  7  2  0  0  0  0
  6 34  1  0  0  0  0
  7  8  1  0  0  0  0
  8 22  2  0  0  0  0
  8  9  1  0  0  0  0
  9 10  1  0  0  0  0
  9 19  2  0  0  0  0
 10 14  1  0  0  0  0
 10 11  1  0  0  0  0
 11 18  1  0  0  0  0
 11 12  1  0  0  0  0
 11 35  1  0  0  0  0
 12 13  1  0  0  0  0
 12 36  1  0  0  0  0
 12 37  1  0  0  0  0
 13 14  1  0  0  0  0
 13 38  1  0  0  0  0
 13 39  1  0  0  0  0
 14 15  1  0  0  0  0
 14 40  1  0  0  0  0
 15 16  1  0  0  0  0
 15 18  1  0  0  0  0
 15 41  1  0  0  0  0
 16 17  1  0  0  0  0
 16 42  1  0  0  0  0
 16 43  1  0  0  0  0
 17 44  1  0  0  0  0
 18 45  1  0  0  0  0
 18 46  1  0  0  0  0
 19 20  1  0  0  0  0
 20 21  2  0  0  0  0
 20 47  1  0  0  0  0
 21 22  1  0  0  0  0
 23 27  1  0  0  0  0
 23 24  1  0  0  0  0
 23 48  1  0  0  0  0
 24 25  1  0  0  0  0
 24 49  1  0  0  0  0
 24 50  1  0  0  0  0
 25 26  1  0  0  0  0
 25 51  1  0  0  0  0
 25 52  1  0  0  0  0
 26 27  1  0  0  0  0
 27 53  1  0  0  0  0
 27 54  1  0  0  0  0
M  END
> <s_m_source_file>
AV-unprocessed.smi

> <i_m_source_file_index>
227

> <i_lp_mmshare_version>
43012

> <i_f3d_flags>
0

> <s_epik_input>
W0NIMl0xT1tDSDJdW0NIMl1bQ0BIXTFbQ0BIXShbQ0gyXVtPSF0pW0NIMl1uKFtjSF1uMiljKGMyMyluW2NIXW5jM04oW0NASF00NSlbQ0BASF0oW0NIMl1bQ0gyXTQpW0NASF0oW0NIMl01KVtDSDJdW09IXQ==

> <s_epik_cmdline>
J2VwaWtfcHl0aG9uJywgJy1waCcsICc3LjAnLCAnLXRuJywgJzgnLCAnLW1hJywgJzIwMCcsICctbWV0YWxfYmluZGluZycsICctaW1hZScsICc8aW5maWxlLm1hZT4nLCAnLW9tYWUnLCAnPG91dGZpbGUubWFlPic=

> <r_lp_tautomer_probability>
1

> <r_epik_Ionization_Penalty>
0.0055791

> <r_epik_Ionization_Penalty_Charging>
0

> <r_epik_Ionization_Penalty_Neutral>
0.0055791

> <r_epik_State_Penalty>
0.00401299

> <r_epik_Charging_Adjusted_Penalty>
0.00401299

> <i_epik_Tot_Q>
0

> <i_epik_Tot_abs_Q>
0

> <r_epik_Metal_State_Penalty>
-0

> <b_epik_Metal_Only>
0

> <s_lp_Force_Field>
OPLS_2005

> <r_lp_Energy>
89.6515

> <b_lp_Chiralities_Consistent>
1

> <s_lp_Variant>
AV-unprocessed.smi:227-7

> <Gold.Version>
5.8.1

> <Gold.Id.Protein>
6NUR|6NUR_protein|mol2

> <Gold.PLP.Fitness>
51.9689

> <Gold.PLP.PLP>
-44.0265

> <Gold.PLP.part.hbond>
-4.8843

> <Gold.PLP.part.metal>
0.0000

> <Gold.PLP.part.buried>
-4.1309

> <Gold.PLP.part.nonpolar>
-36.2498

> <Gold.PLP.part.repulsive>
0.6439

> <Gold.PLP.ligand.clash>
0.0000

> <Gold.PLP.ligand.torsion>
0.9207

> <Gold.PLP.Chemscore.Hbond>
2.3309

> <Gold.PLP.Chemscore.CHOScore>
0.8931

> <Gold.PLP.Chemscore.Metal>
0.0000

> <Gold.Chemscore.Hbonds>
donor molecule, donor type, donor heavy atom, donor atom, acceptor molecule, acceptor atom, score
      L1  H    17    44       P1 10186  1.00
      P1  H  6896  6908       L1     1  0.61
      P1  H 10785 10796       L1    17  0.41
      L1  C    20    47       P1  7948  0.80

> <Gold.PLP.Chemscore.Internal.Correction>
0.1118

> <Gold.Rescore>
     Score         DG    S(hbond)    S(metal)    S(lipo)     H(rot)  DE(clash)    DE(int)     intcor
      7.65     -13.88       1.95        0.00      95.18       3.61       0.11       6.12       ----

> <Gold.Chemscore.Fitness>
7.6479

> <Gold.Chemscore.DG>
-13.8799

> <Gold.Chemscore.ZeroCoef>
-5.4800

> <Gold.Chemscore.Hbond>
1.9456

> <Gold.Chemscore.Metal>
0.0000

> <Gold.Chemscore.Lipo>
95.1771

> <Gold.Chemscore.Internal_Hbond>
0.0000

> <Gold.Chemscore.DEClash>
0.1124

> <Gold.Chemscore.DEInternal>
6.1197

> <Gold.Chemscore.Rot>
3.6071

> <Gold.Chemscore.Internal.Correction>
   9.000000E+99

> <Gold.Chemscore.Hbonds>
donor molecule, donor type, donor heavy atom, donor atom, acceptor molecule, acceptor atom, score
      L1  H    17    44       P1 10186  0.97
      P1  H  6896  6908       L1     1  0.05
      P1  H 10785 10796       L1    17  0.03

> <Gold.Chemscore.Hbond.Weighted>
-6.4984

> <Gold.Chemscore.Metal.Weighted>
-0.0000

> <Gold.Chemscore.Lipo.Weighted>
-11.1357

> <Gold.Chemscore.Internal_Hbond.Weighted>
0.0000

> <Gold.Chemscore.DEClash.Weighted>
0.1124

> <Gold.Chemscore.DEInternal.Weighted>
6.1197

> <Gold.Chemscore.Rot.Weighted>
9.2342

> <Gold.Chemscore.Internal.Correction.Weighted>
   9.000000E+99

> <Gold.Protein.RotatedTorsions>
[ 6907 6896 6895 6894 ] final   70.34 input  -60.11 | X-H torsion
[ 7974 7965 7964 7962 ] final  159.88 input  175.53 | X-H torsion
[ 8008 7997 7996 7995 ] final  -70.80 input   59.86 | X-H torsion
[ 10167 10162 10161 10158 ] final   -2.80 input  -65.29 | X-H torsion
[ 10718 10713 10712 10709 ] final -145.21 input   66.30 | X-H torsion
[ 10763 10752 10751 10750 ] final   -3.39 input  -60.55 | X-H torsion
[ 11005 11000 10999 10996 ] final  175.00 input  -57.11 | X-H torsion

> <Gold.Protein.ActiveResidues>
 VAL166  LYS551  ARG553  GLY616  TRP617  ASP618  TYR619  PRO620  LYS621  CYS622 
 ASP623  PHE694  ASN695  SER759  ASP760  ASP761  ALA762  ILE779  LEU786  VAL792 
 PHE793  MET794  SER795  GLU796  ALA797  LYS798  CYS799  TRP800  GLU811  SER814 

> <Gold.Protein.RotatedAtoms>
  152.4743  134.4882  159.9686 H   0  0  0  0  0  0  0  0  0  0  0  0  # atno 6907 bound_to 6896
  151.4902  133.3521  159.2860 H   0  0  0  0  0  0  0  0  0  0  0  0  # atno 6908 bound_to 6896
  150.8772  134.8184  159.7260 H   0  0  0  0  0  0  0  0  0  0  0  0  # atno 6909 bound_to 6896
  144.7766  139.7679  143.6276 H   0  0  0  0  0  0  0  0  0  0  0  0  # atno 7974 bound_to 7965
  154.5039  140.0827  156.7855 H   0  0  0  0  0  0  0  0  0  0  0  0  # atno 8008 bound_to 7997
  155.3938  140.3434  155.4234 H   0  0  0  0  0  0  0  0  0  0  0  0  # atno 8009 bound_to 7997
  156.1491  140.1553  156.8786 H   0  0  0  0  0  0  0  0  0  0  0  0  # atno 8010 bound_to 7997
  140.6865  143.6614  150.8263 H   0  0  0  0  0  0  0  0  0  0  0  0  # atno 10167 bound_to 10162
  156.3796  130.7830  151.2021 H   0  0  0  0  0  0  0  0  0  0  0  0  # atno 10718 bound_to 10713
  153.3708  135.6994  153.6639 H   0  0  0  0  0  0  0  0  0  0  0  0  # atno 10763 bound_to 10752
  153.5290  135.3596  155.2668 H   0  0  0  0  0  0  0  0  0  0  0  0  # atno 10764 bound_to 10752
  154.8681  135.4176  154.2985 H   0  0  0  0  0  0  0  0  0  0  0  0  # atno 10765 bound_to 10752
  140.3574  134.7142  157.4308 H   0  0  0  0  0  0  0  0  0  0  0  0  # atno 11005 bound_to 11000
  146.1950  139.5211  142.9780 LP  0  0  0  0  0  0  0  0  0  0  0  0  # atno 17320 bound_to 7965
  145.6168  141.0330  143.1937 LP  0  0  0  0  0  0  0  0  0  0  0  0  # atno 17321 bound_to 7965
  140.0322  143.5432  152.2755 LP  0  0  0  0  0  0  0  0  0  0  0  0  # atno 17342 bound_to 10162
  139.6229  144.7632  151.2701 LP  0  0  0  0  0  0  0  0  0  0  0  0  # atno 17343 bound_to 10162
  157.7491  131.0348  150.4334 LP  0  0  0  0  0  0  0  0  0  0  0  0  # atno 17370 bound_to 10713
  156.4575  130.4025  149.6597 LP  0  0  0  0  0  0  0  0  0  0  0  0  # atno 17371 bound_to 10713
  140.0654  134.5937  155.8701 LP  0  0  0  0  0  0  0  0  0  0  0  0  # atno 17394 bound_to 11000
  141.1994  133.6607  156.5843 LP  0  0  0  0  0  0  0  0  0  0  0  0  # atno 17395 bound_to 11000

$$$$
