AV-unprocessed.smi:752|AV-procd|sdf|3595|dock4
  -GOLD-   22720 0583D 1   1.00000     0.00000
 Structure written by MMmdl.
 41 42  0  0  0  0  0  0  0  0  1 V2000
  152.8228  144.6916  157.9726 C   0  0  0  0  0  0  0  0  0  0  0  0
  151.8566  144.3952  159.1242 C   0  0  0  0  0  0  0  0  0  0  0  0
  152.4631  143.5237  160.1724 C   0  0  0  0  0  0  0  0  0  0  0  0
  152.9305  142.2968  159.9297 N   0  0  0  0  0  0  0  0  0  0  0  0
  153.4488  141.6792  161.0742 C   0  0  0  0  0  0  0  0  0  0  0  0
  154.0800  140.3194  160.9760 C   0  0  0  0  0  0  0  0  0  0  0  0
  153.9240  139.7983  159.5471 C   0  0  0  0  0  0  0  0  0  0  0  0
  154.9011  139.3665  158.9363 O   0  0  0  0  0  0  0  0  0  0  0  0
  152.6957  139.8992  159.0153 N   0  0  0  0  0  0  0  0  0  0  0  0
  152.3573  139.7149  157.6088 C   0  0  0  0  0  0  0  0  0  0  0  0
  151.2301  140.6787  157.1820 C   0  0  2  0  0  0  0  0  0  0  0  0
  150.0979  140.7073  158.2267 C   0  0  0  0  0  0  0  0  0  0  0  0
  148.9941  141.7019  157.8338 C   0  0  0  0  0  0  0  0  0  0  0  0
  148.4197  141.3828  156.4437 C   0  0  0  0  0  0  0  0  0  0  0  0
  149.5170  141.2994  155.3668 C   0  0  1  0  0  0  0  0  0  0  0  0
  150.0397  142.5856  155.0973 O   0  0  0  0  0  0  0  0  0  0  0  0
  150.6539  140.3480  155.7836 C   0  0  0  0  0  0  0  0  0  0  0  0
  153.3287  142.4511  162.2034 C   0  0  0  0  0  0  0  0  0  0  0  0
  152.5820  143.9883  161.8650 S   0  0  0  0  0  0  0  0  0  0  0  0
  152.3500  145.3263  157.2230 H   0  0  0  0  0  0  0  0  0  0  0  0
  153.1404  143.7723  157.4795 H   0  0  0  0  0  0  0  0  0  0  0  0
  153.7149  145.2063  158.3306 H   0  0  0  0  0  0  0  0  0  0  0  0
  151.5297  145.3274  159.5864 H   0  0  0  0  0  0  0  0  0  0  0  0
  150.9604  143.9066  158.7410 H   0  0  0  0  0  0  0  0  0  0  0  0
  155.1388  140.3643  161.2327 H   0  0  0  0  0  0  0  0  0  0  0  0
  153.6190  139.6205  161.6751 H   0  0  0  0  0  0  0  0  0  0  0  0
  151.9611  140.2572  159.6088 H   0  0  0  0  0  0  0  0  0  0  0  0
  153.2299  139.8396  156.9655 H   0  0  0  0  0  0  0  0  0  0  0  0
  152.0290  138.6829  157.4824 H   0  0  0  0  0  0  0  0  0  0  0  0
  151.6605  141.6807  157.1385 H   0  0  0  0  0  0  0  0  0  0  0  0
  149.6698  139.7100  158.3358 H   0  0  0  0  0  0  0  0  0  0  0  0
  150.4985  140.9795  159.2037 H   0  0  0  0  0  0  0  0  0  0  0  0
  148.1960  141.6823  158.5763 H   0  0  0  0  0  0  0  0  0  0  0  0
  149.3961  142.7159  157.8421 H   0  0  0  0  0  0  0  0  0  0  0  0
  147.8957  140.4274  156.4902 H   0  0  0  0  0  0  0  0  0  0  0  0
  147.6716  142.1261  156.1660 H   0  0  0  0  0  0  0  0  0  0  0  0
  149.0756  140.9383  154.4374 H   0  0  0  0  0  0  0  0  0  0  0  0
  149.3644  143.2244  155.2672 H   0  0  0  0  0  0  0  0  0  0  0  0
  151.4342  140.3773  155.0233 H   0  0  0  0  0  0  0  0  0  0  0  0
  150.2769  139.3245  155.7876 H   0  0  0  0  0  0  0  0  0  0  0  0
  153.6459  142.2137  163.2082 H   0  0  0  0  0  0  0  0  0  0  0  0
  1  2  1  0  0  0  0
  1 20  1  0  0  0  0
  1 21  1  0  0  0  0
  1 22  1  0  0  0  0
  2  3  1  0  0  0  0
  2 23  1  0  0  0  0
  2 24  1  0  0  0  0
  3 19  1  0  0  0  0
  3  4  2  0  0  0  0
  4  5  1  0  0  0  0
  5  6  1  0  0  0  0
  5 18  2  0  0  0  0
  6  7  1  0  0  0  0
  6 25  1  0  0  0  0
  6 26  1  0  0  0  0
  7  8  2  0  0  0  0
  7  9  1  0  0  0  0
  9 10  1  0  0  0  0
  9 27  1  0  0  0  0
 10 11  1  0  0  0  0
 10 28  1  0  0  0  0
 10 29  1  0  0  0  0
 11 17  1  0  0  0  0
 11 12  1  0  0  0  0
 11 30  1  0  0  0  0
 12 13  1  0  0  0  0
 12 31  1  0  0  0  0
 12 32  1  0  0  0  0
 13 14  1  0  0  0  0
 13 33  1  0  0  0  0
 13 34  1  0  0  0  0
 14 15  1  0  0  0  0
 14 35  1  0  0  0  0
 14 36  1  0  0  0  0
 15 16  1  0  0  0  0
 15 17  1  0  0  0  0
 15 37  1  0  0  0  0
 16 38  1  0  0  0  0
 17 39  1  0  0  0  0
 17 40  1  0  0  0  0
 18 19  1  0  0  0  0
 18 41  1  0  0  0  0
M  END
> <s_m_source_file>
AV-unprocessed.smi

> <i_m_source_file_index>
752

> <i_lp_mmshare_version>
43012

> <i_f3d_flags>
0

> <s_epik_input>
W0NIM11bQ0gyXWMxbmMoW2NIXXMxKVtDSDJdQyg9TylbTkhdW0NIMl1bQ0BASF0yW0NIMl1bQ0gyXVtDSDJdW0NAQEhdKFtPSF0pW0NIMl0y

> <s_epik_cmdline>
J2VwaWtfcHl0aG9uJywgJy1waCcsICc3LjAnLCAnLXRuJywgJzgnLCAnLW1hJywgJzIwMCcsICctbWV0YWxfYmluZGluZycsICctaW1hZScsICc8aW5maWxlLm1hZT4nLCAnLW9tYWUnLCAnPG91dGZpbGUubWFlPic=

> <r_lp_tautomer_probability>
1

> <r_epik_Ionization_Penalty>
5.44903e-05

> <r_epik_Ionization_Penalty_Charging>
0

> <r_epik_Ionization_Penalty_Neutral>
5.44903e-05

> <r_epik_State_Penalty>
-0

> <r_epik_Charging_Adjusted_Penalty>
0

> <i_epik_Tot_Q>
0

> <i_epik_Tot_abs_Q>
0

> <r_epik_Metal_State_Penalty>
-0

> <b_epik_Metal_Only>
0

> <s_lp_Force_Field>
OPLS_2005

> <r_lp_Energy>
4.55991

> <b_lp_Chiralities_Consistent>
1

> <s_lp_Variant>
AV-unprocessed.smi:752-1

> <Gold.Version>
5.8.1

> <Gold.Id.Protein>
6NUR|6NUR_protein|mol2

> <Gold.PLP.Fitness>
47.5269

> <Gold.PLP.PLP>
-42.2444

> <Gold.PLP.part.hbond>
-3.5940

> <Gold.PLP.part.metal>
0.0000

> <Gold.PLP.part.buried>
-0.9604

> <Gold.PLP.part.nonpolar>
-35.9939

> <Gold.PLP.part.repulsive>
0.1057

> <Gold.PLP.ligand.clash>
0.0000

> <Gold.PLP.ligand.torsion>
0.3841

> <Gold.PLP.Chemscore.Hbond>
2.0000

> <Gold.PLP.Chemscore.CHOScore>
0.0000

> <Gold.PLP.Chemscore.Metal>
0.0000

> <Gold.Chemscore.Hbonds>
donor molecule, donor type, donor heavy atom, donor atom, acceptor molecule, acceptor atom, score
      L1  H    16    38       P1  8028  1.00
      P1  H  7997  8010       L1     8  0.99

> <Gold.PLP.Chemscore.Internal.Correction>
0.0508

> <Gold.Rescore>
     Score         DG    S(hbond)    S(metal)    S(lipo)     H(rot)  DE(clash)    DE(int)     intcor
     18.41     -19.37       1.65        0.00     117.30       2.08       0.63       0.34       ----

> <Gold.Chemscore.Fitness>
18.4072

> <Gold.Chemscore.DG>
-19.3734

> <Gold.Chemscore.ZeroCoef>
-5.4800

> <Gold.Chemscore.Hbond>
1.6481

> <Gold.Chemscore.Metal>
0.0000

> <Gold.Chemscore.Lipo>
117.2958

> <Gold.Chemscore.Internal_Hbond>
0.0000

> <Gold.Chemscore.DEClash>
0.6297

> <Gold.Chemscore.DEInternal>
0.3365

> <Gold.Chemscore.Rot>
2.0840

> <Gold.Chemscore.Internal.Correction>
   9.000000E+99

> <Gold.Chemscore.Hbonds>
donor molecule, donor type, donor heavy atom, donor atom, acceptor molecule, acceptor atom, score
      L1  H    16    38       P1  8028  0.95
      P1  H  7997  8010       L1     8  0.93

> <Gold.Chemscore.Hbond.Weighted>
-5.5048

> <Gold.Chemscore.Metal.Weighted>
-0.0000

> <Gold.Chemscore.Lipo.Weighted>
-13.7236

> <Gold.Chemscore.Internal_Hbond.Weighted>
0.0000

> <Gold.Chemscore.DEClash.Weighted>
0.6297

> <Gold.Chemscore.DEInternal.Weighted>
0.3365

> <Gold.Chemscore.Rot.Weighted>
5.3350

> <Gold.Chemscore.Internal.Correction.Weighted>
   9.000000E+99

> <Gold.Protein.RotatedTorsions>
[ 6907 6896 6895 6894 ] final  -49.43 input  -60.11 | X-H torsion
[ 7974 7965 7964 7962 ] final  -42.74 input  175.53 | X-H torsion
[ 8008 7997 7996 7995 ] final  -23.98 input   59.86 | X-H torsion
[ 10167 10162 10161 10158 ] final  158.02 input  -65.29 | X-H torsion
[ 10718 10713 10712 10709 ] final   76.90 input   66.30 | X-H torsion
[ 10763 10752 10751 10750 ] final   44.15 input  -60.55 | X-H torsion
[ 11005 11000 10999 10996 ] final -169.03 input  -57.11 | X-H torsion

> <Gold.Protein.ActiveResidues>
 VAL166  LYS551  ARG553  GLY616  TRP617  ASP618  TYR619  PRO620  LYS621  CYS622 
 ASP623  PHE694  ASN695  SER759  ASP760  ASP761  ALA762  ILE779  LEU786  VAL792 
 PHE793  MET794  SER795  GLU796  ALA797  LYS798  CYS799  TRP800  GLU811  SER814 

> <Gold.Protein.RotatedAtoms>
  150.8805  134.8196  159.7221 H   0  0  0  0  0  0  0  0  0  0  0  0  # atno 6907 bound_to 6896
  152.4775  134.4803  159.9673 H   0  0  0  0  0  0  0  0  0  0  0  0  # atno 6908 bound_to 6896
  151.4878  133.3493  159.2884 H   0  0  0  0  0  0  0  0  0  0  0  0  # atno 6909 bound_to 6896
  146.0086  140.6990  142.9235 H   0  0  0  0  0  0  0  0  0  0  0  0  # atno 7974 bound_to 7965
  154.4554  140.1966  156.0394 H   0  0  0  0  0  0  0  0  0  0  0  0  # atno 8008 bound_to 7997
  156.0736  140.3281  155.7578 H   0  0  0  0  0  0  0  0  0  0  0  0  # atno 8009 bound_to 7997
  155.5224  140.0571  157.2895 H   0  0  0  0  0  0  0  0  0  0  0  0  # atno 8010 bound_to 7997
  139.4825  144.4863  151.8372 H   0  0  0  0  0  0  0  0  0  0  0  0  # atno 10167 bound_to 10162
  157.6690  130.9796  150.1563 H   0  0  0  0  0  0  0  0  0  0  0  0  # atno 10718 bound_to 10713
  152.9846  135.6079  154.3228 H   0  0  0  0  0  0  0  0  0  0  0  0  # atno 10763 bound_to 10752
  154.2936  135.2774  155.2645 H   0  0  0  0  0  0  0  0  0  0  0  0  # atno 10764 bound_to 10752
  154.4929  135.5887  153.6529 H   0  0  0  0  0  0  0  0  0  0  0  0  # atno 10765 bound_to 10752
  140.5353  134.5575  157.5086 H   0  0  0  0  0  0  0  0  0  0  0  0  # atno 11005 bound_to 11000
  144.6945  140.3359  143.7208 LP  0  0  0  0  0  0  0  0  0  0  0  0  # atno 17320 bound_to 7965
  145.7377  139.1755  143.2394 LP  0  0  0  0  0  0  0  0  0  0  0  0  # atno 17321 bound_to 7965
  140.4344  144.2072  150.5889 LP  0  0  0  0  0  0  0  0  0  0  0  0  # atno 17342 bound_to 10162
  140.4747  143.2400  151.9040 LP  0  0  0  0  0  0  0  0  0  0  0  0  # atno 17343 bound_to 10162
  156.2350  130.3685  149.8401 LP  0  0  0  0  0  0  0  0  0  0  0  0  # atno 17370 bound_to 10713
  156.6218  130.8629  151.3477 LP  0  0  0  0  0  0  0  0  0  0  0  0  # atno 17371 bound_to 10713
  139.9532  134.7580  156.0400 LP  0  0  0  0  0  0  0  0  0  0  0  0  # atno 17394 bound_to 11000
  141.1258  133.6600  156.3332 LP  0  0  0  0  0  0  0  0  0  0  0  0  # atno 17395 bound_to 11000

$$$$
