AV-unprocessed.smi:290|AV-procd|sdf|2240|dock7
  -GOLD-   2262022113D 1   1.00000     0.00000
 Structure written by MMmdl.
 59 62  0  0  0  0  0  0  0  0  2 V2000
  156.1101  137.0066  160.1869 C   0  0  0  0  0  0  0  0  0  0  0  0
  154.8547  137.8163  160.5495 C   0  0  1  0  0  0  0  0  0  0  0  0
  155.2106  139.0108  161.2451 O   0  0  0  0  0  0  0  0  0  0  0  0
  154.7023  140.1457  160.5585 C   0  0  0  0  0  0  0  0  0  0  0  0
  153.4810  139.6186  159.8171 C   0  0  0  0  0  0  0  0  0  0  0  0
  153.9368  138.2345  159.3767 C   0  0  1  0  0  0  0  0  0  0  0  0
  154.6809  138.3725  158.1762 O   0  0  0  0  0  0  0  0  0  0  0  0
  152.7805  137.2374  159.1256 C   0  0  0  0  0  0  0  0  0  0  0  0
  151.6521  137.8243  158.4186 N   0  0  0  0  0  0  0  0  0  0  0  0
  150.3200  137.6679  158.7222 C   0  0  0  0  0  0  0  0  0  0  0  0
  149.4945  138.2924  157.9287 N   0  0  0  0  0  0  0  0  0  0  0  0
  150.3146  138.9467  157.0143 C   0  0  0  0  0  0  0  0  0  0  0  0
  150.0910  139.7955  155.8873 C   0  0  0  0  0  0  0  0  0  0  0  0
  148.8749  140.1982  155.4301 N   0  0  0  0  0  0  0  0  0  0  0  0
  148.7581  141.2152  154.3993 C   0  0  0  0  0  0  0  0  0  0  0  0
  147.5207  140.8160  153.6074 C   0  0  0  0  0  0  0  0  0  0  0  0
  146.6109  140.1361  154.6435 C   0  0  1  0  0  0  0  0  0  0  0  0
  145.6185  139.2151  154.0035 N   0  3  2  0  0  0  0  0  0  0  0  0
  144.7826  138.5226  155.0193 C   0  0  0  0  0  0  0  0  0  0  0  0
  146.2034  138.2678  153.0104 C   0  0  0  0  0  0  0  0  0  0  0  0
  146.4148  138.8710  151.6085 C   0  0  0  0  0  0  0  0  0  0  0  0
  146.3784  137.8548  150.6286 O   0  0  0  0  0  0  0  0  0  0  0  0
  147.6238  139.4679  155.6128 C   0  0  2  0  0  0  0  0  0  0  0  0
  147.1771  139.5447  157.0898 C   0  0  0  0  0  0  0  0  0  0  0  0
  151.1881  140.2362  155.2172 N   0  0  0  0  0  0  0  0  0  0  0  0
  152.4149  139.8880  155.6128 C   0  0  0  0  0  0  0  0  0  0  0  0
  152.7702  139.1143  156.6381 N   0  0  0  0  0  0  0  0  0  0  0  0
  151.6784  138.6582  157.3144 C   0  0  0  0  0  0  0  0  0  0  0  0
  146.0700  140.9150  155.1847 H   0  0  0  0  0  0  0  0  0  0  0  0
  147.7859  138.4362  155.3031 H   0  0  0  0  0  0  0  0  0  0  0  0
  155.8478  136.0992  159.6429 H   0  0  0  0  0  0  0  0  0  0  0  0
  156.6501  136.7096  161.0859 H   0  0  0  0  0  0  0  0  0  0  0  0
  156.7982  137.5849  159.5698 H   0  0  0  0  0  0  0  0  0  0  0  0
  154.2700  137.2314  161.2607 H   0  0  0  0  0  0  0  0  0  0  0  0
  154.4624  140.9569  161.2459 H   0  0  0  0  0  0  0  0  0  0  0  0
  155.4555  140.5048  159.8559 H   0  0  0  0  0  0  0  0  0  0  0  0
  152.6500  139.5360  160.5185 H   0  0  0  0  0  0  0  0  0  0  0  0
  153.1633  140.2627  158.9961 H   0  0  0  0  0  0  0  0  0  0  0  0
  155.1863  137.5850  158.0454 H   0  0  0  0  0  0  0  0  0  0  0  0
  153.1388  136.3824  158.5505 H   0  0  0  0  0  0  0  0  0  0  0  0
  152.4155  136.8349  160.0716 H   0  0  0  0  0  0  0  0  0  0  0  0
  149.9782  137.0654  159.5516 H   0  0  0  0  0  0  0  0  0  0  0  0
  148.6225  142.1879  154.8738 H   0  0  0  0  0  0  0  0  0  0  0  0
  149.6356  141.2662  153.7533 H   0  0  0  0  0  0  0  0  0  0  0  0
  147.0597  141.6758  153.1209 H   0  0  0  0  0  0  0  0  0  0  0  0
  147.8055  140.1020  152.8327 H   0  0  0  0  0  0  0  0  0  0  0  0
  145.3737  137.7987  155.5814 H   0  0  0  0  0  0  0  0  0  0  0  0
  143.9421  138.0011  154.5649 H   0  0  0  0  0  0  0  0  0  0  0  0
  144.3423  139.2206  155.7297 H   0  0  0  0  0  0  0  0  0  0  0  0
  147.1823  137.9313  153.3460 H   0  0  0  0  0  0  0  0  0  0  0  0
  145.5697  137.3828  152.9409 H   0  0  0  0  0  0  0  0  0  0  0  0
  145.6115  139.5760  151.3930 H   0  0  0  0  0  0  0  0  0  0  0  0
  147.3417  139.4377  151.5300 H   0  0  0  0  0  0  0  0  0  0  0  0
  145.6254  137.9970  150.0743 H   0  0  0  0  0  0  0  0  0  0  0  0
  146.2290  139.0415  157.2680 H   0  0  0  0  0  0  0  0  0  0  0  0
  147.0556  140.5811  157.4064 H   0  0  0  0  0  0  0  0  0  0  0  0
  147.9083  139.0901  157.7573 H   0  0  0  0  0  0  0  0  0  0  0  0
  153.2275  140.2853  155.0226 H   0  0  0  0  0  0  0  0  0  0  0  0
  144.9941  139.8075  153.4743 H   0  0  0  0  0  0  0  0  0  0  0  0
  1  2  1  0  0  0  0
  1 31  1  0  0  0  0
  1 32  1  0  0  0  0
  1 33  1  0  0  0  0
  2  6  1  0  0  0  0
  2  3  1  0  0  0  0
  2 34  1  0  0  0  0
  3  4  1  0  0  0  0
  4  5  1  0  0  0  0
  4 35  1  0  0  0  0
  4 36  1  0  0  0  0
  5  6  1  0  0  0  0
  5 37  1  0  0  0  0
  5 38  1  0  0  0  0
  6  7  1  0  0  0  0
  6  8  1  0  0  0  0
  7 39  1  0  0  0  0
  8  9  1  0  0  0  0
  8 40  1  0  0  0  0
  8 41  1  0  0  0  0
  9 28  1  0  0  0  0
  9 10  1  0  0  0  0
 10 11  2  0  0  0  0
 10 42  1  0  0  0  0
 11 12  1  0  0  0  0
 12 28  2  0  0  0  0
 12 13  1  0  0  0  0
 13 14  1  0  0  0  0
 13 25  2  0  0  0  0
 14 23  1  0  0  0  0
 14 15  1  0  0  0  0
 15 16  1  0  0  0  0
 15 43  1  0  0  0  0
 15 44  1  0  0  0  0
 16 17  1  0  0  0  0
 16 45  1  0  0  0  0
 16 46  1  0  0  0  0
 17 29  1  0  0  0  0
 17 18  1  0  0  0  0
 17 23  1  0  0  0  0
 18 19  1  0  0  0  0
 18 20  1  0  0  0  0
 18 59  1  0  0  0  0
 19 47  1  0  0  0  0
 19 48  1  0  0  0  0
 19 49  1  0  0  0  0
 20 21  1  0  0  0  0
 20 50  1  0  0  0  0
 20 51  1  0  0  0  0
 21 22  1  0  0  0  0
 21 52  1  0  0  0  0
 21 53  1  0  0  0  0
 22 54  1  0  0  0  0
 23 30  1  0  0  0  0
 23 24  1  0  0  0  0
 24 55  1  0  0  0  0
 24 56  1  0  0  0  0
 24 57  1  0  0  0  0
 25 26  1  0  0  0  0
 26 27  2  0  0  0  0
 26 58  1  0  0  0  0
 27 28  1  0  0  0  0
M  CHG  1  18   1
M  END
> <s_m_source_file>
AV-unprocessed.smi

> <i_m_source_file_index>
290

> <i_lp_mmshare_version>
43012

> <i_f3d_flags>
0

> <s_epik_input>
W0NIMl0xW0NIMl1PW0NAQEhdKFtDSDNdKVtDQEBdMShbT0hdKVtDSDJdbihbY0hdbjIpYyhjMjMpbltjSF1uYzNONFtDSDJdW0NIMl1bQ0BIXShbQ0BIXTRbQ0gzXSlOKFtDSDNdKVtDSDJdW0NIMl1bT0hd

> <s_epik_cmdline>
J2VwaWtfcHl0aG9uJywgJy1waCcsICc3LjAnLCAnLXRuJywgJzgnLCAnLW1hJywgJzIwMCcsICctbWV0YWxfYmluZGluZycsICctaW1hZScsICc8aW5maWxlLm1hZT4nLCAnLW9tYWUnLCAnPG91dGZpbGUubWFlPic=

> <r_lp_tautomer_probability>
1

> <r_epik_Ionization_Penalty>
0.0036983

> <r_epik_Ionization_Penalty_Charging>
0.0032725

> <r_epik_Ionization_Penalty_Neutral>
0.000425798

> <r_epik_State_Penalty>
-0

> <r_epik_Charging_Adjusted_Penalty>
0.0032725

> <i_epik_Tot_Q>
1

> <i_epik_Tot_abs_Q>
1

> <r_epik_Metal_State_Penalty>
-0

> <b_epik_Metal_Only>
0

> <s_lp_Force_Field>
OPLS_2005

> <r_lp_Energy>
64.7492

> <b_lp_Chiralities_Consistent>
1

> <s_lp_Variant>
AV-unprocessed.smi:290-26

> <Gold.Version>
5.8.1

> <Gold.Id.Protein>
6NUR|6NUR_protein|mol2

> <Gold.PLP.Fitness>
53.1619

> <Gold.PLP.PLP>
-37.2089

> <Gold.PLP.part.hbond>
-6.9740

> <Gold.PLP.part.metal>
0.0000

> <Gold.PLP.part.buried>
-3.2623

> <Gold.PLP.part.nonpolar>
-27.2464

> <Gold.PLP.part.repulsive>
0.0307

> <Gold.PLP.ligand.clash>
0.0000

> <Gold.PLP.ligand.torsion>
1.1501

> <Gold.PLP.Chemscore.Hbond>
5.9833

> <Gold.PLP.Chemscore.CHOScore>
0.0000

> <Gold.PLP.Chemscore.Metal>
0.0000

> <Gold.Chemscore.Hbonds>
donor molecule, donor type, donor heavy atom, donor atom, acceptor molecule, acceptor atom, score
      L1  H    18    59       P1 10175  2.00
      L1  H    22    54       P1 10171  1.00
      P1  H  7954  7966       L1    22  0.98
      P1  H  7989  7998       L1    25  0.90
      P1  H  7997  8008       L1     7  0.96

> <Gold.PLP.Chemscore.Internal.Correction>
0.3032

> <Gold.Rescore>
     Score         DG    S(hbond)    S(metal)    S(lipo)     H(rot)  DE(clash)    DE(int)     intcor
     13.41     -20.18       4.30        0.00      76.19       3.35       1.40       5.37       ----

> <Gold.Chemscore.Fitness>
13.4112

> <Gold.Chemscore.DG>
-20.1834

> <Gold.Chemscore.ZeroCoef>
-5.4800

> <Gold.Chemscore.Hbond>
4.3022

> <Gold.Chemscore.Metal>
0.0000

> <Gold.Chemscore.Lipo>
76.1921

> <Gold.Chemscore.Internal_Hbond>
0.0000

> <Gold.Chemscore.DEClash>
1.3976

> <Gold.Chemscore.DEInternal>
5.3746

> <Gold.Chemscore.Rot>
3.3518

> <Gold.Chemscore.Internal.Correction>
   9.000000E+99

> <Gold.Chemscore.Hbonds>
donor molecule, donor type, donor heavy atom, donor atom, acceptor molecule, acceptor atom, score
      L1  H    18    59       P1 10175  1.00
      L1  H    22    54       P1 10171  0.96
      P1  H  7954  7966       L1    22  0.41
      P1  H  7989  7998       L1    25  0.17
      P1  H  7997  8008       L1     7  0.91

> <Gold.Chemscore.Hbond.Weighted>
-14.3694

> <Gold.Chemscore.Metal.Weighted>
-0.0000

> <Gold.Chemscore.Lipo.Weighted>
-8.9145

> <Gold.Chemscore.Internal_Hbond.Weighted>
0.0000

> <Gold.Chemscore.DEClash.Weighted>
1.3976

> <Gold.Chemscore.DEInternal.Weighted>
5.3746

> <Gold.Chemscore.Rot.Weighted>
8.5806

> <Gold.Chemscore.Internal.Correction.Weighted>
   9.000000E+99

> <Gold.Protein.RotatedTorsions>
[ 6907 6896 6895 6894 ] final   54.47 input  -60.11 | X-H torsion
[ 7974 7965 7964 7962 ] final   76.87 input  175.53 | X-H torsion
[ 8008 7997 7996 7995 ] final -121.83 input   59.86 | X-H torsion
[ 10167 10162 10161 10158 ] final    2.90 input  -65.29 | X-H torsion
[ 10718 10713 10712 10709 ] final -166.89 input   66.30 | X-H torsion
[ 10763 10752 10751 10750 ] final   75.88 input  -60.55 | X-H torsion
[ 11005 11000 10999 10996 ] final  -60.78 input  -57.11 | X-H torsion

> <Gold.Protein.ActiveResidues>
 VAL166  LYS551  ARG553  GLY616  TRP617  ASP618  TYR619  PRO620  LYS621  CYS622 
 ASP623  PHE694  ASN695  SER759  ASP760  ASP761  ALA762  ILE779  LEU786  VAL792 
 PHE793  MET794  SER795  GLU796  ALA797  LYS798  CYS799  TRP800  GLU811  SER814 

> <Gold.Protein.RotatedAtoms>
  152.3442  134.7094  160.0254 H   0  0  0  0  0  0  0  0  0  0  0  0  # atno 6907 bound_to 6896
  151.7469  133.3319  159.3389 H   0  0  0  0  0  0  0  0  0  0  0  0  # atno 6908 bound_to 6896
  150.7498  134.6160  159.6156 H   0  0  0  0  0  0  0  0  0  0  0  0  # atno 6909 bound_to 6896
  145.6973  139.2571  143.1725 H   0  0  0  0  0  0  0  0  0  0  0  0  # atno 7974 bound_to 7965
  155.1544  140.0404  157.2828 H   0  0  0  0  0  0  0  0  0  0  0  0  # atno 8008 bound_to 7997
  154.6381  140.2540  155.7327 H   0  0  0  0  0  0  0  0  0  0  0  0  # atno 8009 bound_to 7997
  156.2519  140.2861  156.0763 H   0  0  0  0  0  0  0  0  0  0  0  0  # atno 8010 bound_to 7997
  140.6612  143.7298  150.7743 H   0  0  0  0  0  0  0  0  0  0  0  0  # atno 10167 bound_to 10162
  156.6745  130.9097  151.3048 H   0  0  0  0  0  0  0  0  0  0  0  0  # atno 10718 bound_to 10713
  153.0686  135.4972  154.8254 H   0  0  0  0  0  0  0  0  0  0  0  0  # atno 10763 bound_to 10752
  154.6989  135.2998  154.9372 H   0  0  0  0  0  0  0  0  0  0  0  0  # atno 10764 bound_to 10752
  154.0102  135.6755  153.4817 H   0  0  0  0  0  0  0  0  0  0  0  0  # atno 10765 bound_to 10752
  141.1300  133.6625  156.5275 H   0  0  0  0  0  0  0  0  0  0  0  0  # atno 11005 bound_to 11000
  146.0829  140.7743  142.9632 LP  0  0  0  0  0  0  0  0  0  0  0  0  # atno 17320 bound_to 7965
  144.6979  140.3517  143.7180 LP  0  0  0  0  0  0  0  0  0  0  0  0  # atno 17321 bound_to 7965
  140.0967  143.4826  152.2448 LP  0  0  0  0  0  0  0  0  0  0  0  0  # atno 17342 bound_to 10162
  139.5847  144.7526  151.3551 LP  0  0  0  0  0  0  0  0  0  0  0  0  # atno 17343 bound_to 10162
  157.7066  130.9391  150.0950 LP  0  0  0  0  0  0  0  0  0  0  0  0  # atno 17370 bound_to 10713
  156.1914  130.3655  149.8905 LP  0  0  0  0  0  0  0  0  0  0  0  0  # atno 17371 bound_to 10713
  140.4242  134.7159  157.4907 LP  0  0  0  0  0  0  0  0  0  0  0  0  # atno 17394 bound_to 11000
  140.0338  134.6367  155.9070 LP  0  0  0  0  0  0  0  0  0  0  0  0  # atno 17395 bound_to 11000

$$$$
