AV-unprocessed.smi:3345|AV-procd|sdf|12900|dock1
  -GOLD-   2272019313D 1   1.00000     0.00000
 Structure written by MMmdl.
 40 41  0  0  0  0  0  0  0  0  1 V2000
  151.3542  139.9865  155.6827 C   0  0  0  0  0  0  0  0  0  0  0  0
  150.2768  140.6802  156.5305 C   0  0  1  0  0  0  0  0  0  0  0  0
  150.5512  142.1939  156.6677 C   0  0  0  0  0  0  0  0  0  0  0  0
  151.6072  142.5523  157.6150 N   0  0  0  0  0  0  0  0  0  0  0  0
  151.4877  141.8454  158.8884 C   0  0  0  0  0  0  0  0  0  0  0  0
  152.5888  142.2567  159.8814 C   0  0  0  0  0  0  0  0  0  0  0  0
  152.5582  143.6668  160.0752 O   0  0  0  0  0  0  0  0  0  0  0  0
  152.7244  144.3904  158.8603 C   0  0  0  0  0  0  0  0  0  0  0  0
  151.6185  143.9891  157.8690 C   0  0  0  0  0  0  0  0  0  0  0  0
  148.9767  140.4656  155.8990 N   0  0  0  0  0  0  0  0  0  0  0  0
  148.6862  140.7005  154.6094 C   0  0  0  0  0  0  0  0  0  0  0  0
  149.5105  141.1198  153.7963 O   0  0  0  0  0  0  0  0  0  0  0  0
  147.2383  140.4290  154.1777 C   0  0  2  0  0  0  0  0  0  0  0  0
  147.0855  140.4322  152.6433 C   0  0  0  0  0  0  0  0  0  0  0  0
  146.3400  141.3708  154.8359 N   0  0  0  0  0  0  0  0  0  0  0  0
  146.3761  142.7049  154.8698 C   0  0  0  0  0  0  0  0  0  0  0  0
  145.3618  143.2562  155.5214 N   0  0  0  0  0  0  0  0  0  0  0  0
  144.6793  142.1277  155.8765 C   0  0  0  0  0  0  0  0  0  0  0  0
  145.2148  140.9730  155.4814 N   0  0  0  0  0  0  0  0  0  0  0  0
  152.3411  140.1009  156.1321 H   0  0  0  0  0  0  0  0  0  0  0  0
  151.3967  140.4021  154.6752 H   0  0  0  0  0  0  0  0  0  0  0  0
  151.1583  138.9172  155.5944 H   0  0  0  0  0  0  0  0  0  0  0  0
  150.3007  140.2287  157.5243 H   0  0  0  0  0  0  0  0  0  0  0  0
  150.8529  142.5626  155.6865 H   0  0  0  0  0  0  0  0  0  0  0  0
  149.6304  142.7303  156.9038 H   0  0  0  0  0  0  0  0  0  0  0  0
  150.5099  142.0420  159.3306 H   0  0  0  0  0  0  0  0  0  0  0  0
  151.5497  140.7693  158.7296 H   0  0  0  0  0  0  0  0  0  0  0  0
  152.4389  141.7610  160.8405 H   0  0  0  0  0  0  0  0  0  0  0  0
  153.5710  141.9546  159.5147 H   0  0  0  0  0  0  0  0  0  0  0  0
  152.6763  145.4588  159.0711 H   0  0  0  0  0  0  0  0  0  0  0  0
  153.7117  144.1900  158.4407 H   0  0  0  0  0  0  0  0  0  0  0  0
  151.7633  144.5297  156.9329 H   0  0  0  0  0  0  0  0  0  0  0  0
  150.6506  144.3027  158.2634 H   0  0  0  0  0  0  0  0  0  0  0  0
  148.2377  140.1183  156.4928 H   0  0  0  0  0  0  0  0  0  0  0  0
  146.9613  139.4324  154.5265 H   0  0  0  0  0  0  0  0  0  0  0  0
  147.7249  139.6765  152.1857 H   0  0  0  0  0  0  0  0  0  0  0  0
  147.3498  141.3951  152.2038 H   0  0  0  0  0  0  0  0  0  0  0  0
  146.0581  140.2080  152.3550 H   0  0  0  0  0  0  0  0  0  0  0  0
  147.1584  143.2854  154.4032 H   0  0  0  0  0  0  0  0  0  0  0  0
  143.7567  142.1582  156.4375 H   0  0  0  0  0  0  0  0  0  0  0  0
  1  2  1  0  0  0  0
  1 20  1  0  0  0  0
  1 21  1  0  0  0  0
  1 22  1  0  0  0  0
  2  3  1  0  0  0  0
  2 10  1  0  0  0  0
  2 23  1  0  0  0  0
  3  4  1  0  0  0  0
  3 24  1  0  0  0  0
  3 25  1  0  0  0  0
  4  9  1  0  0  0  0
  4  5  1  0  0  0  0
  5  6  1  0  0  0  0
  5 26  1  0  0  0  0
  5 27  1  0  0  0  0
  6  7  1  0  0  0  0
  6 28  1  0  0  0  0
  6 29  1  0  0  0  0
  7  8  1  0  0  0  0
  8  9  1  0  0  0  0
  8 30  1  0  0  0  0
  8 31  1  0  0  0  0
  9 32  1  0  0  0  0
  9 33  1  0  0  0  0
 10 11  1  0  0  0  0
 10 34  1  0  0  0  0
 11 12  2  0  0  0  0
 11 13  1  0  0  0  0
 13 14  1  0  0  0  0
 13 15  1  0  0  0  0
 13 35  1  0  0  0  0
 14 36  1  0  0  0  0
 14 37  1  0  0  0  0
 14 38  1  0  0  0  0
 15 19  1  0  0  0  0
 15 16  1  0  0  0  0
 16 17  2  0  0  0  0
 16 39  1  0  0  0  0
 17 18  1  0  0  0  0
 18 19  2  0  0  0  0
 18 40  1  0  0  0  0
M  END
> <s_m_source_file>
AV-unprocessed.smi

> <i_m_source_file_index>
3345

> <i_lp_mmshare_version>
43012

> <i_f3d_flags>
0

> <s_epik_input>
W0NIMl0xW0NIMl1PW0NIMl1bQ0gyXU4xW0NIMl1bQ0BASF0oW0NIM10pW05IXUMoPU8pW0NASF0oW0NIM10pbjJbY0hdbltjSF1uMg==

> <s_epik_cmdline>
J2VwaWtfcHl0aG9uJywgJy1waCcsICc3LjAnLCAnLXRuJywgJzgnLCAnLW1hJywgJzIwMCcsICctbWV0YWxfYmluZGluZycsICctaW1hZScsICc8aW5maWxlLm1hZT4nLCAnLW9tYWUnLCAnPG91dGZpbGUubWFlPic=

> <r_lp_tautomer_probability>
1

> <r_epik_Ionization_Penalty>
0.211373

> <r_epik_Ionization_Penalty_Charging>
0

> <r_epik_Ionization_Penalty_Neutral>
0.211373

> <r_epik_State_Penalty>
0.201459

> <r_epik_Charging_Adjusted_Penalty>
0.201459

> <i_epik_Tot_Q>
0

> <i_epik_Tot_abs_Q>
0

> <r_epik_Metal_State_Penalty>
0.201458

> <b_epik_Metal_Only>
0

> <s_lp_Force_Field>
OPLS_2005

> <r_lp_Energy>
31.9378

> <b_lp_Chiralities_Consistent>
1

> <s_lp_Variant>
AV-unprocessed.smi:3345-2

> <Gold.Version>
5.8.1

> <Gold.Id.Protein>
6NUR|6NUR_protein|mol2

> <Gold.PLP.Fitness>
37.7446

> <Gold.PLP.PLP>
-32.9105

> <Gold.PLP.part.hbond>
-2.0000

> <Gold.PLP.part.metal>
0.0000

> <Gold.PLP.part.buried>
-1.6387

> <Gold.PLP.part.nonpolar>
-31.2045

> <Gold.PLP.part.repulsive>
2.3955

> <Gold.PLP.ligand.clash>
0.0000

> <Gold.PLP.ligand.torsion>
0.7355

> <Gold.PLP.Chemscore.Hbond>
1.2010

> <Gold.PLP.Chemscore.CHOScore>
0.8025

> <Gold.PLP.Chemscore.Metal>
0.0000

> <Gold.Chemscore.Hbonds>
donor molecule, donor type, donor heavy atom, donor atom, acceptor molecule, acceptor atom, score
      P1  H  7989  7998       L1    12  0.24
      P1  H  8011  8017       L1    12  0.91
      L1  C    16    39       P1  8028  0.80

> <Gold.PLP.Chemscore.Internal.Correction>
0.2945

> <Gold.Rescore>
     Score         DG    S(hbond)    S(metal)    S(lipo)     H(rot)  DE(clash)    DE(int)     intcor
      8.55     -12.88       1.26        0.00      82.70       2.54       2.71       1.62       ----

> <Gold.Chemscore.Fitness>
8.5495

> <Gold.Chemscore.DG>
-12.8781

> <Gold.Chemscore.ZeroCoef>
-5.4800

> <Gold.Chemscore.Hbond>
1.2612

> <Gold.Chemscore.Metal>
0.0000

> <Gold.Chemscore.Lipo>
82.7027

> <Gold.Chemscore.Internal_Hbond>
0.0000

> <Gold.Chemscore.DEClash>
2.7074

> <Gold.Chemscore.DEInternal>
1.6213

> <Gold.Chemscore.Rot>
2.5353

> <Gold.Chemscore.Internal.Correction>
   9.000000E+99

> <Gold.Chemscore.Hbonds>
donor molecule, donor type, donor heavy atom, donor atom, acceptor molecule, acceptor atom, score
      P1  H  7989  7998       L1    12  0.25
      P1  H  8011  8017       L1    12  0.88

> <Gold.Chemscore.Hbond.Weighted>
-4.2124

> <Gold.Chemscore.Metal.Weighted>
-0.0000

> <Gold.Chemscore.Lipo.Weighted>
-9.6762

> <Gold.Chemscore.Internal_Hbond.Weighted>
0.0000

> <Gold.Chemscore.DEClash.Weighted>
2.7074

> <Gold.Chemscore.DEInternal.Weighted>
1.6213

> <Gold.Chemscore.Rot.Weighted>
6.4905

> <Gold.Chemscore.Internal.Correction.Weighted>
   9.000000E+99

> <Gold.Protein.RotatedTorsions>
[ 6907 6896 6895 6894 ] final   12.36 input  -60.11 | X-H torsion
[ 7974 7965 7964 7962 ] final  140.06 input  175.53 | X-H torsion
[ 8008 7997 7996 7995 ] final  109.22 input   59.86 | X-H torsion
[ 10167 10162 10161 10158 ] final -175.32 input  -65.29 | X-H torsion
[ 10718 10713 10712 10709 ] final -153.59 input   66.30 | X-H torsion
[ 10763 10752 10751 10750 ] final  164.93 input  -60.55 | X-H torsion
[ 11005 11000 10999 10996 ] final  163.68 input  -57.11 | X-H torsion

> <Gold.Protein.ActiveResidues>
 VAL166  LYS551  ARG553  GLY616  TRP617  ASP618  TYR619  PRO620  LYS621  CYS622 
 ASP623  PHE694  ASN695  SER759  ASP760  ASP761  ALA762  ILE779  LEU786  VAL792 
 PHE793  MET794  SER795  GLU796  ALA797  LYS798  CYS799  TRP800  GLU811  SER814 

> <Gold.Protein.RotatedAtoms>
  151.7690  135.0791  160.0356 H   0  0  0  0  0  0  0  0  0  0  0  0  # atno 6907 bound_to 6896
  152.3301  133.5945  159.5812 H   0  0  0  0  0  0  0  0  0  0  0  0  # atno 6908 bound_to 6896
  150.7418  133.9796  159.3614 H   0  0  0  0  0  0  0  0  0  0  0  0  # atno 6909 bound_to 6896
  144.9221  139.5154  143.5658 H   0  0  0  0  0  0  0  0  0  0  0  0  # atno 7974 bound_to 7965
  156.1963  140.3062  155.9434 H   0  0  0  0  0  0  0  0  0  0  0  0  # atno 8008 bound_to 7997
  155.3058  140.0448  157.3049 H   0  0  0  0  0  0  0  0  0  0  0  0  # atno 8009 bound_to 7997
  154.5514  140.2292  155.8489 H   0  0  0  0  0  0  0  0  0  0  0  0  # atno 8010 bound_to 7997
  139.5587  144.1924  152.1202 H   0  0  0  0  0  0  0  0  0  0  0  0  # atno 10167 bound_to 10162
  156.4878  130.8333  151.2557 H   0  0  0  0  0  0  0  0  0  0  0  0  # atno 10718 bound_to 10713
  154.3164  135.2756  155.2541 H   0  0  0  0  0  0  0  0  0  0  0  0  # atno 10763 bound_to 10752
  154.4913  135.5832  153.6465 H   0  0  0  0  0  0  0  0  0  0  0  0  # atno 10764 bound_to 10752
  152.9882  135.6135  154.3345 H   0  0  0  0  0  0  0  0  0  0  0  0  # atno 10765 bound_to 10752
  140.2382  134.8071  157.3385 H   0  0  0  0  0  0  0  0  0  0  0  0  # atno 11005 bound_to 11000
  146.3209  139.8108  142.8946 LP  0  0  0  0  0  0  0  0  0  0  0  0  # atno 17320 bound_to 7965
  145.3279  141.0259  143.3463 LP  0  0  0  0  0  0  0  0  0  0  0  0  # atno 17321 bound_to 7965
  140.1434  144.5181  150.6730 LP  0  0  0  0  0  0  0  0  0  0  0  0  # atno 17342 bound_to 10162
  140.6864  143.2352  151.5250 LP  0  0  0  0  0  0  0  0  0  0  0  0  # atno 17343 bound_to 10162
  157.7477  131.0023  150.2997 LP  0  0  0  0  0  0  0  0  0  0  0  0  # atno 17370 bound_to 10713
  156.3457  130.3822  149.7371 LP  0  0  0  0  0  0  0  0  0  0  0  0  # atno 17371 bound_to 10713
  140.1680  134.4644  155.7850 LP  0  0  0  0  0  0  0  0  0  0  0  0  # atno 17394 bound_to 11000
  141.2212  133.6929  156.7659 LP  0  0  0  0  0  0  0  0  0  0  0  0  # atno 17395 bound_to 11000

$$$$
