#       Name:                AV-unprocessed.smi:160
#       Creating user name   scv26
#       Creation time:       Thu Mar 26 19:07:10 2020


#       File generated by GOLD software.
#

@<TRIPOS>MOLECULE
AV-unprocessed.smi:160
    41    42     1
SMALL
NO_CHARGES


@<TRIPOS>ATOM
      1 ****        -3.7065   2.1945  -0.3701 N.pl3          1 S1                -1.0000
      2 ****        -4.1459   1.0189   0.1300 C.2            1 S1                 0.0000
      3 ****        -5.3030   0.7528   0.4540 O.2            1 S1                 0.0000
      4 ****        -3.0757  -0.0359   0.2825 C.2            1 S1                 0.0000
      5 ****        -3.3826  -1.2753   0.7727 N.2            1 S1                 0.0000
      6 ****        -2.1782  -1.8282   0.7200 C.2            1 S1                 0.0000
      7 ****        -1.2259  -1.0274   0.2332 N.pl3          1 S1                 0.0000
      8 ****         0.2397  -1.2888   0.0580 C.3            1 S1                 0.0000
      9 ****         0.9240  -0.5186   1.0001 O.3            1 S1                 0.0000
     10 ****         1.4099   0.6720   0.3887 C.3            1 S1                 0.0000
     11 ****         2.5287   1.3141   1.2286 C.3            1 S1                 0.0000
     12 ****         1.9728   2.1039   2.2581 O.3            1 S1                 0.0000
     13 ****         1.8265   0.1705  -1.0011 C.3            1 S1                 0.0000
     14 ****         3.1211  -0.4094  -0.9538 O.3            1 S1                 0.0000
     15 ****         0.7373  -0.8517  -1.3353 C.3            1 S1                 0.0000
     16 ****         1.2217  -1.9286  -2.1173 O.3            1 S1                 0.0000
     17 ****        -1.7967   0.1717  -0.0447 N.2            1 S1                 0.0000
     18 ****         0.3611  -2.3527   0.2659 H              1 S1                 0.0000
     19 ****         0.5888   1.3802   0.2669 H              1 S1                 0.0000
     20 ****         1.8485   0.9816  -1.7297 H              1 S1                 0.0000
     21 ****        -0.0662  -0.3645  -1.8882 H              1 S1                 0.0000
     22 ****        -2.7094   2.2864  -0.5984 H              1 S1                 0.0000
     23 ****        -1.9864  -2.8408   1.0432 H              1 S1                 0.0000
     24 ****         3.1941   0.5600   1.6504 H              1 S1                 0.0000
     25 ****         3.1343   1.9724   0.6051 H              1 S1                 0.0000
     26 ****         2.6777   2.4918   2.7533 H              1 S1                 0.0000
     27 ****         3.2867  -0.8286  -1.7845 H              1 S1                 0.0000
     28 ****         0.5047  -2.5204  -2.2867 H              1 S1                 0.0000
     29 ****        -4.3372   2.9570  -0.5146 LP             1 S1                 0.0000
     30 ****        -6.0210   1.4419   0.3553 LP             1 S1                 0.0000
     31 ****        -5.5253  -0.1525   0.8159 LP             1 S1                 0.0000
     32 ****        -4.2562  -1.6528   1.0798 LP             1 S1                 0.0000
     33 ****         1.6940  -1.0439   1.3622 LP             1 S1                 0.0000
     34 ****         0.3035  -0.2789   1.7468 LP             1 S1                 0.0000
     35 ****         1.4145   1.5311   2.8583 LP             1 S1                 0.0000
     36 ****         1.4039   2.8239   1.8607 LP             1 S1                 0.0000
     37 ****         3.1624  -1.0861  -0.2188 LP             1 S1                 0.0000
     38 ****         3.8050   0.3018  -0.7910 LP             1 S1                 0.0000
     39 ****         1.9451  -2.4080  -1.6206 LP             1 S1                 0.0000
     40 ****         1.5846  -1.5815  -2.9821 LP             1 S1                 0.0000
     41 ****        -1.3686   1.0011  -0.4036 LP             1 S1                 0.0000
@<TRIPOS>BOND
    1    1    2 1     
    2    1   22 1     
    3    2    3 2     
    4    2    4 1     
    5    4   17 2     
    6    4    5 1     
    7    5    6 2     
    8    6    7 1     
    9    6   23 1     
   10    7    8 1     
   11    7   17 1     
   12    8   18 1     
   13    8   15 1     
   14    8    9 1     
   15    9   10 1     
   16   10   19 1     
   17   10   11 1     
   18   10   13 1     
   19   11   12 1     
   20   11   24 1     
   21   11   25 1     
   22   12   26 1     
   23   13   20 1     
   24   13   14 1     
   25   13   15 1     
   26   14   27 1     
   27   15   21 1     
   28   15   16 1     
   29   16   28 1     
   30    1   29 1     
   31    3   30 1     
   32    3   31 1     
   33    5   32 1     
   34    9   33 1     
   35    9   34 1     
   36   12   35 1     
   37   12   36 1     
   38   14   37 1     
   39   14   38 1     
   40   16   39 1     
   41   16   40 1     
   42   17   41 1     
@<TRIPOS>SUBSTRUCTURE
      1 S1             1
@<TRIPOS>SET
LONE_PAIRS      STATIC     ATOMS    <user>   **** ""
13 29 30 31 32 33 34 35 36 37 38 39 40 41
DONOR_HYDROGENS      STATIC     ATOMS    <user>   **** ""
4 22 26 27 28
ATOM$BLUE        STATIC     ATOMS    COLORGROUP SYSTEM
13 29 30 31 32 33 34 35 36 37 38 39 40 41
ATOM$RED        STATIC     ATOMS    COLORGROUP SYSTEM
4 22 26 27 28
