AV-unprocessed.smi:2886|AV-procd|sdf|11090|dock1
  -GOLD-   2272015563D 1   1.00000     0.00000
 Structure written by MMmdl.
 28 30  0  0  0  0  0  0  0  0  1 V2000
  147.4039  139.4947  152.8550 O   0  0  0  0  0  0  0  0  0  0  0  0
  148.3962  139.6356  153.5673 C   0  0  0  0  0  0  0  0  0  0  0  0
  149.3218  138.6554  153.6914 N   0  0  0  0  0  0  0  0  0  0  0  0
  150.4676  138.7029  154.4472 N   0  0  0  0  0  0  0  0  0  0  0  0
  150.7127  139.7727  155.1237 C   0  0  0  0  0  0  0  0  0  0  0  0
  149.8230  140.9294  155.1256 C   0  0  0  0  0  0  0  0  0  0  0  0
  150.0877  142.0824  155.8542 N   0  0  0  0  0  0  0  0  0  0  0  0
  151.2237  142.3792  156.7157 C   0  0  1  0  0  0  0  0  0  0  0  0
  151.2450  143.8393  157.1751 C   0  0  0  0  0  0  0  0  0  0  0  0
  151.2672  143.6868  158.7014 C   0  0  2  0  0  0  0  0  0  0  0  0
  152.5966  143.1119  159.2103 C   0  0  0  0  0  0  0  0  0  0  0  0
  152.4880  141.6477  158.7845 C   0  0  0  0  0  0  0  0  0  0  0  0
  151.1376  141.6303  158.0558 C   0  0  1  0  0  0  0  0  0  0  0  0
  150.4205  142.5608  158.8511 O   0  0  0  0  0  0  0  0  0  0  0  0
  148.7049  140.8385  154.3528 C   0  0  0  0  0  0  0  0  0  0  0  0
  147.5838  142.1563  154.2709 Cl  0  0  0  0  0  0  0  0  0  0  0  0
  149.1932  137.7895  153.1880 H   0  0  0  0  0  0  0  0  0  0  0  0
  151.6149  139.8579  155.7281 H   0  0  0  0  0  0  0  0  0  0  0  0
  149.3449  142.7660  155.8973 H   0  0  0  0  0  0  0  0  0  0  0  0
  152.1531  142.1075  156.2161 H   0  0  0  0  0  0  0  0  0  0  0  0
  152.1098  144.3857  156.7977 H   0  0  0  0  0  0  0  0  0  0  0  0
  150.3454  144.3715  156.8615 H   0  0  0  0  0  0  0  0  0  0  0  0
  150.9333  144.5746  159.2392 H   0  0  0  0  0  0  0  0  0  0  0  0
  153.4592  143.6176  158.7752 H   0  0  0  0  0  0  0  0  0  0  0  0
  152.6654  143.1899  160.2958 H   0  0  0  0  0  0  0  0  0  0  0  0
  153.3122  141.3282  158.1460 H   0  0  0  0  0  0  0  0  0  0  0  0
  152.4628  140.9971  159.6595 H   0  0  0  0  0  0  0  0  0  0  0  0
  150.6868  140.6391  157.9941 H   0  0  0  0  0  0  0  0  0  0  0  0
  1  2  2  0  0  0  0
  2 15  1  0  0  0  0
  2  3  1  0  0  0  0
  3 17  1  0  0  0  0
  3  4  1  0  0  0  0
  4  5  2  0  0  0  0
  5  6  1  0  0  0  0
  5 18  1  0  0  0  0
  6  7  1  0  0  0  0
  6 15  2  0  0  0  0
  7  8  1  0  0  0  0
  7 19  1  0  0  0  0
  8 13  1  0  0  0  0
  8  9  1  0  0  0  0
  8 20  1  0  0  0  0
  9 10  1  0  0  0  0
  9 21  1  0  0  0  0
  9 22  1  0  0  0  0
 10 14  1  0  0  0  0
 10 11  1  0  0  0  0
 10 23  1  0  0  0  0
 11 12  1  0  0  0  0
 11 24  1  0  0  0  0
 11 25  1  0  0  0  0
 12 13  1  0  0  0  0
 12 26  1  0  0  0  0
 12 27  1  0  0  0  0
 13 14  1  0  0  0  0
 13 28  1  0  0  0  0
 15 16  1  0  0  0  0
M  END
> <s_m_source_file>
AV-unprocessed.smi

> <i_m_source_file_index>
2886

> <i_lp_mmshare_version>
43012

> <i_f3d_flags>
0

> <s_epik_input>
Tz1jMVtuSF1uW2NIXWMoYzFDbClbTkhdW0NASF0oW0NIMl1bQ0BASF0yMylbQ0BASF0oTzMpW0NIMl1bQ0gyXTI=

> <s_epik_cmdline>
J2VwaWtfcHl0aG9uJywgJy1waCcsICc3LjAnLCAnLXRuJywgJzgnLCAnLW1hJywgJzIwMCcsICctbWV0YWxfYmluZGluZycsICctaW1hZScsICc8aW5maWxlLm1hZT4nLCAnLW9tYWUnLCAnPG91dGZpbGUubWFlPic=

> <r_lp_tautomer_probability>
0.986175

> <r_epik_Ionization_Penalty>
0.000975594

> <r_epik_Ionization_Penalty_Charging>
0.000940184

> <r_epik_Ionization_Penalty_Neutral>
3.54099e-05

> <r_epik_State_Penalty>
0.00620319

> <r_epik_Charging_Adjusted_Penalty>
0.00714337

> <i_epik_Tot_Q>
0

> <i_epik_Tot_abs_Q>
0

> <r_epik_Metal_State_Penalty>
0.287699

> <b_epik_Metal_Only>
0

> <s_lp_Force_Field>
OPLS_2005

> <r_lp_Energy>
54.6963

> <b_lp_Chiralities_Consistent>
1

> <s_lp_Variant>
AV-unprocessed.smi:2886-4

> <Gold.Version>
5.8.1

> <Gold.Id.Protein>
6NUR|6NUR_protein|mol2

> <Gold.PLP.Fitness>
34.8992

> <Gold.PLP.PLP>
-29.5344

> <Gold.PLP.part.hbond>
-3.1201

> <Gold.PLP.part.metal>
0.0000

> <Gold.PLP.part.buried>
0.7881

> <Gold.PLP.part.nonpolar>
-28.5595

> <Gold.PLP.part.repulsive>
2.1922

> <Gold.PLP.ligand.clash>
0.0000

> <Gold.PLP.ligand.torsion>
0.1227

> <Gold.PLP.Chemscore.Hbond>
1.8636

> <Gold.PLP.Chemscore.CHOScore>
0.0000

> <Gold.PLP.Chemscore.Metal>
0.0000

> <Gold.Chemscore.Hbonds>
donor molecule, donor type, donor heavy atom, donor atom, acceptor molecule, acceptor atom, score
      L1  H     3    17       P1  7948  0.99
      L1  H     7    19       P1  8028  0.90

> <Gold.PLP.Chemscore.Internal.Correction>
0.0196

> <Gold.Rescore>
     Score         DG    S(hbond)    S(metal)    S(lipo)     H(rot)  DE(clash)    DE(int)     intcor
     17.00     -18.97       1.68        0.00      89.20       1.00       1.84       0.13       ----

> <Gold.Chemscore.Fitness>
17.0014

> <Gold.Chemscore.DG>
-18.9749

> <Gold.Chemscore.ZeroCoef>
-5.4800

> <Gold.Chemscore.Hbond>
1.6820

> <Gold.Chemscore.Metal>
0.0000

> <Gold.Chemscore.Lipo>
89.2042

> <Gold.Chemscore.Internal_Hbond>
0.0000

> <Gold.Chemscore.DEClash>
1.8438

> <Gold.Chemscore.DEInternal>
0.1297

> <Gold.Chemscore.Rot>
1.0000

> <Gold.Chemscore.Internal.Correction>
   9.000000E+99

> <Gold.Chemscore.Hbonds>
donor molecule, donor type, donor heavy atom, donor atom, acceptor molecule, acceptor atom, score
      L1  H     3    17       P1  7948  0.92
      L1  H     7    19       P1  8028  0.83

> <Gold.Chemscore.Hbond.Weighted>
-5.6180

> <Gold.Chemscore.Metal.Weighted>
-0.0000

> <Gold.Chemscore.Lipo.Weighted>
-10.4369

> <Gold.Chemscore.Internal_Hbond.Weighted>
0.0000

> <Gold.Chemscore.DEClash.Weighted>
1.8438

> <Gold.Chemscore.DEInternal.Weighted>
0.1297

> <Gold.Chemscore.Rot.Weighted>
2.5600

> <Gold.Chemscore.Internal.Correction.Weighted>
   9.000000E+99

> <Gold.Protein.RotatedTorsions>
[ 6907 6896 6895 6894 ] final  119.03 input  -60.11 | X-H torsion
[ 7974 7965 7964 7962 ] final  -23.13 input  175.53 | X-H torsion
[ 8008 7997 7996 7995 ] final  -78.93 input   59.86 | X-H torsion
[ 10167 10162 10161 10158 ] final  152.90 input  -65.29 | X-H torsion
[ 10718 10713 10712 10709 ] final -151.95 input   66.30 | X-H torsion
[ 10763 10752 10751 10750 ] final  -29.11 input  -60.55 | X-H torsion
[ 11005 11000 10999 10996 ] final   13.44 input  -57.11 | X-H torsion

> <Gold.Protein.ActiveResidues>
 VAL166  LYS551  ARG553  GLY616  TRP617  ASP618  TYR619  PRO620  LYS621  CYS622 
 ASP623  PHE694  ASN695  SER759  ASP760  ASP761  ALA762  ILE779  LEU786  VAL792 
 PHE793  MET794  SER795  GLU796  ALA797  LYS798  CYS799  TRP800  GLU811  SER814 

> <Gold.Protein.RotatedAtoms>
  152.4501  133.7613  159.6747 H   0  0  0  0  0  0  0  0  0  0  0  0  # atno 6907 bound_to 6896
  150.8411  133.7924  159.3067 H   0  0  0  0  0  0  0  0  0  0  0  0  # atno 6908 bound_to 6896
  151.5549  135.1069  160.0010 H   0  0  0  0  0  0  0  0  0  0  0  0  # atno 6909 bound_to 6896
  146.1634  140.4574  142.8562 H   0  0  0  0  0  0  0  0  0  0  0  0  # atno 7974 bound_to 7965
  154.5736  140.0686  156.9001 H   0  0  0  0  0  0  0  0  0  0  0  0  # atno 8008 bound_to 7997
  155.2590  140.3357  155.4257 H   0  0  0  0  0  0  0  0  0  0  0  0  # atno 8009 bound_to 7997
  156.2137  140.1769  156.7623 H   0  0  0  0  0  0  0  0  0  0  0  0  # atno 8010 bound_to 7997
  139.4830  144.5318  151.7710 H   0  0  0  0  0  0  0  0  0  0  0  0  # atno 10167 bound_to 10162
  156.4661  130.8236  151.2466 H   0  0  0  0  0  0  0  0  0  0  0  0  # atno 10718 bound_to 10713
  153.7592  135.6920  153.4929 H   0  0  0  0  0  0  0  0  0  0  0  0  # atno 10763 bound_to 10752
  153.1950  135.4457  155.0195 H   0  0  0  0  0  0  0  0  0  0  0  0  # atno 10764 bound_to 10752
  154.8159  135.3399  154.7108 H   0  0  0  0  0  0  0  0  0  0  0  0  # atno 10765 bound_to 10752
  140.4807  134.0938  155.7750 H   0  0  0  0  0  0  0  0  0  0  0  0  # atno 11005 bound_to 11000
  144.8059  140.6298  143.6447 LP  0  0  0  0  0  0  0  0  0  0  0  0  # atno 17320 bound_to 7965
  145.4529  139.1521  143.3908 LP  0  0  0  0  0  0  0  0  0  0  0  0  # atno 17321 bound_to 7965
  140.4846  144.1400  150.5938 LP  0  0  0  0  0  0  0  0  0  0  0  0  # atno 17342 bound_to 10162
  140.4240  143.2598  151.9680 LP  0  0  0  0  0  0  0  0  0  0  0  0  # atno 17343 bound_to 10162
  157.7494  131.0091  150.3256 LP  0  0  0  0  0  0  0  0  0  0  0  0  # atno 17370 bound_to 10713
  156.3666  130.3856  149.7208 LP  0  0  0  0  0  0  0  0  0  0  0  0  # atno 17371 bound_to 10713
  141.1532  133.8930  157.2044 LP  0  0  0  0  0  0  0  0  0  0  0  0  # atno 17394 bound_to 11000
  139.9828  135.0092  156.9791 LP  0  0  0  0  0  0  0  0  0  0  0  0  # atno 17395 bound_to 11000

$$$$
