#       Name:                AV-unprocessed.smi:152
#       Creating user name   scv26
#       Creation time:       Thu Mar 26 18:47:26 2020


#       File generated by GOLD software.
#

@<TRIPOS>MOLECULE
AV-unprocessed.smi:152
    66    69     1
SMALL
NO_CHARGES


@<TRIPOS>ATOM
      1 ****        -4.6906  -1.9077   1.9916 C.3            1 S1                 0.0000
      2 ****        -5.0763  -2.4518   0.6085 C.3            1 S1                 0.0000
      3 ****        -4.7506  -1.5009  -0.4835 N.4            1 S1                 1.0000
      4 ****        -5.3089  -1.8593  -1.8060 C.3            1 S1                 0.0000
      5 ****        -4.3815  -1.2327  -2.8568 C.3            1 S1                 0.0000
      6 ****        -3.3489  -0.4405  -2.0540 C.3            1 S1                 0.0000
      7 ****        -3.3286  -1.1287  -0.6847 C.3            1 S1                 0.0000
      8 ****        -2.3631  -2.3452  -0.6578 C.3            1 S1                 0.0000
      9 ****        -0.9613  -1.9720  -0.8449 N.3            1 S1                 0.0000
     10 ****        -0.0520  -3.0358  -1.2469 C.3            1 S1                 0.0000
     11 ****        -0.4029  -1.1431   0.0697 C.ar           1 S1                 0.0000
     12 ****        -0.7433  -1.2432   1.3821 N.ar           1 S1                 0.0000
     13 ****        -0.1867  -0.4269   2.2822 C.ar           1 S1                 0.0000
     14 ****         0.7132   0.5395   2.0885 N.ar           1 S1                 0.0000
     15 ****         1.0596   0.6393   0.7730 C.ar           1 S1                 0.0000
     16 ****         0.5523  -0.1558  -0.2921 C.ar           1 S1                 0.0000
     17 ****         1.1189   0.2404  -1.4964 N.2            1 S1                 0.0000
     18 ****         1.9187   1.2160  -1.1623 C.2            1 S1                 0.0000
     19 ****         1.9547   1.5141   0.1820 N.pl3          1 S1                 0.0000
     20 ****         2.7527   2.5477   0.8238 C.3            1 S1                 0.0000
     21 ****         4.1528   2.0705   1.2992 C.3            1 S1                 0.0000
     22 ****         3.9528   1.0731   2.2831 O.3            1 S1                 0.0000
     23 ****         5.0264   1.4537   0.1859 C.3            1 S1                 0.0000
     24 ****         5.5344   2.5331  -0.7850 C.3            1 S1                 0.0000
     25 ****         6.2664   3.5209  -0.0669 O.3            1 S1                 0.0000
     26 ****         5.4823   4.2079   0.9033 C.3            1 S1                 0.0000
     27 ****         4.9493   3.2160   1.9542 C.3            1 S1                 0.0000
     28 ****        -5.0036  -2.5961   2.7766 H              1 S1                 0.0000
     29 ****        -5.1680  -0.9466   2.1845 H              1 S1                 0.0000
     30 ****        -3.6135  -1.7720   2.0884 H              1 S1                 0.0000
     31 ****        -4.6141  -3.4230   0.4310 H              1 S1                 0.0000
     32 ****        -6.1532  -2.6241   0.5944 H              1 S1                 0.0000
     33 ****        -5.3359  -2.9427  -1.9330 H              1 S1                 0.0000
     34 ****        -6.3306  -1.4876  -1.8909 H              1 S1                 0.0000
     35 ****        -3.8874  -2.0184  -3.4300 H              1 S1                 0.0000
     36 ****        -4.9205  -0.5995  -3.5623 H              1 S1                 0.0000
     37 ****        -2.3747  -0.3985  -2.5424 H              1 S1                 0.0000
     38 ****        -3.6956   0.5871  -1.9362 H              1 S1                 0.0000
     39 ****        -3.0474  -0.4123   0.0875 H              1 S1                 0.0000
     40 ****        -2.4438  -2.8890   0.2832 H              1 S1                 0.0000
     41 ****        -2.6429  -3.0536  -1.4382 H              1 S1                 0.0000
     42 ****         0.9264  -2.6430  -1.5257 H              1 S1                 0.0000
     43 ****        -0.4513  -3.5706  -2.1087 H              1 S1                 0.0000
     44 ****         0.0838  -3.7512  -0.4350 H              1 S1                 0.0000
     45 ****        -0.5075  -0.5685   3.3037 H              1 S1                 0.0000
     46 ****         2.5139   1.7452  -1.8923 H              1 S1                 0.0000
     47 ****         2.8430   3.3751   0.1209 H              1 S1                 0.0000
     48 ****         2.1843   2.9392   1.6685 H              1 S1                 0.0000
     49 ****         4.7967   0.7854   2.5962 H              1 S1                 0.0000
     50 ****         5.8942   0.9659   0.6327 H              1 S1                 0.0000
     51 ****         4.4955   0.6705  -0.3542 H              1 S1                 0.0000
     52 ****         6.1917   2.0835  -1.5292 H              1 S1                 0.0000
     53 ****         4.7122   2.9969  -1.3311 H              1 S1                 0.0000
     54 ****         6.1071   4.9591   1.3864 H              1 S1                 0.0000
     55 ****         4.6703   4.7470   0.4145 H              1 S1                 0.0000
     56 ****         4.3383   3.7384   2.6914 H              1 S1                 0.0000
     57 ****         5.8013   2.8061   2.4993 H              1 S1                 0.0000
     58 ****        -5.2080  -0.6339  -0.2400 H              1 S1                 0.0000
     59 ****        -1.0816  -1.3974  -1.6545 LP             1 S1                 0.0000
     60 ****        -1.4107  -1.9281   1.6742 LP             1 S1                 0.0000
     61 ****         1.0859   1.1168   2.8151 LP             1 S1                 0.0000
     62 ****         0.9526  -0.1348  -2.4083 LP             1 S1                 0.0000
     63 ****         3.4600   0.3000   1.8839 LP             1 S1                 0.0000
     64 ****         3.4224   1.4503   3.0423 LP             1 S1                 0.0000
     65 ****         6.6215   4.1901  -0.7197 LP             1 S1                 0.0000
     66 ****         7.0292   3.0738   0.4002 LP             1 S1                 0.0000
@<TRIPOS>BOND
    1    1    2 1     
    2    1   28 1     
    3    1   29 1     
    4    1   30 1     
    5    2    3 1     
    6    2   31 1     
    7    2   32 1     
    8    3    7 1     
    9    3    4 1     
   10    3   58 1     
   11    4    5 1     
   12    4   33 1     
   13    4   34 1     
   14    5    6 1     
   15    5   35 1     
   16    5   36 1     
   17    6    7 1     
   18    6   37 1     
   19    6   38 1     
   20    7    8 1     
   21    7   39 1     
   22    8    9 1     
   23    8   40 1     
   24    8   41 1     
   25    9   10 1     
   26    9   11 1     
   27   10   42 1     
   28   10   43 1     
   29   10   44 1     
   30   11   16 ar    
   31   11   12 ar    
   32   12   13 ar    
   33   13   14 ar    
   34   13   45 1     
   35   14   15 ar    
   36   15   19 1     
   37   15   16 ar    
   38   16   17 1     
   39   17   18 2     
   40   18   19 1     
   41   18   46 1     
   42   19   20 1     
   43   20   21 1     
   44   20   47 1     
   45   20   48 1     
   46   21   27 1     
   47   21   22 1     
   48   21   23 1     
   49   22   49 1     
   50   23   24 1     
   51   23   50 1     
   52   23   51 1     
   53   24   25 1     
   54   24   52 1     
   55   24   53 1     
   56   25   26 1     
   57   26   27 1     
   58   26   54 1     
   59   26   55 1     
   60   27   56 1     
   61   27   57 1     
   62    9   59 1     
   63   12   60 1     
   64   14   61 1     
   65   17   62 1     
   66   22   63 1     
   67   22   64 1     
   68   25   65 1     
   69   25   66 1     
@<TRIPOS>SUBSTRUCTURE
      1 S1             1
@<TRIPOS>SET
LONE_PAIRS      STATIC     ATOMS    <user>   **** ""
8 59 60 61 62 63 64 65 66
DONOR_HYDROGENS      STATIC     ATOMS    <user>   **** ""
2 58 49
ATOM$BLUE        STATIC     ATOMS    COLORGROUP SYSTEM
8 59 60 61 62 63 64 65 66
ATOM$RED        STATIC     ATOMS    COLORGROUP SYSTEM
2 58 49
