AV-unprocessed.smi:2452|AV-procd|sdf|9685|dock2
  -GOLD-   2272013323D 1   1.00000     0.00000
 Structure written by MMmdl.
 34 35  0  0  0  0  0  0  0  0  1 V2000
  152.1041  139.9160  155.5503 C   0  0  0  0  0  0  0  0  0  0  0  0
  150.6701  140.2295  155.2247 C   0  0  0  0  0  0  0  0  0  0  0  0
  149.9600  139.3495  154.5342 N   0  0  0  0  0  0  0  0  0  0  0  0
  148.6998  139.9283  154.3185 O   0  0  0  0  0  0  0  0  0  0  0  0
  148.6773  141.1595  154.8924 C   0  0  0  0  0  0  0  0  0  0  0  0
  147.4190  141.9481  154.7561 C   0  0  0  0  0  0  0  0  0  0  0  0
  149.8781  141.3833  155.4983 C   0  0  0  0  0  0  0  0  0  0  0  0
  150.2310  142.5770  156.1760 N   0  0  0  0  0  0  0  0  0  0  0  0
  151.2000  142.7229  157.0921 C   0  0  0  0  0  0  0  0  0  0  0  0
  151.8873  141.8057  157.5409 O   0  0  0  0  0  0  0  0  0  0  0  0
  151.3186  143.9992  157.4824 N   0  0  0  0  0  0  0  0  0  0  0  0
  152.2940  144.4886  158.4501 C   0  0  0  0  0  0  0  0  0  0  0  0
  152.3759  143.5740  159.6840 C   0  0  2  0  0  0  0  0  0  0  0  0
  152.5474  144.3252  161.0005 C   0  0  0  0  0  0  0  0  0  0  0  0
  153.1431  143.2694  161.9148 C   0  0  0  0  0  0  0  0  0  0  0  0
  153.7772  142.2608  160.9510 C   0  0  0  0  0  0  0  0  0  0  0  0
  153.5472  142.7743  159.6441 O   0  0  0  0  0  0  0  0  0  0  0  0
  152.7159  140.8181  155.5481 H   0  0  0  0  0  0  0  0  0  0  0  0
  152.5375  139.2295  154.8222 H   0  0  0  0  0  0  0  0  0  0  0  0
  152.1910  139.4524  156.5329 H   0  0  0  0  0  0  0  0  0  0  0  0
  147.5832  142.9956  155.0087 H   0  0  0  0  0  0  0  0  0  0  0  0
  146.6467  141.5572  155.4184 H   0  0  0  0  0  0  0  0  0  0  0  0
  147.0429  141.9031  153.7339 H   0  0  0  0  0  0  0  0  0  0  0  0
  149.6486  143.3809  155.9939 H   0  0  0  0  0  0  0  0  0  0  0  0
  150.7085  144.6864  157.0648 H   0  0  0  0  0  0  0  0  0  0  0  0
  153.2662  144.5472  157.9603 H   0  0  0  0  0  0  0  0  0  0  0  0
  152.0358  145.5057  158.7501 H   0  0  0  0  0  0  0  0  0  0  0  0
  151.5014  142.9232  159.7466 H   0  0  0  0  0  0  0  0  0  0  0  0
  153.2556  145.1459  160.8778 H   0  0  0  0  0  0  0  0  0  0  0  0
  151.6117  144.7380  161.3785 H   0  0  0  0  0  0  0  0  0  0  0  0
  153.8702  143.6980  162.6050 H   0  0  0  0  0  0  0  0  0  0  0  0
  152.3635  142.7856  162.5046 H   0  0  0  0  0  0  0  0  0  0  0  0
  154.8460  142.1355  161.1265 H   0  0  0  0  0  0  0  0  0  0  0  0
  153.3003  141.2847  161.0484 H   0  0  0  0  0  0  0  0  0  0  0  0
  1  2  1  0  0  0  0
  1 18  1  0  0  0  0
  1 19  1  0  0  0  0
  1 20  1  0  0  0  0
  2  7  1  0  0  0  0
  2  3  2  0  0  0  0
  3  4  1  0  0  0  0
  4  5  1  0  0  0  0
  5  6  1  0  0  0  0
  5  7  2  0  0  0  0
  6 21  1  0  0  0  0
  6 22  1  0  0  0  0
  6 23  1  0  0  0  0
  7  8  1  0  0  0  0
  8  9  1  0  0  0  0
  8 24  1  0  0  0  0
  9 10  2  0  0  0  0
  9 11  1  0  0  0  0
 11 12  1  0  0  0  0
 11 25  1  0  0  0  0
 12 13  1  0  0  0  0
 12 26  1  0  0  0  0
 12 27  1  0  0  0  0
 13 17  1  0  0  0  0
 13 14  1  0  0  0  0
 13 28  1  0  0  0  0
 14 15  1  0  0  0  0
 14 29  1  0  0  0  0
 14 30  1  0  0  0  0
 15 16  1  0  0  0  0
 15 31  1  0  0  0  0
 15 32  1  0  0  0  0
 16 17  1  0  0  0  0
 16 33  1  0  0  0  0
 16 34  1  0  0  0  0
M  END
> <s_m_source_file>
AV-unprocessed.smi

> <i_m_source_file_index>
2452

> <i_lp_mmshare_version>
43012

> <i_f3d_flags>
0

> <s_epik_input>
W0NIM11jMW5vYyhbQ0gzXSljMVtOSF1DKD1PKVtOSF1bQ0gyXVtDQEBIXTJbQ0gyXVtDSDJdW0NIMl1PMg==

> <s_epik_cmdline>
J2VwaWtfcHl0aG9uJywgJy1waCcsICc3LjAnLCAnLXRuJywgJzgnLCAnLW1hJywgJzIwMCcsICctbWV0YWxfYmluZGluZycsICctaW1hZScsICc8aW5maWxlLm1hZT4nLCAnLW9tYWUnLCAnPG91dGZpbGUubWFlPic=

> <r_lp_tautomer_probability>
1

> <r_epik_Ionization_Penalty>
3.28451e-05

> <r_epik_Ionization_Penalty_Charging>
0

> <r_epik_Ionization_Penalty_Neutral>
3.28451e-05

> <r_epik_State_Penalty>
-0

> <r_epik_Charging_Adjusted_Penalty>
0

> <i_epik_Tot_Q>
0

> <i_epik_Tot_abs_Q>
0

> <r_epik_Metal_State_Penalty>
-0

> <b_epik_Metal_Only>
0

> <s_lp_Force_Field>
OPLS_2005

> <r_lp_Energy>
18.3338

> <b_lp_Chiralities_Consistent>
1

> <s_lp_Variant>
AV-unprocessed.smi:2452-1

> <Gold.Version>
5.8.1

> <Gold.Id.Protein>
6NUR|6NUR_protein|mol2

> <Gold.PLP.Fitness>
46.9769

> <Gold.PLP.PLP>
-42.9688

> <Gold.PLP.part.hbond>
-2.0000

> <Gold.PLP.part.metal>
0.0000

> <Gold.PLP.part.buried>
-5.3414

> <Gold.PLP.part.nonpolar>
-35.9847

> <Gold.PLP.part.repulsive>
0.9159

> <Gold.PLP.ligand.clash>
0.0000

> <Gold.PLP.ligand.torsion>
0.7887

> <Gold.PLP.Chemscore.Hbond>
1.7680

> <Gold.PLP.Chemscore.CHOScore>
0.0000

> <Gold.PLP.Chemscore.Metal>
0.0000

> <Gold.Chemscore.Hbonds>
donor molecule, donor type, donor heavy atom, donor atom, acceptor molecule, acceptor atom, score
      L1  H     8    24       P1  8028  1.00
      L1  H    11    25       P1  8028  0.33

> <Gold.PLP.Chemscore.Internal.Correction>
0.2814

> <Gold.Rescore>
     Score         DG    S(hbond)    S(metal)    S(lipo)     H(rot)  DE(clash)    DE(int)     intcor
     17.29     -19.07       1.73        0.00      93.69       1.23       0.17       1.60       ----

> <Gold.Chemscore.Fitness>
17.2949

> <Gold.Chemscore.DG>
-19.0679

> <Gold.Chemscore.ZeroCoef>
-5.4800

> <Gold.Chemscore.Hbond>
1.7319

> <Gold.Chemscore.Metal>
0.0000

> <Gold.Chemscore.Lipo>
93.6883

> <Gold.Chemscore.Internal_Hbond>
0.0000

> <Gold.Chemscore.DEClash>
0.1687

> <Gold.Chemscore.DEInternal>
1.6043

> <Gold.Chemscore.Rot>
1.2337

> <Gold.Chemscore.Internal.Correction>
   9.000000E+99

> <Gold.Chemscore.Hbonds>
donor molecule, donor type, donor heavy atom, donor atom, acceptor molecule, acceptor atom, score
      L1  H     8    24       P1  8028  0.97
      L1  H    11    25       P1  8028  0.24

> <Gold.Chemscore.Hbond.Weighted>
-5.7846

> <Gold.Chemscore.Metal.Weighted>
-0.0000

> <Gold.Chemscore.Lipo.Weighted>
-10.9615

> <Gold.Chemscore.Internal_Hbond.Weighted>
0.0000

> <Gold.Chemscore.DEClash.Weighted>
0.1687

> <Gold.Chemscore.DEInternal.Weighted>
1.6043

> <Gold.Chemscore.Rot.Weighted>
3.1582

> <Gold.Chemscore.Internal.Correction.Weighted>
   9.000000E+99

> <Gold.Protein.RotatedTorsions>
[ 6907 6896 6895 6894 ] final  -11.48 input  -60.11 | X-H torsion
[ 7974 7965 7964 7962 ] final   90.92 input  175.53 | X-H torsion
[ 8008 7997 7996 7995 ] final  116.51 input   59.86 | X-H torsion
[ 10167 10162 10161 10158 ] final  119.45 input  -65.29 | X-H torsion
[ 10718 10713 10712 10709 ] final  -40.58 input   66.30 | X-H torsion
[ 10763 10752 10751 10750 ] final   91.19 input  -60.55 | X-H torsion
[ 11005 11000 10999 10996 ] final   -5.58 input  -57.11 | X-H torsion

> <Gold.Protein.ActiveResidues>
 VAL166  LYS551  ARG553  GLY616  TRP617  ASP618  TYR619  PRO620  LYS621  CYS622 
 ASP623  PHE694  ASN695  SER759  ASP760  ASP761  ALA762  ILE779  LEU786  VAL792 
 PHE793  MET794  SER795  GLU796  ALA797  LYS798  CYS799  TRP800  GLU811  SER814 

> <Gold.Protein.RotatedAtoms>
  151.3855  135.0947  159.9509 H   0  0  0  0  0  0  0  0  0  0  0  0  # atno 6907 bound_to 6896
  152.5095  133.9030  159.7461 H   0  0  0  0  0  0  0  0  0  0  0  0  # atno 6908 bound_to 6896
  150.9473  133.6533  159.2807 H   0  0  0  0  0  0  0  0  0  0  0  0  # atno 6909 bound_to 6896
  145.5126  139.2277  143.2716 H   0  0  0  0  0  0  0  0  0  0  0  0  # atno 7974 bound_to 7965
  156.2443  140.2916  156.0534 H   0  0  0  0  0  0  0  0  0  0  0  0  # atno 8008 bound_to 7997
  155.1856  140.0405  157.2908 H   0  0  0  0  0  0  0  0  0  0  0  0  # atno 8009 bound_to 7997
  154.6229  140.2480  155.7534 H   0  0  0  0  0  0  0  0  0  0  0  0  # atno 8010 bound_to 7997
  139.6045  144.7066  151.2985 H   0  0  0  0  0  0  0  0  0  0  0  0  # atno 10167 bound_to 10162
  156.2798  130.4216  149.8349 H   0  0  0  0  0  0  0  0  0  0  0  0  # atno 10718 bound_to 10713
  153.2056  135.4406  155.0319 H   0  0  0  0  0  0  0  0  0  0  0  0  # atno 10763 bound_to 10752
  154.8172  135.3320  154.7146 H   0  0  0  0  0  0  0  0  0  0  0  0  # atno 10764 bound_to 10752
  153.7587  135.6993  153.4985 H   0  0  0  0  0  0  0  0  0  0  0  0  # atno 10765 bound_to 10752
  140.6926  133.9058  155.8629 H   0  0  0  0  0  0  0  0  0  0  0  0  # atno 11005 bound_to 11000
  146.2157  140.5933  142.9039 LP  0  0  0  0  0  0  0  0  0  0  0  0  # atno 17320 bound_to 7965
  144.7719  140.5657  143.6664 LP  0  0  0  0  0  0  0  0  0  0  0  0  # atno 17321 bound_to 7965
  140.7275  143.6962  150.7882 LP  0  0  0  0  0  0  0  0  0  0  0  0  # atno 17342 bound_to 10162
  140.0545  143.5216  152.2658 LP  0  0  0  0  0  0  0  0  0  0  0  0  # atno 17343 bound_to 10162
  156.5801  130.8462  151.3380 LP  0  0  0  0  0  0  0  0  0  0  0  0  # atno 17370 bound_to 10713
  157.7311  130.9694  150.1862 LP  0  0  0  0  0  0  0  0  0  0  0  0  # atno 17371 bound_to 10713
  141.0229  134.0864  157.4101 LP  0  0  0  0  0  0  0  0  0  0  0  0  # atno 17394 bound_to 11000
  139.8919  135.0121  156.6816 LP  0  0  0  0  0  0  0  0  0  0  0  0  # atno 17395 bound_to 11000

$$$$
