AV-unprocessed.smi:3318|AV-procd|sdf|12764|dock7
  -GOLD-   2272019103D 1   1.00000     0.00000
 Structure written by MMmdl.
 44 45  0  0  0  0  0  0  0  0  2 V2000
  151.5900  141.6304  159.0419 C   0  0  0  0  0  0  0  0  0  0  0  0
  150.8756  141.0227  157.8274 C   0  0  0  0  0  0  0  0  0  0  0  0
  151.5894  141.3146  156.4929 C   0  0  0  0  0  0  0  0  0  0  0  0
  150.9183  140.7094  155.3413 N   0  0  0  0  0  0  0  0  0  0  0  0
  149.5198  141.1442  155.3273 C   0  0  0  0  0  0  0  0  0  0  0  0
  148.8086  140.6130  154.0710 C   0  0  0  0  0  0  0  0  0  0  0  0
  148.8548  139.0790  154.0171 C   0  0  0  0  0  0  0  0  0  0  0  0
  148.2432  138.5961  152.7594 N   0  3  0  0  0  0  0  0  0  0  0  0
  146.7682  138.6679  152.7065 C   0  0  0  0  0  0  0  0  0  0  0  0
  146.2403  138.1192  151.3738 C   0  0  0  0  0  0  0  0  0  0  0  0
  145.4250  136.8526  151.5549 C   0  0  0  0  0  0  0  0  0  0  0  0
  145.7153  135.6938  150.8034 C   0  0  0  0  0  0  0  0  0  0  0  0
  144.9254  134.5458  151.0091 C   0  0  0  0  0  0  0  0  0  0  0  0
  143.8809  134.6015  151.9519 C   0  0  0  0  0  0  0  0  0  0  0  0
  143.6718  135.8069  152.6508 C   0  0  0  0  0  0  0  0  0  0  0  0
  144.4231  136.9135  152.4607 N   0  0  0  0  0  0  0  0  0  0  0  0
  150.3194  138.6276  154.1565 C   0  0  0  0  0  0  0  0  0  0  0  0
  150.9731  139.2451  155.4056 C   0  0  0  0  0  0  0  0  0  0  0  0
  151.0245  141.4471  159.9557 H   0  0  0  0  0  0  0  0  0  0  0  0
  151.7045  142.7091  158.9327 H   0  0  0  0  0  0  0  0  0  0  0  0
  152.5822  141.1988  159.1757 H   0  0  0  0  0  0  0  0  0  0  0  0
  150.7311  139.9537  157.9778 H   0  0  0  0  0  0  0  0  0  0  0  0
  149.8721  141.4457  157.7756 H   0  0  0  0  0  0  0  0  0  0  0  0
  151.6848  142.3909  156.3410 H   0  0  0  0  0  0  0  0  0  0  0  0
  152.6056  140.9245  156.5671 H   0  0  0  0  0  0  0  0  0  0  0  0
  149.0087  140.8039  156.2295 H   0  0  0  0  0  0  0  0  0  0  0  0
  149.4742  142.2342  155.3259 H   0  0  0  0  0  0  0  0  0  0  0  0
  147.7734  140.9560  154.0643 H   0  0  0  0  0  0  0  0  0  0  0  0
  149.2806  141.0354  153.1823 H   0  0  0  0  0  0  0  0  0  0  0  0
  148.2756  138.6910  154.8564 H   0  0  0  0  0  0  0  0  0  0  0  0
  148.5997  139.1682  152.0072 H   0  0  0  0  0  0  0  0  0  0  0  0
  146.3426  138.0988  153.5328 H   0  0  0  0  0  0  0  0  0  0  0  0
  146.4525  139.7047  152.8300 H   0  0  0  0  0  0  0  0  0  0  0  0
  145.6264  138.8719  150.8771 H   0  0  0  0  0  0  0  0  0  0  0  0
  147.0719  137.9085  150.6995 H   0  0  0  0  0  0  0  0  0  0  0  0
  146.5228  135.6810  150.0861 H   0  0  0  0  0  0  0  0  0  0  0  0
  145.1174  133.6393  150.4542 H   0  0  0  0  0  0  0  0  0  0  0  0
  143.2551  133.7404  152.1357 H   0  0  0  0  0  0  0  0  0  0  0  0
  142.8795  135.8848  153.3806 H   0  0  0  0  0  0  0  0  0  0  0  0
  150.3811  137.5415  154.2257 H   0  0  0  0  0  0  0  0  0  0  0  0
  150.8872  138.9146  153.2700 H   0  0  0  0  0  0  0  0  0  0  0  0
  152.0058  138.9036  155.4576 H   0  0  0  0  0  0  0  0  0  0  0  0
  150.4745  138.8891  156.3087 H   0  0  0  0  0  0  0  0  0  0  0  0
  148.5353  137.6422  152.6014 H   0  0  0  0  0  0  0  0  0  0  0  0
  1  2  1  0  0  0  0
  1 19  1  0  0  0  0
  1 20  1  0  0  0  0
  1 21  1  0  0  0  0
  2  3  1  0  0  0  0
  2 22  1  0  0  0  0
  2 23  1  0  0  0  0
  3  4  1  0  0  0  0
  3 24  1  0  0  0  0
  3 25  1  0  0  0  0
  4 18  1  0  0  0  0
  4  5  1  0  0  0  0
  5  6  1  0  0  0  0
  5 26  1  0  0  0  0
  5 27  1  0  0  0  0
  6  7  1  0  0  0  0
  6 28  1  0  0  0  0
  6 29  1  0  0  0  0
  7  8  1  0  0  0  0
  7 17  1  0  0  0  0
  7 30  1  0  0  0  0
  8  9  1  0  0  0  0
  8 31  1  0  0  0  0
  8 44  1  0  0  0  0
  9 10  1  0  0  0  0
  9 32  1  0  0  0  0
  9 33  1  0  0  0  0
 10 11  1  0  0  0  0
 10 34  1  0  0  0  0
 10 35  1  0  0  0  0
 11 16  1  0  0  0  0
 11 12  2  0  0  0  0
 12 13  1  0  0  0  0
 12 36  1  0  0  0  0
 13 14  2  0  0  0  0
 13 37  1  0  0  0  0
 14 15  1  0  0  0  0
 14 38  1  0  0  0  0
 15 16  2  0  0  0  0
 15 39  1  0  0  0  0
 17 18  1  0  0  0  0
 17 40  1  0  0  0  0
 17 41  1  0  0  0  0
 18 42  1  0  0  0  0
 18 43  1  0  0  0  0
M  CHG  1   8   1
M  END
> <s_m_source_file>
AV-unprocessed.smi

> <i_m_source_file_index>
3318

> <i_lp_mmshare_version>
43012

> <i_f3d_flags>
0

> <s_epik_input>
W0NIM11bQ0gyXVtDSDJdTjFbQ0gyXVtDSDJdW0NIXShbQ0gyXVtDSDJdMSlbTkhdW0NIMl1bQ0gyXWMyW2NIXVtjSF1bY0hdW2NIXW4y

> <s_epik_cmdline>
J2VwaWtfcHl0aG9uJywgJy1waCcsICc3LjAnLCAnLXRuJywgJzgnLCAnLW1hJywgJzIwMCcsICctbWV0YWxfYmluZGluZycsICctaW1hZScsICc8aW5maWxlLm1hZT4nLCAnLW9tYWUnLCAnPG91dGZpbGUubWFlPic=

> <r_epik_Ionization_Penalty>
1.50803

> <r_epik_Ionization_Penalty_Charging>
0.000531593

> <r_epik_Ionization_Penalty_Neutral>
1.5075

> <r_epik_State_Penalty>
1.60727

> <r_epik_Charging_Adjusted_Penalty>
1.6078

> <i_epik_Tot_Q>
1

> <i_epik_Tot_abs_Q>
1

> <r_epik_Metal_State_Penalty>
1.6087

> <b_epik_Metal_Only>
0

> <s_lp_Force_Field>
OPLS_2005

> <r_lp_Energy>
19.6285

> <b_lp_Chiralities_Consistent>
1

> <s_lp_Variant>
AV-unprocessed.smi:3318-3

> <Gold.Version>
5.8.1

> <Gold.Id.Protein>
6NUR|6NUR_protein|mol2

> <Gold.PLP.Fitness>
45.8679

> <Gold.PLP.PLP>
-35.2052

> <Gold.PLP.part.hbond>
-3.0000

> <Gold.PLP.part.metal>
0.0000

> <Gold.PLP.part.buried>
0.3715

> <Gold.PLP.part.nonpolar>
-33.0983

> <Gold.PLP.part.repulsive>
0.3082

> <Gold.PLP.ligand.clash>
0.0000

> <Gold.PLP.ligand.torsion>
0.5584

> <Gold.PLP.Chemscore.Hbond>
3.9120

> <Gold.PLP.Chemscore.CHOScore>
0.0000

> <Gold.PLP.Chemscore.Metal>
0.0000

> <Gold.Chemscore.Hbonds>
donor molecule, donor type, donor heavy atom, donor atom, acceptor molecule, acceptor atom, score
      L1  H     8    31       P1  7957  1.00
      L1  H     8    44       P1  7948  2.00
      P1  H  7989  7998       L1     4  0.73

> <Gold.PLP.Chemscore.Internal.Correction>
0.0435

> <Gold.Rescore>
     Score         DG    S(hbond)    S(metal)    S(lipo)     H(rot)  DE(clash)    DE(int)     intcor
     18.38     -19.61       2.10        0.00      93.16       1.48       0.65       0.57       ----

> <Gold.Chemscore.Fitness>
18.3821

> <Gold.Chemscore.DG>
-19.6060

> <Gold.Chemscore.ZeroCoef>
-5.4800

> <Gold.Chemscore.Hbond>
2.1036

> <Gold.Chemscore.Metal>
0.0000

> <Gold.Chemscore.Lipo>
93.1559

> <Gold.Chemscore.Internal_Hbond>
0.0000

> <Gold.Chemscore.DEClash>
0.6519

> <Gold.Chemscore.DEInternal>
0.5719

> <Gold.Chemscore.Rot>
1.4840

> <Gold.Chemscore.Internal.Correction>
   9.000000E+99

> <Gold.Chemscore.Hbonds>
donor molecule, donor type, donor heavy atom, donor atom, acceptor molecule, acceptor atom, score
      L1  H     8    31       P1  7957  0.95
      L1  H     8    44       P1  7948  0.99
      P1  H  7989  7998       L1     4  0.08

> <Gold.Chemscore.Hbond.Weighted>
-7.0259

> <Gold.Chemscore.Metal.Weighted>
-0.0000

> <Gold.Chemscore.Lipo.Weighted>
-10.8992

> <Gold.Chemscore.Internal_Hbond.Weighted>
0.0000

> <Gold.Chemscore.DEClash.Weighted>
0.6519

> <Gold.Chemscore.DEInternal.Weighted>
0.5719

> <Gold.Chemscore.Rot.Weighted>
3.7991

> <Gold.Chemscore.Internal.Correction.Weighted>
   9.000000E+99

> <Gold.Protein.RotatedTorsions>
[ 6907 6896 6895 6894 ] final  -42.02 input  -60.11 | X-H torsion
[ 7974 7965 7964 7962 ] final  -47.26 input  175.53 | X-H torsion
[ 8008 7997 7996 7995 ] final   70.60 input   59.86 | X-H torsion
[ 10167 10162 10161 10158 ] final   -4.62 input  -65.29 | X-H torsion
[ 10718 10713 10712 10709 ] final -161.80 input   66.30 | X-H torsion
[ 10763 10752 10751 10750 ] final  152.32 input  -60.55 | X-H torsion
[ 11005 11000 10999 10996 ] final  -73.09 input  -57.11 | X-H torsion

> <Gold.Protein.ActiveResidues>
 VAL166  LYS551  ARG553  GLY616  TRP617  ASP618  TYR619  PRO620  LYS621  CYS622 
 ASP623  PHE694  ASN695  SER759  ASP760  ASP761  ALA762  ILE779  LEU786  VAL792 
 PHE793  MET794  SER795  GLU796  ALA797  LYS798  CYS799  TRP800  GLU811  SER814 

> <Gold.Protein.RotatedAtoms>
  150.9600  134.8989  159.7724 H   0  0  0  0  0  0  0  0  0  0  0  0  # atno 6907 bound_to 6896
  152.5152  134.3686  159.9320 H   0  0  0  0  0  0  0  0  0  0  0  0  # atno 6908 bound_to 6896
  151.3699  133.3818  159.2733 H   0  0  0  0  0  0  0  0  0  0  0  0  # atno 6909 bound_to 6896
  145.9634  140.7456  142.9446 H   0  0  0  0  0  0  0  0  0  0  0  0  # atno 7974 bound_to 7965
  155.7412  140.3490  155.5105 H   0  0  0  0  0  0  0  0  0  0  0  0  # atno 8008 bound_to 7997
  155.9092  140.1047  157.1313 H   0  0  0  0  0  0  0  0  0  0  0  0  # atno 8009 bound_to 7997
  154.4053  140.1271  156.4522 H   0  0  0  0  0  0  0  0  0  0  0  0  # atno 8010 bound_to 7997
  140.6934  143.6402  150.8442 H   0  0  0  0  0  0  0  0  0  0  0  0  # atno 10167 bound_to 10162
  156.6014  130.8812  151.2914 H   0  0  0  0  0  0  0  0  0  0  0  0  # atno 10718 bound_to 10713
  154.1181  135.2834  155.3215 H   0  0  0  0  0  0  0  0  0  0  0  0  # atno 10763 bound_to 10752
  154.6442  135.5391  153.7828 H   0  0  0  0  0  0  0  0  0  0  0  0  # atno 10764 bound_to 10752
  153.0322  135.6494  154.1337 H   0  0  0  0  0  0  0  0  0  0  0  0  # atno 10765 bound_to 10752
  141.1618  133.6867  156.7158 H   0  0  0  0  0  0  0  0  0  0  0  0  # atno 11005 bound_to 11000
  144.6820  140.2628  143.7316 LP  0  0  0  0  0  0  0  0  0  0  0  0  # atno 17320 bound_to 7965
  145.8008  139.1963  143.2049 LP  0  0  0  0  0  0  0  0  0  0  0  0  # atno 17321 bound_to 7965
  140.0117  143.5635  152.2836 LP  0  0  0  0  0  0  0  0  0  0  0  0  # atno 17342 bound_to 10162
  139.6361  144.7650  151.2434 LP  0  0  0  0  0  0  0  0  0  0  0  0  # atno 17343 bound_to 10162
  157.7278  130.9649  150.1717 LP  0  0  0  0  0  0  0  0  0  0  0  0  # atno 17370 bound_to 10713
  156.2466  130.3696  149.8278 LP  0  0  0  0  0  0  0  0  0  0  0  0  # atno 17371 bound_to 10713
  140.2853  134.8284  157.3969 LP  0  0  0  0  0  0  0  0  0  0  0  0  # atno 17394 bound_to 11000
  140.1396  134.4989  155.8042 LP  0  0  0  0  0  0  0  0  0  0  0  0  # atno 17395 bound_to 11000

$$$$
