AV-unprocessed.smi:575|AV-procd|sdf|2977|dock5
  -GOLD-   2262023483D 1   1.00000     0.00000
 Structure written by MMmdl.
 33 34  0  0  0  0  0  0  0  0  1 V2000
  146.5116  138.9138  152.6568 C   0  0  0  0  0  0  0  0  0  0  0  0
  147.4911  139.5339  153.5930 C   0  0  0  0  0  0  0  0  0  0  0  0
  147.6522  140.8076  154.0616 C   0  0  0  0  0  0  0  0  0  0  0  0
  148.7812  140.6937  154.9158 C   0  0  0  0  0  0  0  0  0  0  0  0
  149.2855  141.8227  155.6112 N   0  0  0  0  0  0  0  0  0  0  0  0
  150.2776  141.8496  156.5175 C   0  0  0  0  0  0  0  0  0  0  0  0
  150.9082  140.8664  156.9077 O   0  0  0  0  0  0  0  0  0  0  0  0
  150.5022  143.0963  156.9581 N   0  0  0  0  0  0  0  0  0  0  0  0
  151.5131  143.4714  157.9428 C   0  0  0  0  0  0  0  0  0  0  0  0
  151.5669  142.4419  159.0906 C   0  0  0  0  0  0  0  0  0  0  0  0
  152.5798  142.8578  160.1696 C   0  0  0  0  0  0  0  0  0  0  0  0
  152.2782  144.2659  160.7067 C   0  0  0  0  0  0  0  0  0  0  0  0
  152.2240  145.2949  159.5664 C   0  0  0  0  0  0  0  0  0  0  0  0
  151.2100  144.8800  158.4877 C   0  0  0  0  0  0  0  0  0  0  0  0
  149.2659  139.4622  154.9634 N   0  0  0  0  0  0  0  0  0  0  0  0
  148.4418  138.7127  154.1156 O   0  0  0  0  0  0  0  0  0  0  0  0
  145.6731  139.5846  152.4693 H   0  0  0  0  0  0  0  0  0  0  0  0
  146.1156  137.9854  153.0683 H   0  0  0  0  0  0  0  0  0  0  0  0
  146.9838  138.6868  151.7010 H   0  0  0  0  0  0  0  0  0  0  0  0
  147.0565  141.6778  153.8285 H   0  0  0  0  0  0  0  0  0  0  0  0
  148.8468  142.7045  155.3912 H   0  0  0  0  0  0  0  0  0  0  0  0
  149.9367  143.8431  156.5821 H   0  0  0  0  0  0  0  0  0  0  0  0
  152.4888  143.5031  157.4533 H   0  0  0  0  0  0  0  0  0  0  0  0
  150.5792  142.3391  159.5424 H   0  0  0  0  0  0  0  0  0  0  0  0
  151.8327  141.4575  158.7032 H   0  0  0  0  0  0  0  0  0  0  0  0
  152.5679  142.1373  160.9878 H   0  0  0  0  0  0  0  0  0  0  0  0
  153.5867  142.8342  159.7511 H   0  0  0  0  0  0  0  0  0  0  0  0
  151.3257  144.2584  161.2381 H   0  0  0  0  0  0  0  0  0  0  0  0
  153.0361  144.5570  161.4347 H   0  0  0  0  0  0  0  0  0  0  0  0
  151.9636  146.2765  159.9632 H   0  0  0  0  0  0  0  0  0  0  0  0
  153.2131  145.3957  159.1176 H   0  0  0  0  0  0  0  0  0  0  0  0
  151.2235  145.6064  157.6742 H   0  0  0  0  0  0  0  0  0  0  0  0
  150.2041  144.9063  158.9094 H   0  0  0  0  0  0  0  0  0  0  0  0
  1  2  1  0  0  0  0
  1 17  1  0  0  0  0
  1 18  1  0  0  0  0
  1 19  1  0  0  0  0
  2 16  1  0  0  0  0
  2  3  2  0  0  0  0
  3  4  1  0  0  0  0
  3 20  1  0  0  0  0
  4  5  1  0  0  0  0
  4 15  2  0  0  0  0
  5  6  1  0  0  0  0
  5 21  1  0  0  0  0
  6  7  2  0  0  0  0
  6  8  1  0  0  0  0
  8  9  1  0  0  0  0
  8 22  1  0  0  0  0
  9 14  1  0  0  0  0
  9 10  1  0  0  0  0
  9 23  1  0  0  0  0
 10 11  1  0  0  0  0
 10 24  1  0  0  0  0
 10 25  1  0  0  0  0
 11 12  1  0  0  0  0
 11 26  1  0  0  0  0
 11 27  1  0  0  0  0
 12 13  1  0  0  0  0
 12 28  1  0  0  0  0
 12 29  1  0  0  0  0
 13 14  1  0  0  0  0
 13 30  1  0  0  0  0
 13 31  1  0  0  0  0
 14 32  1  0  0  0  0
 14 33  1  0  0  0  0
 15 16  1  0  0  0  0
M  END
> <s_m_source_file>
AV-unprocessed.smi

> <i_m_source_file_index>
575

> <i_lp_mmshare_version>
43012

> <i_f3d_flags>
0

> <s_epik_input>
W0NIM11jMVtjSF1jKG5vMSlbTkhdQyg9TylbTkhdW0NIXTJbQ0gyXVtDSDJdW0NIMl1bQ0gyXVtDSDJdMg==

> <s_epik_cmdline>
J2VwaWtfcHl0aG9uJywgJy1waCcsICc3LjAnLCAnLXRuJywgJzgnLCAnLW1hJywgJzIwMCcsICctbWV0YWxfYmluZGluZycsICctaW1hZScsICc8aW5maWxlLm1hZT4nLCAnLW9tYWUnLCAnPG91dGZpbGUubWFlPic=

> <r_lp_tautomer_probability>
1

> <r_epik_Ionization_Penalty>
2.357e-05

> <r_epik_Ionization_Penalty_Charging>
0

> <r_epik_Ionization_Penalty_Neutral>
2.357e-05

> <r_epik_State_Penalty>
-0

> <r_epik_Charging_Adjusted_Penalty>
0

> <i_epik_Tot_Q>
0

> <i_epik_Tot_abs_Q>
0

> <r_epik_Metal_State_Penalty>
-0

> <b_epik_Metal_Only>
0

> <s_lp_Force_Field>
OPLS_2005

> <r_lp_Energy>
6.74104

> <b_lp_Chiralities_Consistent>
1

> <s_lp_Variant>
AV-unprocessed.smi:575-1

> <Gold.Version>
5.8.1

> <Gold.Id.Protein>
6NUR|6NUR_protein|mol2

> <Gold.PLP.Fitness>
41.2403

> <Gold.PLP.PLP>
-35.9310

> <Gold.PLP.part.hbond>
-2.0000

> <Gold.PLP.part.metal>
0.0000

> <Gold.PLP.part.buried>
-3.6235

> <Gold.PLP.part.nonpolar>
-31.3991

> <Gold.PLP.part.repulsive>
1.2359

> <Gold.PLP.ligand.clash>
0.0000

> <Gold.PLP.ligand.torsion>
0.2391

> <Gold.PLP.Chemscore.Hbond>
1.9280

> <Gold.PLP.Chemscore.CHOScore>
0.0000

> <Gold.PLP.Chemscore.Metal>
0.0000

> <Gold.Chemscore.Hbonds>
donor molecule, donor type, donor heavy atom, donor atom, acceptor molecule, acceptor atom, score
      L1  H     5    21       P1  8028  0.94
      L1  H     8    22       P1  8028  1.00

> <Gold.PLP.Chemscore.Internal.Correction>
0.0036

> <Gold.Rescore>
     Score         DG    S(hbond)    S(metal)    S(lipo)     H(rot)  DE(clash)    DE(int)     intcor
     16.63     -19.64       1.91        0.00      88.25       1.00       0.04       2.97       ----

> <Gold.Chemscore.Fitness>
16.6319

> <Gold.Chemscore.DG>
-19.6376

> <Gold.Chemscore.ZeroCoef>
-5.4800

> <Gold.Chemscore.Hbond>
1.9138

> <Gold.Chemscore.Metal>
0.0000

> <Gold.Chemscore.Lipo>
88.2518

> <Gold.Chemscore.Internal_Hbond>
0.0000

> <Gold.Chemscore.DEClash>
0.0357

> <Gold.Chemscore.DEInternal>
2.9700

> <Gold.Chemscore.Rot>
1.0000

> <Gold.Chemscore.Internal.Correction>
   9.000000E+99

> <Gold.Chemscore.Hbonds>
donor molecule, donor type, donor heavy atom, donor atom, acceptor molecule, acceptor atom, score
      L1  H     5    21       P1  8028  0.85
      L1  H     8    22       P1  8028  0.99

> <Gold.Chemscore.Hbond.Weighted>
-6.3921

> <Gold.Chemscore.Metal.Weighted>
-0.0000

> <Gold.Chemscore.Lipo.Weighted>
-10.3255

> <Gold.Chemscore.Internal_Hbond.Weighted>
0.0000

> <Gold.Chemscore.DEClash.Weighted>
0.0357

> <Gold.Chemscore.DEInternal.Weighted>
2.9700

> <Gold.Chemscore.Rot.Weighted>
2.5600

> <Gold.Chemscore.Internal.Correction.Weighted>
   9.000000E+99

> <Gold.Protein.RotatedTorsions>
[ 6907 6896 6895 6894 ] final  144.42 input  -60.11 | X-H torsion
[ 7974 7965 7964 7962 ] final  149.74 input  175.53 | X-H torsion
[ 8008 7997 7996 7995 ] final   90.68 input   59.86 | X-H torsion
[ 10167 10162 10161 10158 ] final  -52.95 input  -65.29 | X-H torsion
[ 10718 10713 10712 10709 ] final  104.10 input   66.30 | X-H torsion
[ 10763 10752 10751 10750 ] final   20.58 input  -60.55 | X-H torsion
[ 11005 11000 10999 10996 ] final  150.15 input  -57.11 | X-H torsion

> <Gold.Protein.ActiveResidues>
 VAL166  LYS551  ARG553  GLY616  TRP617  ASP618  TYR619  PRO620  LYS621  CYS622 
 ASP623  PHE694  ASN695  SER759  ASP760  ASP761  ALA762  ILE779  LEU786  VAL792 
 PHE793  MET794  SER795  GLU796  ALA797  LYS798  CYS799  TRP800  GLU811  SER814 

> <Gold.Protein.RotatedAtoms>
  152.1938  133.4792  159.5021 H   0  0  0  0  0  0  0  0  0  0  0  0  # atno 6907 bound_to 6896
  150.6956  134.1678  159.4209 H   0  0  0  0  0  0  0  0  0  0  0  0  # atno 6908 bound_to 6896
  151.9593  135.0131  160.0597 H   0  0  0  0  0  0  0  0  0  0  0  0  # atno 6909 bound_to 6896
  144.8415  139.6320  143.6014 H   0  0  0  0  0  0  0  0  0  0  0  0  # atno 7974 bound_to 7965
  156.0149  140.3346  155.6978 H   0  0  0  0  0  0  0  0  0  0  0  0  # atno 8008 bound_to 7997
  155.6106  140.0665  157.2725 H   0  0  0  0  0  0  0  0  0  0  0  0  # atno 8009 bound_to 7997
  154.4294  140.1794  156.1256 H   0  0  0  0  0  0  0  0  0  0  0  0  # atno 8010 bound_to 7997
  140.6510  143.2566  151.4722 H   0  0  0  0  0  0  0  0  0  0  0  0  # atno 10167 bound_to 10162
  157.6751  131.0795  150.5656 H   0  0  0  0  0  0  0  0  0  0  0  0  # atno 10718 bound_to 10713
  153.1065  135.6686  153.9576 H   0  0  0  0  0  0  0  0  0  0  0  0  # atno 10763 bound_to 10752
  153.9132  135.3023  155.3450 H   0  0  0  0  0  0  0  0  0  0  0  0  # atno 10764 bound_to 10752
  154.7486  135.5045  153.9325 H   0  0  0  0  0  0  0  0  0  0  0  0  # atno 10765 bound_to 10752
  140.1106  134.8926  157.1931 H   0  0  0  0  0  0  0  0  0  0  0  0  # atno 11005 bound_to 11000
  146.2707  139.6628  142.9298 LP  0  0  0  0  0  0  0  0  0  0  0  0  # atno 17320 bound_to 7965
  145.4684  141.0435  143.2712 LP  0  0  0  0  0  0  0  0  0  0  0  0  # atno 17321 bound_to 7965
  139.5725  144.1894  152.1857 LP  0  0  0  0  0  0  0  0  0  0  0  0  # atno 17342 bound_to 10162
  140.1195  144.5386  150.6872 LP  0  0  0  0  0  0  0  0  0  0  0  0  # atno 17343 bound_to 10162
  156.5958  130.4341  149.5917 LP  0  0  0  0  0  0  0  0  0  0  0  0  # atno 17370 bound_to 10713
  156.2546  130.6927  151.1676 LP  0  0  0  0  0  0  0  0  0  0  0  0  # atno 17371 bound_to 10713
  140.3096  134.3039  155.7270 LP  0  0  0  0  0  0  0  0  0  0  0  0  # atno 17394 bound_to 11000
  141.2129  133.7642  156.9757 LP  0  0  0  0  0  0  0  0  0  0  0  0  # atno 17395 bound_to 11000

$$$$
