AV-unprocessed.smi:2191|AV-procd|sdf|8892|dock5
  -GOLD-   2272012 93D 1   1.00000     0.00000
 Structure written by MMmdl.
 36 38  0  0  0  0  0  0  0  0  1 V2000
  149.2578  141.1290  153.7326 O   0  0  0  0  0  0  0  0  0  0  0  0
  149.6615  140.5393  154.9533 C   0  0  2  0  0  0  0  0  0  0  0  0
  150.6731  141.4764  155.6311 C   0  0  0  0  0  0  0  0  0  0  0  0
  150.5767  141.3139  157.0399 O   0  0  0  0  0  0  0  0  0  0  0  0
  151.1039  142.2974  157.8494 C   0  0  0  0  0  0  0  0  0  0  0  0
  151.4917  141.9143  159.1501 C   0  0  0  0  0  0  0  0  0  0  0  0
  152.0417  142.8525  160.0448 C   0  0  0  0  0  0  0  0  0  0  0  0
  152.2096  144.1909  159.6447 C   0  0  0  0  0  0  0  0  0  0  0  0
  151.8257  144.5879  158.3503 C   0  0  0  0  0  0  0  0  0  0  0  0
  151.2764  143.6489  157.4552 C   0  0  0  0  0  0  0  0  0  0  0  0
  150.2676  139.1516  154.6667 C   0  0  0  0  0  0  0  0  0  0  0  0
  151.4172  138.8585  155.5048 N   0  0  0  0  0  0  0  0  0  0  0  0
  152.7018  138.7620  155.1118 C   0  0  0  0  0  0  0  0  0  0  0  0
  153.6059  138.4806  156.0456 N   0  0  0  0  0  0  0  0  0  0  0  0
  152.8158  138.3817  157.1781 C   0  0  0  0  0  0  0  0  0  0  0  0
  153.1652  138.0975  158.5178 C   0  0  0  0  0  0  0  0  0  0  0  0
  152.1731  138.0447  159.5191 C   0  0  0  0  0  0  0  0  0  0  0  0
  150.8198  138.2771  159.1981 C   0  0  0  0  0  0  0  0  0  0  0  0
  150.4477  138.5640  157.8707 C   0  0  0  0  0  0  0  0  0  0  0  0
  151.4401  138.6127  156.8737 C   0  0  0  0  0  0  0  0  0  0  0  0
  148.6001  140.5769  153.3378 H   0  0  0  0  0  0  0  0  0  0  0  0
  148.7870  140.4176  155.5939 H   0  0  0  0  0  0  0  0  0  0  0  0
  151.6834  141.2023  155.3225 H   0  0  0  0  0  0  0  0  0  0  0  0
  150.5011  142.5117  155.3302 H   0  0  0  0  0  0  0  0  0  0  0  0
  151.3662  140.8887  159.4653 H   0  0  0  0  0  0  0  0  0  0  0  0
  152.3343  142.5446  161.0376 H   0  0  0  0  0  0  0  0  0  0  0  0
  152.6318  144.9118  160.3292 H   0  0  0  0  0  0  0  0  0  0  0  0
  151.9531  145.6152  158.0423 H   0  0  0  0  0  0  0  0  0  0  0  0
  150.9954  143.9916  156.4710 H   0  0  0  0  0  0  0  0  0  0  0  0
  149.5194  138.3715  154.8127 H   0  0  0  0  0  0  0  0  0  0  0  0
  150.5838  139.0867  153.6247 H   0  0  0  0  0  0  0  0  0  0  0  0
  152.9891  138.9074  154.0806 H   0  0  0  0  0  0  0  0  0  0  0  0
  154.1986  137.9184  158.7753 H   0  0  0  0  0  0  0  0  0  0  0  0
  152.4524  137.8250  160.5392 H   0  0  0  0  0  0  0  0  0  0  0  0
  150.0670  138.2360  159.9718 H   0  0  0  0  0  0  0  0  0  0  0  0
  149.4129  138.7457  157.6219 H   0  0  0  0  0  0  0  0  0  0  0  0
  1  2  1  0  0  0  0
  1 21  1  0  0  0  0
  2  3  1  0  0  0  0
  2 11  1  0  0  0  0
  2 22  1  0  0  0  0
  3  4  1  0  0  0  0
  3 23  1  0  0  0  0
  3 24  1  0  0  0  0
  4  5  1  0  0  0  0
  5 10  1  0  0  0  0
  5  6  2  0  0  0  0
  6  7  1  0  0  0  0
  6 25  1  0  0  0  0
  7  8  2  0  0  0  0
  7 26  1  0  0  0  0
  8  9  1  0  0  0  0
  8 27  1  0  0  0  0
  9 10  2  0  0  0  0
  9 28  1  0  0  0  0
 10 29  1  0  0  0  0
 11 12  1  0  0  0  0
 11 30  1  0  0  0  0
 11 31  1  0  0  0  0
 12 20  1  0  0  0  0
 12 13  1  0  0  0  0
 13 14  2  0  0  0  0
 13 32  1  0  0  0  0
 14 15  1  0  0  0  0
 15 20  2  0  0  0  0
 15 16  1  0  0  0  0
 16 17  2  0  0  0  0
 16 33  1  0  0  0  0
 17 18  1  0  0  0  0
 17 34  1  0  0  0  0
 18 19  2  0  0  0  0
 18 35  1  0  0  0  0
 19 20  1  0  0  0  0
 19 36  1  0  0  0  0
M  END
> <s_m_source_file>
AV-unprocessed.smi

> <i_m_source_file_index>
2191

> <i_lp_mmshare_version>
43012

> <i_f3d_flags>
0

> <s_epik_input>
W2NIXTFbY0hdW2NIXVtjSF1jKGMxMiluKFtjSF1uMilbQ0gyXVtDQEhdKFtPSF0pW0NIMl1PYzNbY0hdW2NIXVtjSF1bY0hdW2NIXTM=

> <s_epik_cmdline>
J2VwaWtfcHl0aG9uJywgJy1waCcsICc3LjAnLCAnLXRuJywgJzgnLCAnLW1hJywgJzIwMCcsICctbWV0YWxfYmluZGluZycsICctaW1hZScsICc8aW5maWxlLm1hZT4nLCAnLW9tYWUnLCAnPG91dGZpbGUubWFlPic=

> <r_lp_tautomer_probability>
1

> <r_epik_Ionization_Penalty>
0.0640132

> <r_epik_Ionization_Penalty_Charging>
0

> <r_epik_Ionization_Penalty_Neutral>
0.0640132

> <r_epik_State_Penalty>
0.0557325

> <r_epik_Charging_Adjusted_Penalty>
0.0557325

> <i_epik_Tot_Q>
0

> <i_epik_Tot_abs_Q>
0

> <r_epik_Metal_State_Penalty>
5.8435e-05

> <b_epik_Metal_Only>
0

> <s_lp_Force_Field>
OPLS_2005

> <r_lp_Energy>
16.2786

> <b_lp_Chiralities_Consistent>
1

> <s_lp_Variant>
AV-unprocessed.smi:2191-1

> <Gold.Version>
5.8.1

> <Gold.Id.Protein>
6NUR|6NUR_protein|mol2

> <Gold.PLP.Fitness>
45.6914

> <Gold.PLP.PLP>
-43.7725

> <Gold.PLP.part.hbond>
-4.0000

> <Gold.PLP.part.metal>
0.0000

> <Gold.PLP.part.buried>
-5.0195

> <Gold.PLP.part.nonpolar>
-34.6077

> <Gold.PLP.part.repulsive>
0.0369

> <Gold.PLP.ligand.clash>
0.0000

> <Gold.PLP.ligand.torsion>
1.4055

> <Gold.PLP.Chemscore.Hbond>
1.5680

> <Gold.PLP.Chemscore.CHOScore>
0.0000

> <Gold.PLP.Chemscore.Metal>
0.0000

> <Gold.Chemscore.Hbonds>
donor molecule, donor type, donor heavy atom, donor atom, acceptor molecule, acceptor atom, score
      P1  H  7997  8010       L1    14  0.41
      P1  H  8011  8017       L1     1  0.94

> <Gold.PLP.Chemscore.Internal.Correction>
0.0261

> <Gold.Rescore>
     Score         DG    S(hbond)    S(metal)    S(lipo)     H(rot)  DE(clash)    DE(int)     intcor
     13.23     -15.20       0.58        0.00     115.21       2.22       0.32       1.65       ----

> <Gold.Chemscore.Fitness>
13.2315

> <Gold.Chemscore.DG>
-15.2036

> <Gold.Chemscore.ZeroCoef>
-5.4800

> <Gold.Chemscore.Hbond>
0.5772

> <Gold.Chemscore.Metal>
0.0000

> <Gold.Chemscore.Lipo>
115.2054

> <Gold.Chemscore.Internal_Hbond>
0.0000

> <Gold.Chemscore.DEClash>
0.3215

> <Gold.Chemscore.DEInternal>
1.6507

> <Gold.Chemscore.Rot>
2.2200

> <Gold.Chemscore.Internal.Correction>
   9.000000E+99

> <Gold.Chemscore.Hbonds>
donor molecule, donor type, donor heavy atom, donor atom, acceptor molecule, acceptor atom, score
      P1  H  7997  8010       L1    14  0.04
      P1  H  8011  8017       L1     1  0.49

> <Gold.Chemscore.Hbond.Weighted>
-1.9278

> <Gold.Chemscore.Metal.Weighted>
-0.0000

> <Gold.Chemscore.Lipo.Weighted>
-13.4790

> <Gold.Chemscore.Internal_Hbond.Weighted>
0.0000

> <Gold.Chemscore.DEClash.Weighted>
0.3215

> <Gold.Chemscore.DEInternal.Weighted>
1.6507

> <Gold.Chemscore.Rot.Weighted>
5.6832

> <Gold.Chemscore.Internal.Correction.Weighted>
   9.000000E+99

> <Gold.Protein.RotatedTorsions>
[ 6907 6896 6895 6894 ] final -116.86 input  -60.11 | X-H torsion
[ 7974 7965 7964 7962 ] final   20.75 input  175.53 | X-H torsion
[ 8008 7997 7996 7995 ] final  104.89 input   59.86 | X-H torsion
[ 10167 10162 10161 10158 ] final  165.27 input  -65.29 | X-H torsion
[ 10718 10713 10712 10709 ] final   94.46 input   66.30 | X-H torsion
[ 10763 10752 10751 10750 ] final -166.61 input  -60.55 | X-H torsion
[ 11005 11000 10999 10996 ] final   41.01 input  -57.11 | X-H torsion

> <Gold.Protein.ActiveResidues>
 VAL166  LYS551  ARG553  GLY616  TRP617  ASP618  TYR619  PRO620  LYS621  CYS622 
 ASP623  PHE694  ASN695  SER759  ASP760  ASP761  ALA762  ILE779  LEU786  VAL792 
 PHE793  MET794  SER795  GLU796  ALA797  LYS798  CYS799  TRP800  GLU811  SER814 

> <Gold.Protein.RotatedAtoms>
  150.8090  133.8457  159.3191 H   0  0  0  0  0  0  0  0  0  0  0  0  # atno 6907 bound_to 6896
  151.6248  135.1027  160.0119 H   0  0  0  0  0  0  0  0  0  0  0  0  # atno 6908 bound_to 6896
  152.4181  133.7031  159.6492 H   0  0  0  0  0  0  0  0  0  0  0  0  # atno 6909 bound_to 6896
  146.2099  139.8124  142.8697 H   0  0  0  0  0  0  0  0  0  0  0  0  # atno 7974 bound_to 7965
  156.1612  140.3140  155.8810 H   0  0  0  0  0  0  0  0  0  0  0  0  # atno 8008 bound_to 7997
  155.3779  140.0486  157.3061 H   0  0  0  0  0  0  0  0  0  0  0  0  # atno 8009 bound_to 7997
  154.5148  140.2177  155.9098 H   0  0  0  0  0  0  0  0  0  0  0  0  # atno 8010 bound_to 7997
  139.4903  144.4150  151.9255 H   0  0  0  0  0  0  0  0  0  0  0  0  # atno 10167 bound_to 10162
  157.6947  131.0513  150.4190 H   0  0  0  0  0  0  0  0  0  0  0  0  # atno 10718 bound_to 10713
  154.6816  135.2955  154.9605 H   0  0  0  0  0  0  0  0  0  0  0  0  # atno 10763 bound_to 10752
  154.0598  135.6633  153.4814 H   0  0  0  0  0  0  0  0  0  0  0  0  # atno 10764 bound_to 10752
  153.0551  135.5149  154.7862 H   0  0  0  0  0  0  0  0  0  0  0  0  # atno 10765 bound_to 10752
  140.1875  134.4027  155.8165 H   0  0  0  0  0  0  0  0  0  0  0  0  # atno 11005 bound_to 11000
  145.3182  141.0237  143.3516 LP  0  0  0  0  0  0  0  0  0  0  0  0  # atno 17320 bound_to 7965
  144.8886  139.4805  143.6688 LP  0  0  0  0  0  0  0  0  0  0  0  0  # atno 17321 bound_to 7965
  140.3592  144.2994  150.5936 LP  0  0  0  0  0  0  0  0  0  0  0  0  # atno 17342 bound_to 10162
  140.5418  143.2222  151.8073 LP  0  0  0  0  0  0  0  0  0  0  0  0  # atno 17343 bound_to 10162
  156.4567  130.4023  149.6602 LP  0  0  0  0  0  0  0  0  0  0  0  0  # atno 17370 bound_to 10713
  156.3732  130.7541  151.2526 LP  0  0  0  0  0  0  0  0  0  0  0  0  # atno 17371 bound_to 10713
  141.2225  133.7030  156.8039 LP  0  0  0  0  0  0  0  0  0  0  0  0  # atno 17394 bound_to 11000
  140.2197  134.8766  157.3363 LP  0  0  0  0  0  0  0  0  0  0  0  0  # atno 17395 bound_to 11000

$$$$
