AV-unprocessed.smi:1033|AV-procd|sdf|4498|dock3
  -GOLD-   22720 2493D 1   1.00000     0.00000
 Structure written by MMmdl.
 57 59  0  0  0  0  0  0  0  0  3 V2000
  152.4166  143.3544  161.0535 C   0  0  0  0  0  0  0  0  0  0  0  0
  152.1153  142.5964  159.7717 C   0  0  0  0  0  0  0  0  0  0  0  0
  151.1602  143.1334  158.8794 C   0  0  0  0  0  0  0  0  0  0  0  0
  150.9059  142.4175  157.7158 C   0  0  0  0  0  0  0  0  0  0  0  0
  150.0341  142.6764  156.6565 N   0  3  0  0  0  0  0  0  0  0  0  0
  150.1320  141.6807  155.7332 C   0  0  0  0  0  0  0  0  0  0  0  0
  151.0527  140.7870  156.1875 N   0  0  0  0  0  0  0  0  0  0  0  0
  151.5329  139.5415  155.5703 C   0  0  0  0  0  0  0  0  0  0  0  0
  150.3925  138.5620  155.2301 C   0  0  2  0  0  0  0  0  0  0  0  0
  150.9407  137.3342  154.7910 O   0  0  0  0  0  0  0  0  0  0  0  0
  149.4762  139.1190  154.1217 C   0  0  0  0  0  0  0  0  0  0  0  0
  148.3846  138.1827  153.7494 N   0  3  0  0  0  0  0  0  0  0  0  0
  147.2270  138.8804  153.1322 C   0  0  0  0  0  0  0  0  0  0  0  0
  146.1551  137.8617  152.6934 C   0  0  0  0  0  0  0  0  0  0  0  0
  145.6854  137.0102  153.7857 N   0  0  0  0  0  0  0  0  0  0  0  0
  144.8374  137.7305  154.7429 C   0  0  0  0  0  0  0  0  0  0  0  0
  143.3242  137.6865  154.4525 C   0  0  2  0  0  0  0  0  0  0  0  0
  142.9991  137.1375  153.0558 C   0  0  0  0  0  0  0  0  0  0  0  0
  142.8275  139.0056  154.5326 O   0  0  0  0  0  0  0  0  0  0  0  0
  146.8431  136.3360  154.3792 C   0  0  0  0  0  0  0  0  0  0  0  0
  147.9354  137.3097  154.8670 C   0  0  0  0  0  0  0  0  0  0  0  0
  151.5645  141.2071  157.4222 C   0  0  0  0  0  0  0  0  0  0  0  0
  152.5086  140.6644  158.2917 C   0  0  0  0  0  0  0  0  0  0  0  0
  152.7807  141.3774  159.4813 C   0  0  0  0  0  0  0  0  0  0  0  0
  153.8041  140.8084  160.4494 C   0  0  0  0  0  0  0  0  0  0  0  0
  151.8000  144.2492  161.1427 H   0  0  0  0  0  0  0  0  0  0  0  0
  153.4612  143.6657  161.0765 H   0  0  0  0  0  0  0  0  0  0  0  0
  152.2220  142.7289  161.9251 H   0  0  0  0  0  0  0  0  0  0  0  0
  150.6496  144.0610  159.0940 H   0  0  0  0  0  0  0  0  0  0  0  0
  149.5794  141.6142  154.8070 H   0  0  0  0  0  0  0  0  0  0  0  0
  152.0625  139.8225  154.6591 H   0  0  0  0  0  0  0  0  0  0  0  0
  152.2753  139.0781  156.2207 H   0  0  0  0  0  0  0  0  0  0  0  0
  149.8207  138.3739  156.1384 H   0  0  0  0  0  0  0  0  0  0  0  0
  150.7217  136.6647  155.4218 H   0  0  0  0  0  0  0  0  0  0  0  0
  149.0418  140.0724  154.4261 H   0  0  0  0  0  0  0  0  0  0  0  0
  150.0884  139.3313  153.2436 H   0  0  0  0  0  0  0  0  0  0  0  0
  146.8123  139.6068  153.8325 H   0  0  0  0  0  0  0  0  0  0  0  0
  147.5632  139.4420  152.2600 H   0  0  0  0  0  0  0  0  0  0  0  0
  145.3111  138.3835  152.2406 H   0  0  0  0  0  0  0  0  0  0  0  0
  146.5698  137.2314  151.9053 H   0  0  0  0  0  0  0  0  0  0  0  0
  145.0152  137.3598  155.7521 H   0  0  0  0  0  0  0  0  0  0  0  0
  145.1410  138.7784  154.7613 H   0  0  0  0  0  0  0  0  0  0  0  0
  142.8005  137.1029  155.2088 H   0  0  0  0  0  0  0  0  0  0  0  0
  143.3297  136.1035  152.9534 H   0  0  0  0  0  0  0  0  0  0  0  0
  143.4880  137.7208  152.2746 H   0  0  0  0  0  0  0  0  0  0  0  0
  141.9257  137.1576  152.8645 H   0  0  0  0  0  0  0  0  0  0  0  0
  143.1944  139.5093  153.8218 H   0  0  0  0  0  0  0  0  0  0  0  0
  146.5317  135.6856  155.1952 H   0  0  0  0  0  0  0  0  0  0  0  0
  147.2800  135.6699  153.6339 H   0  0  0  0  0  0  0  0  0  0  0  0
  148.7732  136.7292  155.2508 H   0  0  0  0  0  0  0  0  0  0  0  0
  147.5726  137.9178  155.6965 H   0  0  0  0  0  0  0  0  0  0  0  0
  153.0144  139.7351  158.0763 H   0  0  0  0  0  0  0  0  0  0  0  0
  154.2463  139.8875  160.0681 H   0  0  0  0  0  0  0  0  0  0  0  0
  153.3380  140.5821  161.4086 H   0  0  0  0  0  0  0  0  0  0  0  0
  154.6126  141.5209  160.6160 H   0  0  0  0  0  0  0  0  0  0  0  0
  148.7594  137.5768  153.0331 H   0  0  0  0  0  0  0  0  0  0  0  0
  149.4185  143.4748  156.5668 H   0  0  0  0  0  0  0  0  0  0  0  0
  1  2  1  0  0  0  0
  1 26  1  0  0  0  0
  1 27  1  0  0  0  0
  1 28  1  0  0  0  0
  2 24  1  0  0  0  0
  2  3  2  0  0  0  0
  3  4  1  0  0  0  0
  3 29  1  0  0  0  0
  4 22  2  0  0  0  0
  4  5  1  0  0  0  0
  5  6  2  0  0  0  0
  5 57  1  0  0  0  0
  6  7  1  0  0  0  0
  6 30  1  0  0  0  0
  7  8  1  0  0  0  0
  7 22  1  0  0  0  0
  8  9  1  0  0  0  0
  8 31  1  0  0  0  0
  8 32  1  0  0  0  0
  9 10  1  0  0  0  0
  9 11  1  0  0  0  0
  9 33  1  0  0  0  0
 10 34  1  0  0  0  0
 11 12  1  0  0  0  0
 11 35  1  0  0  0  0
 11 36  1  0  0  0  0
 12 21  1  0  0  0  0
 12 13  1  0  0  0  0
 12 56  1  0  0  0  0
 13 14  1  0  0  0  0
 13 37  1  0  0  0  0
 13 38  1  0  0  0  0
 14 15  1  0  0  0  0
 14 39  1  0  0  0  0
 14 40  1  0  0  0  0
 15 16  1  0  0  0  0
 15 20  1  0  0  0  0
 16 17  1  0  0  0  0
 16 41  1  0  0  0  0
 16 42  1  0  0  0  0
 17 18  1  0  0  0  0
 17 19  1  0  0  0  0
 17 43  1  0  0  0  0
 18 44  1  0  0  0  0
 18 45  1  0  0  0  0
 18 46  1  0  0  0  0
 19 47  1  0  0  0  0
 20 21  1  0  0  0  0
 20 48  1  0  0  0  0
 20 49  1  0  0  0  0
 21 50  1  0  0  0  0
 21 51  1  0  0  0  0
 22 23  1  0  0  0  0
 23 24  2  0  0  0  0
 23 52  1  0  0  0  0
 24 25  1  0  0  0  0
 25 53  1  0  0  0  0
 25 54  1  0  0  0  0
 25 55  1  0  0  0  0
M  CHG  1   5   1
M  CHG  1  12   1
M  END
> <s_m_source_file>
AV-unprocessed.smi

> <i_m_source_file_index>
1033

> <i_lp_mmshare_version>
43012

> <i_f3d_flags>
0

> <s_epik_input>
W0NIM11jKFtjSF0xKWMoW0NIM10pW2NIXWMoYzEyKW4oW2NIXW4yKVtDSDJdW0NASF0oW09IXSlbQ0gyXU4zW0NIMl1bQ0gyXU4oW0NIMl1bQ0gyXTMpW0NIMl1bQ0BIXShbQ0gzXSlbT0hd

> <s_epik_cmdline>
J2VwaWtfcHl0aG9uJywgJy1waCcsICc3LjAnLCAnLXRuJywgJzgnLCAnLW1hJywgJzIwMCcsICctbWV0YWxfYmluZGluZycsICctaW1hZScsICc8aW5maWxlLm1hZT4nLCAnLW9tYWUnLCAnPG91dGZpbGUubWFlPic=

> <r_epik_Ionization_Penalty>
1.22049

> <r_epik_Ionization_Penalty_Charging>
1.17952

> <r_epik_Ionization_Penalty_Neutral>
0.0409743

> <r_epik_State_Penalty>
1.61468

> <r_epik_Charging_Adjusted_Penalty>
2.7942

> <i_epik_Tot_Q>
2

> <i_epik_Tot_abs_Q>
2

> <r_epik_Metal_State_Penalty>
5.63169

> <b_epik_Metal_Only>
0

> <s_lp_Force_Field>
OPLS_2005

> <r_lp_Energy>
42.2447

> <b_lp_Chiralities_Consistent>
1

> <s_lp_Variant>
AV-unprocessed.smi:1033-9

> <Gold.Version>
5.8.1

> <Gold.Id.Protein>
6NUR|6NUR_protein|mol2

> <Gold.PLP.Fitness>
56.7380

> <Gold.PLP.PLP>
-44.5985

> <Gold.PLP.part.hbond>
-2.6884

> <Gold.PLP.part.metal>
0.0000

> <Gold.PLP.part.buried>
-4.8959

> <Gold.PLP.part.nonpolar>
-37.8789

> <Gold.PLP.part.repulsive>
0.1993

> <Gold.PLP.ligand.clash>
0.0000

> <Gold.PLP.ligand.torsion>
1.4978

> <Gold.PLP.Chemscore.Hbond>
5.0000

> <Gold.PLP.Chemscore.CHOScore>
0.0000

> <Gold.PLP.Chemscore.Metal>
0.0000

> <Gold.Chemscore.Hbonds>
donor molecule, donor type, donor heavy atom, donor atom, acceptor molecule, acceptor atom, score
      L1  H     5    57       P1  8028  1.95
      L1  H    12    56       P1  7948  2.00
      L1  H    19    47       P1 10175  1.00

> <Gold.PLP.Chemscore.Internal.Correction>
0.1351

> <Gold.Rescore>
     Score         DG    S(hbond)    S(metal)    S(lipo)     H(rot)  DE(clash)    DE(int)     intcor
     18.50     -20.92       2.95        0.00     116.58       3.15       0.14       2.28       ----

> <Gold.Chemscore.Fitness>
18.4964

> <Gold.Chemscore.DG>
-20.9219

> <Gold.Chemscore.ZeroCoef>
-5.4800

> <Gold.Chemscore.Hbond>
2.9525

> <Gold.Chemscore.Metal>
0.0000

> <Gold.Chemscore.Lipo>
116.5826

> <Gold.Chemscore.Internal_Hbond>
0.0000

> <Gold.Chemscore.DEClash>
0.1435

> <Gold.Chemscore.DEInternal>
2.2821

> <Gold.Chemscore.Rot>
3.1483

> <Gold.Chemscore.Internal.Correction>
   9.000000E+99

> <Gold.Chemscore.Hbonds>
donor molecule, donor type, donor heavy atom, donor atom, acceptor molecule, acceptor atom, score
      L1  H     5    57       P1  8028  0.93
      L1  H    12    56       P1  7948  1.00
      L1  H    19    47       P1 10175  1.00

> <Gold.Chemscore.Hbond.Weighted>
-9.8615

> <Gold.Chemscore.Metal.Weighted>
-0.0000

> <Gold.Chemscore.Lipo.Weighted>
-13.6402

> <Gold.Chemscore.Internal_Hbond.Weighted>
0.0000

> <Gold.Chemscore.DEClash.Weighted>
0.1435

> <Gold.Chemscore.DEInternal.Weighted>
2.2821

> <Gold.Chemscore.Rot.Weighted>
8.0597

> <Gold.Chemscore.Internal.Correction.Weighted>
   9.000000E+99

> <Gold.Protein.RotatedTorsions>
[ 6907 6896 6895 6894 ] final   44.61 input  -60.11 | X-H torsion
[ 7974 7965 7964 7962 ] final   24.65 input  175.53 | X-H torsion
[ 8008 7997 7996 7995 ] final    1.28 input   59.86 | X-H torsion
[ 10167 10162 10161 10158 ] final    9.83 input  -65.29 | X-H torsion
[ 10718 10713 10712 10709 ] final   62.20 input   66.30 | X-H torsion
[ 10763 10752 10751 10750 ] final   48.95 input  -60.55 | X-H torsion
[ 11005 11000 10999 10996 ] final -169.98 input  -57.11 | X-H torsion

> <Gold.Protein.ActiveResidues>
 VAL166  LYS551  ARG553  GLY616  TRP617  ASP618  TYR619  PRO620  LYS621  CYS622 
 ASP623  PHE694  ASN695  SER759  ASP760  ASP761  ALA762  ILE779  LEU786  VAL792 
 PHE793  MET794  SER795  GLU796  ALA797  LYS798  CYS799  TRP800  GLU811  SER814 

> <Gold.Protein.RotatedAtoms>
  152.2346  134.8288  160.0468 H   0  0  0  0  0  0  0  0  0  0  0  0  # atno 6907 bound_to 6896
  151.9025  133.3536  159.3844 H   0  0  0  0  0  0  0  0  0  0  0  0  # atno 6908 bound_to 6896
  150.7035  134.4740  159.5483 H   0  0  0  0  0  0  0  0  0  0  0  0  # atno 6909 bound_to 6896
  146.1927  139.7575  142.8820 H   0  0  0  0  0  0  0  0  0  0  0  0  # atno 7974 bound_to 7965
  154.6779  140.2626  155.6938 H   0  0  0  0  0  0  0  0  0  0  0  0  # atno 8008 bound_to 7997
  156.2685  140.2816  156.1235 H   0  0  0  0  0  0  0  0  0  0  0  0  # atno 8009 bound_to 7997
  155.1073  140.0375  157.2704 H   0  0  0  0  0  0  0  0  0  0  0  0  # atno 8010 bound_to 7997
  140.6231  143.8160  150.7200 H   0  0  0  0  0  0  0  0  0  0  0  0  # atno 10167 bound_to 10162
  157.5883  130.9037  149.9557 H   0  0  0  0  0  0  0  0  0  0  0  0  # atno 10718 bound_to 10713
  152.9789  135.5927  154.4009 H   0  0  0  0  0  0  0  0  0  0  0  0  # atno 10763 bound_to 10752
  154.3655  135.2767  155.2298 H   0  0  0  0  0  0  0  0  0  0  0  0  # atno 10764 bound_to 10752
  154.4276  135.6044  153.6103 H   0  0  0  0  0  0  0  0  0  0  0  0  # atno 10765 bound_to 10752
  140.5246  134.5676  157.5057 H   0  0  0  0  0  0  0  0  0  0  0  0  # atno 11005 bound_to 11000
  145.3741  141.0347  143.3214 LP  0  0  0  0  0  0  0  0  0  0  0  0  # atno 17320 bound_to 7965
  144.8519  139.5309  143.6852 LP  0  0  0  0  0  0  0  0  0  0  0  0  # atno 17321 bound_to 7965
  140.1755  143.4159  152.1970 LP  0  0  0  0  0  0  0  0  0  0  0  0  # atno 17342 bound_to 10162
  139.5456  144.7295  151.4594 LP  0  0  0  0  0  0  0  0  0  0  0  0  # atno 17343 bound_to 10162
  156.0935  130.3661  150.0351 LP  0  0  0  0  0  0  0  0  0  0  0  0  # atno 17370 bound_to 10713
  156.8478  130.9448  151.3627 LP  0  0  0  0  0  0  0  0  0  0  0  0  # atno 17371 bound_to 10713
  139.9587  134.7490  156.0284 LP  0  0  0  0  0  0  0  0  0  0  0  0  # atno 17394 bound_to 11000
  141.1315  133.6585  156.3478 LP  0  0  0  0  0  0  0  0  0  0  0  0  # atno 17395 bound_to 11000

$$$$
