AV-unprocessed.smi:674|AV-procd|sdf|3299|dock2
  -GOLD-   22720 0263D 1   1.00000     0.00000
 Structure written by MMmdl.
 47 48  0  0  0  0  0  0  0  0  1 V2000
  148.1524  142.4913  153.4823 C   0  0  0  0  0  0  0  0  0  0  0  0
  149.3612  142.1134  154.3462 C   0  0  0  0  0  0  0  0  0  0  0  0
  149.5095  140.6243  154.4843 C   0  0  0  0  0  0  0  0  0  0  0  0
  148.6012  139.6115  154.0596 C   0  0  0  0  0  0  0  0  0  0  0  0
  149.2283  138.4597  154.4500 C   0  0  0  0  0  0  0  0  0  0  0  0
  148.8079  137.1735  154.3162 N   0  0  0  0  0  0  0  0  0  0  0  0
  148.3300  136.3427  155.2590 C   0  0  0  0  0  0  0  0  0  0  0  0
  148.1397  136.6346  156.4399 O   0  0  0  0  0  0  0  0  0  0  0  0
  148.0706  135.1310  154.7495 N   0  0  0  0  0  0  0  0  0  0  0  0
  147.5426  134.0117  155.5222 C   0  0  2  0  0  0  0  0  0  0  0  0
  148.6315  133.0473  155.9890 C   0  0  0  0  0  0  0  0  0  0  0  0
  147.6284  131.9080  155.7224 C   0  0  1  0  0  0  0  0  0  0  0  0
  148.1463  130.5408  155.2588 C   0  0  0  0  0  0  0  0  0  0  0  0
  146.7419  131.7568  156.8399 O   0  0  0  0  0  0  0  0  0  0  0  0
  147.3082  131.3154  158.0678 C   0  0  0  0  0  0  0  0  0  0  0  0
  146.9504  132.8546  154.6779 C   0  0  0  0  0  0  0  0  0  0  0  0
  145.4212  132.8000  154.5936 C   0  0  0  0  0  0  0  0  0  0  0  0
  147.4530  132.7298  153.2270 C   0  0  0  0  0  0  0  0  0  0  0  0
  150.4217  138.7873  155.0573 N   0  0  0  0  0  0  0  0  0  0  0  0
  151.4367  137.9350  155.6458 C   0  0  0  0  0  0  0  0  0  0  0  0
  150.5905  140.1266  155.0750 N   0  0  0  0  0  0  0  0  0  0  0  0
  148.0634  143.5737  153.3905 H   0  0  0  0  0  0  0  0  0  0  0  0
  147.2247  142.1169  153.9161 H   0  0  0  0  0  0  0  0  0  0  0  0
  148.2433  142.0777  152.4775 H   0  0  0  0  0  0  0  0  0  0  0  0
  150.2648  142.5359  153.9057 H   0  0  0  0  0  0  0  0  0  0  0  0
  149.2620  142.5729  155.3302 H   0  0  0  0  0  0  0  0  0  0  0  0
  147.6509  139.7333  153.5622 H   0  0  0  0  0  0  0  0  0  0  0  0
  148.8799  136.7928  153.3844 H   0  0  0  0  0  0  0  0  0  0  0  0
  148.2503  134.9698  153.7694 H   0  0  0  0  0  0  0  0  0  0  0  0
  146.8925  134.3117  156.3478 H   0  0  0  0  0  0  0  0  0  0  0  0
  149.4990  133.0118  155.3273 H   0  0  0  0  0  0  0  0  0  0  0  0
  148.9373  133.1875  157.0253 H   0  0  0  0  0  0  0  0  0  0  0  0
  148.7366  130.6185  154.3465 H   0  0  0  0  0  0  0  0  0  0  0  0
  147.3239  129.8537  155.0587 H   0  0  0  0  0  0  0  0  0  0  0  0
  148.7968  130.0779  156.0004 H   0  0  0  0  0  0  0  0  0  0  0  0
  146.5599  131.4037  158.8552 H   0  0  0  0  0  0  0  0  0  0  0  0
  148.1719  131.9086  158.3663 H   0  0  0  0  0  0  0  0  0  0  0  0
  147.6025  130.2671  158.0203 H   0  0  0  0  0  0  0  0  0  0  0  0
  145.0757  131.8196  154.2643 H   0  0  0  0  0  0  0  0  0  0  0  0
  145.0309  133.5404  153.8945 H   0  0  0  0  0  0  0  0  0  0  0  0
  144.9514  133.0031  155.5563 H   0  0  0  0  0  0  0  0  0  0  0  0
  147.1318  131.7920  152.7727 H   0  0  0  0  0  0  0  0  0  0  0  0
  148.5406  132.7614  153.1624 H   0  0  0  0  0  0  0  0  0  0  0  0
  147.0742  133.5369  152.5990 H   0  0  0  0  0  0  0  0  0  0  0  0
  151.3018  136.9015  155.3267 H   0  0  0  0  0  0  0  0  0  0  0  0
  151.3684  137.9836  156.7330 H   0  0  0  0  0  0  0  0  0  0  0  0
  152.4275  138.2693  155.3355 H   0  0  0  0  0  0  0  0  0  0  0  0
  1  2  1  0  0  0  0
  1 22  1  0  0  0  0
  1 23  1  0  0  0  0
  1 24  1  0  0  0  0
  2  3  1  0  0  0  0
  2 25  1  0  0  0  0
  2 26  1  0  0  0  0
  3 21  2  0  0  0  0
  3  4  1  0  0  0  0
  4  5  2  0  0  0  0
  4 27  1  0  0  0  0
  5  6  1  0  0  0  0
  5 19  1  0  0  0  0
  6  7  1  0  0  0  0
  6 28  1  0  0  0  0
  7  8  2  0  0  0  0
  7  9  1  0  0  0  0
  9 10  1  0  0  0  0
  9 29  1  0  0  0  0
 10 16  1  0  0  0  0
 10 11  1  0  0  0  0
 10 30  1  0  0  0  0
 11 12  1  0  0  0  0
 11 31  1  0  0  0  0
 11 32  1  0  0  0  0
 12 13  1  0  0  0  0
 12 14  1  0  0  0  0
 12 16  1  0  0  0  0
 13 33  1  0  0  0  0
 13 34  1  0  0  0  0
 13 35  1  0  0  0  0
 14 15  1  0  0  0  0
 15 36  1  0  0  0  0
 15 37  1  0  0  0  0
 15 38  1  0  0  0  0
 16 17  1  0  0  0  0
 16 18  1  0  0  0  0
 17 39  1  0  0  0  0
 17 40  1  0  0  0  0
 17 41  1  0  0  0  0
 18 42  1  0  0  0  0
 18 43  1  0  0  0  0
 18 44  1  0  0  0  0
 19 20  1  0  0  0  0
 19 21  1  0  0  0  0
 20 45  1  0  0  0  0
 20 46  1  0  0  0  0
 20 47  1  0  0  0  0
M  END
> <s_m_source_file>
AV-unprocessed.smi

> <i_m_source_file_index>
674

> <i_lp_mmshare_version>
43012

> <i_f3d_flags>
0

> <s_epik_input>
W0NIM11bQ0gyXWMxW2NIXWMobihuMSlbQ0gzXSlbTkhdQyg9TylbTkhdW0NAQEhdKEMyKFtDSDNdKVtDSDNdKVtDSDJdW0NAQF0yKFtDSDNdKU9bQ0gzXQ==

> <s_epik_cmdline>
J2VwaWtfcHl0aG9uJywgJy1waCcsICc3LjAnLCAnLXRuJywgJzgnLCAnLW1hJywgJzIwMCcsICctbWV0YWxfYmluZGluZycsICctaW1hZScsICc8aW5maWxlLm1hZT4nLCAnLW9tYWUnLCAnPG91dGZpbGUubWFlPic=

> <r_lp_tautomer_probability>
1

> <r_epik_Ionization_Penalty>
0.000101626

> <r_epik_Ionization_Penalty_Charging>
0

> <r_epik_Ionization_Penalty_Neutral>
0.000101626

> <r_epik_State_Penalty>
-0

> <r_epik_Charging_Adjusted_Penalty>
0

> <i_epik_Tot_Q>
0

> <i_epik_Tot_abs_Q>
0

> <r_epik_Metal_State_Penalty>
-0

> <b_epik_Metal_Only>
0

> <s_lp_Force_Field>
OPLS_2005

> <r_lp_Energy>
22.7412

> <b_lp_Chiralities_Consistent>
1

> <s_lp_Variant>
AV-unprocessed.smi:674-1

> <Gold.Version>
5.8.1

> <Gold.Id.Protein>
6NUR|6NUR_protein|mol2

> <Gold.PLP.Fitness>
39.1988

> <Gold.PLP.PLP>
-34.1529

> <Gold.PLP.part.hbond>
-2.8224

> <Gold.PLP.part.metal>
0.0000

> <Gold.PLP.part.buried>
-0.9843

> <Gold.PLP.part.nonpolar>
-31.5077

> <Gold.PLP.part.repulsive>
0.1300

> <Gold.PLP.ligand.clash>
0.0000

> <Gold.PLP.ligand.torsion>
1.1385

> <Gold.PLP.Chemscore.Hbond>
2.3114

> <Gold.PLP.Chemscore.CHOScore>
0.0000

> <Gold.PLP.Chemscore.Metal>
0.0000

> <Gold.Chemscore.Hbonds>
donor molecule, donor type, donor heavy atom, donor atom, acceptor molecule, acceptor atom, score
      L1  H     6    28       P1  7948  1.00
      L1  H     9    29       P1  7948  0.11
      P1  H  7989  7998       L1    21  0.30

> <Gold.PLP.Chemscore.Internal.Correction>
0.3890

> <Gold.Rescore>
     Score         DG    S(hbond)    S(metal)    S(lipo)     H(rot)  DE(clash)    DE(int)     intcor
     14.90     -15.77       1.67        0.00      70.29       1.37       0.00       0.87       ----

> <Gold.Chemscore.Fitness>
14.9036

> <Gold.Chemscore.DG>
-15.7744

> <Gold.Chemscore.ZeroCoef>
-5.4800

> <Gold.Chemscore.Hbond>
1.6666

> <Gold.Chemscore.Metal>
0.0000

> <Gold.Chemscore.Lipo>
70.2935

> <Gold.Chemscore.Internal_Hbond>
0.0000

> <Gold.Chemscore.DEClash>
0.0044

> <Gold.Chemscore.DEInternal>
0.8664

> <Gold.Chemscore.Rot>
1.3658

> <Gold.Chemscore.Internal.Correction>
   9.000000E+99

> <Gold.Chemscore.Hbonds>
donor molecule, donor type, donor heavy atom, donor atom, acceptor molecule, acceptor atom, score
      L1  H     6    28       P1  7948  0.99
      L1  H     9    29       P1  7948  0.13

> <Gold.Chemscore.Hbond.Weighted>
-5.5664

> <Gold.Chemscore.Metal.Weighted>
-0.0000

> <Gold.Chemscore.Lipo.Weighted>
-8.2243

> <Gold.Chemscore.Internal_Hbond.Weighted>
0.0000

> <Gold.Chemscore.DEClash.Weighted>
0.0044

> <Gold.Chemscore.DEInternal.Weighted>
0.8664

> <Gold.Chemscore.Rot.Weighted>
3.4963

> <Gold.Chemscore.Internal.Correction.Weighted>
   9.000000E+99

> <Gold.Protein.RotatedTorsions>
[ 6907 6896 6895 6894 ] final   76.28 input  -60.11 | X-H torsion
[ 7974 7965 7964 7962 ] final -173.98 input  175.53 | X-H torsion
[ 8008 7997 7996 7995 ] final   94.89 input   59.86 | X-H torsion
[ 10167 10162 10161 10158 ] final  137.31 input  -65.29 | X-H torsion
[ 10718 10713 10712 10709 ] final  143.54 input   66.30 | X-H torsion
[ 10763 10752 10751 10750 ] final   -1.17 input  -60.55 | X-H torsion
[ 11005 11000 10999 10996 ] final   84.51 input  -57.11 | X-H torsion

> <Gold.Protein.ActiveResidues>
 VAL166  LYS551  ARG553  GLY616  TRP617  ASP618  TYR619  PRO620  LYS621  CYS622 
 ASP623  PHE694  ASN695  SER759  ASP760  ASP761  ALA762  ILE779  LEU786  VAL792 
 PHE793  MET794  SER795  GLU796  ALA797  LYS798  CYS799  TRP800  GLU811  SER814 

> <Gold.Protein.RotatedAtoms>
  152.5065  134.3993  159.9410 H   0  0  0  0  0  0  0  0  0  0  0  0  # atno 6907 bound_to 6896
  151.3956  133.3768  159.2734 H   0  0  0  0  0  0  0  0  0  0  0  0  # atno 6908 bound_to 6896
  150.9399  134.8830  159.7665 H   0  0  0  0  0  0  0  0  0  0  0  0  # atno 6909 bound_to 6896
  144.7134  140.1540  143.6382 H   0  0  0  0  0  0  0  0  0  0  0  0  # atno 7974 bound_to 7965
  156.0629  140.3294  155.7483 H   0  0  0  0  0  0  0  0  0  0  0  0  # atno 8008 bound_to 7997
  155.5427  140.0603  157.2884 H   0  0  0  0  0  0  0  0  0  0  0  0  # atno 8009 bound_to 7997
  154.4490  140.1908  156.0595 H   0  0  0  0  0  0  0  0  0  0  0  0  # atno 8010 bound_to 7997
  139.5149  144.6417  151.5551 H   0  0  0  0  0  0  0  0  0  0  0  0  # atno 10167 bound_to 10162
  157.3678  131.0974  151.0856 H   0  0  0  0  0  0  0  0  0  0  0  0  # atno 10718 bound_to 10713
  153.3413  135.6981  153.6864 H   0  0  0  0  0  0  0  0  0  0  0  0  # atno 10763 bound_to 10752
  153.5628  135.3531  155.2807 H   0  0  0  0  0  0  0  0  0  0  0  0  # atno 10764 bound_to 10752
  154.8637  135.4253  154.2627 H   0  0  0  0  0  0  0  0  0  0  0  0  # atno 10765 bound_to 10752
  139.8998  134.8221  156.2454 H   0  0  0  0  0  0  0  0  0  0  0  0  # atno 11005 bound_to 11000
  145.9090  139.2476  143.1448 LP  0  0  0  0  0  0  0  0  0  0  0  0  # atno 17320 bound_to 7965
  145.9735  140.8741  143.0150 LP  0  0  0  0  0  0  0  0  0  0  0  0  # atno 17321 bound_to 7965
  140.6186  143.9302  150.6508 LP  0  0  0  0  0  0  0  0  0  0  0  0  # atno 17342 bound_to 10162
  140.2568  143.3553  152.1358 LP  0  0  0  0  0  0  0  0  0  0  0  0  # atno 17343 bound_to 10162
  157.1972  130.6378  149.5725 LP  0  0  0  0  0  0  0  0  0  0  0  0  # atno 17370 bound_to 10713
  155.9749  130.4703  150.6424 LP  0  0  0  0  0  0  0  0  0  0  0  0  # atno 17371 bound_to 10713
  141.0258  133.7016  156.1345 LP  0  0  0  0  0  0  0  0  0  0  0  0  # atno 17394 bound_to 11000
  140.7168  134.4401  157.5578 LP  0  0  0  0  0  0  0  0  0  0  0  0  # atno 17395 bound_to 11000

$$$$
