AV-unprocessed.smi:3128|AV-procd|sdf|11921|dock5
  -GOLD-   2272017303D 1   1.00000     0.00000
 Structure written by MMmdl.
 39 39  0  0  0  0  0  0  0  0  1 V2000
  147.3719  142.2015  153.9290 C   0  0  0  0  0  0  0  0  0  0  0  0
  147.5017  141.0174  154.9074 C   0  0  0  0  0  0  0  0  0  0  0  0
  146.3434  140.0310  154.6723 C   0  0  0  0  0  0  0  0  0  0  0  0
  147.5930  141.4819  156.3853 C   0  0  1  0  0  0  0  0  0  0  0  0
  147.4002  140.3354  157.3968 C   0  0  0  0  0  0  0  0  0  0  0  0
  148.8853  142.1205  156.6324 N   0  0  0  0  0  0  0  0  0  0  0  0
  150.0703  141.4929  156.6935 C   0  0  0  0  0  0  0  0  0  0  0  0
  150.2063  140.2801  156.5325 O   0  0  0  0  0  0  0  0  0  0  0  0
  151.2888  142.3673  156.9842 C   0  0  0  0  0  0  0  0  0  0  0  0
  150.8947  143.7330  157.3415 N   0  0  0  0  0  0  0  0  0  0  0  0
  152.0548  144.5084  157.7527 C   0  0  0  0  0  0  0  0  0  0  0  0
  151.9643  144.8113  159.2556 C   0  0  0  0  0  0  0  0  0  0  0  0
  152.5363  143.7425  160.0517 N   0  0  0  0  0  0  0  0  0  0  0  0
  152.6031  143.6380  161.4249 C   0  0  0  0  0  0  0  0  0  0  0  0
  153.2326  142.4609  161.7128 C   0  0  0  0  0  0  0  0  0  0  0  0
  153.5157  141.9075  160.4328 C   0  0  0  0  0  0  0  0  0  0  0  0
  153.0973  142.6766  159.4405 N   0  0  0  0  0  0  0  0  0  0  0  0
  146.4855  142.7979  154.1469 H   0  0  0  0  0  0  0  0  0  0  0  0
  147.2906  141.8524  152.8992 H   0  0  0  0  0  0  0  0  0  0  0  0
  148.2371  142.8634  153.9707 H   0  0  0  0  0  0  0  0  0  0  0  0
  148.4272  140.4954  154.6598 H   0  0  0  0  0  0  0  0  0  0  0  0
  145.3872  140.4651  154.9661 H   0  0  0  0  0  0  0  0  0  0  0  0
  146.4785  139.1050  155.2302 H   0  0  0  0  0  0  0  0  0  0  0  0
  146.2712  139.7548  153.6200 H   0  0  0  0  0  0  0  0  0  0  0  0
  146.8050  142.2192  156.5522 H   0  0  0  0  0  0  0  0  0  0  0  0
  146.4007  139.9061  157.3359 H   0  0  0  0  0  0  0  0  0  0  0  0
  147.5263  140.6871  158.4213 H   0  0  0  0  0  0  0  0  0  0  0  0
  148.1213  139.5343  157.2314 H   0  0  0  0  0  0  0  0  0  0  0  0
  148.8748  143.1192  156.7799 H   0  0  0  0  0  0  0  0  0  0  0  0
  151.8476  141.9161  157.8055 H   0  0  0  0  0  0  0  0  0  0  0  0
  151.9512  142.3885  156.1166 H   0  0  0  0  0  0  0  0  0  0  0  0
  150.4381  144.1985  156.5705 H   0  0  0  0  0  0  0  0  0  0  0  0
  152.9685  143.9524  157.5365 H   0  0  0  0  0  0  0  0  0  0  0  0
  152.0949  145.4399  157.1859 H   0  0  0  0  0  0  0  0  0  0  0  0
  152.4918  145.7367  159.4915 H   0  0  0  0  0  0  0  0  0  0  0  0
  150.9252  144.9528  159.5577 H   0  0  0  0  0  0  0  0  0  0  0  0
  152.2032  144.4017  162.0757 H   0  0  0  0  0  0  0  0  0  0  0  0
  153.4566  142.0567  162.6888 H   0  0  0  0  0  0  0  0  0  0  0  0
  154.0094  140.9764  160.1967 H   0  0  0  0  0  0  0  0  0  0  0  0
  1  2  1  0  0  0  0
  1 18  1  0  0  0  0
  1 19  1  0  0  0  0
  1 20  1  0  0  0  0
  2  3  1  0  0  0  0
  2  4  1  0  0  0  0
  2 21  1  0  0  0  0
  3 22  1  0  0  0  0
  3 23  1  0  0  0  0
  3 24  1  0  0  0  0
  4  5  1  0  0  0  0
  4  6  1  0  0  0  0
  4 25  1  0  0  0  0
  5 26  1  0  0  0  0
  5 27  1  0  0  0  0
  5 28  1  0  0  0  0
  6  7  1  0  0  0  0
  6 29  1  0  0  0  0
  7  8  2  0  0  0  0
  7  9  1  0  0  0  0
  9 10  1  0  0  0  0
  9 30  1  0  0  0  0
  9 31  1  0  0  0  0
 10 11  1  0  0  0  0
 10 32  1  0  0  0  0
 11 12  1  0  0  0  0
 11 33  1  0  0  0  0
 11 34  1  0  0  0  0
 12 13  1  0  0  0  0
 12 35  1  0  0  0  0
 12 36  1  0  0  0  0
 13 17  1  0  0  0  0
 13 14  1  0  0  0  0
 14 15  2  0  0  0  0
 14 37  1  0  0  0  0
 15 16  1  0  0  0  0
 15 38  1  0  0  0  0
 16 17  2  0  0  0  0
 16 39  1  0  0  0  0
M  END
> <s_m_source_file>
AV-unprocessed.smi

> <i_m_source_file_index>
3128

> <i_lp_mmshare_version>
43012

> <i_f3d_flags>
0

> <s_epik_input>
W0NIM11bQ0hdKFtDSDNdKVtDQEhdKFtDSDNdKVtOSF1DKD1PKVtDSDJdW05IXVtDSDJdW0NIMl1uMVtjSF1bY0hdW2NIXW4x

> <s_epik_cmdline>
J2VwaWtfcHl0aG9uJywgJy1waCcsICc3LjAnLCAnLXRuJywgJzgnLCAnLW1hJywgJzIwMCcsICctbWV0YWxfYmluZGluZycsICctaW1hZScsICc8aW5maWxlLm1hZT4nLCAnLW9tYWUnLCAnPG91dGZpbGUubWFlPic=

> <r_lp_tautomer_probability>
1

> <r_epik_Ionization_Penalty>
0.724947

> <r_epik_Ionization_Penalty_Charging>
0

> <r_epik_Ionization_Penalty_Neutral>
0.724947

> <r_epik_State_Penalty>
0.747959

> <r_epik_Charging_Adjusted_Penalty>
0.747959

> <i_epik_Tot_Q>
0

> <i_epik_Tot_abs_Q>
0

> <r_epik_Metal_State_Penalty>
0.746178

> <b_epik_Metal_Only>
0

> <s_lp_Force_Field>
OPLS_2005

> <r_lp_Energy>
7.09657

> <b_lp_Chiralities_Consistent>
1

> <s_lp_Variant>
AV-unprocessed.smi:3128-4

> <Gold.Version>
5.8.1

> <Gold.Id.Protein>
6NUR|6NUR_protein|mol2

> <Gold.PLP.Fitness>
44.7725

> <Gold.PLP.PLP>
-41.0001

> <Gold.PLP.part.hbond>
-2.0000

> <Gold.PLP.part.metal>
0.0000

> <Gold.PLP.part.buried>
-7.3454

> <Gold.PLP.part.nonpolar>
-32.5519

> <Gold.PLP.part.repulsive>
0.0153

> <Gold.PLP.ligand.clash>
0.0000

> <Gold.PLP.ligand.torsion>
0.8682

> <Gold.PLP.Chemscore.Hbond>
1.7760

> <Gold.PLP.Chemscore.CHOScore>
0.0000

> <Gold.PLP.Chemscore.Metal>
0.0000

> <Gold.Chemscore.Hbonds>
donor molecule, donor type, donor heavy atom, donor atom, acceptor molecule, acceptor atom, score
      L1  H     6    29       P1  8028  0.75
      L1  H    10    32       P1  8028  1.00

> <Gold.PLP.Chemscore.Internal.Correction>
0.1808

> <Gold.Rescore>
     Score         DG    S(hbond)    S(metal)    S(lipo)     H(rot)  DE(clash)    DE(int)     intcor
     15.05     -16.87       1.88        0.00      90.60       2.15       0.10       1.72       ----

> <Gold.Chemscore.Fitness>
15.0473

> <Gold.Chemscore.DG>
-16.8677

> <Gold.Chemscore.ZeroCoef>
-5.4800

> <Gold.Chemscore.Hbond>
1.8828

> <Gold.Chemscore.Metal>
0.0000

> <Gold.Chemscore.Lipo>
90.5995

> <Gold.Chemscore.Internal_Hbond>
0.0000

> <Gold.Chemscore.DEClash>
0.0999

> <Gold.Chemscore.DEInternal>
1.7205

> <Gold.Chemscore.Rot>
2.1488

> <Gold.Chemscore.Internal.Correction>
   9.000000E+99

> <Gold.Chemscore.Hbonds>
donor molecule, donor type, donor heavy atom, donor atom, acceptor molecule, acceptor atom, score
      L1  H     6    29       P1  8028  0.64
      L1  H    10    32       P1  8028  0.96

> <Gold.Chemscore.Hbond.Weighted>
-6.2886

> <Gold.Chemscore.Metal.Weighted>
-0.0000

> <Gold.Chemscore.Lipo.Weighted>
-10.6001

> <Gold.Chemscore.Internal_Hbond.Weighted>
0.0000

> <Gold.Chemscore.DEClash.Weighted>
0.0999

> <Gold.Chemscore.DEInternal.Weighted>
1.7205

> <Gold.Chemscore.Rot.Weighted>
5.5010

> <Gold.Chemscore.Internal.Correction.Weighted>
   9.000000E+99

> <Gold.Protein.RotatedTorsions>
[ 6907 6896 6895 6894 ] final   79.37 input  -60.11 | X-H torsion
[ 7974 7965 7964 7962 ] final  108.14 input  175.53 | X-H torsion
[ 8008 7997 7996 7995 ] final  161.33 input   59.86 | X-H torsion
[ 10167 10162 10161 10158 ] final -145.68 input  -65.29 | X-H torsion
[ 10718 10713 10712 10709 ] final  -71.13 input   66.30 | X-H torsion
[ 10763 10752 10751 10750 ] final -132.15 input  -60.55 | X-H torsion
[ 11005 11000 10999 10996 ] final -135.82 input  -57.11 | X-H torsion

> <Gold.Protein.ActiveResidues>
 VAL166  LYS551  ARG553  GLY616  TRP617  ASP618  TYR619  PRO620  LYS621  CYS622 
 ASP623  PHE694  ASN695  SER759  ASP760  ASP761  ALA762  ILE779  LEU786  VAL792 
 PHE793  MET794  SER795  GLU796  ALA797  LYS798  CYS799  TRP800  GLU811  SER814 

> <Gold.Protein.RotatedAtoms>
  152.5196  134.3521  159.9254 H   0  0  0  0  0  0  0  0  0  0  0  0  # atno 6907 bound_to 6896
  151.3472  133.3933  159.2684 H   0  0  0  0  0  0  0  0  0  0  0  0  # atno 6908 bound_to 6896
  150.9756  134.9140  159.7872 H   0  0  0  0  0  0  0  0  0  0  0  0  # atno 6909 bound_to 6896
  145.2845  139.2621  143.3897 H   0  0  0  0  0  0  0  0  0  0  0  0  # atno 7974 bound_to 7965
  156.2111  140.1780  156.7693 H   0  0  0  0  0  0  0  0  0  0  0  0  # atno 8008 bound_to 7997
  154.5723  140.0680  156.9013 H   0  0  0  0  0  0  0  0  0  0  0  0  # atno 8009 bound_to 7997
  155.2650  140.3338  155.4272 H   0  0  0  0  0  0  0  0  0  0  0  0  # atno 8010 bound_to 7997
  139.7784  143.8137  152.2635 H   0  0  0  0  0  0  0  0  0  0  0  0  # atno 10167 bound_to 10162
  156.0376  130.4345  150.2398 H   0  0  0  0  0  0  0  0  0  0  0  0  # atno 10718 bound_to 10713
  154.8745  135.3807  154.4363 H   0  0  0  0  0  0  0  0  0  0  0  0  # atno 10763 bound_to 10752
  153.5052  135.7030  153.5815 H   0  0  0  0  0  0  0  0  0  0  0  0  # atno 10764 bound_to 10752
  153.4129  135.3920  155.2028 H   0  0  0  0  0  0  0  0  0  0  0  0  # atno 10765 bound_to 10752
  140.8863  134.1868  157.4558 H   0  0  0  0  0  0  0  0  0  0  0  0  # atno 11005 bound_to 11000
  146.3205  140.3321  142.8641 LP  0  0  0  0  0  0  0  0  0  0  0  0  # atno 17320 bound_to 7965
  144.9224  140.7883  143.5740 LP  0  0  0  0  0  0  0  0  0  0  0  0  # atno 17321 bound_to 7965
  139.8192  144.7303  150.9595 LP  0  0  0  0  0  0  0  0  0  0  0  0  # atno 17342 bound_to 10162
  140.7817  143.4175  151.0894 LP  0  0  0  0  0  0  0  0  0  0  0  0  # atno 17343 bound_to 10162
  157.0496  131.0059  151.3258 LP  0  0  0  0  0  0  0  0  0  0  0  0  # atno 17370 bound_to 10713
  157.5150  130.7962  149.7746 LP  0  0  0  0  0  0  0  0  0  0  0  0  # atno 17371 bound_to 10713
  139.8724  134.9839  156.5217 LP  0  0  0  0  0  0  0  0  0  0  0  0  # atno 17394 bound_to 11000
  140.8401  133.8212  155.9067 LP  0  0  0  0  0  0  0  0  0  0  0  0  # atno 17395 bound_to 11000

$$$$
