AV-unprocessed.smi:101|AV-procd|sdf|916|dock7
  -GOLD-   2262017413D 1   1.00000     0.00000
 Structure written by MMmdl.
 44 46  0  0  0  0  0  0  0  0  1 V2000
  150.4244  133.7817  154.4876 C   0  0  0  0  0  0  0  0  0  0  0  0
  149.2681  134.7576  154.6313 C   0  0  0  0  0  0  0  0  0  0  0  0
  149.4464  136.0419  155.0341 C   0  0  0  0  0  0  0  0  0  0  0  0
  148.4093  136.9556  155.1752 N   0  0  0  0  0  0  0  0  0  0  0  0
  148.6441  138.3853  155.6237 C   0  0  1  0  0  0  0  0  0  0  0  0
  149.9962  138.5591  155.9394 O   0  0  0  0  0  0  0  0  0  0  0  0
  150.5993  139.4509  155.0084 C   0  0  2  0  0  0  0  0  0  0  0  0
  151.8310  140.1230  155.6308 C   0  0  0  0  0  0  0  0  0  0  0  0
  151.4890  140.7169  156.8733 O   0  0  0  0  0  0  0  0  0  0  0  0
  152.3127  140.5968  157.9310 C   0  0  0  0  0  0  0  0  0  0  0  0
  153.0535  139.6286  158.1134 O   0  0  0  0  0  0  0  0  0  0  0  0
  152.2331  141.7604  158.8605 C   0  0  0  0  0  0  0  0  0  0  0  0
  152.7182  141.6262  160.1824 C   0  0  0  0  0  0  0  0  0  0  0  0
  152.6540  142.7072  161.0830 C   0  0  0  0  0  0  0  0  0  0  0  0
  152.1038  143.9355  160.6731 C   0  0  0  0  0  0  0  0  0  0  0  0
  151.6177  144.0819  159.3608 C   0  0  0  0  0  0  0  0  0  0  0  0
  151.6814  143.0023  158.4583 C   0  0  0  0  0  0  0  0  0  0  0  0
  149.4580  140.3883  154.6178 C   0  0  1  0  0  0  0  0  0  0  0  0
  149.7039  141.0885  153.4125 O   0  0  0  0  0  0  0  0  0  0  0  0
  148.2741  139.4297  154.5405 C   0  0  1  0  0  0  0  0  0  0  0  0
  148.1224  138.8708  153.2434 O   0  0  0  0  0  0  0  0  0  0  0  0
  147.0916  136.5554  154.8741 C   0  0  0  0  0  0  0  0  0  0  0  0
  146.1299  137.3188  154.9525 O   0  0  0  0  0  0  0  0  0  0  0  0
  146.9075  135.2366  154.4640 N   0  0  0  0  0  0  0  0  0  0  0  0
  147.9175  134.2825  154.3188 C   0  0  0  0  0  0  0  0  0  0  0  0
  147.6301  133.1452  153.9491 O   0  0  0  0  0  0  0  0  0  0  0  0
  145.9647  134.9460  154.2497 H   0  0  0  0  0  0  0  0  0  0  0  0
  151.3798  134.2479  154.7289 H   0  0  0  0  0  0  0  0  0  0  0  0
  150.4845  133.4082  153.4647 H   0  0  0  0  0  0  0  0  0  0  0  0
  150.2895  132.9308  155.1563 H   0  0  0  0  0  0  0  0  0  0  0  0
  150.4552  136.3587  155.2499 H   0  0  0  0  0  0  0  0  0  0  0  0
  148.0833  138.5097  156.5520 H   0  0  0  0  0  0  0  0  0  0  0  0
  150.9076  138.8725  154.1360 H   0  0  0  0  0  0  0  0  0  0  0  0
  152.6210  139.3859  155.7803 H   0  0  0  0  0  0  0  0  0  0  0  0
  152.2188  140.8857  154.9540 H   0  0  0  0  0  0  0  0  0  0  0  0
  153.1449  140.6928  160.5205 H   0  0  0  0  0  0  0  0  0  0  0  0
  153.0276  142.5928  162.0898 H   0  0  0  0  0  0  0  0  0  0  0  0
  152.0549  144.7640  161.3643 H   0  0  0  0  0  0  0  0  0  0  0  0
  151.1946  145.0242  159.0450 H   0  0  0  0  0  0  0  0  0  0  0  0
  151.2993  143.1485  157.4586 H   0  0  0  0  0  0  0  0  0  0  0  0
  149.2735  141.1101  155.4143 H   0  0  0  0  0  0  0  0  0  0  0  0
  149.5269  140.5090  152.6872 H   0  0  0  0  0  0  0  0  0  0  0  0
  147.3398  139.9221  154.8123 H   0  0  0  0  0  0  0  0  0  0  0  0
  148.7408  139.2898  152.6645 H   0  0  0  0  0  0  0  0  0  0  0  0
  1  2  1  0  0  0  0
  1 28  1  0  0  0  0
  1 29  1  0  0  0  0
  1 30  1  0  0  0  0
  2 25  1  0  0  0  0
  2  3  2  0  0  0  0
  3  4  1  0  0  0  0
  3 31  1  0  0  0  0
  4  5  1  0  0  0  0
  4 22  1  0  0  0  0
  5 20  1  0  0  0  0
  5  6  1  0  0  0  0
  5 32  1  0  0  0  0
  6  7  1  0  0  0  0
  7  8  1  0  0  0  0
  7 18  1  0  0  0  0
  7 33  1  0  0  0  0
  8  9  1  0  0  0  0
  8 34  1  0  0  0  0
  8 35  1  0  0  0  0
  9 10  1  0  0  0  0
 10 11  2  0  0  0  0
 10 12  1  0  0  0  0
 12 17  1  0  0  0  0
 12 13  2  0  0  0  0
 13 14  1  0  0  0  0
 13 36  1  0  0  0  0
 14 15  2  0  0  0  0
 14 37  1  0  0  0  0
 15 16  1  0  0  0  0
 15 38  1  0  0  0  0
 16 17  2  0  0  0  0
 16 39  1  0  0  0  0
 17 40  1  0  0  0  0
 18 19  1  0  0  0  0
 18 20  1  0  0  0  0
 18 41  1  0  0  0  0
 19 42  1  0  0  0  0
 20 21  1  0  0  0  0
 20 43  1  0  0  0  0
 21 44  1  0  0  0  0
 22 23  2  0  0  0  0
 22 24  1  0  0  0  0
 24 27  1  0  0  0  0
 24 25  1  0  0  0  0
 25 26  2  0  0  0  0
M  END
> <s_m_source_file>
AV-unprocessed.smi

> <i_m_source_file_index>
101

> <i_lp_mmshare_version>
43012

> <i_f3d_flags>
0

> <s_epik_input>
Tz1jMVtuSF1jKD1PKW4oW2NIXWMxW0NIM10pW0NAQEhdMk9bQ0BIXShbQ0BASF0oW09IXSlbQ0BIXTJbT0hdKVtDSDJdT0MoPU8pYzNbY0hdW2NIXVtjSF1bY0hdW2NIXTM=

> <s_epik_cmdline>
J2VwaWtfcHl0aG9uJywgJy1waCcsICc3LjAnLCAnLXRuJywgJzgnLCAnLW1hJywgJzIwMCcsICctbWV0YWxfYmluZGluZycsICctaW1hZScsICc8aW5maWxlLm1hZT4nLCAnLW9tYWUnLCAnPG91dGZpbGUubWFlPic=

> <r_lp_tautomer_probability>
0.999537

> <r_epik_Ionization_Penalty>
0.00263537

> <r_epik_Ionization_Penalty_Charging>
0.00263428

> <r_epik_Ionization_Penalty_Neutral>
1.09111e-06

> <r_epik_State_Penalty>
0.00183335

> <r_epik_Charging_Adjusted_Penalty>
0.00446763

> <i_epik_Tot_Q>
0

> <i_epik_Tot_abs_Q>
0

> <r_epik_Metal_State_Penalty>
1.00528

> <b_epik_Metal_Only>
0

> <s_epik_Chemistry_Notes>
This compound has an ester and may undergo hydrolysis at high or low pH. This compound contains an acetal/aminal-like group ( X-CH(R)-Y where X, Y are N, S, or O) that may be acid/base labile, releasing an aldehyde.

> <s_lp_Force_Field>
OPLS_2005

> <r_lp_Energy>
40.9392

> <b_lp_Chiralities_Consistent>
1

> <s_lp_Variant>
AV-unprocessed.smi:101-4

> <Gold.Version>
5.8.1

> <Gold.Id.Protein>
6NUR|6NUR_protein|mol2

> <Gold.PLP.Fitness>
52.1878

> <Gold.PLP.PLP>
-41.6151

> <Gold.PLP.part.hbond>
-4.8421

> <Gold.PLP.part.metal>
0.0000

> <Gold.PLP.part.buried>
-3.5368

> <Gold.PLP.part.nonpolar>
-32.4690

> <Gold.PLP.part.repulsive>
0.0669

> <Gold.PLP.ligand.clash>
0.0000

> <Gold.PLP.ligand.torsion>
0.8694

> <Gold.PLP.Chemscore.Hbond>
4.0750

> <Gold.PLP.Chemscore.CHOScore>
0.0000

> <Gold.PLP.Chemscore.Metal>
0.0000

> <Gold.Chemscore.Hbonds>
donor molecule, donor type, donor heavy atom, donor atom, acceptor molecule, acceptor atom, score
      L1  H    19    42       P1  7957  1.00
      L1  H    21    44       P1  7957  1.00
      P1  H  7989  7998       L1    19  0.14
      P1  H  7997  8010       L1    11  1.00
      P1  H  8011  8017       L1    19  0.50

> <Gold.PLP.Chemscore.Internal.Correction>
0.0865

> <Gold.Rescore>
     Score         DG    S(hbond)    S(metal)    S(lipo)     H(rot)  DE(clash)    DE(int)     intcor
     17.57     -18.72       2.86        0.00     104.04       3.32       0.20       0.95       ----

> <Gold.Chemscore.Fitness>
17.5740

> <Gold.Chemscore.DG>
-18.7199

> <Gold.Chemscore.ZeroCoef>
-5.4800

> <Gold.Chemscore.Hbond>
2.8622

> <Gold.Chemscore.Metal>
0.0000

> <Gold.Chemscore.Lipo>
104.0353

> <Gold.Chemscore.Internal_Hbond>
0.0000

> <Gold.Chemscore.DEClash>
0.1961

> <Gold.Chemscore.DEInternal>
0.9498

> <Gold.Chemscore.Rot>
3.3172

> <Gold.Chemscore.Internal.Correction>
   9.000000E+99

> <Gold.Chemscore.Hbonds>
donor molecule, donor type, donor heavy atom, donor atom, acceptor molecule, acceptor atom, score
      L1  H    19    42       P1  7957  0.96
      L1  H    21    44       P1  7957  1.00
      P1  H  7997  8010       L1    11  0.53
      P1  H  8011  8017       L1    19  0.02

> <Gold.Chemscore.Hbond.Weighted>
-9.5598

> <Gold.Chemscore.Metal.Weighted>
-0.0000

> <Gold.Chemscore.Lipo.Weighted>
-12.1721

> <Gold.Chemscore.Internal_Hbond.Weighted>
0.0000

> <Gold.Chemscore.DEClash.Weighted>
0.1961

> <Gold.Chemscore.DEInternal.Weighted>
0.9498

> <Gold.Chemscore.Rot.Weighted>
8.4920

> <Gold.Chemscore.Internal.Correction.Weighted>
   9.000000E+99

> <Gold.Protein.RotatedTorsions>
[ 6907 6896 6895 6894 ] final  -93.01 input  -60.11 | X-H torsion
[ 7974 7965 7964 7962 ] final   38.63 input  175.53 | X-H torsion
[ 8008 7997 7996 7995 ] final   24.39 input   59.86 | X-H torsion
[ 10167 10162 10161 10158 ] final   47.02 input  -65.29 | X-H torsion
[ 10718 10713 10712 10709 ] final  -58.24 input   66.30 | X-H torsion
[ 10763 10752 10751 10750 ] final   13.90 input  -60.55 | X-H torsion
[ 11005 11000 10999 10996 ] final   -3.19 input  -57.11 | X-H torsion

> <Gold.Protein.ActiveResidues>
 VAL166  LYS551  ARG553  GLY616  TRP617  ASP618  TYR619  PRO620  LYS621  CYS622 
 ASP623  PHE694  ASN695  SER759  ASP760  ASP761  ALA762  ILE779  LEU786  VAL792 
 PHE793  MET794  SER795  GLU796  ALA797  LYS798  CYS799  TRP800  GLU811  SER814 

> <Gold.Protein.RotatedAtoms>
  150.6915  134.2034  159.4330 H   0  0  0  0  0  0  0  0  0  0  0  0  # atno 6907 bound_to 6896
  151.9999  134.9931  160.0574 H   0  0  0  0  0  0  0  0  0  0  0  0  # atno 6908 bound_to 6896
  152.1588  133.4534  159.4887 H   0  0  0  0  0  0  0  0  0  0  0  0  # atno 6909 bound_to 6896
  146.1047  139.5749  142.9391 H   0  0  0  0  0  0  0  0  0  0  0  0  # atno 7974 bound_to 7965
  154.9955  140.3119  155.4888 H   0  0  0  0  0  0  0  0  0  0  0  0  # atno 8008 bound_to 7997
  156.2933  140.2241  156.5003 H   0  0  0  0  0  0  0  0  0  0  0  0  # atno 8009 bound_to 7997
  154.7665  140.0455  157.1004 H   0  0  0  0  0  0  0  0  0  0  0  0  # atno 8010 bound_to 7997
  140.3080  144.2855  150.6205 H   0  0  0  0  0  0  0  0  0  0  0  0  # atno 10167 bound_to 10162
  156.1150  130.4171  150.0549 H   0  0  0  0  0  0  0  0  0  0  0  0  # atno 10718 bound_to 10713
  153.1675  135.6806  153.8655 H   0  0  0  0  0  0  0  0  0  0  0  0  # atno 10763 bound_to 10752
  153.8030  135.3153  155.3393 H   0  0  0  0  0  0  0  0  0  0  0  0  # atno 10764 bound_to 10752
  154.7975  135.4798  154.0287 H   0  0  0  0  0  0  0  0  0  0  0  0  # atno 10765 bound_to 10752
  140.6667  133.9273  155.8469 H   0  0  0  0  0  0  0  0  0  0  0  0  # atno 11005 bound_to 11000
  145.5784  141.0385  143.2135 LP  0  0  0  0  0  0  0  0  0  0  0  0  # atno 17320 bound_to 7965
  144.7461  139.7317  143.7291 LP  0  0  0  0  0  0  0  0  0  0  0  0  # atno 17321 bound_to 7965
  140.5593  143.2194  151.7792 LP  0  0  0  0  0  0  0  0  0  0  0  0  # atno 17342 bound_to 10162
  139.4900  144.4370  151.9808 LP  0  0  0  0  0  0  0  0  0  0  0  0  # atno 17343 bound_to 10162
  156.8503  130.9456  151.3626 LP  0  0  0  0  0  0  0  0  0  0  0  0  # atno 17370 bound_to 10713
  157.6333  130.8747  149.9313 LP  0  0  0  0  0  0  0  0  0  0  0  0  # atno 17371 bound_to 10713
  141.0424  134.0602  157.3886 LP  0  0  0  0  0  0  0  0  0  0  0  0  # atno 17394 bound_to 11000
  139.8995  135.0159  156.7198 LP  0  0  0  0  0  0  0  0  0  0  0  0  # atno 17395 bound_to 11000

$$$$
