AV-unprocessed.smi:2516|AV-procd|sdf|9899|dock4
  -GOLD-   2272013533D 1   1.00000     0.00000
 Structure written by MMmdl.
 47 48  0  0  0  0  0  0  0  0  1 V2000
  154.8859  140.9003  159.8064 C   0  0  0  0  0  0  0  0  0  0  0  0
  153.7376  141.4485  160.6613 C   0  0  0  0  0  0  0  0  0  0  0  0
  152.7768  142.1845  159.8582 N   0  0  0  0  0  0  0  0  0  0  0  0
  152.5718  143.4969  160.1238 N   0  0  0  0  0  0  0  0  0  0  0  0
  151.6647  143.9022  159.2474 C   0  0  0  0  0  0  0  0  0  0  0  0
  151.2695  145.3529  159.2323 C   0  0  0  0  0  0  0  0  0  0  0  0
  151.2477  142.8129  158.4254 C   0  0  0  0  0  0  0  0  0  0  0  0
  150.3255  142.8062  157.3488 N   0  0  0  0  0  0  0  0  0  0  0  0
  149.4795  141.8176  157.0210 C   0  0  0  0  0  0  0  0  0  0  0  0
  149.3780  140.7494  157.6232 O   0  0  0  0  0  0  0  0  0  0  0  0
  148.7655  142.1289  155.9295 N   0  0  0  0  0  0  0  0  0  0  0  0
  147.7780  141.2648  155.2831 C   0  0  1  0  0  0  0  0  0  0  0  0
  147.1466  142.0305  154.1053 C   0  0  0  0  0  0  0  0  0  0  0  0
  148.4358  139.9242  154.8622 C   0  0  0  0  0  0  0  0  0  0  0  0
  148.3225  138.8375  155.9512 C   0  0  0  0  0  0  0  0  0  0  0  0
  149.0544  137.5504  155.5370 C   0  0  0  0  0  0  0  0  0  0  0  0
  150.4179  137.8334  155.2496 O   0  0  0  0  0  0  0  0  0  0  0  0
  150.5715  138.7337  154.1596 C   0  0  0  0  0  0  0  0  0  0  0  0
  149.9287  140.0870  154.5026 C   0  0  0  0  0  0  0  0  0  0  0  0
  151.9920  141.7355  158.8102 C   0  0  0  0  0  0  0  0  0  0  0  0
  152.0340  140.3298  158.3029 C   0  0  0  0  0  0  0  0  0  0  0  0
  155.6008  140.3535  160.4214 H   0  0  0  0  0  0  0  0  0  0  0  0
  155.4246  141.7053  159.3059 H   0  0  0  0  0  0  0  0  0  0  0  0
  154.5157  140.2183  159.0404 H   0  0  0  0  0  0  0  0  0  0  0  0
  153.2223  140.6309  161.1674 H   0  0  0  0  0  0  0  0  0  0  0  0
  154.1247  142.1026  161.4427 H   0  0  0  0  0  0  0  0  0  0  0  0
  151.0414  145.6894  158.2212 H   0  0  0  0  0  0  0  0  0  0  0  0
  152.0702  145.9886  159.6117 H   0  0  0  0  0  0  0  0  0  0  0  0
  150.3898  145.5259  159.8519 H   0  0  0  0  0  0  0  0  0  0  0  0
  150.3941  143.5778  156.7022 H   0  0  0  0  0  0  0  0  0  0  0  0
  148.9227  143.0305  155.5039 H   0  0  0  0  0  0  0  0  0  0  0  0
  146.9876  141.0354  156.0004 H   0  0  0  0  0  0  0  0  0  0  0  0
  146.3154  141.4815  153.6645 H   0  0  0  0  0  0  0  0  0  0  0  0
  147.8774  142.2231  153.3191 H   0  0  0  0  0  0  0  0  0  0  0  0
  146.7487  142.9926  154.4301 H   0  0  0  0  0  0  0  0  0  0  0  0
  147.9192  139.5596  153.9727 H   0  0  0  0  0  0  0  0  0  0  0  0
  148.7430  139.2064  156.8876 H   0  0  0  0  0  0  0  0  0  0  0  0
  147.2789  138.5962  156.1507 H   0  0  0  0  0  0  0  0  0  0  0  0
  149.0112  136.8196  156.3449 H   0  0  0  0  0  0  0  0  0  0  0  0
  148.5759  137.0927  154.6698 H   0  0  0  0  0  0  0  0  0  0  0  0
  151.6352  138.8646  153.9598 H   0  0  0  0  0  0  0  0  0  0  0  0
  150.1283  138.3099  153.2570 H   0  0  0  0  0  0  0  0  0  0  0  0
  150.0546  140.7619  153.6557 H   0  0  0  0  0  0  0  0  0  0  0  0
  150.4623  140.5382  155.3403 H   0  0  0  0  0  0  0  0  0  0  0  0
  151.2430  140.1488  157.5755 H   0  0  0  0  0  0  0  0  0  0  0  0
  151.9050  139.6176  159.1179 H   0  0  0  0  0  0  0  0  0  0  0  0
  152.9884  140.1229  157.8188 H   0  0  0  0  0  0  0  0  0  0  0  0
  1  2  1  0  0  0  0
  1 22  1  0  0  0  0
  1 23  1  0  0  0  0
  1 24  1  0  0  0  0
  2  3  1  0  0  0  0
  2 25  1  0  0  0  0
  2 26  1  0  0  0  0
  3 20  1  0  0  0  0
  3  4  1  0  0  0  0
  4  5  2  0  0  0  0
  5  6  1  0  0  0  0
  5  7  1  0  0  0  0
  6 27  1  0  0  0  0
  6 28  1  0  0  0  0
  6 29  1  0  0  0  0
  7  8  1  0  0  0  0
  7 20  2  0  0  0  0
  8  9  1  0  0  0  0
  8 30  1  0  0  0  0
  9 10  2  0  0  0  0
  9 11  1  0  0  0  0
 11 12  1  0  0  0  0
 11 31  1  0  0  0  0
 12 13  1  0  0  0  0
 12 14  1  0  0  0  0
 12 32  1  0  0  0  0
 13 33  1  0  0  0  0
 13 34  1  0  0  0  0
 13 35  1  0  0  0  0
 14 19  1  0  0  0  0
 14 15  1  0  0  0  0
 14 36  1  0  0  0  0
 15 16  1  0  0  0  0
 15 37  1  0  0  0  0
 15 38  1  0  0  0  0
 16 17  1  0  0  0  0
 16 39  1  0  0  0  0
 16 40  1  0  0  0  0
 17 18  1  0  0  0  0
 18 19  1  0  0  0  0
 18 41  1  0  0  0  0
 18 42  1  0  0  0  0
 19 43  1  0  0  0  0
 19 44  1  0  0  0  0
 20 21  1  0  0  0  0
 21 45  1  0  0  0  0
 21 46  1  0  0  0  0
 21 47  1  0  0  0  0
M  END
> <s_m_source_file>
AV-unprocessed.smi

> <i_m_source_file_index>
2516

> <i_lp_mmshare_version>
43012

> <i_f3d_flags>
0

> <s_epik_input>
W0NIM11bQ0gyXW4xbmMoW0NIM10pYyhjMVtDSDNdKVtOSF1DKD1PKVtOSF1bQ0BIXShbQ0gzXSlbQ0hdMltDSDJdW0NIMl1PW0NIMl1bQ0gyXTI=

> <s_epik_cmdline>
J2VwaWtfcHl0aG9uJywgJy1waCcsICc3LjAnLCAnLXRuJywgJzgnLCAnLW1hJywgJzIwMCcsICctbWV0YWxfYmluZGluZycsICctaW1hZScsICc8aW5maWxlLm1hZT4nLCAnLW9tYWUnLCAnPG91dGZpbGUubWFlPic=

> <r_lp_tautomer_probability>
1

> <r_epik_Ionization_Penalty>
0.00383358

> <r_epik_Ionization_Penalty_Charging>
0

> <r_epik_Ionization_Penalty_Neutral>
0.00383358

> <r_epik_State_Penalty>
0.00270714

> <r_epik_Charging_Adjusted_Penalty>
0.00270714

> <i_epik_Tot_Q>
0

> <i_epik_Tot_abs_Q>
0

> <r_epik_Metal_State_Penalty>
-0

> <b_epik_Metal_Only>
0

> <s_lp_Force_Field>
OPLS_2005

> <r_lp_Energy>
15.2282

> <b_lp_Chiralities_Consistent>
1

> <s_lp_Variant>
AV-unprocessed.smi:2516-2

> <Gold.Version>
5.8.1

> <Gold.Id.Protein>
6NUR|6NUR_protein|mol2

> <Gold.PLP.Fitness>
42.2370

> <Gold.PLP.PLP>
-39.7583

> <Gold.PLP.part.hbond>
-2.0000

> <Gold.PLP.part.metal>
0.0000

> <Gold.PLP.part.buried>
-5.2928

> <Gold.PLP.part.nonpolar>
-33.0249

> <Gold.PLP.part.repulsive>
0.2375

> <Gold.PLP.ligand.clash>
0.0279

> <Gold.PLP.ligand.torsion>
1.0797

> <Gold.PLP.Chemscore.Hbond>
1.4450

> <Gold.PLP.Chemscore.CHOScore>
0.0000

> <Gold.PLP.Chemscore.Metal>
0.0000

> <Gold.Chemscore.Hbonds>
donor molecule, donor type, donor heavy atom, donor atom, acceptor molecule, acceptor atom, score
      L1  H     8    30       P1  8028  0.46
      L1  H    11    31       P1  8028  0.96

> <Gold.PLP.Chemscore.Internal.Correction>
0.3308

> <Gold.Rescore>
     Score         DG    S(hbond)    S(metal)    S(lipo)     H(rot)  DE(clash)    DE(int)     intcor
     14.87     -19.90       1.81        0.00     100.01       1.30       0.24       4.79       ----

> <Gold.Chemscore.Fitness>
14.8740

> <Gold.Chemscore.DG>
-19.9012

> <Gold.Chemscore.ZeroCoef>
-5.4800

> <Gold.Chemscore.Hbond>
1.8099

> <Gold.Chemscore.Metal>
0.0000

> <Gold.Chemscore.Lipo>
100.0133

> <Gold.Chemscore.Internal_Hbond>
0.0000

> <Gold.Chemscore.DEClash>
0.2369

> <Gold.Chemscore.DEInternal>
4.7903

> <Gold.Chemscore.Rot>
1.2990

> <Gold.Chemscore.Internal.Correction>
   9.000000E+99

> <Gold.Chemscore.Hbonds>
donor molecule, donor type, donor heavy atom, donor atom, acceptor molecule, acceptor atom, score
      L1  H     8    30       P1  8028  0.45
      L1  H    11    31       P1  8028  0.92

> <Gold.Chemscore.Hbond.Weighted>
-6.0451

> <Gold.Chemscore.Metal.Weighted>
-0.0000

> <Gold.Chemscore.Lipo.Weighted>
-11.7016

> <Gold.Chemscore.Internal_Hbond.Weighted>
0.0000

> <Gold.Chemscore.DEClash.Weighted>
0.2369

> <Gold.Chemscore.DEInternal.Weighted>
4.7903

> <Gold.Chemscore.Rot.Weighted>
3.3254

> <Gold.Chemscore.Internal.Correction.Weighted>
   9.000000E+99

> <Gold.Protein.RotatedTorsions>
[ 6907 6896 6895 6894 ] final  153.95 input  -60.11 | X-H torsion
[ 7974 7965 7964 7962 ] final  -76.79 input  175.53 | X-H torsion
[ 8008 7997 7996 7995 ] final   19.89 input   59.86 | X-H torsion
[ 10167 10162 10161 10158 ] final   31.15 input  -65.29 | X-H torsion
[ 10718 10713 10712 10709 ] final  -95.58 input   66.30 | X-H torsion
[ 10763 10752 10751 10750 ] final  125.11 input  -60.55 | X-H torsion
[ 11005 11000 10999 10996 ] final -117.10 input  -57.11 | X-H torsion

> <Gold.Protein.ActiveResidues>
 VAL166  LYS551  ARG553  GLY616  TRP617  ASP618  TYR619  PRO620  LYS621  CYS622 
 ASP623  PHE694  ASN695  SER759  ASP760  ASP761  ALA762  ILE779  LEU786  VAL792 
 PHE793  MET794  SER795  GLU796  ALA797  LYS798  CYS799  TRP800  GLU811  SER814 

> <Gold.Protein.RotatedAtoms>
  152.0655  133.4082  159.4435 H   0  0  0  0  0  0  0  0  0  0  0  0  # atno 6907 bound_to 6896
  150.6865  134.3152  159.4772 H   0  0  0  0  0  0  0  0  0  0  0  0  # atno 6908 bound_to 6896
  152.0977  134.9363  160.0621 H   0  0  0  0  0  0  0  0  0  0  0  0  # atno 6909 bound_to 6896
  145.6083  140.9393  143.1203 H   0  0  0  0  0  0  0  0  0  0  0  0  # atno 7974 bound_to 7965
  154.9274  140.3035  155.5185 H   0  0  0  0  0  0  0  0  0  0  0  0  # atno 8008 bound_to 7997
  156.3006  140.2360  156.4267 H   0  0  0  0  0  0  0  0  0  0  0  0  # atno 8009 bound_to 7997
  154.8271  140.0420  157.1440 H   0  0  0  0  0  0  0  0  0  0  0  0  # atno 8010 bound_to 7997
  140.4614  144.0900  150.6214 H   0  0  0  0  0  0  0  0  0  0  0  0  # atno 10167 bound_to 10162
  156.0046  130.5115  150.6097 H   0  0  0  0  0  0  0  0  0  0  0  0  # atno 10718 bound_to 10713
  153.6721  135.3328  155.3156 H   0  0  0  0  0  0  0  0  0  0  0  0  # atno 10763 bound_to 10752
  154.8488  135.4388  154.1695 H   0  0  0  0  0  0  0  0  0  0  0  0  # atno 10764 bound_to 10752
  153.2688  135.6998  153.7578 H   0  0  0  0  0  0  0  0  0  0  0  0  # atno 10765 bound_to 10752
  141.0378  133.9883  157.3043 H   0  0  0  0  0  0  0  0  0  0  0  0  # atno 11005 bound_to 11000
  144.7280  139.7813  143.7357 LP  0  0  0  0  0  0  0  0  0  0  0  0  # atno 17320 bound_to 7965
  146.1524  139.4611  143.0040 LP  0  0  0  0  0  0  0  0  0  0  0  0  # atno 17321 bound_to 7965
  140.4088  143.2667  151.9858 LP  0  0  0  0  0  0  0  0  0  0  0  0  # atno 17342 bound_to 10162
  139.4807  144.5933  151.7733 LP  0  0  0  0  0  0  0  0  0  0  0  0  # atno 17343 bound_to 10162
  157.3932  131.0799  151.1375 LP  0  0  0  0  0  0  0  0  0  0  0  0  # atno 17370 bound_to 10713
  157.2060  130.6416  149.5756 LP  0  0  0  0  0  0  0  0  0  0  0  0  # atno 17371 bound_to 10713
  139.9253  135.0201  156.8212 LP  0  0  0  0  0  0  0  0  0  0  0  0  # atno 17394 bound_to 11000
  140.6291  133.9923  155.7653 LP  0  0  0  0  0  0  0  0  0  0  0  0  # atno 17395 bound_to 11000

$$$$
