AV-unprocessed.smi:2636|AV-procd|sdf|10258|dock2
  -GOLD-   2272014263D 1   1.00000     0.00000
 Structure written by MMmdl.
 36 37  0  0  0  0  0  0  0  0  1 V2000
  148.0653  141.4881  154.3042 C   0  0  0  0  0  0  0  0  0  0  0  0
  149.0425  140.3294  154.4093 C   0  0  0  0  0  0  0  0  0  0  0  0
  150.2017  140.4168  155.1103 C   0  0  0  0  0  0  0  0  0  0  0  0
  151.1038  139.3719  155.2290 N   0  0  0  0  0  0  0  0  0  0  0  0
  152.2929  139.4498  156.0681 C   0  0  0  0  0  0  0  0  0  0  0  0
  152.0494  138.9281  157.3421 O   0  0  0  0  0  0  0  0  0  0  0  0
  151.9612  139.8872  158.3890 C   0  0  0  0  0  0  0  0  0  0  0  0
  153.2620  139.9362  159.1666 C   0  0  0  0  0  0  0  0  0  0  0  0
  153.7342  140.9531  159.9149 C   0  0  0  0  0  0  0  0  0  0  0  0
  153.1506  142.2921  160.1063 C   0  0  0  0  0  0  0  0  0  0  0  0
  152.8569  142.8130  161.3873 C   0  0  0  0  0  0  0  0  0  0  0  0
  152.3227  144.1084  161.5287 C   0  0  0  0  0  0  0  0  0  0  0  0
  152.0713  144.8944  160.3889 C   0  0  0  0  0  0  0  0  0  0  0  0
  152.3512  144.3813  159.1085 C   0  0  0  0  0  0  0  0  0  0  0  0
  152.8874  143.0862  158.9698 C   0  0  0  0  0  0  0  0  0  0  0  0
  150.8298  138.1344  154.6110 C   0  0  0  0  0  0  0  0  0  0  0  0
  151.5783  137.1606  154.6930 O   0  0  0  0  0  0  0  0  0  0  0  0
  149.6418  138.0467  153.8872 N   0  0  0  0  0  0  0  0  0  0  0  0
  148.7046  139.0724  153.7340 C   0  0  0  0  0  0  0  0  0  0  0  0
  147.6885  138.8717  153.0707 O   0  0  0  0  0  0  0  0  0  0  0  0
  149.4375  137.1644  153.4411 H   0  0  0  0  0  0  0  0  0  0  0  0
  148.4157  142.3636  154.8518 H   0  0  0  0  0  0  0  0  0  0  0  0
  147.0949  141.2050  154.7135 H   0  0  0  0  0  0  0  0  0  0  0  0
  147.9276  141.7779  153.2620 H   0  0  0  0  0  0  0  0  0  0  0  0
  150.4328  141.3459  155.6116 H   0  0  0  0  0  0  0  0  0  0  0  0
  153.0994  138.8873  155.5938 H   0  0  0  0  0  0  0  0  0  0  0  0
  152.6202  140.4881  156.1446 H   0  0  0  0  0  0  0  0  0  0  0  0
  151.7584  140.8747  157.9732 H   0  0  0  0  0  0  0  0  0  0  0  0
  151.1399  139.6326  159.0526 H   0  0  0  0  0  0  0  0  0  0  0  0
  153.8531  139.0337  159.1137 H   0  0  0  0  0  0  0  0  0  0  0  0
  154.6728  140.7913  160.4248 H   0  0  0  0  0  0  0  0  0  0  0  0
  153.0291  142.2182  162.2721 H   0  0  0  0  0  0  0  0  0  0  0  0
  152.1033  144.4974  162.5119 H   0  0  0  0  0  0  0  0  0  0  0  0
  151.6611  145.8877  160.4963 H   0  0  0  0  0  0  0  0  0  0  0  0
  152.1571  144.9819  158.2321 H   0  0  0  0  0  0  0  0  0  0  0  0
  153.1051  142.7052  157.9824 H   0  0  0  0  0  0  0  0  0  0  0  0
  1  2  1  0  0  0  0
  1 22  1  0  0  0  0
  1 23  1  0  0  0  0
  1 24  1  0  0  0  0
  2 19  1  0  0  0  0
  2  3  2  0  0  0  0
  3  4  1  0  0  0  0
  3 25  1  0  0  0  0
  4  5  1  0  0  0  0
  4 16  1  0  0  0  0
  5  6  1  0  0  0  0
  5 26  1  0  0  0  0
  5 27  1  0  0  0  0
  6  7  1  0  0  0  0
  7  8  1  0  0  0  0
  7 28  1  0  0  0  0
  7 29  1  0  0  0  0
  8  9  2  0  0  0  0
  8 30  1  0  0  0  0
  9 10  1  0  0  0  0
  9 31  1  0  0  0  0
 10 15  1  0  0  0  0
 10 11  2  0  0  0  0
 11 12  1  0  0  0  0
 11 32  1  0  0  0  0
 12 13  2  0  0  0  0
 12 33  1  0  0  0  0
 13 14  1  0  0  0  0
 13 34  1  0  0  0  0
 14 15  2  0  0  0  0
 14 35  1  0  0  0  0
 15 36  1  0  0  0  0
 16 17  2  0  0  0  0
 16 18  1  0  0  0  0
 18 21  1  0  0  0  0
 18 19  1  0  0  0  0
 19 20  2  0  0  0  0
M  END
> <s_m_source_file>
AV-unprocessed.smi

> <i_m_source_file_index>
2636

> <i_lp_mmshare_version>
43012

> <i_f3d_flags>
0

> <s_epik_input>
Tz1jMVtuSF1jKD1PKW4oW2NIXWMxW0NIM10pW0NIMl1PW0NIMl0vW0NIXT1bQ0hdL2MyW2NIXVtjSF1bY0hdW2NIXVtjSF0y

> <s_epik_cmdline>
J2VwaWtfcHl0aG9uJywgJy1waCcsICc3LjAnLCAnLXRuJywgJzgnLCAnLW1hJywgJzIwMCcsICctbWV0YWxfYmluZGluZycsICctaW1hZScsICc8aW5maWxlLm1hZT4nLCAnLW9tYWUnLCAnPG91dGZpbGUubWFlPic=

> <r_lp_tautomer_probability>
0.999537

> <r_epik_Ionization_Penalty>
0.00179702

> <r_epik_Ionization_Penalty_Charging>
0.00179702

> <r_epik_Ionization_Penalty_Neutral>
9.83266e-13

> <r_epik_State_Penalty>
0.00121868

> <r_epik_Charging_Adjusted_Penalty>
0.0030157

> <i_epik_Tot_Q>
0

> <i_epik_Tot_abs_Q>
0

> <r_epik_Metal_State_Penalty>
0.826903

> <b_epik_Metal_Only>
0

> <s_epik_Chemistry_Notes>
This compound contains an acetal/aminal-like group ( X-CH(R)-Y where X, Y are N, S, or O) that may be acid/base labile, releasing an aldehyde.

> <s_lp_Force_Field>
OPLS_2005

> <r_lp_Energy>
2.54145

> <b_lp_Chiralities_Consistent>
1

> <s_lp_Variant>
AV-unprocessed.smi:2636-2

> <Gold.Version>
5.8.1

> <Gold.Id.Protein>
6NUR|6NUR_protein|mol2

> <Gold.PLP.Fitness>
53.4068

> <Gold.PLP.PLP>
-50.9093

> <Gold.PLP.part.hbond>
-2.0162

> <Gold.PLP.part.metal>
0.0000

> <Gold.PLP.part.buried>
-3.1297

> <Gold.PLP.part.nonpolar>
-47.0750

> <Gold.PLP.part.repulsive>
1.4981

> <Gold.PLP.ligand.clash>
0.0000

> <Gold.PLP.ligand.torsion>
1.6308

> <Gold.PLP.Chemscore.Hbond>
1.8858

> <Gold.PLP.Chemscore.CHOScore>
0.0000

> <Gold.PLP.Chemscore.Metal>
0.0000

> <Gold.Chemscore.Hbonds>
donor molecule, donor type, donor heavy atom, donor atom, acceptor molecule, acceptor atom, score
      L1  H    18    21       P1  7948  0.96
      P1  H 10752 10763       L1    17  0.93

> <Gold.PLP.Chemscore.Internal.Correction>
0.1019

> <Gold.Rescore>
     Score         DG    S(hbond)    S(metal)    S(lipo)     H(rot)  DE(clash)    DE(int)     intcor
     18.02     -19.62       1.66        0.00     115.39       1.92       0.02       1.58       ----

> <Gold.Chemscore.Fitness>
18.0199

> <Gold.Chemscore.DG>
-19.6198

> <Gold.Chemscore.ZeroCoef>
-5.4800

> <Gold.Chemscore.Hbond>
1.6643

> <Gold.Chemscore.Metal>
0.0000

> <Gold.Chemscore.Lipo>
115.3868

> <Gold.Chemscore.Internal_Hbond>
0.0000

> <Gold.Chemscore.DEClash>
0.0232

> <Gold.Chemscore.DEInternal>
1.5767

> <Gold.Chemscore.Rot>
1.9216

> <Gold.Chemscore.Internal.Correction>
   9.000000E+99

> <Gold.Chemscore.Hbonds>
donor molecule, donor type, donor heavy atom, donor atom, acceptor molecule, acceptor atom, score
      L1  H    18    21       P1  7948  0.85
      P1  H 10752 10763       L1    17  0.87

> <Gold.Chemscore.Hbond.Weighted>
-5.5588

> <Gold.Chemscore.Metal.Weighted>
-0.0000

> <Gold.Chemscore.Lipo.Weighted>
-13.5003

> <Gold.Chemscore.Internal_Hbond.Weighted>
0.0000

> <Gold.Chemscore.DEClash.Weighted>
0.0232

> <Gold.Chemscore.DEInternal.Weighted>
1.5767

> <Gold.Chemscore.Rot.Weighted>
4.9193

> <Gold.Chemscore.Internal.Correction.Weighted>
   9.000000E+99

> <Gold.Protein.RotatedTorsions>
[ 6907 6896 6895 6894 ] final   63.81 input  -60.11 | X-H torsion
[ 7974 7965 7964 7962 ] final   92.21 input  175.53 | X-H torsion
[ 8008 7997 7996 7995 ] final  136.11 input   59.86 | X-H torsion
[ 10167 10162 10161 10158 ] final  144.14 input  -65.29 | X-H torsion
[ 10718 10713 10712 10709 ] final -172.97 input   66.30 | X-H torsion
[ 10763 10752 10751 10750 ] final   44.47 input  -60.55 | X-H torsion
[ 11005 11000 10999 10996 ] final -172.96 input  -57.11 | X-H torsion

> <Gold.Protein.ActiveResidues>
 VAL166  LYS551  ARG553  GLY616  TRP617  ASP618  TYR619  PRO620  LYS621  CYS622 
 ASP623  PHE694  ASN695  SER759  ASP760  ASP761  ALA762  ILE779  LEU786  VAL792 
 PHE793  MET794  SER795  GLU796  ALA797  LYS798  CYS799  TRP800  GLU811  SER814 

> <Gold.Protein.RotatedAtoms>
  152.4282  134.5827  159.9952 H   0  0  0  0  0  0  0  0  0  0  0  0  # atno 6907 bound_to 6896
  151.5958  133.3356  159.3045 H   0  0  0  0  0  0  0  0  0  0  0  0  # atno 6908 bound_to 6896
  150.8173  134.7399  159.6806 H   0  0  0  0  0  0  0  0  0  0  0  0  # atno 6909 bound_to 6896
  145.4954  139.2276  143.2807 H   0  0  0  0  0  0  0  0  0  0  0  0  # atno 7974 bound_to 7965
  156.3004  140.2453  156.3692 H   0  0  0  0  0  0  0  0  0  0  0  0  # atno 8008 bound_to 7997
  154.8805  140.0413  157.1799 H   0  0  0  0  0  0  0  0  0  0  0  0  # atno 8009 bound_to 7997
  154.8701  140.2934  155.5490 H   0  0  0  0  0  0  0  0  0  0  0  0  # atno 8010 bound_to 7997
  139.4953  144.5992  151.6517 H   0  0  0  0  0  0  0  0  0  0  0  0  # atno 10167 bound_to 10162
  156.7634  130.9422  151.3118 H   0  0  0  0  0  0  0  0  0  0  0  0  # atno 10718 bound_to 10713
  152.9840  135.6069  154.3279 H   0  0  0  0  0  0  0  0  0  0  0  0  # atno 10763 bound_to 10752
  154.2985  135.2773  155.2624 H   0  0  0  0  0  0  0  0  0  0  0  0  # atno 10764 bound_to 10752
  154.4887  135.5898  153.6499 H   0  0  0  0  0  0  0  0  0  0  0  0  # atno 10765 bound_to 10752
  140.4911  134.5984  157.4955 H   0  0  0  0  0  0  0  0  0  0  0  0  # atno 11005 bound_to 11000
  146.2259  140.5751  142.8997 LP  0  0  0  0  0  0  0  0  0  0  0  0  # atno 17320 bound_to 7965
  144.7810  140.5840  143.6605 LP  0  0  0  0  0  0  0  0  0  0  0  0  # atno 17321 bound_to 7965
  140.5638  144.0225  150.6182 LP  0  0  0  0  0  0  0  0  0  0  0  0  # atno 17342 bound_to 10162
  140.3319  143.3072  152.0678 LP  0  0  0  0  0  0  0  0  0  0  0  0  # atno 17343 bound_to 10162
  157.6724  130.9063  150.0071 LP  0  0  0  0  0  0  0  0  0  0  0  0  # atno 17370 bound_to 10713
  156.1324  130.3643  149.9710 LP  0  0  0  0  0  0  0  0  0  0  0  0  # atno 17371 bound_to 10713
  139.9769  134.7201  155.9933 LP  0  0  0  0  0  0  0  0  0  0  0  0  # atno 17394 bound_to 11000
  141.1483  133.6552  156.3936 LP  0  0  0  0  0  0  0  0  0  0  0  0  # atno 17395 bound_to 11000

$$$$
