AV-unprocessed.smi:35|AV-procd|sdf|258|dock2
  -GOLD-   2262016 23D 1   1.00000     0.00000
 Structure written by MMmdl.
 29 30  0  0  0  0  0  0  0  0  1 V2000
  150.4335  136.7331  158.6190 O   0  0  0  0  0  0  0  0  0  0  0  0
  150.0952  137.4218  157.6588 C   0  0  0  0  0  0  0  0  0  0  0  0
  151.0327  138.2165  156.9947 N   0  0  0  0  0  0  0  0  0  0  0  0
  150.7664  139.0413  155.9003 C   0  0  0  0  0  0  0  0  0  0  0  0
  151.6798  139.6767  155.3757 O   0  0  0  0  0  0  0  0  0  0  0  0
  149.4306  139.1026  155.4392 N   0  0  0  0  0  0  0  0  0  0  0  0
  149.1269  139.9774  154.2330 C   0  0  1  0  0  0  0  0  0  0  0  0
  148.5718  139.2080  153.2098 O   0  0  0  0  0  0  0  0  0  0  0  0
  147.1544  139.2468  153.3014 C   0  0  2  0  0  0  0  0  0  0  0  0
  146.5443  138.8243  151.9560 C   0  0  0  0  0  0  0  0  0  0  0  0
  147.5131  138.1822  151.1547 O   0  0  0  0  0  0  0  0  0  0  0  0
  146.8763  140.6964  153.7075 C   0  0  1  0  0  0  0  0  0  0  0  0
  145.6840  140.7690  154.4639 O   0  0  0  0  0  0  0  0  0  0  0  0
  148.0835  141.0705  154.5685 C   0  0  2  0  0  0  0  0  0  0  0  0
  148.5505  142.3592  154.2213 O   0  0  0  0  0  0  0  0  0  0  0  0
  148.4732  138.2948  156.0454 C   0  0  0  0  0  0  0  0  0  0  0  0
  148.7496  137.4941  157.1017 C   0  0  0  0  0  0  0  0  0  0  0  0
  147.2434  136.4269  157.8217 Br  0  0  0  0  0  0  0  0  0  0  0  0
  151.9843  138.1870  157.3307 H   0  0  0  0  0  0  0  0  0  0  0  0
  150.1008  140.3591  153.9196 H   0  0  0  0  0  0  0  0  0  0  0  0
  146.8388  138.5627  154.0912 H   0  0  0  0  0  0  0  0  0  0  0  0
  145.6910  138.1613  152.1016 H   0  0  0  0  0  0  0  0  0  0  0  0
  146.1825  139.7013  151.4187 H   0  0  0  0  0  0  0  0  0  0  0  0
  147.9550  137.5323  151.6800 H   0  0  0  0  0  0  0  0  0  0  0  0
  146.8069  141.3335  152.8241 H   0  0  0  0  0  0  0  0  0  0  0  0
  144.9617  140.5210  153.9067 H   0  0  0  0  0  0  0  0  0  0  0  0
  147.8360  141.0473  155.6311 H   0  0  0  0  0  0  0  0  0  0  0  0
  148.4866  142.9170  154.9811 H   0  0  0  0  0  0  0  0  0  0  0  0
  147.4594  138.2778  155.6759 H   0  0  0  0  0  0  0  0  0  0  0  0
  1  2  2  0  0  0  0
  2 17  1  0  0  0  0
  2  3  1  0  0  0  0
  3 19  1  0  0  0  0
  3  4  1  0  0  0  0
  4  5  2  0  0  0  0
  4  6  1  0  0  0  0
  6  7  1  0  0  0  0
  6 16  1  0  0  0  0
  7 14  1  0  0  0  0
  7  8  1  0  0  0  0
  7 20  1  0  0  0  0
  8  9  1  0  0  0  0
  9 10  1  0  0  0  0
  9 12  1  0  0  0  0
  9 21  1  0  0  0  0
 10 11  1  0  0  0  0
 10 22  1  0  0  0  0
 10 23  1  0  0  0  0
 11 24  1  0  0  0  0
 12 13  1  0  0  0  0
 12 14  1  0  0  0  0
 12 25  1  0  0  0  0
 13 26  1  0  0  0  0
 14 15  1  0  0  0  0
 14 27  1  0  0  0  0
 15 28  1  0  0  0  0
 16 17  2  0  0  0  0
 16 29  1  0  0  0  0
 17 18  1  0  0  0  0
M  END
> <s_m_source_file>
AV-unprocessed.smi

> <i_m_source_file_index>
35

> <i_lp_mmshare_version>
43012

> <i_f3d_flags>
0

> <s_epik_input>
Tz1jMVtuSF1jKD1PKW4oW2NIXWMxQnIpW0NAQEhdMk9bQ0BASF0oW0NIMl1bT0hdKVtDQEBIXShbT0hdKVtDQEhdMltPSF0=

> <s_epik_cmdline>
J2VwaWtfcHl0aG9uJywgJy1waCcsICc3LjAnLCAnLXRuJywgJzgnLCAnLW1hJywgJzIwMCcsICctbWV0YWxfYmluZGluZycsICctaW1hZScsICc8aW5maWxlLm1hZT4nLCAnLW9tYWUnLCAnPG91dGZpbGUubWFlPic=

> <r_lp_tautomer_probability>
0.999537

> <r_epik_Ionization_Penalty>
0.10812

> <r_epik_Ionization_Penalty_Charging>
0.108119

> <r_epik_Ionization_Penalty_Neutral>
4.93006e-07

> <r_epik_State_Penalty>
0.0979238

> <r_epik_Charging_Adjusted_Penalty>
0.206043

> <i_epik_Tot_Q>
0

> <i_epik_Tot_abs_Q>
0

> <r_epik_Metal_State_Penalty>
3.07911

> <b_epik_Metal_Only>
0

> <s_epik_Chemistry_Notes>
This compound contains an acetal/aminal-like group ( X-CH(R)-Y where X, Y are N, S, or O) that may be acid/base labile, releasing an aldehyde.

> <s_lp_Force_Field>
OPLS_2005

> <r_lp_Energy>
26.4636

> <b_lp_Chiralities_Consistent>
1

> <s_lp_Variant>
AV-unprocessed.smi:35-12

> <Gold.Version>
5.8.1

> <Gold.Id.Protein>
6NUR|6NUR_protein|mol2

> <Gold.PLP.Fitness>
36.6679

> <Gold.PLP.PLP>
-21.4772

> <Gold.PLP.part.hbond>
-7.1947

> <Gold.PLP.part.metal>
0.0000

> <Gold.PLP.part.buried>
-4.8288

> <Gold.PLP.part.nonpolar>
-14.9611

> <Gold.PLP.part.repulsive>
4.4753

> <Gold.PLP.ligand.clash>
0.0000

> <Gold.PLP.ligand.torsion>
0.6823

> <Gold.PLP.Chemscore.Hbond>
5.5075

> <Gold.PLP.Chemscore.CHOScore>
0.0000

> <Gold.PLP.Chemscore.Metal>
0.0000

> <Gold.Chemscore.Hbonds>
donor molecule, donor type, donor heavy atom, donor atom, acceptor molecule, acceptor atom, score
      L1  H    11    24       P1  7948  1.00
      L1  H    13    26       P1 10175  1.00
      L1  H    15    28       P1  8028  0.86
      P1  H  6896  6909       L1     1  0.68
      P1  H  7954  7966       L1    11  0.68
      P1  H  7989  7998       L1     5  0.54
      P1  H  8011  8017       L1    15  0.09

> <Gold.PLP.Chemscore.Internal.Correction>
0.0327

> <Gold.Rescore>
     Score         DG    S(hbond)    S(metal)    S(lipo)     H(rot)  DE(clash)    DE(int)     intcor
     13.40     -16.04       4.82        0.00      32.96       3.67       2.10       0.55       ----

> <Gold.Chemscore.Fitness>
13.3971

> <Gold.Chemscore.DG>
-16.0429

> <Gold.Chemscore.ZeroCoef>
-5.4800

> <Gold.Chemscore.Hbond>
4.8210

> <Gold.Chemscore.Metal>
0.0000

> <Gold.Chemscore.Lipo>
32.9585

> <Gold.Chemscore.Internal_Hbond>
0.0000

> <Gold.Chemscore.DEClash>
2.0968

> <Gold.Chemscore.DEInternal>
0.5491

> <Gold.Chemscore.Rot>
3.6701

> <Gold.Chemscore.Internal.Correction>
   9.000000E+99

> <Gold.Chemscore.Hbonds>
donor molecule, donor type, donor heavy atom, donor atom, acceptor molecule, acceptor atom, score
      L1  H    11    24       P1  7948  0.93
      L1  H    13    26       P1 10175  0.99
      L1  H    15    28       P1  8028  0.84
      P1  H  6896  6909       L1     1  0.67
      P1  H  7954  7966       L1    11  0.11
      P1  H  7989  7998       L1     5  0.52
      P1  H  8011  8017       L1    15  0.09

> <Gold.Chemscore.Hbond.Weighted>
-16.1023

> <Gold.Chemscore.Metal.Weighted>
-0.0000

> <Gold.Chemscore.Lipo.Weighted>
-3.8561

> <Gold.Chemscore.Internal_Hbond.Weighted>
0.0000

> <Gold.Chemscore.DEClash.Weighted>
2.0968

> <Gold.Chemscore.DEInternal.Weighted>
0.5491

> <Gold.Chemscore.Rot.Weighted>
9.3955

> <Gold.Chemscore.Internal.Correction.Weighted>
   9.000000E+99

> <Gold.Protein.RotatedTorsions>
[ 6907 6896 6895 6894 ] final   88.23 input  -60.11 | X-H torsion
[ 7974 7965 7964 7962 ] final -155.36 input  175.53 | X-H torsion
[ 8008 7997 7996 7995 ] final  118.79 input   59.86 | X-H torsion
[ 10167 10162 10161 10158 ] final  172.78 input  -65.29 | X-H torsion
[ 10718 10713 10712 10709 ] final   97.15 input   66.30 | X-H torsion
[ 10763 10752 10751 10750 ] final  161.06 input  -60.55 | X-H torsion
[ 11005 11000 10999 10996 ] final  113.60 input  -57.11 | X-H torsion

> <Gold.Protein.ActiveResidues>
 VAL166  LYS551  ARG553  GLY616  TRP617  ASP618  TYR619  PRO620  LYS621  CYS622 
 ASP623  PHE694  ASN695  SER759  ASP760  ASP761  ALA762  ILE779  LEU786  VAL792 
 PHE793  MET794  SER795  GLU796  ALA797  LYS798  CYS799  TRP800  GLU811  SER814 

> <Gold.Protein.RotatedAtoms>
  152.5422  134.2153  159.8766 H   0  0  0  0  0  0  0  0  0  0  0  0  # atno 6907 bound_to 6896
  151.2134  133.4536  159.2606 H   0  0  0  0  0  0  0  0  0  0  0  0  # atno 6908 bound_to 6896
  151.0875  134.9909  159.8442 H   0  0  0  0  0  0  0  0  0  0  0  0  # atno 6909 bound_to 6896
  144.7644  140.4260  143.5953 H   0  0  0  0  0  0  0  0  0  0  0  0  # atno 7974 bound_to 7965
  156.2564  140.2867  156.0889 H   0  0  0  0  0  0  0  0  0  0  0  0  # atno 8008 bound_to 7997
  155.1484  140.0397  157.2832 H   0  0  0  0  0  0  0  0  0  0  0  0  # atno 8009 bound_to 7997
  154.6478  140.2537  155.7254 H   0  0  0  0  0  0  0  0  0  0  0  0  # atno 8010 bound_to 7997
  139.5087  144.3335  152.0088 H   0  0  0  0  0  0  0  0  0  0  0  0  # atno 10167 bound_to 10162
  157.6917  131.0600  150.4600 H   0  0  0  0  0  0  0  0  0  0  0  0  # atno 10718 bound_to 10713
  154.2571  135.2769  155.2793 H   0  0  0  0  0  0  0  0  0  0  0  0  # atno 10763 bound_to 10752
  154.5416  135.5701  153.6847 H   0  0  0  0  0  0  0  0  0  0  0  0  # atno 10764 bound_to 10752
  152.9969  135.6252  154.2720 H   0  0  0  0  0  0  0  0  0  0  0  0  # atno 10765 bound_to 10752
  139.8957  134.9553  156.6764 H   0  0  0  0  0  0  0  0  0  0  0  0  # atno 11005 bound_to 11000
  145.6517  139.1566  143.2858 LP  0  0  0  0  0  0  0  0  0  0  0  0  # atno 17320 bound_to 7965
  146.1737  140.6605  142.9221 LP  0  0  0  0  0  0  0  0  0  0  0  0  # atno 17321 bound_to 7965
  140.2774  144.3897  150.6130 LP  0  0  0  0  0  0  0  0  0  0  0  0  # atno 17342 bound_to 10162
  140.6043  143.2167  151.7011 LP  0  0  0  0  0  0  0  0  0  0  0  0  # atno 17343 bound_to 10162
  156.4945  130.4103  149.6388 LP  0  0  0  0  0  0  0  0  0  0  0  0  # atno 17370 bound_to 10713
  156.3386  130.7370  151.2311 LP  0  0  0  0  0  0  0  0  0  0  0  0  # atno 17371 bound_to 10713
  140.7333  133.9040  155.8227 LP  0  0  0  0  0  0  0  0  0  0  0  0  # atno 17394 bound_to 11000
  141.0135  134.0987  157.4196 LP  0  0  0  0  0  0  0  0  0  0  0  0  # atno 17395 bound_to 11000

$$$$
