AV-unprocessed.smi:1589|AV-procd|sdf|6394|dock1
  -GOLD-   22720 7 33D 1   1.00000     0.00000
 Structure written by MMmdl.
 43 44  0  0  0  0  0  0  0  0  1 V2000
  152.0310  145.2985  160.8294 C   0  0  0  0  0  0  0  0  0  0  0  0
  151.8647  143.7637  160.8863 C   0  0  0  0  0  0  0  0  0  0  0  0
  152.7731  143.2175  162.0095 C   0  0  0  0  0  0  0  0  0  0  0  0
  152.1590  143.1317  159.5838 N   0  0  0  0  0  0  0  0  0  0  0  0
  151.4029  143.7705  158.4925 C   0  0  0  0  0  0  0  0  0  0  0  0
  151.7114  143.1091  157.1359 C   0  0  0  0  0  0  0  0  0  0  0  0
  151.3441  141.6905  157.2131 N   0  0  0  0  0  0  0  0  0  0  0  0
  150.3005  141.0777  156.5993 C   0  0  0  0  0  0  0  0  0  0  0  0
  149.8574  139.9899  156.9698 O   0  0  0  0  0  0  0  0  0  0  0  0
  149.8057  141.7539  155.5454 N   0  0  0  0  0  0  0  0  0  0  0  0
  148.7237  141.3849  154.7077 C   0  0  0  0  0  0  0  0  0  0  0  0
  147.5977  142.1508  154.2931 C   0  0  0  0  0  0  0  0  0  0  0  0
  146.8023  141.4391  153.5083 N   0  0  0  0  0  0  0  0  0  0  0  0
  147.3939  140.2219  153.4136 N   0  0  0  0  0  0  0  0  0  0  0  0
  146.7751  139.1803  152.6083 C   0  0  0  0  0  0  0  0  0  0  0  0
  146.1553  138.0636  153.4580 C   0  0  0  0  0  0  0  0  0  0  0  0
  146.6570  136.8378  153.2891 N   0  0  0  0  0  0  0  0  0  0  0  0
  145.2413  138.2898  154.2499 O   0  0  0  0  0  0  0  0  0  0  0  0
  148.5716  140.1592  154.1334 C   0  0  0  0  0  0  0  0  0  0  0  0
  152.1580  141.0365  158.2376 C   0  0  0  0  0  0  0  0  0  0  0  0
  151.8555  141.6897  159.6000 C   0  0  0  0  0  0  0  0  0  0  0  0
  151.9581  145.7370  161.8249 H   0  0  0  0  0  0  0  0  0  0  0  0
  151.2549  145.7802  160.2359 H   0  0  0  0  0  0  0  0  0  0  0  0
  153.0014  145.5799  160.4185 H   0  0  0  0  0  0  0  0  0  0  0  0
  150.8296  143.5448  161.1533 H   0  0  0  0  0  0  0  0  0  0  0  0
  152.6484  143.7924  162.9277 H   0  0  0  0  0  0  0  0  0  0  0  0
  153.8266  143.2699  161.7319 H   0  0  0  0  0  0  0  0  0  0  0  0
  152.5375  142.1863  162.2705 H   0  0  0  0  0  0  0  0  0  0  0  0
  150.3328  143.7232  158.7006 H   0  0  0  0  0  0  0  0  0  0  0  0
  151.6690  144.8221  158.4047 H   0  0  0  0  0  0  0  0  0  0  0  0
  151.2028  143.6554  156.3418 H   0  0  0  0  0  0  0  0  0  0  0  0
  152.7753  143.1959  156.9087 H   0  0  0  0  0  0  0  0  0  0  0  0
  150.2455  142.6374  155.3329 H   0  0  0  0  0  0  0  0  0  0  0  0
  147.3273  143.1704  154.5231 H   0  0  0  0  0  0  0  0  0  0  0  0
  146.0032  139.6200  151.9745 H   0  0  0  0  0  0  0  0  0  0  0  0
  147.5359  138.7634  151.9472 H   0  0  0  0  0  0  0  0  0  0  0  0
  146.2929  136.0637  153.8254 H   0  0  0  0  0  0  0  0  0  0  0  0
  147.4057  136.6906  152.6272 H   0  0  0  0  0  0  0  0  0  0  0  0
  149.1804  139.2678  154.1732 H   0  0  0  0  0  0  0  0  0  0  0  0
  151.9757  139.9628  158.2971 H   0  0  0  0  0  0  0  0  0  0  0  0
  153.2157  141.1435  157.9914 H   0  0  0  0  0  0  0  0  0  0  0  0
  152.4627  141.1773  160.3439 H   0  0  0  0  0  0  0  0  0  0  0  0
  150.8101  141.5310  159.8700 H   0  0  0  0  0  0  0  0  0  0  0  0
  1  2  1  0  0  0  0
  1 22  1  0  0  0  0
  1 23  1  0  0  0  0
  1 24  1  0  0  0  0
  2  3  1  0  0  0  0
  2  4  1  0  0  0  0
  2 25  1  0  0  0  0
  3 26  1  0  0  0  0
  3 27  1  0  0  0  0
  3 28  1  0  0  0  0
  4 21  1  0  0  0  0
  4  5  1  0  0  0  0
  5  6  1  0  0  0  0
  5 29  1  0  0  0  0
  5 30  1  0  0  0  0
  6  7  1  0  0  0  0
  6 31  1  0  0  0  0
  6 32  1  0  0  0  0
  7  8  1  0  0  0  0
  7 20  1  0  0  0  0
  8  9  2  0  0  0  0
  8 10  1  0  0  0  0
 10 11  1  0  0  0  0
 10 33  1  0  0  0  0
 11 19  2  0  0  0  0
 11 12  1  0  0  0  0
 12 13  2  0  0  0  0
 12 34  1  0  0  0  0
 13 14  1  0  0  0  0
 14 15  1  0  0  0  0
 14 19  1  0  0  0  0
 15 16  1  0  0  0  0
 15 35  1  0  0  0  0
 15 36  1  0  0  0  0
 16 17  1  0  0  0  0
 16 18  2  0  0  0  0
 17 37  1  0  0  0  0
 17 38  1  0  0  0  0
 19 39  1  0  0  0  0
 20 21  1  0  0  0  0
 20 40  1  0  0  0  0
 20 41  1  0  0  0  0
 21 42  1  0  0  0  0
 21 43  1  0  0  0  0
M  END
> <s_m_source_file>
AV-unprocessed.smi

> <i_m_source_file_index>
1589

> <i_lp_mmshare_version>
43012

> <i_f3d_flags>
0

> <s_epik_input>
W0NIM11bQ0hdKFtDSDNdKU4xW0NIMl1bQ0gyXU4oW0NIMl1bQ0gyXTEpQyg9TylbTkhdYzJbY0hdbm4oW2NIXTIpW0NIMl1DKD1PKVtOSDJd

> <s_epik_cmdline>
J2VwaWtfcHl0aG9uJywgJy1waCcsICc3LjAnLCAnLXRuJywgJzgnLCAnLW1hJywgJzIwMCcsICctbWV0YWxfYmluZGluZycsICctaW1hZScsICc8aW5maWxlLm1hZT4nLCAnLW9tYWUnLCAnPG91dGZpbGUubWFlPic=

> <r_lp_tautomer_probability>
1

> <r_epik_Ionization_Penalty>
0.648545

> <r_epik_Ionization_Penalty_Charging>
0

> <r_epik_Ionization_Penalty_Neutral>
0.648545

> <r_epik_State_Penalty>
0.6668

> <r_epik_Charging_Adjusted_Penalty>
0.6668

> <i_epik_Tot_Q>
0

> <i_epik_Tot_abs_Q>
0

> <r_epik_Metal_State_Penalty>
0.666798

> <b_epik_Metal_Only>
0

> <s_lp_Force_Field>
OPLS_2005

> <r_lp_Energy>
50.3263

> <b_lp_Chiralities_Consistent>
1

> <s_lp_Variant>
AV-unprocessed.smi:1589-2

> <Gold.Version>
5.8.1

> <Gold.Id.Protein>
6NUR|6NUR_protein|mol2

> <Gold.PLP.Fitness>
42.7326

> <Gold.PLP.PLP>
-38.5990

> <Gold.PLP.part.hbond>
-1.9567

> <Gold.PLP.part.metal>
0.0000

> <Gold.PLP.part.buried>
-2.4432

> <Gold.PLP.part.nonpolar>
-33.0773

> <Gold.PLP.part.repulsive>
0.5008

> <Gold.PLP.ligand.clash>
0.0000

> <Gold.PLP.ligand.torsion>
0.7128

> <Gold.PLP.Chemscore.Hbond>
1.0510

> <Gold.PLP.Chemscore.CHOScore>
0.7768

> <Gold.PLP.Chemscore.Metal>
0.0000

> <Gold.Chemscore.Hbonds>
donor molecule, donor type, donor heavy atom, donor atom, acceptor molecule, acceptor atom, score
      L1  H    17    38       P1  7948  1.00
      L1  C    12    34       P1  8028  0.87

> <Gold.PLP.Chemscore.Internal.Correction>
0.0760

> <Gold.Rescore>
     Score         DG    S(hbond)    S(metal)    S(lipo)     H(rot)  DE(clash)    DE(int)     intcor
     15.00     -16.58       1.14        0.00     102.13       1.82       0.75       0.83       ----

> <Gold.Chemscore.Fitness>
15.0024

> <Gold.Chemscore.DG>
-16.5785

> <Gold.Chemscore.ZeroCoef>
-5.4800

> <Gold.Chemscore.Hbond>
1.1399

> <Gold.Chemscore.Metal>
0.0000

> <Gold.Chemscore.Lipo>
102.1251

> <Gold.Chemscore.Internal_Hbond>
0.0000

> <Gold.Chemscore.DEClash>
0.7460

> <Gold.Chemscore.DEInternal>
0.8302

> <Gold.Chemscore.Rot>
1.8193

> <Gold.Chemscore.Internal.Correction>
   9.000000E+99

> <Gold.Chemscore.Hbonds>
donor molecule, donor type, donor heavy atom, donor atom, acceptor molecule, acceptor atom, score
      L1  H    17    38       P1  7948  1.00

> <Gold.Chemscore.Hbond.Weighted>
-3.8074

> <Gold.Chemscore.Metal.Weighted>
-0.0000

> <Gold.Chemscore.Lipo.Weighted>
-11.9486

> <Gold.Chemscore.Internal_Hbond.Weighted>
0.0000

> <Gold.Chemscore.DEClash.Weighted>
0.7460

> <Gold.Chemscore.DEInternal.Weighted>
0.8302

> <Gold.Chemscore.Rot.Weighted>
4.6575

> <Gold.Chemscore.Internal.Correction.Weighted>
   9.000000E+99

> <Gold.Protein.RotatedTorsions>
[ 6907 6896 6895 6894 ] final  129.85 input  -60.11 | X-H torsion
[ 7974 7965 7964 7962 ] final -132.55 input  175.53 | X-H torsion
[ 8008 7997 7996 7995 ] final   84.26 input   59.86 | X-H torsion
[ 10167 10162 10161 10158 ] final  -48.95 input  -65.29 | X-H torsion
[ 10718 10713 10712 10709 ] final   93.83 input   66.30 | X-H torsion
[ 10763 10752 10751 10750 ] final  -98.13 input  -60.55 | X-H torsion
[ 11005 11000 10999 10996 ] final -163.89 input  -57.11 | X-H torsion

> <Gold.Protein.ActiveResidues>
 VAL166  LYS551  ARG553  GLY616  TRP617  ASP618  TYR619  PRO620  LYS621  CYS622 
 ASP623  PHE694  ASN695  SER759  ASP760  ASP761  ALA762  ILE779  LEU786  VAL792 
 PHE793  MET794  SER795  GLU796  ALA797  LYS798  CYS799  TRP800  GLU811  SER814 

> <Gold.Protein.RotatedAtoms>
  152.3583  133.6265  159.5995 H   0  0  0  0  0  0  0  0  0  0  0  0  # atno 6907 bound_to 6896
  150.7584  133.9464  159.3481 H   0  0  0  0  0  0  0  0  0  0  0  0  # atno 6908 bound_to 6896
  151.7306  135.0876  160.0350 H   0  0  0  0  0  0  0  0  0  0  0  0  # atno 6909 bound_to 6896
  144.9275  140.7089  143.4926 H   0  0  0  0  0  0  0  0  0  0  0  0  # atno 7974 bound_to 7965
  155.9347  140.3412  155.6278 H   0  0  0  0  0  0  0  0  0  0  0  0  # atno 8008 bound_to 7997
  155.7114  140.0772  157.2388 H   0  0  0  0  0  0  0  0  0  0  0  0  # atno 8009 bound_to 7997
  154.4091  140.1622  156.2288 H   0  0  0  0  0  0  0  0  0  0  0  0  # atno 8010 bound_to 7997
  140.6708  143.2718  151.4144 H   0  0  0  0  0  0  0  0  0  0  0  0  # atno 10167 bound_to 10162
  157.6952  131.0492  150.4094 H   0  0  0  0  0  0  0  0  0  0  0  0  # atno 10718 bound_to 10713
  154.7388  135.5021  153.9086 H   0  0  0  0  0  0  0  0  0  0  0  0  # atno 10763 bound_to 10752
  153.1022  135.6688  153.9661 H   0  0  0  0  0  0  0  0  0  0  0  0  # atno 10764 bound_to 10752
  153.9443  135.3064  155.3420 H   0  0  0  0  0  0  0  0  0  0  0  0  # atno 10765 bound_to 10752
  140.5930  134.5025  157.5195 H   0  0  0  0  0  0  0  0  0  0  0  0  # atno 11005 bound_to 11000
  145.3195  139.1793  143.4595 LP  0  0  0  0  0  0  0  0  0  0  0  0  # atno 17320 bound_to 7965
  146.3232  140.3211  142.8633 LP  0  0  0  0  0  0  0  0  0  0  0  0  # atno 17321 bound_to 7965
  139.5975  144.1366  152.2161 LP  0  0  0  0  0  0  0  0  0  0  0  0  # atno 17342 bound_to 10162
  140.0739  144.5756  150.7171 LP  0  0  0  0  0  0  0  0  0  0  0  0  # atno 17343 bound_to 10162
  156.4480  130.4005  149.6654 LP  0  0  0  0  0  0  0  0  0  0  0  0  # atno 17370 bound_to 10713
  156.3814  130.7581  151.2574 LP  0  0  0  0  0  0  0  0  0  0  0  0  # atno 17371 bound_to 10713
  139.9265  134.8045  156.1052 LP  0  0  0  0  0  0  0  0  0  0  0  0  # atno 17394 bound_to 11000
  141.0922  133.6710  156.2566 LP  0  0  0  0  0  0  0  0  0  0  0  0  # atno 17395 bound_to 11000

$$$$
