AV-unprocessed.smi:643|AV-procd|sdf|3153|dock6
  -GOLD-   22720 0 73D 1   1.00000     0.00000
 Structure written by MMmdl.
 40 41  0  0  0  0  0  0  0  0  1 V2000
  141.3994  141.3561  155.1609 C   0  0  0  0  0  0  0  0  0  0  0  0
  140.0939  140.5990  154.8319 C   0  0  0  0  0  0  0  0  0  0  0  0
  139.1481  140.7125  156.0474 C   0  0  0  0  0  0  0  0  0  0  0  0
  139.4077  141.1723  153.5817 C   0  0  0  0  0  0  0  0  0  0  0  0
  138.4870  140.0621  153.0679 C   0  0  0  0  0  0  0  0  0  0  0  0
  139.1051  138.7416  153.5465 C   0  0  0  0  0  0  0  0  0  0  0  0
  140.2931  139.1069  154.4574 C   0  0  1  0  0  0  0  0  0  0  0  0
  141.5462  138.8745  153.7345 N   0  0  0  0  0  0  0  0  0  0  0  0
  142.0596  137.6786  153.4109 C   0  0  0  0  0  0  0  0  0  0  0  0
  141.5195  136.6070  153.6843 O   0  0  0  0  0  0  0  0  0  0  0  0
  143.2290  137.8156  152.7632 N   0  0  0  0  0  0  0  0  0  0  0  0
  144.0871  136.8002  152.2667 C   0  0  0  0  0  0  0  0  0  0  0  0
  145.5051  136.8897  152.1295 C   0  0  0  0  0  0  0  0  0  0  0  0
  145.8475  135.6704  151.6184 C   0  0  0  0  0  0  0  0  0  0  0  0
  144.6866  134.9374  151.4806 N   0  0  0  0  0  0  0  0  0  0  0  0
  144.5292  133.5864  150.9780 C   0  0  0  0  0  0  0  0  0  0  0  0
  145.8813  132.9222  150.6857 C   0  0  0  0  0  0  0  0  0  0  0  0
  146.5144  132.6577  151.8279 F   0  0  0  0  0  0  0  0  0  0  0  0
  145.7109  131.7866  150.0088 F   0  0  0  0  0  0  0  0  0  0  0  0
  143.6003  135.6324  151.8823 N   0  0  0  0  0  0  0  0  0  0  0  0
  141.1925  142.3870  155.4494 H   0  0  0  0  0  0  0  0  0  0  0  0
  142.0806  141.3965  154.3104 H   0  0  0  0  0  0  0  0  0  0  0  0
  141.9301  140.8829  155.9876 H   0  0  0  0  0  0  0  0  0  0  0  0
  138.2028  140.1950  155.8831 H   0  0  0  0  0  0  0  0  0  0  0  0
  138.9142  141.7537  156.2722 H   0  0  0  0  0  0  0  0  0  0  0  0
  139.6026  140.2809  156.9399 H   0  0  0  0  0  0  0  0  0  0  0  0
  138.8700  142.1005  153.7784 H   0  0  0  0  0  0  0  0  0  0  0  0
  140.1548  141.3910  152.8173 H   0  0  0  0  0  0  0  0  0  0  0  0
  137.4900  140.1772  153.4948 H   0  0  0  0  0  0  0  0  0  0  0  0
  138.3810  140.0966  151.9833 H   0  0  0  0  0  0  0  0  0  0  0  0
  138.3631  138.1721  154.1072 H   0  0  0  0  0  0  0  0  0  0  0  0
  139.4077  138.1162  152.7051 H   0  0  0  0  0  0  0  0  0  0  0  0
  140.2675  138.4899  155.3572 H   0  0  0  0  0  0  0  0  0  0  0  0
  142.0659  139.6970  153.4656 H   0  0  0  0  0  0  0  0  0  0  0  0
  143.5544  138.7607  152.6227 H   0  0  0  0  0  0  0  0  0  0  0  0
  146.1756  137.7031  152.3623 H   0  0  0  0  0  0  0  0  0  0  0  0
  146.8114  135.2666  151.3457 H   0  0  0  0  0  0  0  0  0  0  0  0
  143.9757  133.0060  151.7176 H   0  0  0  0  0  0  0  0  0  0  0  0
  143.9163  133.6151  150.0761 H   0  0  0  0  0  0  0  0  0  0  0  0
  146.5325  133.5674  150.0953 H   0  0  0  0  0  0  0  0  0  0  0  0
  1  2  1  0  0  0  0
  1 21  1  0  0  0  0
  1 22  1  0  0  0  0
  1 23  1  0  0  0  0
  2  7  1  0  0  0  0
  2  3  1  0  0  0  0
  2  4  1  0  0  0  0
  3 24  1  0  0  0  0
  3 25  1  0  0  0  0
  3 26  1  0  0  0  0
  4  5  1  0  0  0  0
  4 27  1  0  0  0  0
  4 28  1  0  0  0  0
  5  6  1  0  0  0  0
  5 29  1  0  0  0  0
  5 30  1  0  0  0  0
  6  7  1  0  0  0  0
  6 31  1  0  0  0  0
  6 32  1  0  0  0  0
  7  8  1  0  0  0  0
  7 33  1  0  0  0  0
  8  9  1  0  0  0  0
  8 34  1  0  0  0  0
  9 10  2  0  0  0  0
  9 11  1  0  0  0  0
 11 12  1  0  0  0  0
 11 35  1  0  0  0  0
 12 20  2  0  0  0  0
 12 13  1  0  0  0  0
 13 14  2  0  0  0  0
 13 36  1  0  0  0  0
 14 15  1  0  0  0  0
 14 37  1  0  0  0  0
 15 16  1  0  0  0  0
 15 20  1  0  0  0  0
 16 17  1  0  0  0  0
 16 38  1  0  0  0  0
 16 39  1  0  0  0  0
 17 18  1  0  0  0  0
 17 19  1  0  0  0  0
 17 40  1  0  0  0  0
M  END
> <s_m_source_file>
AV-unprocessed.smi

> <i_m_source_file_index>
643

> <i_lp_mmshare_version>
43012

> <i_f3d_flags>
0

> <s_epik_input>
W0NIM11DMShbQ0gzXSlbQ0gyXVtDSDJdW0NIMl1bQ0BIXTFbTkhdQyg9TylbTkhdYzJbY0hdW2NIXW4objIpW0NIMl1bQ0hdKEYpRg==

> <s_epik_cmdline>
J2VwaWtfcHl0aG9uJywgJy1waCcsICc3LjAnLCAnLXRuJywgJzgnLCAnLW1hJywgJzIwMCcsICctbWV0YWxfYmluZGluZycsICctaW1hZScsICc8aW5maWxlLm1hZT4nLCAnLW9tYWUnLCAnPG91dGZpbGUubWFlPic=

> <r_lp_tautomer_probability>
1

> <r_epik_Ionization_Penalty>
3.99908e-05

> <r_epik_Ionization_Penalty_Charging>
0

> <r_epik_Ionization_Penalty_Neutral>
3.99908e-05

> <r_epik_State_Penalty>
-0

> <r_epik_Charging_Adjusted_Penalty>
0

> <i_epik_Tot_Q>
0

> <i_epik_Tot_abs_Q>
0

> <r_epik_Metal_State_Penalty>
-0

> <b_epik_Metal_Only>
0

> <s_lp_Force_Field>
OPLS_2005

> <r_lp_Energy>
26.1954

> <b_lp_Chiralities_Consistent>
1

> <s_lp_Variant>
AV-unprocessed.smi:643-1

> <Gold.Version>
5.8.1

> <Gold.Id.Protein>
6NUR|6NUR_protein|mol2

> <Gold.PLP.Fitness>
40.6094

> <Gold.PLP.PLP>
-32.6452

> <Gold.PLP.part.hbond>
-2.9759

> <Gold.PLP.part.metal>
0.0000

> <Gold.PLP.part.buried>
-0.4185

> <Gold.PLP.part.nonpolar>
-29.3789

> <Gold.PLP.part.repulsive>
0.3377

> <Gold.PLP.ligand.clash>
0.0000

> <Gold.PLP.ligand.torsion>
0.3420

> <Gold.PLP.Chemscore.Hbond>
1.9760

> <Gold.PLP.Chemscore.CHOScore>
0.9011

> <Gold.PLP.Chemscore.Metal>
0.0000

> <Gold.Chemscore.Hbonds>
donor molecule, donor type, donor heavy atom, donor atom, acceptor molecule, acceptor atom, score
      L1  H     8    34       P1 10175  0.98
      L1  H    11    35       P1 10175  1.00
      L1  C    14    37       P1  7948  0.95

> <Gold.PLP.Chemscore.Internal.Correction>
0.0168

> <Gold.Rescore>
     Score         DG    S(hbond)    S(metal)    S(lipo)     H(rot)  DE(clash)    DE(int)     intcor
     12.50     -14.35       1.88        0.00      50.23       1.28       0.04       1.82       ----

> <Gold.Chemscore.Fitness>
12.4973

> <Gold.Chemscore.DG>
-14.3542

> <Gold.Chemscore.ZeroCoef>
-5.4800

> <Gold.Chemscore.Hbond>
1.8761

> <Gold.Chemscore.Metal>
0.0000

> <Gold.Chemscore.Lipo>
50.2345

> <Gold.Chemscore.Internal_Hbond>
0.0000

> <Gold.Chemscore.DEClash>
0.0412

> <Gold.Chemscore.DEInternal>
1.8156

> <Gold.Chemscore.Rot>
1.2771

> <Gold.Chemscore.Internal.Correction>
   9.000000E+99

> <Gold.Chemscore.Hbonds>
donor molecule, donor type, donor heavy atom, donor atom, acceptor molecule, acceptor atom, score
      L1  H     8    34       P1 10175  0.82
      L1  H    11    35       P1 10175  1.00

> <Gold.Chemscore.Hbond.Weighted>
-6.2661

> <Gold.Chemscore.Metal.Weighted>
-0.0000

> <Gold.Chemscore.Lipo.Weighted>
-5.8774

> <Gold.Chemscore.Internal_Hbond.Weighted>
0.0000

> <Gold.Chemscore.DEClash.Weighted>
0.0412

> <Gold.Chemscore.DEInternal.Weighted>
1.8156

> <Gold.Chemscore.Rot.Weighted>
3.2694

> <Gold.Chemscore.Internal.Correction.Weighted>
   9.000000E+99

> <Gold.Protein.RotatedTorsions>
[ 6907 6896 6895 6894 ] final  -75.03 input  -60.11 | X-H torsion
[ 7974 7965 7964 7962 ] final  -43.90 input  175.53 | X-H torsion
[ 8008 7997 7996 7995 ] final    7.99 input   59.86 | X-H torsion
[ 10167 10162 10161 10158 ] final  -82.12 input  -65.29 | X-H torsion
[ 10718 10713 10712 10709 ] final   61.60 input   66.30 | X-H torsion
[ 10763 10752 10751 10750 ] final  178.42 input  -60.55 | X-H torsion
[ 11005 11000 10999 10996 ] final  156.52 input  -57.11 | X-H torsion

> <Gold.Protein.ActiveResidues>
 VAL166  LYS551  ARG553  GLY616  TRP617  ASP618  TYR619  PRO620  LYS621  CYS622 
 ASP623  PHE694  ASN695  SER759  ASP760  ASP761  ALA762  ILE779  LEU786  VAL792 
 PHE793  MET794  SER795  GLU796  ALA797  LYS798  CYS799  TRP800  GLU811  SER814 

> <Gold.Protein.RotatedAtoms>
  150.7073  134.4782  159.5457 H   0  0  0  0  0  0  0  0  0  0  0  0  # atno 6907 bound_to 6896
  152.2424  134.8212  160.0467 H   0  0  0  0  0  0  0  0  0  0  0  0  # atno 6908 bound_to 6896
  151.8989  133.3498  159.3860 H   0  0  0  0  0  0  0  0  0  0  0  0  # atno 6909 bound_to 6896
  145.9973  140.7114  142.9287 H   0  0  0  0  0  0  0  0  0  0  0  0  # atno 7974 bound_to 7965
  154.7610  140.2784  155.6214 H   0  0  0  0  0  0  0  0  0  0  0  0  # atno 8008 bound_to 7997
  156.2915  140.2660  156.2315 H   0  0  0  0  0  0  0  0  0  0  0  0  # atno 8009 bound_to 7997
  155.0018  140.0372  157.2353 H   0  0  0  0  0  0  0  0  0  0  0  0  # atno 8010 bound_to 7997
  140.4349  143.2535  151.8707 H   0  0  0  0  0  0  0  0  0  0  0  0  # atno 10167 bound_to 10162
  157.5839  130.9003  149.9481 H   0  0  0  0  0  0  0  0  0  0  0  0  # atno 10718 bound_to 10713
  154.5074  135.2786  155.1371 H   0  0  0  0  0  0  0  0  0  0  0  0  # atno 10763 bound_to 10752
  154.2979  135.6254  153.5416 H   0  0  0  0  0  0  0  0  0  0  0  0  # atno 10764 bound_to 10752
  152.9913  135.5690  154.5532 H   0  0  0  0  0  0  0  0  0  0  0  0  # atno 10765 bound_to 10752
  140.1683  134.8561  157.2659 H   0  0  0  0  0  0  0  0  0  0  0  0  # atno 11005 bound_to 11000
  144.6908  140.3173  143.7238 LP  0  0  0  0  0  0  0  0  0  0  0  0  # atno 17320 bound_to 7965
  145.7540  139.1803  143.2305 LP  0  0  0  0  0  0  0  0  0  0  0  0  # atno 17321 bound_to 7965
  139.4786  144.5294  151.8689 LP  0  0  0  0  0  0  0  0  0  0  0  0  # atno 17342 bound_to 10162
  140.4385  144.2019  150.5890 LP  0  0  0  0  0  0  0  0  0  0  0  0  # atno 17343 bound_to 10162
  156.0887  130.3665  150.0437 LP  0  0  0  0  0  0  0  0  0  0  0  0  # atno 17370 bound_to 10713
  156.8571  130.9479  151.3621 LP  0  0  0  0  0  0  0  0  0  0  0  0  # atno 17371 bound_to 10713
  140.2407  134.3798  155.7482 LP  0  0  0  0  0  0  0  0  0  0  0  0  # atno 17394 bound_to 11000
  141.2215  133.7264  156.8785 LP  0  0  0  0  0  0  0  0  0  0  0  0  # atno 17395 bound_to 11000

$$$$
