AV-unprocessed.smi:8|AV-procd|sdf|46|dock3
  -GOLD-   2262015163D 1   1.00000     0.00000
 Structure written by MMmdl.
 35 36  0  0  0  0  0  0  0  0  2 V2000
  150.2797  136.1239  157.1176 C   0  0  0  0  0  0  0  0  0  0  0  0
  150.7325  135.6892  155.7155 C   0  0  0  0  0  0  0  0  0  0  0  0
  150.2579  134.3758  155.3549 N   0  0  0  0  0  0  0  0  0  0  0  0
  149.3580  134.1676  154.3208 C   0  0  0  0  0  0  0  0  0  0  0  0
  148.9153  132.9413  153.9436 C   0  0  0  0  0  0  0  0  0  0  0  0
  147.9084  132.7612  152.8173 C   0  0  0  0  0  0  0  0  0  0  0  0
  147.2781  134.0126  152.4139 N   0  0  0  0  0  0  0  0  0  0  0  0
  146.0279  133.9927  151.7770 C   0  0  0  0  0  0  0  0  0  0  0  0
  145.4902  132.8048  151.4177 N   0  0  0  0  0  0  0  0  0  0  0  0
  144.2952  132.7748  150.8157 C   0  0  0  0  0  0  0  0  0  0  0  0
  143.5862  133.8807  150.5466 N   0  3  0  0  0  0  0  0  0  0  0  0
  144.0843  135.0932  150.8897 C   0  0  0  0  0  0  0  0  0  0  0  0
  145.3378  135.1980  151.5254 C   0  0  0  0  0  0  0  0  0  0  0  0
  145.9020  136.5531  151.9114 C   0  0  0  0  0  0  0  0  0  0  0  0
  149.3887  131.7549  154.6663 C   0  0  0  0  0  0  0  0  0  0  0  0
  149.0527  130.5958  154.4291 O   0  0  0  0  0  0  0  0  0  0  0  0
  150.2979  132.0115  155.6965 N   0  0  0  0  0  0  0  0  0  0  0  0
  150.7634  133.2700  156.0744 C   0  0  0  0  0  0  0  0  0  0  0  0
  151.5758  133.3742  156.9937 O   0  0  0  0  0  0  0  0  0  0  0  0
  150.6511  131.2174  156.2103 H   0  0  0  0  0  0  0  0  0  0  0  0
  150.6924  137.1005  157.3709 H   0  0  0  0  0  0  0  0  0  0  0  0
  150.6147  135.4154  157.8758 H   0  0  0  0  0  0  0  0  0  0  0  0
  149.1940  136.1974  157.1847 H   0  0  0  0  0  0  0  0  0  0  0  0
  150.4131  136.3855  154.9372 H   0  0  0  0  0  0  0  0  0  0  0  0
  151.8213  135.6482  155.6596 H   0  0  0  0  0  0  0  0  0  0  0  0
  148.9924  135.0304  153.7820 H   0  0  0  0  0  0  0  0  0  0  0  0
  148.4113  132.3145  151.9585 H   0  0  0  0  0  0  0  0  0  0  0  0
  147.1393  132.0569  153.1363 H   0  0  0  0  0  0  0  0  0  0  0  0
  147.8862  134.7952  152.2188 H   0  0  0  0  0  0  0  0  0  0  0  0
  143.8566  131.8321  150.5224 H   0  0  0  0  0  0  0  0  0  0  0  0
  143.4611  135.9404  150.6430 H   0  0  0  0  0  0  0  0  0  0  0  0
  145.2186  137.3575  151.6376 H   0  0  0  0  0  0  0  0  0  0  0  0
  146.8513  136.7281  151.4044 H   0  0  0  0  0  0  0  0  0  0  0  0
  146.0699  136.6037  152.9875 H   0  0  0  0  0  0  0  0  0  0  0  0
  142.6774  133.8193  150.0866 H   0  0  0  0  0  0  0  0  0  0  0  0
  1  2  1  0  0  0  0
  1 21  1  0  0  0  0
  1 22  1  0  0  0  0
  1 23  1  0  0  0  0
  2  3  1  0  0  0  0
  2 24  1  0  0  0  0
  2 25  1  0  0  0  0
  3 18  1  0  0  0  0
  3  4  1  0  0  0  0
  4  5  2  0  0  0  0
  4 26  1  0  0  0  0
  5  6  1  0  0  0  0
  5 15  1  0  0  0  0
  6  7  1  0  0  0  0
  6 27  1  0  0  0  0
  6 28  1  0  0  0  0
  7  8  1  0  0  0  0
  7 29  1  0  0  0  0
  8 13  1  0  0  0  0
  8  9  2  0  0  0  0
  9 10  1  0  0  0  0
 10 11  2  0  0  0  0
 10 30  1  0  0  0  0
 11 12  1  0  0  0  0
 11 35  1  0  0  0  0
 12 13  2  0  0  0  0
 12 31  1  0  0  0  0
 13 14  1  0  0  0  0
 14 32  1  0  0  0  0
 14 33  1  0  0  0  0
 14 34  1  0  0  0  0
 15 16  2  0  0  0  0
 15 17  1  0  0  0  0
 17 20  1  0  0  0  0
 17 18  1  0  0  0  0
 18 19  2  0  0  0  0
M  CHG  1  11   1
M  END
> <s_m_source_file>
AV-unprocessed.smi

> <i_m_source_file_index>
8

> <i_lp_mmshare_version>
43012

> <i_f3d_flags>
0

> <s_epik_input>
W0NIM11bQ0gyXW4xW2NIXWMoYyg9TylbbkhdYzE9TylbQ0gyXVtOSF1jMm5bY0hdbltjSF1jMltDSDNd

> <s_epik_cmdline>
J2VwaWtfcHl0aG9uJywgJy1waCcsICc3LjAnLCAnLXRuJywgJzgnLCAnLW1hJywgJzIwMCcsICctbWV0YWxfYmluZGluZycsICctaW1hZScsICc8aW5maWxlLm1hZT4nLCAnLW9tYWUnLCAnPG91dGZpbGUubWFlPic=

> <r_lp_tautomer_probability>
0.998874

> <r_epik_Ionization_Penalty>
2.17639

> <r_epik_Ionization_Penalty_Charging>
2.17638

> <r_epik_Ionization_Penalty_Neutral>
1.33492e-05

> <r_epik_State_Penalty>
2.31733

> <r_epik_Charging_Adjusted_Penalty>
4.4937

> <i_epik_Tot_Q>
1

> <i_epik_Tot_abs_Q>
1

> <r_epik_Metal_State_Penalty>
2.583

> <b_epik_Metal_Only>
0

> <s_lp_Force_Field>
OPLS_2005

> <r_lp_Energy>
14.6724

> <b_lp_Chiralities_Consistent>
1

> <s_lp_Variant>
AV-unprocessed.smi:8-2

> <Gold.Version>
5.8.1

> <Gold.Id.Protein>
6NUR|6NUR_protein|mol2

> <Gold.PLP.Fitness>
45.3018

> <Gold.PLP.PLP>
-31.8506

> <Gold.PLP.part.hbond>
-3.0000

> <Gold.PLP.part.metal>
0.0000

> <Gold.PLP.part.buried>
-4.8162

> <Gold.PLP.part.nonpolar>
-25.1972

> <Gold.PLP.part.repulsive>
0.1972

> <Gold.PLP.ligand.clash>
0.0000

> <Gold.PLP.ligand.torsion>
0.3728

> <Gold.PLP.Chemscore.Hbond>
3.7296

> <Gold.PLP.Chemscore.CHOScore>
1.0000

> <Gold.PLP.Chemscore.Metal>
0.0000

> <Gold.Chemscore.Hbonds>
donor molecule, donor type, donor heavy atom, donor atom, acceptor molecule, acceptor atom, score
      L1  H     7    29       P1  7948  1.00
      L1  H    11    35       P1 10186  2.00
      P1  H  6896  6908       L1    19  0.34
      L1  C     4    26       P1  7948  1.00

> <Gold.PLP.Chemscore.Internal.Correction>
0.0081

> <Gold.Rescore>
     Score         DG    S(hbond)    S(metal)    S(lipo)     H(rot)  DE(clash)    DE(int)     intcor
     14.71     -15.21       2.85        0.00      40.29       1.76       0.00       0.50       ----

> <Gold.Chemscore.Fitness>
14.7121

> <Gold.Chemscore.DG>
-15.2129

> <Gold.Chemscore.ZeroCoef>
-5.4800

> <Gold.Chemscore.Hbond>
2.8506

> <Gold.Chemscore.Metal>
0.0000

> <Gold.Chemscore.Lipo>
40.2860

> <Gold.Chemscore.Internal_Hbond>
0.0000

> <Gold.Chemscore.DEClash>
0.0048

> <Gold.Chemscore.DEInternal>
0.4960

> <Gold.Chemscore.Rot>
1.7584

> <Gold.Chemscore.Internal.Correction>
   9.000000E+99

> <Gold.Chemscore.Hbonds>
donor molecule, donor type, donor heavy atom, donor atom, acceptor molecule, acceptor atom, score
      L1  H     7    29       P1  7948  0.60
      L1  H    11    35       P1 10186  0.98
      P1  H  6896  6908       L1    19  0.35

> <Gold.Chemscore.Hbond.Weighted>
-9.5210

> <Gold.Chemscore.Metal.Weighted>
-0.0000

> <Gold.Chemscore.Lipo.Weighted>
-4.7135

> <Gold.Chemscore.Internal_Hbond.Weighted>
0.0000

> <Gold.Chemscore.DEClash.Weighted>
0.0048

> <Gold.Chemscore.DEInternal.Weighted>
0.4960

> <Gold.Chemscore.Rot.Weighted>
4.5016

> <Gold.Chemscore.Internal.Correction.Weighted>
   9.000000E+99

> <Gold.Protein.RotatedTorsions>
[ 6907 6896 6895 6894 ] final   78.12 input  -60.11 | X-H torsion
[ 7974 7965 7964 7962 ] final   18.87 input  175.53 | X-H torsion
[ 8008 7997 7996 7995 ] final -101.83 input   59.86 | X-H torsion
[ 10167 10162 10161 10158 ] final  114.85 input  -65.29 | X-H torsion
[ 10718 10713 10712 10709 ] final   37.83 input   66.30 | X-H torsion
[ 10763 10752 10751 10750 ] final   62.65 input  -60.55 | X-H torsion
[ 11005 11000 10999 10996 ] final  -16.85 input  -57.11 | X-H torsion

> <Gold.Protein.ActiveResidues>
 VAL166  LYS551  ARG553  GLY616  TRP617  ASP618  TYR619  PRO620  LYS621  CYS622 
 ASP623  PHE694  ASN695  SER759  ASP760  ASP761  ALA762  ILE779  LEU786  VAL792 
 PHE793  MET794  SER795  GLU796  ALA797  LYS798  CYS799  TRP800  GLU811  SER814 

> <Gold.Protein.RotatedAtoms>
  152.5146  134.3713  159.9318 H   0  0  0  0  0  0  0  0  0  0  0  0  # atno 6907 bound_to 6896
  151.3667  133.3863  159.2703 H   0  0  0  0  0  0  0  0  0  0  0  0  # atno 6908 bound_to 6896
  150.9609  134.9017  159.7788 H   0  0  0  0  0  0  0  0  0  0  0  0  # atno 6909 bound_to 6896
  146.2169  139.8394  142.8644 H   0  0  0  0  0  0  0  0  0  0  0  0  # atno 7974 bound_to 7965
  154.8480  140.0432  157.1585 H   0  0  0  0  0  0  0  0  0  0  0  0  # atno 8008 bound_to 7997
  154.8973  140.2995  155.5316 H   0  0  0  0  0  0  0  0  0  0  0  0  # atno 8009 bound_to 7997
  156.2995  140.2382  156.3997 H   0  0  0  0  0  0  0  0  0  0  0  0  # atno 8010 bound_to 7997
  139.6359  144.7120  151.2336 H   0  0  0  0  0  0  0  0  0  0  0  0  # atno 10167 bound_to 10162
  157.3516  130.7601  149.6982 H   0  0  0  0  0  0  0  0  0  0  0  0  # atno 10718 bound_to 10713
  152.9990  135.5457  154.6226 H   0  0  0  0  0  0  0  0  0  0  0  0  # atno 10763 bound_to 10752
  154.5522  135.2827  155.1000 H   0  0  0  0  0  0  0  0  0  0  0  0  # atno 10764 bound_to 10752
  154.2235  135.6446  153.5205 H   0  0  0  0  0  0  0  0  0  0  0  0  # atno 10765 bound_to 10752
  140.8109  133.8141  155.9562 H   0  0  0  0  0  0  0  0  0  0  0  0  # atno 11005 bound_to 11000
  145.2914  141.0168  143.3661 LP  0  0  0  0  0  0  0  0  0  0  0  0  # atno 17320 bound_to 7965
  144.9074  139.4571  143.6603 LP  0  0  0  0  0  0  0  0  0  0  0  0  # atno 17321 bound_to 7965
  140.7465  143.6397  150.8346 LP  0  0  0  0  0  0  0  0  0  0  0  0  # atno 17342 bound_to 10162
  140.0028  143.5726  152.2869 LP  0  0  0  0  0  0  0  0  0  0  0  0  # atno 17343 bound_to 10162
  155.9722  130.4139  150.4105 LP  0  0  0  0  0  0  0  0  0  0  0  0  # atno 17370 bound_to 10713
  157.2169  131.0473  151.2568 LP  0  0  0  0  0  0  0  0  0  0  0  0  # atno 17371 bound_to 10713
  140.9199  134.2155  157.4933 LP  0  0  0  0  0  0  0  0  0  0  0  0  # atno 17394 bound_to 11000
  139.8714  134.9787  156.5009 LP  0  0  0  0  0  0  0  0  0  0  0  0  # atno 17395 bound_to 11000

$$$$
