#       Name:                AV-unprocessed.smi:2227
#       Creating user name   scv26
#       Creation time:       Fri Mar 27 12:22:36 2020


#       File generated by GOLD software.
#

@<TRIPOS>MOLECULE
AV-unprocessed.smi:2227
    45    47     1
SMALL
NO_CHARGES


@<TRIPOS>ATOM
      1 ****        -2.2263   1.4043  -0.1288 C.3            1 S1                 0.0000
      2 ****        -2.1698   0.6129  -1.4431 C.3            1 S1                 0.0000
      3 ****        -2.9949   1.2916  -2.5467 C.3            1 S1                 0.0000
      4 ****        -2.5897  -0.8164  -1.2328 C.2            1 S1                 0.0000
      5 ****        -3.8500  -1.2212  -1.0289 N.pl3          1 S1                 1.0000
      6 ****        -3.8966  -2.5739  -0.8358 C.2            1 S1                 0.0000
      7 ****        -2.6041  -3.0191  -0.9138 C.2            1 S1                 0.0000
      8 ****        -1.8190  -1.9190  -1.1524 N.pl3          1 S1                 0.0000
      9 ****        -0.3554  -1.9278  -1.2962 C.3            1 S1                 0.0000
     10 ****         0.3421  -1.4091  -0.0364 C.2            1 S1                 0.0000
     11 ****         0.0804  -1.9039   1.0597 O.2            1 S1                 0.0000
     12 ****         1.2162  -0.4059  -0.2098 N.am           1 S1                 0.0000
     13 ****         1.9826   0.2489   0.8449 C.3            1 S1                 0.0000
     14 ****         2.2349   1.7103   0.5200 C.3            1 S1                 0.0000
     15 ****         2.4862   2.7308   1.6048 C.3            1 S1                 0.0000
     16 ****         1.1964   2.7657   0.8173 C.3            1 S1                 0.0000
     17 ****         3.2942  -0.4628   1.1349 C.3            1 S1                 0.0000
     18 ****         3.3608  -1.6359   2.0845 C.3            1 S1                 0.0000
     19 ****         3.9924  -0.3173   2.4668 C.3            1 S1                 0.0000
     20 ****        -1.6023   0.9414   0.6364 H              1 S1                 0.0000
     21 ****        -3.2436   1.4569   0.2600 H              1 S1                 0.0000
     22 ****        -1.8712   2.4255  -0.2694 H              1 S1                 0.0000
     23 ****        -1.1345   0.5949  -1.7787 H              1 S1                 0.0000
     24 ****        -2.9145   0.7457  -3.4872 H              1 S1                 0.0000
     25 ****        -2.6454   2.3086  -2.7265 H              1 S1                 0.0000
     26 ****        -4.0513   1.3474  -2.2823 H              1 S1                 0.0000
     27 ****        -4.8211  -3.1033  -0.6567 H              1 S1                 0.0000
     28 ****        -2.1935  -4.0135  -0.8127 H              1 S1                 0.0000
     29 ****        -0.0375  -2.9548  -1.4798 H              1 S1                 0.0000
     30 ****        -0.0839  -1.3504  -2.1810 H              1 S1                 0.0000
     31 ****         1.3661  -0.0676  -1.1495 H              1 S1                 0.0000
     32 ****         1.3887   0.2285   1.7611 H              1 S1                 0.0000
     33 ****         2.8054   1.8560  -0.3958 H              1 S1                 0.0000
     34 ****         2.4274   2.4030   2.6406 H              1 S1                 0.0000
     35 ****         3.2209   3.5075   1.4026 H              1 S1                 0.0000
     36 ****         1.0702   3.5649   0.0899 H              1 S1                 0.0000
     37 ****         0.2901   2.4592   1.3353 H              1 S1                 0.0000
     38 ****         3.9520  -0.5215   0.2695 H              1 S1                 0.0000
     39 ****         2.4509  -1.9223   2.6079 H              1 S1                 0.0000
     40 ****         4.0251  -2.4565   1.8215 H              1 S1                 0.0000
     41 ****         5.0789  -0.2580   2.4597 H              1 S1                 0.0000
     42 ****         3.4990   0.2621   3.2443 H              1 S1                 0.0000
     43 ****        -4.6543  -0.6068  -1.0165 H              1 S1                 0.0000
     44 ****        -0.5879  -2.6447   1.1271 LP             1 S1                 0.0000
     45 ****         0.5360  -1.5651   1.8828 LP             1 S1                 0.0000
@<TRIPOS>BOND
    1    1    2 1     
    2    1   20 1     
    3    1   21 1     
    4    1   22 1     
    5    2    3 1     
    6    2    4 1     
    7    2   23 1     
    8    3   24 1     
    9    3   25 1     
   10    3   26 1     
   11    4    8 1     
   12    4    5 2     
   13    5    6 1     
   14    5   43 1     
   15    6    7 2     
   16    6   27 1     
   17    7    8 1     
   18    7   28 1     
   19    8    9 1     
   20    9   10 1     
   21    9   29 1     
   22    9   30 1     
   23   10   11 2     
   24   10   12 am    
   25   12   13 1     
   26   12   31 1     
   27   13   14 1     
   28   13   17 1     
   29   13   32 1     
   30   14   16 1     
   31   14   15 1     
   32   14   33 1     
   33   15   16 1     
   34   15   34 1     
   35   15   35 1     
   36   16   36 1     
   37   16   37 1     
   38   17   19 1     
   39   17   18 1     
   40   17   38 1     
   41   18   19 1     
   42   18   39 1     
   43   18   40 1     
   44   19   41 1     
   45   19   42 1     
   46   11   44 1     
   47   11   45 1     
@<TRIPOS>SUBSTRUCTURE
      1 S1             1
@<TRIPOS>SET
LONE_PAIRS      STATIC     ATOMS    <user>   **** ""
2 44 45
DONOR_HYDROGENS      STATIC     ATOMS    <user>   **** ""
2 43 31
ATOM$BLUE        STATIC     ATOMS    COLORGROUP SYSTEM
2 44 45
ATOM$RED        STATIC     ATOMS    COLORGROUP SYSTEM
2 43 31
