AV-unprocessed.smi:3032|AV-procd|sdf|11566|dock3
  -GOLD-   2272016533D 1   1.00000     0.00000
 Structure written by MMmdl.
 37 38  0  0  0  0  0  0  0  0  1 V2000
  151.6746  145.5826  159.9174 C   0  0  0  0  0  0  0  0  0  0  0  0
  151.9042  144.2526  159.1854 C   0  0  1  0  0  0  0  0  0  0  0  0
  152.8174  143.3138  159.9968 C   0  0  0  0  0  0  0  0  0  0  0  0
  153.0374  141.9756  159.2739 C   0  0  0  0  0  0  0  0  0  0  0  0
  151.7000  141.2904  158.9535 C   0  0  0  0  0  0  0  0  0  0  0  0
  150.7866  142.2151  158.1225 C   0  0  1  0  0  0  0  0  0  0  0  0
  149.4403  141.5440  157.8233 C   0  0  0  0  0  0  0  0  0  0  0  0
  149.2019  140.4155  158.2537 O   0  0  0  0  0  0  0  0  0  0  0  0
  148.5599  142.2615  157.1069 N   0  0  0  0  0  0  0  0  0  0  0  0
  147.1887  141.8589  156.8014 C   0  0  0  0  0  0  0  0  0  0  0  0
  146.1505  142.7414  157.5213 C   0  0  0  0  0  0  0  0  0  0  0  0
  146.5766  143.1982  158.8817 C   0  0  0  0  0  0  0  0  0  0  0  0
  146.6096  142.4231  159.9723 N   0  0  0  0  0  0  0  0  0  0  0  0
  147.0944  143.2311  160.9890 N   0  0  0  0  0  0  0  0  0  0  0  0
  147.3055  144.4155  160.4130 C   0  0  0  0  0  0  0  0  0  0  0  0
  146.9987  144.4515  159.1113 N   0  0  0  0  0  0  0  0  0  0  0  0
  150.5695  143.5555  158.8572 C   0  0  0  0  0  0  0  0  0  0  0  0
  147.0760  145.2227  158.4646 H   0  0  0  0  0  0  0  0  0  0  0  0
  151.1610  145.4284  160.8668 H   0  0  0  0  0  0  0  0  0  0  0  0
  151.0679  146.2612  159.3174 H   0  0  0  0  0  0  0  0  0  0  0  0
  152.6194  146.0845  160.1280 H   0  0  0  0  0  0  0  0  0  0  0  0
  152.4061  144.4785  158.2435 H   0  0  0  0  0  0  0  0  0  0  0  0
  153.7800  143.7930  160.1770 H   0  0  0  0  0  0  0  0  0  0  0  0
  152.3773  143.1275  160.9774 H   0  0  0  0  0  0  0  0  0  0  0  0
  153.5926  142.1453  158.3506 H   0  0  0  0  0  0  0  0  0  0  0  0
  153.6533  141.3189  159.8889 H   0  0  0  0  0  0  0  0  0  0  0  0
  151.8865  140.3612  158.4134 H   0  0  0  0  0  0  0  0  0  0  0  0
  151.2081  141.0118  159.8871 H   0  0  0  0  0  0  0  0  0  0  0  0
  151.2864  142.4227  157.1746 H   0  0  0  0  0  0  0  0  0  0  0  0
  148.8463  143.1757  156.7883 H   0  0  0  0  0  0  0  0  0  0  0  0
  147.0441  141.9317  155.7236 H   0  0  0  0  0  0  0  0  0  0  0  0
  147.0270  140.8107  157.0581 H   0  0  0  0  0  0  0  0  0  0  0  0
  145.9290  143.6181  156.9113 H   0  0  0  0  0  0  0  0  0  0  0  0
  145.2121  142.1946  157.6192 H   0  0  0  0  0  0  0  0  0  0  0  0
  147.6908  145.2697  160.9500 H   0  0  0  0  0  0  0  0  0  0  0  0
  150.0119  143.3886  159.7805 H   0  0  0  0  0  0  0  0  0  0  0  0
  149.9543  144.2159  158.2442 H   0  0  0  0  0  0  0  0  0  0  0  0
  1  2  1  0  0  0  0
  1 19  1  0  0  0  0
  1 20  1  0  0  0  0
  1 21  1  0  0  0  0
  2 17  1  0  0  0  0
  2  3  1  0  0  0  0
  2 22  1  0  0  0  0
  3  4  1  0  0  0  0
  3 23  1  0  0  0  0
  3 24  1  0  0  0  0
  4  5  1  0  0  0  0
  4 25  1  0  0  0  0
  4 26  1  0  0  0  0
  5  6  1  0  0  0  0
  5 27  1  0  0  0  0
  5 28  1  0  0  0  0
  6  7  1  0  0  0  0
  6 17  1  0  0  0  0
  6 29  1  0  0  0  0
  7  8  2  0  0  0  0
  7  9  1  0  0  0  0
  9 10  1  0  0  0  0
  9 30  1  0  0  0  0
 10 11  1  0  0  0  0
 10 31  1  0  0  0  0
 10 32  1  0  0  0  0
 11 12  1  0  0  0  0
 11 33  1  0  0  0  0
 11 34  1  0  0  0  0
 12 16  1  0  0  0  0
 12 13  2  0  0  0  0
 13 14  1  0  0  0  0
 14 15  2  0  0  0  0
 15 16  1  0  0  0  0
 15 35  1  0  0  0  0
 16 18  1  0  0  0  0
 17 36  1  0  0  0  0
 17 37  1  0  0  0  0
M  END
> <s_m_source_file>
AV-unprocessed.smi

> <i_m_source_file_index>
3032

> <i_lp_mmshare_version>
43012

> <i_f3d_flags>
0

> <s_epik_input>
W0NIM11bQ0BASF0xW0NIMl1bQ0gyXVtDSDJdW0NASF0oW0NIMl0xKUMoPU8pW05IXVtDSDJdW0NIMl1jMm5uW2NIXVtuSF0y

> <s_epik_cmdline>
J2VwaWtfcHl0aG9uJywgJy1waCcsICc3LjAnLCAnLXRuJywgJzgnLCAnLW1hJywgJzIwMCcsICctbWV0YWxfYmluZGluZycsICctaW1hZScsICc8aW5maWxlLm1hZT4nLCAnLW9tYWUnLCAnPG91dGZpbGUubWFlPic=

> <r_lp_tautomer_probability>
0.0517155

> <r_epik_Ionization_Penalty>
0.00149837

> <r_epik_Ionization_Penalty_Charging>
0

> <r_epik_Ionization_Penalty_Neutral>
0.00149837

> <r_epik_State_Penalty>
2.1109

> <r_epik_Charging_Adjusted_Penalty>
2.1109

> <i_epik_Tot_Q>
0

> <i_epik_Tot_abs_Q>
0

> <r_epik_Metal_State_Penalty>
2.23635

> <b_epik_Metal_Only>
0

> <s_lp_Force_Field>
OPLS_2005

> <r_lp_Energy>
11.6052

> <b_lp_Chiralities_Consistent>
1

> <s_lp_Variant>
AV-unprocessed.smi:3032-10

> <Gold.Version>
5.8.1

> <Gold.Id.Protein>
6NUR|6NUR_protein|mol2

> <Gold.PLP.Fitness>
45.6900

> <Gold.PLP.PLP>
-34.4149

> <Gold.PLP.part.hbond>
-5.4665

> <Gold.PLP.part.metal>
0.0000

> <Gold.PLP.part.buried>
-5.8942

> <Gold.PLP.part.nonpolar>
-24.5123

> <Gold.PLP.part.repulsive>
0.1496

> <Gold.PLP.ligand.clash>
0.0000

> <Gold.PLP.ligand.torsion>
0.3737

> <Gold.PLP.Chemscore.Hbond>
4.0000

> <Gold.PLP.Chemscore.CHOScore>
0.0000

> <Gold.PLP.Chemscore.Metal>
0.0000

> <Gold.Chemscore.Hbonds>
donor molecule, donor type, donor heavy atom, donor atom, acceptor molecule, acceptor atom, score
      L1  H     9    30       P1  8028  1.00
      L1  H    16    18       P1  8029  1.00
      P1  H  6933  6944       L1    14  1.00
      P1  H  6934  6946       L1    13  0.90

> <Gold.PLP.Chemscore.Internal.Correction>
0.0225

> <Gold.Rescore>
     Score         DG    S(hbond)    S(metal)    S(lipo)     H(rot)  DE(clash)    DE(int)     intcor
     16.99     -17.40       2.62        0.00      76.45       2.25       0.05       0.36       ----

> <Gold.Chemscore.Fitness>
16.9863

> <Gold.Chemscore.DG>
-17.3999

> <Gold.Chemscore.ZeroCoef>
-5.4800

> <Gold.Chemscore.Hbond>
2.6156

> <Gold.Chemscore.Metal>
0.0000

> <Gold.Chemscore.Lipo>
76.4465

> <Gold.Chemscore.Internal_Hbond>
0.0000

> <Gold.Chemscore.DEClash>
0.0539

> <Gold.Chemscore.DEInternal>
0.3597

> <Gold.Chemscore.Rot>
2.2501

> <Gold.Chemscore.Internal.Correction>
   9.000000E+99

> <Gold.Chemscore.Hbonds>
donor molecule, donor type, donor heavy atom, donor atom, acceptor molecule, acceptor atom, score
      L1  H     9    30       P1  8028  0.84
      L1  H    16    18       P1  8029  0.93
      P1  H  6933  6944       L1    14  0.28
      P1  H  6934  6946       L1    13  0.18

> <Gold.Chemscore.Hbond.Weighted>
-8.7360

> <Gold.Chemscore.Metal.Weighted>
-0.0000

> <Gold.Chemscore.Lipo.Weighted>
-8.9442

> <Gold.Chemscore.Internal_Hbond.Weighted>
0.0000

> <Gold.Chemscore.DEClash.Weighted>
0.0539

> <Gold.Chemscore.DEInternal.Weighted>
0.3597

> <Gold.Chemscore.Rot.Weighted>
5.7603

> <Gold.Chemscore.Internal.Correction.Weighted>
   9.000000E+99

> <Gold.Protein.RotatedTorsions>
[ 6907 6896 6895 6894 ] final   90.77 input  -60.11 | X-H torsion
[ 7974 7965 7964 7962 ] final -133.59 input  175.53 | X-H torsion
[ 8008 7997 7996 7995 ] final  -89.00 input   59.86 | X-H torsion
[ 10167 10162 10161 10158 ] final  -60.26 input  -65.29 | X-H torsion
[ 10718 10713 10712 10709 ] final   75.86 input   66.30 | X-H torsion
[ 10763 10752 10751 10750 ] final -174.45 input  -60.55 | X-H torsion
[ 11005 11000 10999 10996 ] final  -95.91 input  -57.11 | X-H torsion

> <Gold.Protein.ActiveResidues>
 VAL166  LYS551  ARG553  GLY616  TRP617  ASP618  TYR619  PRO620  LYS621  CYS622 
 ASP623  PHE694  ASN695  SER759  ASP760  ASP761  ALA762  ILE779  LEU786  VAL792 
 PHE793  MET794  SER795  GLU796  ALA797  LYS798  CYS799  TRP800  GLU811  SER814 

> <Gold.Protein.RotatedAtoms>
  152.5446  134.1761  159.8616 H   0  0  0  0  0  0  0  0  0  0  0  0  # atno 6907 bound_to 6896
  151.1767  133.4743  159.2601 H   0  0  0  0  0  0  0  0  0  0  0  0  # atno 6908 bound_to 6896
  151.1220  135.0096  159.8598 H   0  0  0  0  0  0  0  0  0  0  0  0  # atno 6909 bound_to 6896
  144.9179  140.6977  143.4984 H   0  0  0  0  0  0  0  0  0  0  0  0  # atno 7974 bound_to 7965
  154.6815  140.0547  157.0270 H   0  0  0  0  0  0  0  0  0  0  0  0  # atno 8008 bound_to 7997
  155.0945  140.3222  155.4545 H   0  0  0  0  0  0  0  0  0  0  0  0  # atno 8009 bound_to 7997
  156.2696  140.2042  156.6072 H   0  0  0  0  0  0  0  0  0  0  0  0  # atno 8010 bound_to 7997
  140.6082  143.2379  151.5771 H   0  0  0  0  0  0  0  0  0  0  0  0  # atno 10167 bound_to 10162
  157.6651  130.9746  150.1413 H   0  0  0  0  0  0  0  0  0  0  0  0  # atno 10718 bound_to 10713
  154.5961  135.2850  155.0585 H   0  0  0  0  0  0  0  0  0  0  0  0  # atno 10763 bound_to 10752
  154.1867  135.6447  153.5052 H   0  0  0  0  0  0  0  0  0  0  0  0  # atno 10764 bound_to 10752
  153.0139  135.5436  154.6663 H   0  0  0  0  0  0  0  0  0  0  0  0  # atno 10765 bound_to 10752
  141.1427  133.8060  157.0499 H   0  0  0  0  0  0  0  0  0  0  0  0  # atno 11005 bound_to 11000
  145.3345  139.1750  143.4519 LP  0  0  0  0  0  0  0  0  0  0  0  0  # atno 17320 bound_to 7965
  146.3190  140.3378  142.8645 LP  0  0  0  0  0  0  0  0  0  0  0  0  # atno 17321 bound_to 7965
  139.5341  144.2831  152.1213 LP  0  0  0  0  0  0  0  0  0  0  0  0  # atno 17342 bound_to 10162
  140.2025  144.4644  150.6424 LP  0  0  0  0  0  0  0  0  0  0  0  0  # atno 17343 bound_to 10162
  156.2235  130.3676  149.8528 LP  0  0  0  0  0  0  0  0  0  0  0  0  # atno 17370 bound_to 10713
  156.6374  130.8691  151.3507 LP  0  0  0  0  0  0  0  0  0  0  0  0  # atno 17371 bound_to 10713
  140.0638  134.9740  157.1351 LP  0  0  0  0  0  0  0  0  0  0  0  0  # atno 17394 bound_to 11000
  140.3809  134.2288  155.7171 LP  0  0  0  0  0  0  0  0  0  0  0  0  # atno 17395 bound_to 11000

$$$$
