AV-unprocessed.smi:2166|AV-procd|sdf|8814|dock2
  -GOLD-   2272012 03D 1   1.00000     0.00000
 Structure written by MMmdl.
 38 39  0  0  0  0  0  0  0  0  1 V2000
  145.5950  136.6259  151.9982 C   0  0  0  0  0  0  0  0  0  0  0  0
  146.3667  137.4503  153.4181 S   0  0  0  0  0  0  0  0  0  0  0  0
  146.4364  139.1689  152.8284 C   0  0  2  0  0  0  0  0  0  0  0  0
  147.0960  139.2293  151.4412 C   0  0  0  0  0  0  0  0  0  0  0  0
  147.1534  140.0884  153.8257 C   0  0  0  0  0  0  0  0  0  0  0  0
  146.5902  141.1037  154.2365 O   0  0  0  0  0  0  0  0  0  0  0  0
  148.3944  139.7062  154.1827 N   0  0  0  0  0  0  0  0  0  0  0  0
  149.2998  140.3565  155.0618 C   0  0  0  0  0  0  0  0  0  0  0  0
  148.6983  141.2178  156.0058 C   0  0  0  0  0  0  0  0  0  0  0  0
  149.5069  141.9071  156.9294 C   0  0  0  0  0  0  0  0  0  0  0  0
  150.9018  141.7205  156.8898 C   0  0  0  0  0  0  0  0  0  0  0  0
  151.7213  142.3966  157.8047 N   0  0  0  0  0  0  0  0  0  0  0  0
  151.6247  143.8480  157.7103 C   0  0  0  0  0  0  0  0  0  0  0  0
  152.6392  144.5063  158.6621 C   0  0  0  0  0  0  0  0  0  0  0  0
  152.4256  144.0342  159.9895 O   0  0  0  0  0  0  0  0  0  0  0  0
  152.5941  142.6226  160.0881 C   0  0  0  0  0  0  0  0  0  0  0  0
  151.5784  141.9158  159.1731 C   0  0  0  0  0  0  0  0  0  0  0  0
  151.4186  140.8438  155.9101 C   0  0  0  0  0  0  0  0  0  0  0  0
  150.6440  140.1828  155.0243 N   0  0  0  0  0  0  0  0  0  0  0  0
  145.5256  135.5537  152.1817 H   0  0  0  0  0  0  0  0  0  0  0  0
  146.1863  136.7837  151.0963 H   0  0  0  0  0  0  0  0  0  0  0  0
  144.5886  137.0082  151.8284 H   0  0  0  0  0  0  0  0  0  0  0  0
  145.4066  139.5109  152.7149 H   0  0  0  0  0  0  0  0  0  0  0  0
  147.1541  140.2545  151.0734 H   0  0  0  0  0  0  0  0  0  0  0  0
  146.5230  138.6537  150.7139 H   0  0  0  0  0  0  0  0  0  0  0  0
  148.1081  138.8227  151.4579 H   0  0  0  0  0  0  0  0  0  0  0  0
  148.7327  138.8517  153.7652 H   0  0  0  0  0  0  0  0  0  0  0  0
  147.6264  141.3509  156.0281 H   0  0  0  0  0  0  0  0  0  0  0  0
  149.0595  142.5673  157.6580 H   0  0  0  0  0  0  0  0  0  0  0  0
  151.8146  144.1649  156.6841 H   0  0  0  0  0  0  0  0  0  0  0  0
  150.6154  144.1714  157.9681 H   0  0  0  0  0  0  0  0  0  0  0  0
  153.6624  144.2923  158.3492 H   0  0  0  0  0  0  0  0  0  0  0  0
  152.5214  145.5899  158.6464 H   0  0  0  0  0  0  0  0  0  0  0  0
  153.6159  142.3485  159.8202 H   0  0  0  0  0  0  0  0  0  0  0  0
  152.4437  142.3175  161.1237 H   0  0  0  0  0  0  0  0  0  0  0  0
  150.5654  142.1069  159.5297 H   0  0  0  0  0  0  0  0  0  0  0  0
  151.7347  140.8367  159.2043 H   0  0  0  0  0  0  0  0  0  0  0  0
  152.4807  140.6646  155.8314 H   0  0  0  0  0  0  0  0  0  0  0  0
  1  2  1  0  0  0  0
  1 20  1  0  0  0  0
  1 21  1  0  0  0  0
  1 22  1  0  0  0  0
  2  3  1  0  0  0  0
  3  4  1  0  0  0  0
  3  5  1  0  0  0  0
  3 23  1  0  0  0  0
  4 24  1  0  0  0  0
  4 25  1  0  0  0  0
  4 26  1  0  0  0  0
  5  6  2  0  0  0  0
  5  7  1  0  0  0  0
  7  8  1  0  0  0  0
  7 27  1  0  0  0  0
  8 19  1  0  0  0  0
  8  9  2  0  0  0  0
  9 10  1  0  0  0  0
  9 28  1  0  0  0  0
 10 11  2  0  0  0  0
 10 29  1  0  0  0  0
 11 12  1  0  0  0  0
 11 18  1  0  0  0  0
 12 17  1  0  0  0  0
 12 13  1  0  0  0  0
 13 14  1  0  0  0  0
 13 30  1  0  0  0  0
 13 31  1  0  0  0  0
 14 15  1  0  0  0  0
 14 32  1  0  0  0  0
 14 33  1  0  0  0  0
 15 16  1  0  0  0  0
 16 17  1  0  0  0  0
 16 34  1  0  0  0  0
 16 35  1  0  0  0  0
 17 36  1  0  0  0  0
 17 37  1  0  0  0  0
 18 19  2  0  0  0  0
 18 38  1  0  0  0  0
M  END
> <s_m_source_file>
AV-unprocessed.smi

> <i_m_source_file_index>
2166

> <i_lp_mmshare_version>
43012

> <i_f3d_flags>
0

> <s_epik_input>
W0NIM11TW0NASF0oW0NIM10pQyg9TylbTkhdYzFbY0hdW2NIXWMoW2NIXW4xKU4yW0NIMl1bQ0gyXU9bQ0gyXVtDSDJdMg==

> <s_epik_cmdline>
J2VwaWtfcHl0aG9uJywgJy1waCcsICc3LjAnLCAnLXRuJywgJzgnLCAnLW1hJywgJzIwMCcsICctbWV0YWxfYmluZGluZycsICctaW1hZScsICc8aW5maWxlLm1hZT4nLCAnLW9tYWUnLCAnPG91dGZpbGUubWFlPic=

> <r_lp_tautomer_probability>
1

> <r_epik_Ionization_Penalty>
0.0038652

> <r_epik_Ionization_Penalty_Charging>
0

> <r_epik_Ionization_Penalty_Neutral>
0.0038652

> <r_epik_State_Penalty>
0.00681294

> <r_epik_Charging_Adjusted_Penalty>
0.00681294

> <i_epik_Tot_Q>
0

> <i_epik_Tot_abs_Q>
0

> <r_epik_Metal_State_Penalty>
-0

> <b_epik_Metal_Only>
0

> <s_lp_Force_Field>
OPLS_2005

> <r_lp_Energy>
27.7309

> <b_lp_Chiralities_Consistent>
1

> <s_lp_Variant>
AV-unprocessed.smi:2166-1

> <Gold.Version>
5.8.1

> <Gold.Id.Protein>
6NUR|6NUR_protein|mol2

> <Gold.PLP.Fitness>
33.8207

> <Gold.PLP.PLP>
-32.4027

> <Gold.PLP.part.hbond>
-1.1435

> <Gold.PLP.part.metal>
0.0000

> <Gold.PLP.part.buried>
2.1324

> <Gold.PLP.part.nonpolar>
-32.3559

> <Gold.PLP.part.repulsive>
0.3241

> <Gold.PLP.ligand.clash>
0.0000

> <Gold.PLP.ligand.torsion>
0.3358

> <Gold.PLP.Chemscore.Hbond>
0.6500

> <Gold.PLP.Chemscore.CHOScore>
0.0000

> <Gold.PLP.Chemscore.Metal>
0.0000

> <Gold.Chemscore.Hbonds>
donor molecule, donor type, donor heavy atom, donor atom, acceptor molecule, acceptor atom, score
      P1  H  7989  7998       L1    19  0.65

> <Gold.PLP.Chemscore.Internal.Correction>
0.1395

> <Gold.Rescore>
     Score         DG    S(hbond)    S(metal)    S(lipo)     H(rot)  DE(clash)    DE(int)     intcor
     10.91     -14.18       0.19        0.00      97.52       1.31       1.48       1.79       ----

> <Gold.Chemscore.Fitness>
10.9060

> <Gold.Chemscore.DG>
-14.1812

> <Gold.Chemscore.ZeroCoef>
-5.4800

> <Gold.Chemscore.Hbond>
0.1934

> <Gold.Chemscore.Metal>
0.0000

> <Gold.Chemscore.Lipo>
97.5230

> <Gold.Chemscore.Internal_Hbond>
0.0000

> <Gold.Chemscore.DEClash>
1.4809

> <Gold.Chemscore.DEInternal>
1.7943

> <Gold.Chemscore.Rot>
1.3105

> <Gold.Chemscore.Internal.Correction>
   9.000000E+99

> <Gold.Chemscore.Hbonds>
donor molecule, donor type, donor heavy atom, donor atom, acceptor molecule, acceptor atom, score
      P1  H  7989  7998       L1    19  0.05

> <Gold.Chemscore.Hbond.Weighted>
-0.6459

> <Gold.Chemscore.Metal.Weighted>
-0.0000

> <Gold.Chemscore.Lipo.Weighted>
-11.4102

> <Gold.Chemscore.Internal_Hbond.Weighted>
0.0000

> <Gold.Chemscore.DEClash.Weighted>
1.4809

> <Gold.Chemscore.DEInternal.Weighted>
1.7943

> <Gold.Chemscore.Rot.Weighted>
3.3549

> <Gold.Chemscore.Internal.Correction.Weighted>
   9.000000E+99

> <Gold.Protein.RotatedTorsions>
[ 6907 6896 6895 6894 ] final -128.01 input  -60.11 | X-H torsion
[ 7974 7965 7964 7962 ] final  149.91 input  175.53 | X-H torsion
[ 8008 7997 7996 7995 ] final  -92.36 input   59.86 | X-H torsion
[ 10167 10162 10161 10158 ] final   83.20 input  -65.29 | X-H torsion
[ 10718 10713 10712 10709 ] final  -45.56 input   66.30 | X-H torsion
[ 10763 10752 10751 10750 ] final   94.14 input  -60.55 | X-H torsion
[ 11005 11000 10999 10996 ] final  165.27 input  -57.11 | X-H torsion

> <Gold.Protein.ActiveResidues>
 VAL166  LYS551  ARG553  GLY616  TRP617  ASP618  TYR619  PRO620  LYS621  CYS622 
 ASP623  PHE694  ASN695  SER759  ASP760  ASP761  ALA762  ILE779  LEU786  VAL792 
 PHE793  MET794  SER795  GLU796  ALA797  LYS798  CYS799  TRP800  GLU811  SER814 

> <Gold.Protein.RotatedAtoms>
  150.9133  133.6970  159.2849 H   0  0  0  0  0  0  0  0  0  0  0  0  # atno 6907 bound_to 6896
  151.4449  135.1023  159.9691 H   0  0  0  0  0  0  0  0  0  0  0  0  # atno 6908 bound_to 6896
  152.4941  133.8532  159.7267 H   0  0  0  0  0  0  0  0  0  0  0  0  # atno 6909 bound_to 6896
  144.8403  139.6340  143.6019 H   0  0  0  0  0  0  0  0  0  0  0  0  # atno 7974 bound_to 7965
  154.7221  140.0510  157.0649 H   0  0  0  0  0  0  0  0  0  0  0  0  # atno 8008 bound_to 7997
  155.0413  140.3169  155.4704 H   0  0  0  0  0  0  0  0  0  0  0  0  # atno 8009 bound_to 7997
  156.2819  140.2132  156.5537 H   0  0  0  0  0  0  0  0  0  0  0  0  # atno 8010 bound_to 7997
  139.9209  144.6213  150.8441 H   0  0  0  0  0  0  0  0  0  0  0  0  # atno 10167 bound_to 10162
  156.2271  130.4170  149.8920 H   0  0  0  0  0  0  0  0  0  0  0  0  # atno 10718 bound_to 10713
  153.2382  135.4300  155.0669 H   0  0  0  0  0  0  0  0  0  0  0  0  # atno 10763 bound_to 10752
  154.8328  135.3396  154.6688 H   0  0  0  0  0  0  0  0  0  0  0  0  # atno 10764 bound_to 10752
  153.7112  135.7022  153.5093 H   0  0  0  0  0  0  0  0  0  0  0  0  # atno 10765 bound_to 10752
  140.2544  134.7952  157.3532 H   0  0  0  0  0  0  0  0  0  0  0  0  # atno 11005 bound_to 11000
  146.2696  139.6604  142.9305 LP  0  0  0  0  0  0  0  0  0  0  0  0  # atno 17320 bound_to 7965
  145.4708  141.0436  143.2700 LP  0  0  0  0  0  0  0  0  0  0  0  0  # atno 17321 bound_to 7965
  140.7662  143.3298  151.2436 LP  0  0  0  0  0  0  0  0  0  0  0  0  # atno 17342 bound_to 10162
  139.6863  143.9769  152.2836 LP  0  0  0  0  0  0  0  0  0  0  0  0  # atno 17343 bound_to 10162
  156.6546  130.8757  151.3537 LP  0  0  0  0  0  0  0  0  0  0  0  0  # atno 17370 bound_to 10713
  157.7116  130.9447  150.1108 LP  0  0  0  0  0  0  0  0  0  0  0  0  # atno 17371 bound_to 10713
  140.1526  134.4830  155.7950 LP  0  0  0  0  0  0  0  0  0  0  0  0  # atno 17394 bound_to 11000
  141.2198  133.6868  156.7405 LP  0  0  0  0  0  0  0  0  0  0  0  0  # atno 17395 bound_to 11000

$$$$
