#       Name:                AV-unprocessed.smi:1104
#       Creating user name   scv26
#       Creation time:       Fri Mar 27 03:31:37 2020


#       File generated by GOLD software.
#

@<TRIPOS>MOLECULE
AV-unprocessed.smi:1104
    51    52     1
SMALL
NO_CHARGES


@<TRIPOS>ATOM
      1 ****        -4.4137  -5.3650   1.9326 C.3            1 S1                 0.0000
      2 ****        -2.9720  -5.1663   2.1002 N.am           1 S1                 0.0000
      3 ****        -2.1465  -6.3768   2.0776 C.3            1 S1                 0.0000
      4 ****        -2.4621  -3.9241   2.2684 C.2            1 S1                 0.0000
      5 ****        -3.1808  -2.9231   2.3148 O.2            1 S1                 0.0000
      6 ****        -0.9369  -3.7657   2.4259 C.3            1 S1                 0.0000
      7 ****        -0.4903  -2.3771   2.3297 N.am           1 S1                 0.0000
      8 ****        -0.2216  -1.7315   1.1855 C.2            1 S1                 0.0000
      9 ****        -0.3035  -2.2561   0.0749 O.2            1 S1                 0.0000
     10 ****         0.1188  -0.4524   1.4177 N.am           1 S1                 0.0000
     11 ****         0.5015   0.5427   0.4787 C.ar           1 S1                 0.0000
     12 ****         1.0395   0.2664  -0.7994 C.ar           1 S1                 0.0000
     13 ****         1.4052   1.3414  -1.6320 C.ar           1 S1                 0.0000
     14 ****         1.2332   2.6668  -1.1684 C.ar           1 S1                 0.0000
     15 ****         1.5980   3.7573  -1.9873 N.3            1 S1                 0.0000
     16 ****         2.9644   3.7277  -2.5034 C.3            1 S1                 0.0000
     17 ****         3.1442   4.7848  -3.6069 C.3            1 S1                 0.0000
     18 ****         2.7650   6.0661  -3.1152 O.3            1 S1                 0.0000
     19 ****         1.3965   6.0989  -2.7241 C.3            1 S1                 0.0000
     20 ****         1.1596   5.0925  -1.5855 C.3            1 S1                 0.0000
     21 ****         0.7213   2.9270   0.0596 N.ar           1 S1                 0.0000
     22 ****         0.3751   1.8940   0.8556 C.ar           1 S1                 0.0000
     23 ****        -4.8176  -4.6869   1.1793 H              1 S1                 0.0000
     24 ****        -4.9325  -5.1756   2.8729 H              1 S1                 0.0000
     25 ****        -4.6630  -6.3767   1.6125 H              1 S1                 0.0000
     26 ****        -1.4393  -6.3932   2.9078 H              1 S1                 0.0000
     27 ****        -1.5848  -6.4349   1.1444 H              1 S1                 0.0000
     28 ****        -2.7421  -7.2863   2.1601 H              1 S1                 0.0000
     29 ****        -0.6455  -4.1448   3.4056 H              1 S1                 0.0000
     30 ****        -0.4109  -4.3677   1.6834 H              1 S1                 0.0000
     31 ****        -0.4075  -1.8659   3.1961 H              1 S1                 0.0000
     32 ****         0.0470  -0.1395   2.3749 H              1 S1                 0.0000
     33 ****         1.1911  -0.7418  -1.1520 H              1 S1                 0.0000
     34 ****         1.8026   1.1371  -2.6149 H              1 S1                 0.0000
     35 ****         3.6540   3.9260  -1.6818 H              1 S1                 0.0000
     36 ****         3.2234   2.7489  -2.9047 H              1 S1                 0.0000
     37 ****         4.1864   4.8213  -3.9242 H              1 S1                 0.0000
     38 ****         2.5523   4.5315  -4.4880 H              1 S1                 0.0000
     39 ****         1.1455   7.1065  -2.3925 H              1 S1                 0.0000
     40 ****         0.7568   5.8766  -3.5798 H              1 S1                 0.0000
     41 ****         0.0997   5.0803  -1.3282 H              1 S1                 0.0000
     42 ****         1.7090   5.4009  -0.6948 H              1 S1                 0.0000
     43 ****        -0.0203   2.1582   1.8257 H              1 S1                 0.0000
     44 ****        -4.1727  -3.0152   2.2270 LP             1 S1                 0.0000
     45 ****        -2.7717  -2.0193   2.4402 LP             1 S1                 0.0000
     46 ****        -0.5828  -3.2128  -0.0068 LP             1 S1                 0.0000
     47 ****        -0.0907  -1.7256  -0.7456 LP             1 S1                 0.0000
     48 ****         1.0082   3.5683  -2.7724 LP             1 S1                 0.0000
     49 ****         2.9125   6.7453  -3.8342 LP             1 S1                 0.0000
     50 ****         3.3333   6.2901  -2.3235 LP             1 S1                 0.0000
     51 ****         0.6021   3.8698   0.3707 LP             1 S1                 0.0000
@<TRIPOS>BOND
    1    1    2 1     
    2    1   23 1     
    3    1   24 1     
    4    1   25 1     
    5    2    3 1     
    6    2    4 am    
    7    3   26 1     
    8    3   27 1     
    9    3   28 1     
   10    4    5 2     
   11    4    6 1     
   12    6    7 1     
   13    6   29 1     
   14    6   30 1     
   15    7    8 am    
   16    7   31 1     
   17    8    9 2     
   18    8   10 am    
   19   10   11 1     
   20   10   32 1     
   21   11   22 ar    
   22   11   12 ar    
   23   12   13 ar    
   24   12   33 1     
   25   13   14 ar    
   26   13   34 1     
   27   14   15 1     
   28   14   21 ar    
   29   15   20 1     
   30   15   16 1     
   31   16   17 1     
   32   16   35 1     
   33   16   36 1     
   34   17   18 1     
   35   17   37 1     
   36   17   38 1     
   37   18   19 1     
   38   19   20 1     
   39   19   39 1     
   40   19   40 1     
   41   20   41 1     
   42   20   42 1     
   43   21   22 ar    
   44   22   43 1     
   45    5   44 1     
   46    5   45 1     
   47    9   46 1     
   48    9   47 1     
   49   15   48 1     
   50   18   49 1     
   51   18   50 1     
   52   21   51 1     
@<TRIPOS>SUBSTRUCTURE
      1 S1             1
@<TRIPOS>SET
LONE_PAIRS      STATIC     ATOMS    <user>   **** ""
8 44 45 46 47 48 49 50 51
DONOR_HYDROGENS      STATIC     ATOMS    <user>   **** ""
2 31 32
ATOM$BLUE        STATIC     ATOMS    COLORGROUP SYSTEM
8 44 45 46 47 48 49 50 51
ATOM$RED        STATIC     ATOMS    COLORGROUP SYSTEM
2 31 32
