AV-unprocessed.smi:218|AV-procd|sdf|1676|dock8
  -GOLD-   2262020103D 1   1.00000     0.00000
 Structure written by MMmdl.
 54 57  0  0  0  0  0  0  0  0  1 V2000
  151.0440  142.7554  158.7407 C   0  0  0  0  0  0  0  0  0  0  0  0
  151.2285  141.3039  158.2814 C   0  0  0  0  0  0  0  0  0  0  0  0
  152.6358  140.7862  158.6262 C   0  0  0  0  0  0  0  0  0  0  0  0
  151.0275  141.2872  156.8666 O   0  0  0  0  0  0  0  0  0  0  0  0
  150.9811  140.0855  156.1861 C   0  0  0  0  0  0  0  0  0  0  0  0
  151.0287  138.8917  156.9348 C   0  0  0  0  0  0  0  0  0  0  0  0
  150.9780  137.6578  156.2550 C   0  0  0  0  0  0  0  0  0  0  0  0
  151.0182  136.3512  157.0211 C   0  0  0  0  0  0  0  0  0  0  0  0
  150.5264  135.2204  156.2458 N   0  0  0  0  0  0  0  0  0  0  0  0
  149.2502  135.2054  155.8056 C   0  0  0  0  0  0  0  0  0  0  0  0
  148.3095  136.0141  156.3594 N   0  0  0  0  0  0  0  0  0  0  0  0
  147.0528  135.9819  155.9066 C   0  0  0  0  0  0  0  0  0  0  0  0
  146.5374  135.2321  154.9303 N   0  0  0  0  0  0  0  0  0  0  0  0
  147.4776  134.4183  154.3682 C   0  0  0  0  0  0  0  0  0  0  0  0
  148.8465  134.3464  154.7508 C   0  0  0  0  0  0  0  0  0  0  0  0
  149.5059  133.4079  153.9685 N   0  0  0  0  0  0  0  0  0  0  0  0
  148.5773  132.9551  153.1700 C   0  0  0  0  0  0  0  0  0  0  0  0
  147.3265  133.5058  153.3413 N   0  0  0  0  0  0  0  0  0  0  0  0
  146.0825  133.1774  152.5699 C   0  0  2  0  0  0  0  0  0  0  0  0
  146.4040  132.3426  151.4954 O   0  0  0  0  0  0  0  0  0  0  0  0
  146.0430  132.9549  150.2569 C   0  0  1  0  0  0  0  0  0  0  0  0
  145.6329  131.8757  149.2431 C   0  0  0  0  0  0  0  0  0  0  0  0
  144.6765  132.3928  148.3431 O   0  0  0  0  0  0  0  0  0  0  0  0
  144.8954  133.8826  150.6598 C   0  0  2  0  0  0  0  0  0  0  0  0
  144.6394  134.9056  149.7167 O   0  0  0  0  0  0  0  0  0  0  0  0
  145.3688  134.4190  152.0026 C   0  0  2  0  0  0  0  0  0  0  0  0
  146.2152  135.5515  151.8697 O   0  0  0  0  0  0  0  0  0  0  0  0
  150.8903  137.6660  154.8480 C   0  0  0  0  0  0  0  0  0  0  0  0
  150.8537  138.9083  154.1865 C   0  0  0  0  0  0  0  0  0  0  0  0
  150.8971  140.0928  154.8324 N   0  0  0  0  0  0  0  0  0  0  0  0
  145.4622  132.6190  153.2721 H   0  0  0  0  0  0  0  0  0  0  0  0
  146.8771  133.5503  149.8818 H   0  0  0  0  0  0  0  0  0  0  0  0
  143.9859  133.2973  150.8051 H   0  0  0  0  0  0  0  0  0  0  0  0
  144.5332  134.6889  152.6492 H   0  0  0  0  0  0  0  0  0  0  0  0
  151.1696  142.8456  159.8199 H   0  0  0  0  0  0  0  0  0  0  0  0
  150.0466  143.1189  158.4921 H   0  0  0  0  0  0  0  0  0  0  0  0
  151.7676  143.4167  158.2630 H   0  0  0  0  0  0  0  0  0  0  0  0
  150.4740  140.7052  158.7939 H   0  0  0  0  0  0  0  0  0  0  0  0
  152.8172  140.8348  159.7000 H   0  0  0  0  0  0  0  0  0  0  0  0
  153.4043  141.3805  158.1314 H   0  0  0  0  0  0  0  0  0  0  0  0
  152.7728  139.7495  158.3199 H   0  0  0  0  0  0  0  0  0  0  0  0
  151.0974  138.9271  158.0123 H   0  0  0  0  0  0  0  0  0  0  0  0
  152.0491  136.1634  157.3238 H   0  0  0  0  0  0  0  0  0  0  0  0
  150.4267  136.4473  157.9328 H   0  0  0  0  0  0  0  0  0  0  0  0
  151.1981  134.4951  156.0395 H   0  0  0  0  0  0  0  0  0  0  0  0
  146.3610  136.6524  156.3950 H   0  0  0  0  0  0  0  0  0  0  0  0
  148.7813  132.1976  152.4270 H   0  0  0  0  0  0  0  0  0  0  0  0
  146.4971  131.4909  148.7012 H   0  0  0  0  0  0  0  0  0  0  0  0
  145.1719  131.0325  149.7583 H   0  0  0  0  0  0  0  0  0  0  0  0
  145.0538  133.1352  147.8962 H   0  0  0  0  0  0  0  0  0  0  0  0
  145.2128  134.7738  148.9765 H   0  0  0  0  0  0  0  0  0  0  0  0
  147.1106  135.2520  151.8280 H   0  0  0  0  0  0  0  0  0  0  0  0
  150.8536  136.7437  154.2866 H   0  0  0  0  0  0  0  0  0  0  0  0
  150.7873  138.9523  153.1094 H   0  0  0  0  0  0  0  0  0  0  0  0
  1  2  1  0  0  0  0
  1 35  1  0  0  0  0
  1 36  1  0  0  0  0
  1 37  1  0  0  0  0
  2  3  1  0  0  0  0
  2  4  1  0  0  0  0
  2 38  1  0  0  0  0
  3 39  1  0  0  0  0
  3 40  1  0  0  0  0
  3 41  1  0  0  0  0
  4  5  1  0  0  0  0
  5 30  1  0  0  0  0
  5  6  2  0  0  0  0
  6  7  1  0  0  0  0
  6 42  1  0  0  0  0
  7  8  1  0  0  0  0
  7 28  2  0  0  0  0
  8  9  1  0  0  0  0
  8 43  1  0  0  0  0
  8 44  1  0  0  0  0
  9 10  1  0  0  0  0
  9 45  1  0  0  0  0
 10 15  1  0  0  0  0
 10 11  2  0  0  0  0
 11 12  1  0  0  0  0
 12 13  2  0  0  0  0
 12 46  1  0  0  0  0
 13 14  1  0  0  0  0
 14 18  1  0  0  0  0
 14 15  2  0  0  0  0
 15 16  1  0  0  0  0
 16 17  2  0  0  0  0
 17 18  1  0  0  0  0
 17 47  1  0  0  0  0
 18 19  1  0  0  0  0
 19 31  1  0  0  0  0
 19 26  1  0  0  0  0
 19 20  1  0  0  0  0
 20 21  1  0  0  0  0
 21 32  1  0  0  0  0
 21 22  1  0  0  0  0
 21 24  1  0  0  0  0
 22 23  1  0  0  0  0
 22 48  1  0  0  0  0
 22 49  1  0  0  0  0
 23 50  1  0  0  0  0
 24 33  1  0  0  0  0
 24 25  1  0  0  0  0
 24 26  1  0  0  0  0
 25 51  1  0  0  0  0
 26 34  1  0  0  0  0
 26 27  1  0  0  0  0
 27 52  1  0  0  0  0
 28 29  1  0  0  0  0
 28 53  1  0  0  0  0
 29 30  2  0  0  0  0
 29 54  1  0  0  0  0
M  END
> <s_m_source_file>
AV-unprocessed.smi

> <i_m_source_file_index>
218

> <i_lp_mmshare_version>
43012

> <i_f3d_flags>
0

> <s_epik_input>
W0NIM11bQ0hdKFtDSDNdKU9jMVtjSF1jKFtjSF1bY0hdbjEpW0NIMl1bTkhdYyhuW2NIXW4yKWMoYzIzKW5bY0hdbjNbQ0BASF00T1tDQEhdKFtDSDJdW09IXSlbQ0BASF0oW09IXSlbQ0BIXTRbT0hd

> <s_epik_cmdline>
J2VwaWtfcHl0aG9uJywgJy1waCcsICc3LjAnLCAnLXRuJywgJzgnLCAnLW1hJywgJzIwMCcsICctbWV0YWxfYmluZGluZycsICctaW1hZScsICc8aW5maWxlLm1hZT4nLCAnLW9tYWUnLCAnPG91dGZpbGUubWFlPic=

> <r_lp_tautomer_probability>
1

> <r_epik_Ionization_Penalty>
0.00457014

> <r_epik_Ionization_Penalty_Charging>
0

> <r_epik_Ionization_Penalty_Neutral>
0.00457014

> <r_epik_State_Penalty>
-0

> <r_epik_Charging_Adjusted_Penalty>
0

> <i_epik_Tot_Q>
0

> <i_epik_Tot_abs_Q>
0

> <r_epik_Metal_State_Penalty>
-0

> <b_epik_Metal_Only>
0

> <s_epik_Chemistry_Notes>
This compound contains an acetal/aminal-like group ( X-CH(R)-Y where X, Y are N, S, or O) that may be acid/base labile, releasing an aldehyde.

> <s_lp_Force_Field>
OPLS_2005

> <r_lp_Energy>
48.139

> <b_lp_Chiralities_Consistent>
1

> <s_lp_Variant>
AV-unprocessed.smi:218-15

> <Gold.Version>
5.8.1

> <Gold.Id.Protein>
6NUR|6NUR_protein|mol2

> <Gold.PLP.Fitness>
56.7893

> <Gold.PLP.PLP>
-42.0605

> <Gold.PLP.part.hbond>
-5.1142

> <Gold.PLP.part.metal>
0.0000

> <Gold.PLP.part.buried>
-8.6183

> <Gold.PLP.part.nonpolar>
-28.5092

> <Gold.PLP.part.repulsive>
0.5978

> <Gold.PLP.ligand.clash>
0.0000

> <Gold.PLP.ligand.torsion>
0.8511

> <Gold.PLP.Chemscore.Hbond>
3.4220

> <Gold.PLP.Chemscore.CHOScore>
2.0000

> <Gold.PLP.Chemscore.Metal>
0.0000

> <Gold.Chemscore.Hbonds>
donor molecule, donor type, donor heavy atom, donor atom, acceptor molecule, acceptor atom, score
      L1  H    23    50       P1  7921  1.00
      L1  H    25    51       P1  7921  1.00
      L1  H    27    52       P1  7948  0.66
      P1  H  7989  7998       L1    30  0.60
      L1  C    17    47       P1 10747  1.00
      L1  C    29    54       P1  7957  1.00

> <Gold.PLP.Chemscore.Internal.Correction>
0.1650

> <Gold.Rescore>
     Score         DG    S(hbond)    S(metal)    S(lipo)     H(rot)  DE(clash)    DE(int)     intcor
      9.77     -11.69       2.73        0.00      82.31       4.90       0.07       1.85       ----

> <Gold.Chemscore.Fitness>
9.7661

> <Gold.Chemscore.DG>
-11.6855

> <Gold.Chemscore.ZeroCoef>
-5.4800

> <Gold.Chemscore.Hbond>
2.7325

> <Gold.Chemscore.Metal>
0.0000

> <Gold.Chemscore.Lipo>
82.3112

> <Gold.Chemscore.Internal_Hbond>
0.0000

> <Gold.Chemscore.DEClash>
0.0650

> <Gold.Chemscore.DEInternal>
1.8543

> <Gold.Chemscore.Rot>
4.9029

> <Gold.Chemscore.Internal.Correction>
   9.000000E+99

> <Gold.Chemscore.Hbonds>
donor molecule, donor type, donor heavy atom, donor atom, acceptor molecule, acceptor atom, score
      L1  H    23    50       P1  7921  0.25
      L1  H    25    51       P1  7921  0.99
      L1  H    27    52       P1  7948  0.61
      P1  H  7989  7998       L1    30  0.04

> <Gold.Chemscore.Hbond.Weighted>
-9.1266

> <Gold.Chemscore.Metal.Weighted>
-0.0000

> <Gold.Chemscore.Lipo.Weighted>
-9.6304

> <Gold.Chemscore.Internal_Hbond.Weighted>
0.0000

> <Gold.Chemscore.DEClash.Weighted>
0.0650

> <Gold.Chemscore.DEInternal.Weighted>
1.8543

> <Gold.Chemscore.Rot.Weighted>
12.5515

> <Gold.Chemscore.Internal.Correction.Weighted>
   9.000000E+99

> <Gold.Protein.RotatedTorsions>
[ 6907 6896 6895 6894 ] final  -36.23 input  -60.11 | X-H torsion
[ 7974 7965 7964 7962 ] final  -21.28 input  175.53 | X-H torsion
[ 8008 7997 7996 7995 ] final    0.67 input   59.86 | X-H torsion
[ 10167 10162 10161 10158 ] final    9.00 input  -65.29 | X-H torsion
[ 10718 10713 10712 10709 ] final   75.46 input   66.30 | X-H torsion
[ 10763 10752 10751 10750 ] final -175.31 input  -60.55 | X-H torsion
[ 11005 11000 10999 10996 ] final  -54.26 input  -57.11 | X-H torsion

> <Gold.Protein.ActiveResidues>
 VAL166  LYS551  ARG553  GLY616  TRP617  ASP618  TYR619  PRO620  LYS621  CYS622 
 ASP623  PHE694  ASN695  SER759  ASP760  ASP761  ALA762  ILE779  LEU786  VAL792 
 PHE793  MET794  SER795  GLU796  ALA797  LYS798  CYS799  TRP800  GLU811  SER814 

> <Gold.Protein.RotatedAtoms>
  151.0298  134.9531  159.8104 H   0  0  0  0  0  0  0  0  0  0  0  0  # atno 6907 bound_to 6896
  152.5343  134.2795  159.9012 H   0  0  0  0  0  0  0  0  0  0  0  0  # atno 6908 bound_to 6896
  151.2804  133.4170  159.2660 H   0  0  0  0  0  0  0  0  0  0  0  0  # atno 6909 bound_to 6896
  146.1742  140.4319  142.8520 H   0  0  0  0  0  0  0  0  0  0  0  0  # atno 7974 bound_to 7965
  154.6708  140.2611  155.7009 H   0  0  0  0  0  0  0  0  0  0  0  0  # atno 8008 bound_to 7997
  156.2658  140.2830  156.1138 H   0  0  0  0  0  0  0  0  0  0  0  0  # atno 8009 bound_to 7997
  155.1171  140.0376  157.2730 H   0  0  0  0  0  0  0  0  0  0  0  0  # atno 8010 bound_to 7997
  140.6281  143.8056  150.7259 H   0  0  0  0  0  0  0  0  0  0  0  0  # atno 10167 bound_to 10162
  157.6635  130.9727  150.1357 H   0  0  0  0  0  0  0  0  0  0  0  0  # atno 10718 bound_to 10713
  154.5859  135.2840  155.0685 H   0  0  0  0  0  0  0  0  0  0  0  0  # atno 10763 bound_to 10752
  154.2003  135.6425  153.5089 H   0  0  0  0  0  0  0  0  0  0  0  0  # atno 10764 bound_to 10752
  153.0104  135.5467  154.6529 H   0  0  0  0  0  0  0  0  0  0  0  0  # atno 10765 bound_to 10752
  141.1017  133.6617  156.4295 H   0  0  0  0  0  0  0  0  0  0  0  0  # atno 11005 bound_to 11000
  144.8209  140.6549  143.6353 LP  0  0  0  0  0  0  0  0  0  0  0  0  # atno 17320 bound_to 7965
  145.4258  139.1556  143.4049 LP  0  0  0  0  0  0  0  0  0  0  0  0  # atno 17321 bound_to 7965
  140.1661  143.4234  152.2033 LP  0  0  0  0  0  0  0  0  0  0  0  0  # atno 17342 bound_to 10162
  139.5498  144.7328  151.4469 LP  0  0  0  0  0  0  0  0  0  0  0  0  # atno 17343 bound_to 10162
  156.2192  130.3672  149.8576 LP  0  0  0  0  0  0  0  0  0  0  0  0  # atno 17370 bound_to 10713
  156.6434  130.8714  151.3518 LP  0  0  0  0  0  0  0  0  0  0  0  0  # atno 17371 bound_to 10713
  140.5005  134.6490  157.5246 LP  0  0  0  0  0  0  0  0  0  0  0  0  # atno 17394 bound_to 11000
  139.9871  134.7044  155.9754 LP  0  0  0  0  0  0  0  0  0  0  0  0  # atno 17395 bound_to 11000

$$$$
