#       Name:                AV-unprocessed.smi:2528
#       Creating user name   scv26
#       Creation time:       Fri Mar 27 13:59:22 2020


#       File generated by GOLD software.
#

@<TRIPOS>MOLECULE
AV-unprocessed.smi:2528
    49    51     1
SMALL
NO_CHARGES


@<TRIPOS>ATOM
      1 ****        -1.6157   1.1045   1.5509 O.2            1 S1                 0.0000
      2 ****        -2.0696  -0.0399   1.5365 C.2            1 S1                 0.0000
      3 ****        -1.3005  -1.1381   1.5094 N.am           1 S1                 0.0000
      4 ****         0.1584  -1.1398   1.4977 C.3            1 S1                 0.0000
      5 ****         0.7196  -1.0965   0.0653 C.3            1 S1                 0.0000
      6 ****         2.2485  -1.2779   0.0485 C.3            1 S1                 0.0000
      7 ****         2.7745  -1.1632  -1.3343 N.4            1 S1                 1.0000
      8 ****         4.2405  -1.3840  -1.4401 C.3            1 S1                 0.0000
      9 ****         5.0503  -0.1768  -0.9290 C.3            1 S1                 0.0000
     10 ****         4.6198   1.1157  -1.6356 C.3            1 S1                 0.0000
     11 ****         3.1041   1.3201  -1.5014 C.3            1 S1                 0.0000
     12 ****         2.3291   0.0856  -2.0123 C.3            1 S1                 0.0000
     13 ****         0.8023   0.2461  -1.8805 C.3            1 S1                 0.0000
     14 ****         0.4164   0.1682  -0.5144 O.3            1 S1                 0.0000
     15 ****        -3.3754  -0.3602   1.5419 N.am           1 S1                 0.0000
     16 ****        -4.4933   0.5153   1.5772 C.ar           1 S1                 0.0000
     17 ****        -5.7541  -0.1236   1.5760 C.ar           1 S1                 0.0000
     18 ****        -6.9261   0.6564   1.6126 C.ar           1 S1                 0.0000
     19 ****        -6.8070   2.0572   1.6482 C.ar           1 S1                 0.0000
     20 ****        -5.5145   2.6133   1.6460 C.ar           1 S1                 0.0000
     21 ****        -4.3899   1.8676   1.6112 N.ar           1 S1                 0.0000
     22 ****        -1.7568  -2.0386   1.5018 H              1 S1                 0.0000
     23 ****         0.5537  -0.3150   2.0933 H              1 S1                 0.0000
     24 ****         0.4837  -2.0563   1.9906 H              1 S1                 0.0000
     25 ****         0.2517  -1.8897  -0.5215 H              1 S1                 0.0000
     26 ****         2.7154  -0.5356   0.6960 H              1 S1                 0.0000
     27 ****         2.5092  -2.2572   0.4518 H              1 S1                 0.0000
     28 ****         4.5216  -2.2894  -0.9007 H              1 S1                 0.0000
     29 ****         4.4831  -1.5638  -2.4881 H              1 S1                 0.0000
     30 ****         4.9235  -0.0672   0.1483 H              1 S1                 0.0000
     31 ****         6.1144  -0.3496  -1.0925 H              1 S1                 0.0000
     32 ****         5.1536   1.9695  -1.2171 H              1 S1                 0.0000
     33 ****         4.8914   1.0655  -2.6908 H              1 S1                 0.0000
     34 ****         2.8519   1.5252  -0.4604 H              1 S1                 0.0000
     35 ****         2.8056   2.2049  -2.0646 H              1 S1                 0.0000
     36 ****         2.5564  -0.0265  -3.0735 H              1 S1                 0.0000
     37 ****         0.4826   1.2059  -2.2874 H              1 S1                 0.0000
     38 ****         0.2828  -0.5237  -2.4535 H              1 S1                 0.0000
     39 ****        -3.5967  -1.3446   1.5261 H              1 S1                 0.0000
     40 ****        -5.8279  -1.2011   1.5481 H              1 S1                 0.0000
     41 ****        -7.8990   0.1872   1.6129 H              1 S1                 0.0000
     42 ****        -7.6824   2.6889   1.6772 H              1 S1                 0.0000
     43 ****        -5.3791   3.6844   1.6731 H              1 S1                 0.0000
     44 ****         2.3432  -1.9219  -1.8430 H              1 S1                 0.0000
     45 ****        -0.6264   1.2501   1.5425 LP             1 S1                 0.0000
     46 ****        -2.2363   1.8883   1.5710 LP             1 S1                 0.0000
     47 ****         0.8992   0.8794  -0.0035 LP             1 S1                 0.0000
     48 ****        -0.5695   0.3226  -0.4501 LP             1 S1                 0.0000
     49 ****        -3.4914   2.3066   1.6105 LP             1 S1                 0.0000
@<TRIPOS>BOND
    1    1    2 2     
    2    2    3 am    
    3    2   15 am    
    4    3    4 1     
    5    3   22 1     
    6    4    5 1     
    7    4   23 1     
    8    4   24 1     
    9    5   14 1     
   10    5    6 1     
   11    5   25 1     
   12    6    7 1     
   13    6   26 1     
   14    6   27 1     
   15    7   12 1     
   16    7    8 1     
   17    7   44 1     
   18    8    9 1     
   19    8   28 1     
   20    8   29 1     
   21    9   10 1     
   22    9   30 1     
   23    9   31 1     
   24   10   11 1     
   25   10   32 1     
   26   10   33 1     
   27   11   12 1     
   28   11   34 1     
   29   11   35 1     
   30   12   13 1     
   31   12   36 1     
   32   13   14 1     
   33   13   37 1     
   34   13   38 1     
   35   15   16 1     
   36   15   39 1     
   37   16   21 ar    
   38   16   17 ar    
   39   17   18 ar    
   40   17   40 1     
   41   18   19 ar    
   42   18   41 1     
   43   19   20 ar    
   44   19   42 1     
   45   20   21 ar    
   46   20   43 1     
   47    1   45 1     
   48    1   46 1     
   49   14   47 1     
   50   14   48 1     
   51   21   49 1     
@<TRIPOS>SUBSTRUCTURE
      1 S1             1
@<TRIPOS>SET
LONE_PAIRS      STATIC     ATOMS    <user>   **** ""
5 45 46 47 48 49
DONOR_HYDROGENS      STATIC     ATOMS    <user>   **** ""
3 22 44 39
ATOM$BLUE        STATIC     ATOMS    COLORGROUP SYSTEM
5 45 46 47 48 49
ATOM$RED        STATIC     ATOMS    COLORGROUP SYSTEM
3 22 44 39
