AV-unprocessed.smi:148|AV-procd|sdf|1217|dock1
  -GOLD-   2262018403D 1   1.00000     0.00000
 Structure written by MMmdl.
 63 67  0  0  0  0  0  0  0  0  1 V2000
  147.4521  135.5926  154.9098 O   0  0  0  0  0  0  0  0  0  0  0  0
  147.8942  135.2952  156.2177 C   0  0  0  0  0  0  0  0  0  0  0  0
  149.2092  134.4786  156.2136 C   0  0  1  0  0  0  0  0  0  0  0  0
  149.9392  134.6112  157.5772 C   0  0  0  0  0  0  0  0  0  0  0  0
  150.1785  135.9855  157.9985 N   0  0  0  0  0  0  0  0  0  0  0  0
  149.3412  136.7677  158.7644 C   0  0  0  0  0  0  0  0  0  0  0  0
  149.7748  137.9720  159.0182 N   0  0  0  0  0  0  0  0  0  0  0  0
  150.9951  138.0323  158.3600 C   0  0  0  0  0  0  0  0  0  0  0  0
  151.9837  139.0395  158.2117 C   0  0  0  0  0  0  0  0  0  0  0  0
  151.8595  140.2531  158.7986 N   0  0  0  0  0  0  0  0  0  0  0  0
  153.0760  140.5512  159.5545 C   0  0  0  0  0  0  0  0  0  0  0  0
  152.9070  141.8039  160.4214 C   0  0  0  0  0  0  0  0  0  0  0  0
  152.4815  142.9896  159.5519 C   0  0  0  0  0  0  0  0  0  0  0  0
  151.1907  142.6463  158.7975 C   0  0  0  0  0  0  0  0  0  0  0  0
  151.3281  141.3459  157.9611 C   0  0  2  0  0  0  0  0  0  0  0  0
  150.0061  140.9477  157.2305 C   0  0  1  0  0  0  0  0  0  0  0  0
  148.7369  141.7033  157.6698 C   0  0  0  0  0  0  0  0  0  0  0  0
  147.7960  141.7138  156.4536 C   0  0  0  0  0  0  0  0  0  0  0  0
  148.5253  140.9587  155.3374 C   0  0  0  0  0  0  0  0  0  0  0  0
  150.0054  141.0746  155.6999 C   0  0  2  0  0  0  0  0  0  0  0  0
  150.7692  140.0620  155.0781 O   0  0  0  0  0  0  0  0  0  0  0  0
  153.0890  138.7447  157.4773 N   0  0  0  0  0  0  0  0  0  0  0  0
  153.2077  137.5418  156.9076 C   0  0  0  0  0  0  0  0  0  0  0  0
  152.3628  136.5093  156.9540 N   0  0  0  0  0  0  0  0  0  0  0  0
  151.2612  136.7982  157.7043 C   0  0  0  0  0  0  0  0  0  0  0  0
  148.9932  132.9930  155.8118 C   0  0  2  0  0  0  0  0  0  0  0  0
  148.4200  132.7962  154.4172 C   0  0  0  0  0  0  0  0  0  0  0  0
  147.9255  131.3544  154.4653 C   0  0  0  0  0  0  0  0  0  0  0  0
  147.5575  131.1180  155.8196 O   0  0  0  0  0  0  0  0  0  0  0  0
  147.9466  132.2248  156.6254 C   0  0  0  0  0  0  0  0  0  0  0  0
  148.1783  135.4859  154.3144 H   0  0  0  0  0  0  0  0  0  0  0  0
  148.0445  136.2513  156.7191 H   0  0  0  0  0  0  0  0  0  0  0  0
  147.1066  134.7698  156.7590 H   0  0  0  0  0  0  0  0  0  0  0  0
  149.8693  134.9310  155.4718 H   0  0  0  0  0  0  0  0  0  0  0  0
  149.3897  134.0961  158.3650 H   0  0  0  0  0  0  0  0  0  0  0  0
  150.9057  134.1088  157.5216 H   0  0  0  0  0  0  0  0  0  0  0  0
  148.3923  136.4128  159.1390 H   0  0  0  0  0  0  0  0  0  0  0  0
  153.3375  139.7046  160.1919 H   0  0  0  0  0  0  0  0  0  0  0  0
  153.9059  140.6938  158.8605 H   0  0  0  0  0  0  0  0  0  0  0  0
  152.1581  141.6212  161.1933 H   0  0  0  0  0  0  0  0  0  0  0  0
  153.8403  142.0303  160.9370 H   0  0  0  0  0  0  0  0  0  0  0  0
  152.3323  143.8756  160.1696 H   0  0  0  0  0  0  0  0  0  0  0  0
  153.2731  143.2318  158.8416 H   0  0  0  0  0  0  0  0  0  0  0  0
  150.3814  142.5546  159.5208 H   0  0  0  0  0  0  0  0  0  0  0  0
  150.9394  143.4909  158.1577 H   0  0  0  0  0  0  0  0  0  0  0  0
  152.0764  141.5457  157.1926 H   0  0  0  0  0  0  0  0  0  0  0  0
  149.8101  139.8928  157.4288 H   0  0  0  0  0  0  0  0  0  0  0  0
  148.2721  141.2181  158.5286 H   0  0  0  0  0  0  0  0  0  0  0  0
  148.9545  142.7281  157.9666 H   0  0  0  0  0  0  0  0  0  0  0  0
  146.8317  141.2575  156.6797 H   0  0  0  0  0  0  0  0  0  0  0  0
  147.6054  142.7427  156.1458 H   0  0  0  0  0  0  0  0  0  0  0  0
  148.2178  139.9118  155.3518 H   0  0  0  0  0  0  0  0  0  0  0  0
  148.3024  141.3548  154.3461 H   0  0  0  0  0  0  0  0  0  0  0  0
  150.3643  142.0510  155.3775 H   0  0  0  0  0  0  0  0  0  0  0  0
  150.2368  139.2845  155.0076 H   0  0  0  0  0  0  0  0  0  0  0  0
  154.1084  137.3828  156.3334 H   0  0  0  0  0  0  0  0  0  0  0  0
  149.9370  132.4512  155.8859 H   0  0  0  0  0  0  0  0  0  0  0  0
  147.5785  133.4715  154.2549 H   0  0  0  0  0  0  0  0  0  0  0  0
  149.1382  132.9589  153.6153 H   0  0  0  0  0  0  0  0  0  0  0  0
  147.0898  131.1791  153.7876 H   0  0  0  0  0  0  0  0  0  0  0  0
  148.7290  130.6667  154.1989 H   0  0  0  0  0  0  0  0  0  0  0  0
  148.3276  131.8878  157.5897 H   0  0  0  0  0  0  0  0  0  0  0  0
  147.0650  132.8423  156.8037 H   0  0  0  0  0  0  0  0  0  0  0  0
  1  2  1  0  0  0  0
  1 31  1  0  0  0  0
  2  3  1  0  0  0  0
  2 32  1  0  0  0  0
  2 33  1  0  0  0  0
  3  4  1  0  0  0  0
  3 26  1  0  0  0  0
  3 34  1  0  0  0  0
  4  5  1  0  0  0  0
  4 35  1  0  0  0  0
  4 36  1  0  0  0  0
  5 25  1  0  0  0  0
  5  6  1  0  0  0  0
  6  7  2  0  0  0  0
  6 37  1  0  0  0  0
  7  8  1  0  0  0  0
  8 25  2  0  0  0  0
  8  9  1  0  0  0  0
  9 10  1  0  0  0  0
  9 22  2  0  0  0  0
 10 15  1  0  0  0  0
 10 11  1  0  0  0  0
 11 12  1  0  0  0  0
 11 38  1  0  0  0  0
 11 39  1  0  0  0  0
 12 13  1  0  0  0  0
 12 40  1  0  0  0  0
 12 41  1  0  0  0  0
 13 14  1  0  0  0  0
 13 42  1  0  0  0  0
 13 43  1  0  0  0  0
 14 15  1  0  0  0  0
 14 44  1  0  0  0  0
 14 45  1  0  0  0  0
 15 16  1  0  0  0  0
 15 46  1  0  0  0  0
 16 20  1  0  0  0  0
 16 17  1  0  0  0  0
 16 47  1  0  0  0  0
 17 18  1  0  0  0  0
 17 48  1  0  0  0  0
 17 49  1  0  0  0  0
 18 19  1  0  0  0  0
 18 50  1  0  0  0  0
 18 51  1  0  0  0  0
 19 20  1  0  0  0  0
 19 52  1  0  0  0  0
 19 53  1  0  0  0  0
 20 21  1  0  0  0  0
 20 54  1  0  0  0  0
 21 55  1  0  0  0  0
 22 23  1  0  0  0  0
 23 24  2  0  0  0  0
 23 56  1  0  0  0  0
 24 25  1  0  0  0  0
 26 30  1  0  0  0  0
 26 27  1  0  0  0  0
 26 57  1  0  0  0  0
 27 28  1  0  0  0  0
 27 58  1  0  0  0  0
 27 59  1  0  0  0  0
 28 29  1  0  0  0  0
 28 60  1  0  0  0  0
 28 61  1  0  0  0  0
 29 30  1  0  0  0  0
 30 62  1  0  0  0  0
 30 63  1  0  0  0  0
M  END
> <s_m_source_file>
AV-unprocessed.smi

> <i_m_source_file_index>
148

> <i_lp_mmshare_version>
43012

> <i_f3d_flags>
0

> <s_epik_input>
W0NIMl0xT1tDSDJdW0NIMl1bQ0BIXTFbQ0BIXShbQ0gyXVtPSF0pW0NIMl1uKFtjSF1uMiljKGMyMyluW2NIXW5jM040W0NIMl1bQ0gyXVtDSDJdW0NIMl1bQ0BIXTRbQ0BASF01W0NIMl1bQ0gyXVtDSDJdW0NASF01W09IXQ==

> <s_epik_cmdline>
J2VwaWtfcHl0aG9uJywgJy1waCcsICc3LjAnLCAnLXRuJywgJzgnLCAnLW1hJywgJzIwMCcsICctbWV0YWxfYmluZGluZycsICctaW1hZScsICc8aW5maWxlLm1hZT4nLCAnLW9tYWUnLCAnPG91dGZpbGUubWFlPic=

> <r_lp_tautomer_probability>
1

> <r_epik_Ionization_Penalty>
0.00556303

> <r_epik_Ionization_Penalty_Charging>
0

> <r_epik_Ionization_Penalty_Neutral>
0.00556303

> <r_epik_State_Penalty>
0.00401767

> <r_epik_Charging_Adjusted_Penalty>
0.00401767

> <i_epik_Tot_Q>
0

> <i_epik_Tot_abs_Q>
0

> <r_epik_Metal_State_Penalty>
-0

> <b_epik_Metal_Only>
0

> <s_lp_Force_Field>
OPLS_2005

> <r_lp_Energy>
67.8341

> <b_lp_Chiralities_Consistent>
1

> <s_lp_Variant>
AV-unprocessed.smi:148-16

> <Gold.Version>
5.8.1

> <Gold.Id.Protein>
6NUR|6NUR_protein|mol2

> <Gold.PLP.Fitness>
49.6192

> <Gold.PLP.PLP>
-42.2373

> <Gold.PLP.part.hbond>
-4.0000

> <Gold.PLP.part.metal>
0.0000

> <Gold.PLP.part.buried>
-4.2922

> <Gold.PLP.part.nonpolar>
-33.9940

> <Gold.PLP.part.repulsive>
0.0294

> <Gold.PLP.ligand.clash>
0.0029

> <Gold.PLP.ligand.torsion>
2.4188

> <Gold.PLP.Chemscore.Hbond>
3.8960

> <Gold.PLP.Chemscore.CHOScore>
0.0000

> <Gold.PLP.Chemscore.Metal>
0.0000

> <Gold.Chemscore.Hbonds>
donor molecule, donor type, donor heavy atom, donor atom, acceptor molecule, acceptor atom, score
      P1  H  7989  7998       L1    21  1.00
      P1  H  7997  8009       L1    22  1.00
      P1  H 10752 10763       L1    24  0.17

> <Gold.PLP.Chemscore.Internal.Correction>
0.5345

> <Gold.Rescore>
     Score         DG    S(hbond)    S(metal)    S(lipo)     H(rot)  DE(clash)    DE(int)     intcor
     17.68     -20.36       3.41        0.00     102.40       3.32       0.06       2.62       ----

> <Gold.Chemscore.Fitness>
17.6842

> <Gold.Chemscore.DG>
-20.3641

> <Gold.Chemscore.ZeroCoef>
-5.4800

> <Gold.Chemscore.Hbond>
3.4142

> <Gold.Chemscore.Metal>
0.0000

> <Gold.Chemscore.Lipo>
102.3987

> <Gold.Chemscore.Internal_Hbond>
0.0000

> <Gold.Chemscore.DEClash>
0.0609

> <Gold.Chemscore.DEInternal>
2.6191

> <Gold.Chemscore.Rot>
3.3203

> <Gold.Chemscore.Internal.Correction>
   9.000000E+99

> <Gold.Chemscore.Hbonds>
donor molecule, donor type, donor heavy atom, donor atom, acceptor molecule, acceptor atom, score
      P1  H  7989  7998       L1    21  0.58
      P1  H  7997  8009       L1    22  0.81
      P1  H 10752 10763       L1    24  0.03

> <Gold.Chemscore.Hbond.Weighted>
-11.4035

> <Gold.Chemscore.Metal.Weighted>
-0.0000

> <Gold.Chemscore.Lipo.Weighted>
-11.9806

> <Gold.Chemscore.Internal_Hbond.Weighted>
0.0000

> <Gold.Chemscore.DEClash.Weighted>
0.0609

> <Gold.Chemscore.DEInternal.Weighted>
2.6191

> <Gold.Chemscore.Rot.Weighted>
8.5000

> <Gold.Chemscore.Internal.Correction.Weighted>
   9.000000E+99

> <Gold.Protein.RotatedTorsions>
[ 6907 6896 6895 6894 ] final   70.11 input  -60.11 | X-H torsion
[ 7974 7965 7964 7962 ] final   83.40 input  175.53 | X-H torsion
[ 8008 7997 7996 7995 ] final  156.98 input   59.86 | X-H torsion
[ 10167 10162 10161 10158 ] final  -36.85 input  -65.29 | X-H torsion
[ 10718 10713 10712 10709 ] final  -52.45 input   66.30 | X-H torsion
[ 10763 10752 10751 10750 ] final   81.71 input  -60.55 | X-H torsion
[ 11005 11000 10999 10996 ] final  -58.24 input  -57.11 | X-H torsion

> <Gold.Protein.ActiveResidues>
 VAL166  LYS551  ARG553  GLY616  TRP617  ASP618  TYR619  PRO620  LYS621  CYS622 
 ASP623  PHE694  ASN695  SER759  ASP760  ASP761  ALA762  ILE779  LEU786  VAL792 
 PHE793  MET794  SER795  GLU796  ALA797  LYS798  CYS799  TRP800  GLU811  SER814 

> <Gold.Protein.RotatedAtoms>
  152.4728  134.4917  159.9697 H   0  0  0  0  0  0  0  0  0  0  0  0  # atno 6907 bound_to 6896
  151.4940  133.3513  159.2866 H   0  0  0  0  0  0  0  0  0  0  0  0  # atno 6908 bound_to 6896
  150.8749  134.8157  159.7243 H   0  0  0  0  0  0  0  0  0  0  0  0  # atno 6909 bound_to 6896
  145.6125  139.2371  143.2184 H   0  0  0  0  0  0  0  0  0  0  0  0  # atno 7974 bound_to 7965
  156.2391  140.1898  156.7038 H   0  0  0  0  0  0  0  0  0  0  0  0  # atno 8008 bound_to 7997
  154.6162  140.0615  156.9584 H   0  0  0  0  0  0  0  0  0  0  0  0  # atno 8009 bound_to 7997
  155.1935  140.3286  155.4357 H   0  0  0  0  0  0  0  0  0  0  0  0  # atno 8010 bound_to 7997
  140.7133  143.3381  151.2418 H   0  0  0  0  0  0  0  0  0  0  0  0  # atno 10167 bound_to 10162
  156.1620  130.4149  149.9778 H   0  0  0  0  0  0  0  0  0  0  0  0  # atno 10718 bound_to 10713
  153.1140  135.4755  154.9083 H   0  0  0  0  0  0  0  0  0  0  0  0  # atno 10763 bound_to 10752
  154.7509  135.3106  154.8561 H   0  0  0  0  0  0  0  0  0  0  0  0  # atno 10764 bound_to 10752
  153.9143  135.6862  153.4803 H   0  0  0  0  0  0  0  0  0  0  0  0  # atno 10765 bound_to 10752
  141.1199  133.6612  156.4890 H   0  0  0  0  0  0  0  0  0  0  0  0  # atno 11005 bound_to 11000
  146.1494  140.6947  142.9329 LP  0  0  0  0  0  0  0  0  0  0  0  0  # atno 17320 bound_to 7965
  144.7264  140.4538  143.6970 LP  0  0  0  0  0  0  0  0  0  0  0  0  # atno 17321 bound_to 7965
  139.6881  143.9739  152.2845 LP  0  0  0  0  0  0  0  0  0  0  0  0  # atno 17342 bound_to 10162
  139.9391  144.6693  150.8284 LP  0  0  0  0  0  0  0  0  0  0  0  0  # atno 17343 bound_to 10162
  156.7604  130.9149  151.3641 LP  0  0  0  0  0  0  0  0  0  0  0  0  # atno 17370 bound_to 10713
  157.6740  130.9077  150.0106 LP  0  0  0  0  0  0  0  0  0  0  0  0  # atno 17371 bound_to 10713
  140.4539  134.6904  157.5053 LP  0  0  0  0  0  0  0  0  0  0  0  0  # atno 17394 bound_to 11000
  140.0148  134.6636  155.9327 LP  0  0  0  0  0  0  0  0  0  0  0  0  # atno 17395 bound_to 11000

$$$$
