AV-unprocessed.smi:3226|AV-procd|sdf|12315|dock6
  -GOLD-   2272018163D 1   1.00000     0.00000
 Structure written by MMmdl.
 41 43  0  0  0  0  0  0  0  0  2 V2000
  150.5782  136.3362  155.9284 C   0  0  0  0  0  0  0  0  0  0  0  0
  151.0568  137.0889  154.6817 C   0  0  0  0  0  0  0  0  0  0  0  0
  151.9247  138.2629  155.0159 C   0  0  0  0  0  0  0  0  0  0  0  0
  153.2055  138.3603  154.6399 N   0  0  0  0  0  0  0  0  0  0  0  0
  153.6404  139.5839  155.1079 N   0  0  0  0  0  0  0  0  0  0  0  0
  152.5759  140.1086  155.7118 C   0  0  0  0  0  0  0  0  0  0  0  0
  151.4763  139.3391  155.6967 N   0  0  0  0  0  0  0  0  0  0  0  0
  150.1694  139.6246  156.2649 C   0  0  0  0  0  0  0  0  0  0  0  0
  149.5652  140.9276  155.7164 C   0  0  0  0  0  0  0  0  0  0  0  0
  150.2520  142.1185  156.2560 N   0  3  0  0  0  0  0  0  0  0  0  0
  150.3130  142.1604  157.7298 C   0  0  0  0  0  0  0  0  0  0  0  0
  150.5425  143.5960  158.2387 C   0  0  2  0  0  0  0  0  0  0  0  0
  151.7286  144.3294  157.5403 C   0  0  0  0  0  0  0  0  0  0  0  0
  152.5852  144.8187  158.7311 C   0  0  2  0  0  0  0  0  0  0  0  0
  153.1889  143.6000  159.3954 C   0  0  0  0  0  0  0  0  0  0  0  0
  152.1966  142.9457  160.0005 C   0  0  0  0  0  0  0  0  0  0  0  0
  150.9202  143.7208  159.7404 C   0  0  1  0  0  0  0  0  0  0  0  0
  151.4784  145.1491  159.7377 C   0  0  0  0  0  0  0  0  0  0  0  0
  149.9494  135.4893  155.6534 H   0  0  0  0  0  0  0  0  0  0  0  0
  149.9945  136.9865  156.5809 H   0  0  0  0  0  0  0  0  0  0  0  0
  151.4202  135.9523  156.5049 H   0  0  0  0  0  0  0  0  0  0  0  0
  151.5921  136.4111  154.0174 H   0  0  0  0  0  0  0  0  0  0  0  0
  150.1936  137.4453  154.1183 H   0  0  0  0  0  0  0  0  0  0  0  0
  152.6005  141.0806  156.1823 H   0  0  0  0  0  0  0  0  0  0  0  0
  149.5070  138.7817  156.0625 H   0  0  0  0  0  0  0  0  0  0  0  0
  150.2675  139.6841  157.3492 H   0  0  0  0  0  0  0  0  0  0  0  0
  149.6518  140.9346  154.6291 H   0  0  0  0  0  0  0  0  0  0  0  0
  148.5015  140.9836  155.9509 H   0  0  0  0  0  0  0  0  0  0  0  0
  151.1954  142.1382  155.8953 H   0  0  0  0  0  0  0  0  0  0  0  0
  149.3968  141.7399  158.1458 H   0  0  0  0  0  0  0  0  0  0  0  0
  151.1317  141.5215  158.0638 H   0  0  0  0  0  0  0  0  0  0  0  0
  149.6319  144.1712  158.0609 H   0  0  0  0  0  0  0  0  0  0  0  0
  152.2991  143.6772  156.8770 H   0  0  0  0  0  0  0  0  0  0  0  0
  151.3662  145.1696  156.9466 H   0  0  0  0  0  0  0  0  0  0  0  0
  153.2897  145.6243  158.5233 H   0  0  0  0  0  0  0  0  0  0  0  0
  154.2312  143.3215  159.3438 H   0  0  0  0  0  0  0  0  0  0  0  0
  152.2543  142.0172  160.5492 H   0  0  0  0  0  0  0  0  0  0  0  0
  150.1192  143.5403  160.4578 H   0  0  0  0  0  0  0  0  0  0  0  0
  151.8661  145.4581  160.7108 H   0  0  0  0  0  0  0  0  0  0  0  0
  150.7714  145.9033  159.3856 H   0  0  0  0  0  0  0  0  0  0  0  0
  149.7658  142.9435  155.9349 H   0  0  0  0  0  0  0  0  0  0  0  0
  1  2  1  0  0  0  0
  1 19  1  0  0  0  0
  1 20  1  0  0  0  0
  1 21  1  0  0  0  0
  2  3  1  0  0  0  0
  2 22  1  0  0  0  0
  2 23  1  0  0  0  0
  3  7  1  0  0  0  0
  3  4  2  0  0  0  0
  4  5  1  0  0  0  0
  5  6  2  0  0  0  0
  6  7  1  0  0  0  0
  6 24  1  0  0  0  0
  7  8  1  0  0  0  0
  8  9  1  0  0  0  0
  8 25  1  0  0  0  0
  8 26  1  0  0  0  0
  9 10  1  0  0  0  0
  9 27  1  0  0  0  0
  9 28  1  0  0  0  0
 10 11  1  0  0  0  0
 10 29  1  0  0  0  0
 10 41  1  0  0  0  0
 11 12  1  0  0  0  0
 11 30  1  0  0  0  0
 11 31  1  0  0  0  0
 12 17  1  0  0  0  0
 12 13  1  0  0  0  0
 12 32  1  0  0  0  0
 13 14  1  0  0  0  0
 13 33  1  0  0  0  0
 13 34  1  0  0  0  0
 14 18  1  0  0  0  0
 14 15  1  0  0  0  0
 14 35  1  0  0  0  0
 15 16  2  0  0  0  0
 15 36  1  0  0  0  0
 16 17  1  0  0  0  0
 16 37  1  0  0  0  0
 17 18  1  0  0  0  0
 17 38  1  0  0  0  0
 18 39  1  0  0  0  0
 18 40  1  0  0  0  0
M  CHG  1  10   1
M  END
> <s_m_source_file>
AV-unprocessed.smi

> <i_m_source_file_index>
3226

> <i_lp_mmshare_version>
43012

> <i_f3d_flags>
0

> <s_epik_input>
W0NIM11bQ0gyXWMxbm5bY0hdbjFbQ0gyXVtDSDJdW05IXVtDSDJdW0NASF0oW0NIMl1bQ0BASF0yMylbQ0BASF0oW0NIMl0zKVtDSF09W0NIXTI=

> <s_epik_cmdline>
J2VwaWtfcHl0aG9uJywgJy1waCcsICc3LjAnLCAnLXRuJywgJzgnLCAnLW1hJywgJzIwMCcsICctbWV0YWxfYmluZGluZycsICctaW1hZScsICc8aW5maWxlLm1hZT4nLCAnLW9tYWUnLCAnPG91dGZpbGUubWFlPic=

> <r_lp_tautomer_probability>
1

> <r_epik_Ionization_Penalty>
0.00175008

> <r_epik_Ionization_Penalty_Charging>
0.00173932

> <r_epik_Ionization_Penalty_Neutral>
1.07546e-05

> <r_epik_State_Penalty>
-0

> <r_epik_Charging_Adjusted_Penalty>
0.00173932

> <i_epik_Tot_Q>
1

> <i_epik_Tot_abs_Q>
1

> <r_epik_Metal_State_Penalty>
-0

> <b_epik_Metal_Only>
0

> <s_lp_Force_Field>
OPLS_2005

> <r_lp_Energy>
64.9624

> <b_lp_Chiralities_Consistent>
1

> <s_lp_Variant>
AV-unprocessed.smi:3226-3

> <Gold.Version>
5.8.1

> <Gold.Id.Protein>
6NUR|6NUR_protein|mol2

> <Gold.PLP.Fitness>
50.2087

> <Gold.PLP.PLP>
-41.6232

> <Gold.PLP.part.hbond>
-3.0140

> <Gold.PLP.part.metal>
0.0000

> <Gold.PLP.part.buried>
-4.5554

> <Gold.PLP.part.nonpolar>
-34.3650

> <Gold.PLP.part.repulsive>
0.1464

> <Gold.PLP.ligand.clash>
0.0000

> <Gold.PLP.ligand.torsion>
0.2361

> <Gold.PLP.Chemscore.Hbond>
3.0000

> <Gold.PLP.Chemscore.CHOScore>
0.0000

> <Gold.PLP.Chemscore.Metal>
0.0000

> <Gold.Chemscore.Hbonds>
donor molecule, donor type, donor heavy atom, donor atom, acceptor molecule, acceptor atom, score
      L1  H    10    41       P1  8028  2.00
      P1  H  7997  8010       L1     5  0.52

> <Gold.PLP.Chemscore.Internal.Correction>
0.0576

> <Gold.Rescore>
     Score         DG    S(hbond)    S(metal)    S(lipo)     H(rot)  DE(clash)    DE(int)     intcor
     17.79     -18.22       1.68        0.00     105.97       2.06       0.12       0.31       ----

> <Gold.Chemscore.Fitness>
17.7926

> <Gold.Chemscore.DG>
-18.2232

> <Gold.Chemscore.ZeroCoef>
-5.4800

> <Gold.Chemscore.Hbond>
1.6838

> <Gold.Chemscore.Metal>
0.0000

> <Gold.Chemscore.Lipo>
105.9736

> <Gold.Chemscore.Internal_Hbond>
0.0000

> <Gold.Chemscore.DEClash>
0.1209

> <Gold.Chemscore.DEInternal>
0.3097

> <Gold.Chemscore.Rot>
2.0623

> <Gold.Chemscore.Internal.Correction>
   9.000000E+99

> <Gold.Chemscore.Hbonds>
donor molecule, donor type, donor heavy atom, donor atom, acceptor molecule, acceptor atom, score
      L1  H    10    41       P1  8028  0.96
      P1  H  7997  8010       L1     5  0.27

> <Gold.Chemscore.Hbond.Weighted>
-5.6239

> <Gold.Chemscore.Metal.Weighted>
-0.0000

> <Gold.Chemscore.Lipo.Weighted>
-12.3989

> <Gold.Chemscore.Internal_Hbond.Weighted>
0.0000

> <Gold.Chemscore.DEClash.Weighted>
0.1209

> <Gold.Chemscore.DEInternal.Weighted>
0.3097

> <Gold.Chemscore.Rot.Weighted>
5.2796

> <Gold.Chemscore.Internal.Correction.Weighted>
   9.000000E+99

> <Gold.Protein.RotatedTorsions>
[ 6907 6896 6895 6894 ] final   40.86 input  -60.11 | X-H torsion
[ 7974 7965 7964 7962 ] final   80.41 input  175.53 | X-H torsion
[ 8008 7997 7996 7995 ] final  127.26 input   59.86 | X-H torsion
[ 10167 10162 10161 10158 ] final  -23.23 input  -65.29 | X-H torsion
[ 10718 10713 10712 10709 ] final -153.75 input   66.30 | X-H torsion
[ 10763 10752 10751 10750 ] final   82.33 input  -60.55 | X-H torsion
[ 11005 11000 10999 10996 ] final  -73.36 input  -57.11 | X-H torsion

> <Gold.Protein.ActiveResidues>
 VAL166  LYS551  ARG553  GLY616  TRP617  ASP618  TYR619  PRO620  LYS621  CYS622 
 ASP623  PHE694  ASN695  SER759  ASP760  ASP761  ALA762  ILE779  LEU786  VAL792 
 PHE793  MET794  SER795  GLU796  ALA797  LYS798  CYS799  TRP800  GLU811  SER814 

> <Gold.Protein.RotatedAtoms>
  152.1879  134.8697  160.0520 H   0  0  0  0  0  0  0  0  0  0  0  0  # atno 6907 bound_to 6896
  151.9597  133.3686  159.4039 H   0  0  0  0  0  0  0  0  0  0  0  0  # atno 6908 bound_to 6896
  150.6929  134.4177  159.5234 H   0  0  0  0  0  0  0  0  0  0  0  0  # atno 6909 bound_to 6896
  145.6516  139.2449  143.1973 H   0  0  0  0  0  0  0  0  0  0  0  0  # atno 7974 bound_to 7965
  156.2886  140.2673  156.2244 H   0  0  0  0  0  0  0  0  0  0  0  0  # atno 8008 bound_to 7997
  155.0136  140.0387  157.2427 H   0  0  0  0  0  0  0  0  0  0  0  0  # atno 8009 bound_to 7997
  154.7497  140.2740  155.6308 H   0  0  0  0  0  0  0  0  0  0  0  0  # atno 8010 bound_to 7997
  140.7287  143.4462  151.0584 H   0  0  0  0  0  0  0  0  0  0  0  0  # atno 10167 bound_to 10162
  156.4900  130.8343  151.2566 H   0  0  0  0  0  0  0  0  0  0  0  0  # atno 10718 bound_to 10713
  153.1193  135.4732  154.9169 H   0  0  0  0  0  0  0  0  0  0  0  0  # atno 10763 bound_to 10752
  154.7560  135.3118  154.8471 H   0  0  0  0  0  0  0  0  0  0  0  0  # atno 10764 bound_to 10752
  153.9040  135.6872  153.4807 H   0  0  0  0  0  0  0  0  0  0  0  0  # atno 10765 bound_to 10752
  141.1621  133.6876  156.7199 H   0  0  0  0  0  0  0  0  0  0  0  0  # atno 11005 bound_to 11000
  146.1199  140.7322  142.9462 LP  0  0  0  0  0  0  0  0  0  0  0  0  # atno 17320 bound_to 7965
  144.7121  140.4075  143.7073 LP  0  0  0  0  0  0  0  0  0  0  0  0  # atno 17321 bound_to 7965
  139.8134  143.7920  152.3173 LP  0  0  0  0  0  0  0  0  0  0  0  0  # atno 17342 bound_to 10162
  139.7977  144.7386  150.9867 LP  0  0  0  0  0  0  0  0  0  0  0  0  # atno 17343 bound_to 10162
  157.7475  131.0017  150.2971 LP  0  0  0  0  0  0  0  0  0  0  0  0  # atno 17370 bound_to 10713
  156.3436  130.3819  149.7388 LP  0  0  0  0  0  0  0  0  0  0  0  0  # atno 17371 bound_to 10713
  140.2823  134.8306  157.3944 LP  0  0  0  0  0  0  0  0  0  0  0  0  # atno 17394 bound_to 11000
  140.1421  134.4958  155.8023 LP  0  0  0  0  0  0  0  0  0  0  0  0  # atno 17395 bound_to 11000

$$$$
