AV-unprocessed.smi:2004|AV-procd|sdf|8123|dock9
  -GOLD-   2272010363D 1   1.00000     0.00000
 Structure written by MMmdl.
 40 42  0  0  0  0  0  0  0  0  2 V2000
  146.3621  138.0853  151.0505 O   0  0  0  0  0  0  0  0  0  0  0  0
  145.8939  137.9562  152.3761 C   0  0  2  0  0  0  0  0  0  0  0  0
  146.6845  138.9190  153.2836 C   0  0  0  0  0  0  0  0  0  0  0  0
  146.8268  140.1497  152.5961 O   0  0  0  0  0  0  0  0  0  0  0  0
  146.8125  141.2943  153.4268 C   0  0  0  0  0  0  0  0  0  0  0  0
  147.8852  141.1820  154.4914 C   0  0  0  0  0  0  0  0  0  0  0  0
  147.5679  141.4556  155.8383 C   0  0  0  0  0  0  0  0  0  0  0  0
  148.5521  141.3294  156.8376 C   0  0  0  0  0  0  0  0  0  0  0  0
  149.8582  140.9311  156.4933 C   0  0  0  0  0  0  0  0  0  0  0  0
  150.1804  140.6621  155.1489 C   0  0  0  0  0  0  0  0  0  0  0  0
  149.1965  140.7896  154.1488 C   0  0  0  0  0  0  0  0  0  0  0  0
  145.9696  136.4624  152.7800 C   0  0  0  0  0  0  0  0  0  0  0  0
  145.1043  135.5793  151.9845 N   0  0  0  0  0  0  0  0  0  0  0  0
  143.9770  135.8679  151.2784 C   0  0  0  0  0  0  0  0  0  0  0  0
  143.5668  134.7209  150.6699 N   0  3  0  0  0  0  0  0  0  0  0  0
  144.4409  133.6821  150.9958 C   0  0  0  0  0  0  0  0  0  0  0  0
  144.4501  132.3451  150.6114 C   0  0  0  0  0  0  0  0  0  0  0  0
  145.4954  131.5479  151.1219 C   0  0  0  0  0  0  0  0  0  0  0  0
  146.4746  132.0839  151.9837 C   0  0  0  0  0  0  0  0  0  0  0  0
  146.4535  133.4405  152.3697 C   0  0  0  0  0  0  0  0  0  0  0  0
  145.4223  134.2231  151.8532 C   0  0  0  0  0  0  0  0  0  0  0  0
  145.6221  138.2346  150.4822 H   0  0  0  0  0  0  0  0  0  0  0  0
  144.8514  138.2752  152.3686 H   0  0  0  0  0  0  0  0  0  0  0  0
  146.1705  139.0491  154.2373 H   0  0  0  0  0  0  0  0  0  0  0  0
  147.6798  138.5252  153.4955 H   0  0  0  0  0  0  0  0  0  0  0  0
  146.9850  142.1922  152.8312 H   0  0  0  0  0  0  0  0  0  0  0  0
  145.8360  141.3978  153.9020 H   0  0  0  0  0  0  0  0  0  0  0  0
  146.5660  141.7558  156.1084 H   0  0  0  0  0  0  0  0  0  0  0  0
  148.3048  141.5374  157.8681 H   0  0  0  0  0  0  0  0  0  0  0  0
  150.6130  140.8338  157.2596 H   0  0  0  0  0  0  0  0  0  0  0  0
  151.1827  140.3580  154.8852 H   0  0  0  0  0  0  0  0  0  0  0  0
  149.4512  140.5764  153.1210 H   0  0  0  0  0  0  0  0  0  0  0  0
  146.9935  136.0910  152.7222 H   0  0  0  0  0  0  0  0  0  0  0  0
  145.6557  136.3447  153.8185 H   0  0  0  0  0  0  0  0  0  0  0  0
  143.5046  136.8363  151.1991 H   0  0  0  0  0  0  0  0  0  0  0  0
  143.7023  131.9329  149.9498 H   0  0  0  0  0  0  0  0  0  0  0  0
  145.5469  130.5045  150.8464 H   0  0  0  0  0  0  0  0  0  0  0  0
  147.2601  131.4417  152.3548 H   0  0  0  0  0  0  0  0  0  0  0  0
  147.2097  133.8433  153.0266 H   0  0  0  0  0  0  0  0  0  0  0  0
  142.7534  134.6556  150.0718 H   0  0  0  0  0  0  0  0  0  0  0  0
  1  2  1  0  0  0  0
  1 22  1  0  0  0  0
  2  3  1  0  0  0  0
  2 12  1  0  0  0  0
  2 23  1  0  0  0  0
  3  4  1  0  0  0  0
  3 24  1  0  0  0  0
  3 25  1  0  0  0  0
  4  5  1  0  0  0  0
  5  6  1  0  0  0  0
  5 26  1  0  0  0  0
  5 27  1  0  0  0  0
  6 11  1  0  0  0  0
  6  7  2  0  0  0  0
  7  8  1  0  0  0  0
  7 28  1  0  0  0  0
  8  9  2  0  0  0  0
  8 29  1  0  0  0  0
  9 10  1  0  0  0  0
  9 30  1  0  0  0  0
 10 11  2  0  0  0  0
 10 31  1  0  0  0  0
 11 32  1  0  0  0  0
 12 13  1  0  0  0  0
 12 33  1  0  0  0  0
 12 34  1  0  0  0  0
 13 21  1  0  0  0  0
 13 14  1  0  0  0  0
 14 15  2  0  0  0  0
 14 35  1  0  0  0  0
 15 16  1  0  0  0  0
 15 40  1  0  0  0  0
 16 21  2  0  0  0  0
 16 17  1  0  0  0  0
 17 18  2  0  0  0  0
 17 36  1  0  0  0  0
 18 19  1  0  0  0  0
 18 37  1  0  0  0  0
 19 20  2  0  0  0  0
 19 38  1  0  0  0  0
 20 21  1  0  0  0  0
 20 39  1  0  0  0  0
M  CHG  1  15   1
M  END
> <s_m_source_file>
AV-unprocessed.smi

> <i_m_source_file_index>
2004

> <i_lp_mmshare_version>
43012

> <i_f3d_flags>
0

> <s_epik_input>
W2NIXTFbY0hdW2NIXVtjSF1jKGMxMiluKFtjSF1uMilbQ0gyXVtDQEhdKFtPSF0pW0NIMl1PW0NIMl1jM1tjSF1bY0hdW2NIXVtjSF1bY0hdMw==

> <s_epik_cmdline>
J2VwaWtfcHl0aG9uJywgJy1waCcsICc3LjAnLCAnLXRuJywgJzgnLCAnLW1hJywgJzIwMCcsICctbWV0YWxfYmluZGluZycsICctaW1hZScsICc8aW5maWxlLm1hZT4nLCAnLW9tYWUnLCAnPG91dGZpbGUubWFlPic=

> <r_epik_Ionization_Penalty>
1.28975

> <r_epik_Ionization_Penalty_Charging>
1.28975

> <r_epik_Ionization_Penalty_Neutral>
1.07667e-06

> <r_epik_State_Penalty>
1.36276

> <r_epik_Charging_Adjusted_Penalty>
2.65251

> <i_epik_Tot_Q>
1

> <i_epik_Tot_abs_Q>
1

> <r_epik_Metal_State_Penalty>
5.39298

> <b_epik_Metal_Only>
0

> <s_lp_Force_Field>
OPLS_2005

> <r_lp_Energy>
17.8954

> <b_lp_Chiralities_Consistent>
1

> <s_lp_Variant>
AV-unprocessed.smi:2004-3

> <Gold.Version>
5.8.1

> <Gold.Id.Protein>
6NUR|6NUR_protein|mol2

> <Gold.PLP.Fitness>
50.8581

> <Gold.PLP.PLP>
-37.4510

> <Gold.PLP.part.hbond>
-3.6435

> <Gold.PLP.part.metal>
0.0000

> <Gold.PLP.part.buried>
-3.7099

> <Gold.PLP.part.nonpolar>
-32.0197

> <Gold.PLP.part.repulsive>
0.8131

> <Gold.PLP.ligand.clash>
0.0000

> <Gold.PLP.ligand.torsion>
0.8679

> <Gold.PLP.Chemscore.Hbond>
4.0000

> <Gold.PLP.Chemscore.CHOScore>
1.0000

> <Gold.PLP.Chemscore.Metal>
0.0000

> <Gold.Chemscore.Hbonds>
donor molecule, donor type, donor heavy atom, donor atom, acceptor molecule, acceptor atom, score
      L1  H     1    22       P1 10171  1.00
      L1  H    15    40       P1 10186  2.00
      P1  H  7954  7966       L1     1  0.70
      L1  C    14    35       P1 10171  1.00

> <Gold.PLP.Chemscore.Internal.Correction>
0.1429

> <Gold.Rescore>
     Score         DG    S(hbond)    S(metal)    S(lipo)     H(rot)  DE(clash)    DE(int)     intcor
     17.63     -19.02       2.47        0.00      98.39       2.43       0.53       0.86       ----

> <Gold.Chemscore.Fitness>
17.6318

> <Gold.Chemscore.DG>
-19.0177

> <Gold.Chemscore.ZeroCoef>
-5.4800

> <Gold.Chemscore.Hbond>
2.4668

> <Gold.Chemscore.Metal>
0.0000

> <Gold.Chemscore.Lipo>
98.3892

> <Gold.Chemscore.Internal_Hbond>
0.0000

> <Gold.Chemscore.DEClash>
0.5254

> <Gold.Chemscore.DEInternal>
0.8606

> <Gold.Chemscore.Rot>
2.4269

> <Gold.Chemscore.Internal.Correction>
   9.000000E+99

> <Gold.Chemscore.Hbonds>
donor molecule, donor type, donor heavy atom, donor atom, acceptor molecule, acceptor atom, score
      L1  H     1    22       P1 10171  1.00
      L1  H    15    40       P1 10186  0.65
      P1  H  7954  7966       L1     1  0.52

> <Gold.Chemscore.Hbond.Weighted>
-8.2390

> <Gold.Chemscore.Metal.Weighted>
-0.0000

> <Gold.Chemscore.Lipo.Weighted>
-11.5115

> <Gold.Chemscore.Internal_Hbond.Weighted>
0.0000

> <Gold.Chemscore.DEClash.Weighted>
0.5254

> <Gold.Chemscore.DEInternal.Weighted>
0.8606

> <Gold.Chemscore.Rot.Weighted>
6.2127

> <Gold.Chemscore.Internal.Correction.Weighted>
   9.000000E+99

> <Gold.Protein.RotatedTorsions>
[ 6907 6896 6895 6894 ] final  -80.04 input  -60.11 | X-H torsion
[ 7974 7965 7964 7962 ] final  -27.99 input  175.53 | X-H torsion
[ 8008 7997 7996 7995 ] final  -54.47 input   59.86 | X-H torsion
[ 10167 10162 10161 10158 ] final   84.67 input  -65.29 | X-H torsion
[ 10718 10713 10712 10709 ] final -146.66 input   66.30 | X-H torsion
[ 10763 10752 10751 10750 ] final  -19.32 input  -60.55 | X-H torsion
[ 11005 11000 10999 10996 ] final  -61.37 input  -57.11 | X-H torsion

> <Gold.Protein.ActiveResidues>
 VAL166  LYS551  ARG553  GLY616  TRP617  ASP618  TYR619  PRO620  LYS621  CYS622 
 ASP623  PHE694  ASN695  SER759  ASP760  ASP761  ALA762  ILE779  LEU786  VAL792 
 PHE793  MET794  SER795  GLU796  ALA797  LYS798  CYS799  TRP800  GLU811  SER814 

> <Gold.Protein.RotatedAtoms>
  150.6937  134.4030  159.5127 H   0  0  0  0  0  0  0  0  0  0  0  0  # atno 6907 bound_to 6896
  152.1800  134.8759  160.0536 H   0  0  0  0  0  0  0  0  0  0  0  0  # atno 6908 bound_to 6896
  151.9753  133.3704  159.4123 H   0  0  0  0  0  0  0  0  0  0  0  0  # atno 6909 bound_to 6896
  146.1319  140.5224  142.8689 H   0  0  0  0  0  0  0  0  0  0  0  0  # atno 7974 bound_to 7965
  154.4164  140.1175  156.5321 H   0  0  0  0  0  0  0  0  0  0  0  0  # atno 8008 bound_to 7997
  155.6595  140.3496  155.4758 H   0  0  0  0  0  0  0  0  0  0  0  0  # atno 8009 bound_to 7997
  155.9725  140.1144  157.0789 H   0  0  0  0  0  0  0  0  0  0  0  0  # atno 8010 bound_to 7997
  139.9057  144.6302  150.8590 H   0  0  0  0  0  0  0  0  0  0  0  0  # atno 10167 bound_to 10162
  156.3977  130.7918  151.2126 H   0  0  0  0  0  0  0  0  0  0  0  0  # atno 10718 bound_to 10713
  153.6030  135.6999  153.5377 H   0  0  0  0  0  0  0  0  0  0  0  0  # atno 10763 bound_to 10752
  153.3081  135.4109  155.1311 H   0  0  0  0  0  0  0  0  0  0  0  0  # atno 10764 bound_to 10752
  154.8579  135.3665  154.5566 H   0  0  0  0  0  0  0  0  0  0  0  0  # atno 10765 bound_to 10752
  141.1322  133.6629  156.5364 H   0  0  0  0  0  0  0  0  0  0  0  0  # atno 11005 bound_to 11000
  144.7700  140.5616  143.6677 LP  0  0  0  0  0  0  0  0  0  0  0  0  # atno 17320 bound_to 7965
  145.5241  139.1476  143.3536 LP  0  0  0  0  0  0  0  0  0  0  0  0  # atno 17321 bound_to 7965
  140.7697  143.3403  151.2222 LP  0  0  0  0  0  0  0  0  0  0  0  0  # atno 17342 bound_to 10162
  139.6986  143.9570  152.2895 LP  0  0  0  0  0  0  0  0  0  0  0  0  # atno 17343 bound_to 10162
  157.7502  131.0296  150.4101 LP  0  0  0  0  0  0  0  0  0  0  0  0  # atno 17370 bound_to 10713
  156.4374  130.3984  149.6719 LP  0  0  0  0  0  0  0  0  0  0  0  0  # atno 17371 bound_to 10713
  140.4174  134.7218  157.4871 LP  0  0  0  0  0  0  0  0  0  0  0  0  # atno 17394 bound_to 11000
  140.0384  134.6303  155.9013 LP  0  0  0  0  0  0  0  0  0  0  0  0  # atno 17395 bound_to 11000

$$$$
