AV-unprocessed.smi:1701|AV-procd|sdf|6830|dock1
  -GOLD-   22720 8 03D 1   1.00000     0.00000
 Structure written by MMmdl.
 54 56  0  0  0  0  0  0  0  0  2 V2000
  151.5929  143.5280  157.4548 C   0  0  0  0  0  0  0  0  0  0  0  0
  150.9272  142.5513  156.4743 C   0  0  0  0  0  0  0  0  0  0  0  0
  151.1771  141.1463  156.8001 N   0  0  0  0  0  0  0  0  0  0  0  0
  152.1521  140.8233  157.8457 C   0  0  0  0  0  0  0  0  0  0  0  0
  152.4018  139.3148  157.9940 C   0  0  0  0  0  0  0  0  0  0  0  0
  150.3814  140.1195  156.2308 C   0  0  0  0  0  0  0  0  0  0  0  0
  149.4766  139.3540  157.0095 C   0  0  0  0  0  0  0  0  0  0  0  0
  148.7063  138.3493  156.3933 C   0  0  0  0  0  0  0  0  0  0  0  0
  148.8574  138.1214  155.0068 C   0  0  0  0  0  0  0  0  0  0  0  0
  148.1223  137.1580  154.2651 N   0  0  0  0  0  0  0  0  0  0  0  0
  146.9295  136.6020  154.5544 C   0  0  0  0  0  0  0  0  0  0  0  0
  146.3078  136.7810  155.5989 O   0  0  0  0  0  0  0  0  0  0  0  0
  146.4565  135.7831  153.5975 N   0  0  0  0  0  0  0  0  0  0  0  0
  145.2022  135.0260  153.5929 C   0  0  1  0  0  0  0  0  0  0  0  0
  144.0552  135.7782  152.9298 C   0  0  0  0  0  0  0  0  0  0  0  0
  143.0459  134.6681  152.6208 C   0  0  0  0  0  0  0  0  0  0  0  0
  143.8232  133.4148  152.4597 N   0  3  1  0  0  0  0  0  0  0  0  0
  143.6073  132.7342  151.1548 C   0  0  0  0  0  0  0  0  0  0  0  0
  144.7012  131.6883  150.8934 C   0  0  0  0  0  0  0  0  0  0  0  0
  146.0955  132.3386  150.8135 C   0  0  0  0  0  0  0  0  0  0  0  0
  146.1624  133.6853  151.5587 C   0  0  0  0  0  0  0  0  0  0  0  0
  145.2453  133.6996  152.8065 C   0  0  1  0  0  0  0  0  0  0  0  0
  149.7702  138.9366  154.3111 C   0  0  0  0  0  0  0  0  0  0  0  0
  150.5095  139.8993  154.8989 N   0  0  0  0  0  0  0  0  0  0  0  0
  151.3449  144.5574  157.1952 H   0  0  0  0  0  0  0  0  0  0  0  0
  152.6782  143.4407  157.4316 H   0  0  0  0  0  0  0  0  0  0  0  0
  151.2642  143.3581  158.4800 H   0  0  0  0  0  0  0  0  0  0  0  0
  149.8559  142.7408  156.4105 H   0  0  0  0  0  0  0  0  0  0  0  0
  151.3059  142.7495  155.4712 H   0  0  0  0  0  0  0  0  0  0  0  0
  153.0919  141.3434  157.6574 H   0  0  0  0  0  0  0  0  0  0  0  0
  151.7935  141.2154  158.7977 H   0  0  0  0  0  0  0  0  0  0  0  0
  153.1382  139.1250  158.7749 H   0  0  0  0  0  0  0  0  0  0  0  0
  152.7834  138.8790  157.0707 H   0  0  0  0  0  0  0  0  0  0  0  0
  151.4933  138.7795  158.2656 H   0  0  0  0  0  0  0  0  0  0  0  0
  149.3538  139.5103  158.0698 H   0  0  0  0  0  0  0  0  0  0  0  0
  148.0087  137.7882  156.9948 H   0  0  0  0  0  0  0  0  0  0  0  0
  148.5690  136.8341  153.4203 H   0  0  0  0  0  0  0  0  0  0  0  0
  147.0504  135.6514  152.7914 H   0  0  0  0  0  0  0  0  0  0  0  0
  144.9026  134.8198  154.6227 H   0  0  0  0  0  0  0  0  0  0  0  0
  143.6381  136.5625  153.5623 H   0  0  0  0  0  0  0  0  0  0  0  0
  144.3920  136.2401  152.0001 H   0  0  0  0  0  0  0  0  0  0  0  0
  142.3684  134.5345  153.4649 H   0  0  0  0  0  0  0  0  0  0  0  0
  142.4346  134.9114  151.7505 H   0  0  0  0  0  0  0  0  0  0  0  0
  142.6219  132.2674  151.1562 H   0  0  0  0  0  0  0  0  0  0  0  0
  143.6095  133.4646  150.3437 H   0  0  0  0  0  0  0  0  0  0  0  0
  144.6872  130.9528  151.6991 H   0  0  0  0  0  0  0  0  0  0  0  0
  144.4938  131.1376  149.9753 H   0  0  0  0  0  0  0  0  0  0  0  0
  146.8328  131.6471  151.2231 H   0  0  0  0  0  0  0  0  0  0  0  0
  146.3761  132.4972  149.7716 H   0  0  0  0  0  0  0  0  0  0  0  0
  147.1992  133.8877  151.8275 H   0  0  0  0  0  0  0  0  0  0  0  0
  145.8632  134.4876  150.8825 H   0  0  0  0  0  0  0  0  0  0  0  0
  145.5903  132.9077  153.4728 H   0  0  0  0  0  0  0  0  0  0  0  0
  149.9153  138.8140  153.2477 H   0  0  0  0  0  0  0  0  0  0  0  0
  143.4881  132.7818  153.1719 H   0  0  0  0  0  0  0  0  0  0  0  0
  1  2  1  0  0  0  0
  1 25  1  0  0  0  0
  1 26  1  0  0  0  0
  1 27  1  0  0  0  0
  2  3  1  0  0  0  0
  2 28  1  0  0  0  0
  2 29  1  0  0  0  0
  3  4  1  0  0  0  0
  3  6  1  0  0  0  0
  4  5  1  0  0  0  0
  4 30  1  0  0  0  0
  4 31  1  0  0  0  0
  5 32  1  0  0  0  0
  5 33  1  0  0  0  0
  5 34  1  0  0  0  0
  6 24  1  0  0  0  0
  6  7  2  0  0  0  0
  7  8  1  0  0  0  0
  7 35  1  0  0  0  0
  8  9  2  0  0  0  0
  8 36  1  0  0  0  0
  9 10  1  0  0  0  0
  9 23  1  0  0  0  0
 10 11  1  0  0  0  0
 10 37  1  0  0  0  0
 11 12  2  0  0  0  0
 11 13  1  0  0  0  0
 13 14  1  0  0  0  0
 13 38  1  0  0  0  0
 14 22  1  0  0  0  0
 14 15  1  0  0  0  0
 14 39  1  0  0  0  0
 15 16  1  0  0  0  0
 15 40  1  0  0  0  0
 15 41  1  0  0  0  0
 16 17  1  0  0  0  0
 16 42  1  0  0  0  0
 16 43  1  0  0  0  0
 17 22  1  0  0  0  0
 17 18  1  0  0  0  0
 17 54  1  0  0  0  0
 18 19  1  0  0  0  0
 18 44  1  0  0  0  0
 18 45  1  0  0  0  0
 19 20  1  0  0  0  0
 19 46  1  0  0  0  0
 19 47  1  0  0  0  0
 20 21  1  0  0  0  0
 20 48  1  0  0  0  0
 20 49  1  0  0  0  0
 21 22  1  0  0  0  0
 21 50  1  0  0  0  0
 21 51  1  0  0  0  0
 22 52  1  0  0  0  0
 23 24  2  0  0  0  0
 23 53  1  0  0  0  0
M  CHG  1  17   1
M  END
> <s_m_source_file>
AV-unprocessed.smi

> <i_m_source_file_index>
1701

> <i_lp_mmshare_version>
43012

> <i_f3d_flags>
0

> <s_epik_input>
W0NIM11bQ0gyXU4oW0NIMl1bQ0gzXSljMVtjSF1bY0hdYyhbY0hdbjEpW05IXUMoPU8pW05IXVtDQEhdKFtDSDJdW0NIMl0yKVtDQEBIXShOMjMpW0NIMl1bQ0gyXVtDSDJdW0NIMl0z

> <s_epik_cmdline>
J2VwaWtfcHl0aG9uJywgJy1waCcsICc3LjAnLCAnLXRuJywgJzgnLCAnLW1hJywgJzIwMCcsICctbWV0YWxfYmluZGluZycsICctaW1hZScsICc8aW5maWxlLm1hZT4nLCAnLW9tYWUnLCAnPG91dGZpbGUubWFlPic=

> <r_lp_tautomer_probability>
1

> <r_epik_Ionization_Penalty>
0.56662

> <r_epik_Ionization_Penalty_Charging>
0.000974069

> <r_epik_Ionization_Penalty_Neutral>
0.565646

> <r_epik_State_Penalty>
2.0247

> <r_epik_Charging_Adjusted_Penalty>
2.02568

> <i_epik_Tot_Q>
1

> <i_epik_Tot_abs_Q>
1

> <r_epik_Metal_State_Penalty>
1.51504

> <b_epik_Metal_Only>
0

> <s_lp_Force_Field>
OPLS_2005

> <r_lp_Energy>
59.6677

> <b_lp_Chiralities_Consistent>
1

> <s_lp_Variant>
AV-unprocessed.smi:1701-10

> <Gold.Version>
5.8.1

> <Gold.Id.Protein>
6NUR|6NUR_protein|mol2

> <Gold.PLP.Fitness>
47.0840

> <Gold.PLP.PLP>
-34.2598

> <Gold.PLP.part.hbond>
-3.8347

> <Gold.PLP.part.metal>
0.0000

> <Gold.PLP.part.buried>
-5.4910

> <Gold.PLP.part.nonpolar>
-26.0148

> <Gold.PLP.part.repulsive>
0.0787

> <Gold.PLP.ligand.clash>
0.0000

> <Gold.PLP.ligand.torsion>
1.9465

> <Gold.PLP.Chemscore.Hbond>
4.5280

> <Gold.PLP.Chemscore.CHOScore>
1.0000

> <Gold.PLP.Chemscore.Metal>
0.0000

> <Gold.Chemscore.Hbonds>
donor molecule, donor type, donor heavy atom, donor atom, acceptor molecule, acceptor atom, score
      L1  H    10    37       P1  7948  1.00
      L1  H    13    38       P1  7948  0.56
      L1  H    17    54       P1 10957  1.85
      P1  H  7989  7998       L1    24  0.98
      L1  C    23    53       P1  7957  1.00

> <Gold.PLP.Chemscore.Internal.Correction>
0.1332

> <Gold.Rescore>
     Score         DG    S(hbond)    S(metal)    S(lipo)     H(rot)  DE(clash)    DE(int)     intcor
     19.22     -22.64       2.94        0.00      90.80       1.28       0.30       3.12       ----

> <Gold.Chemscore.Fitness>
19.2237

> <Gold.Chemscore.DG>
-22.6385

> <Gold.Chemscore.ZeroCoef>
-5.4800

> <Gold.Chemscore.Hbond>
2.9404

> <Gold.Chemscore.Metal>
0.0000

> <Gold.Chemscore.Lipo>
90.8028

> <Gold.Chemscore.Internal_Hbond>
0.0000

> <Gold.Chemscore.DEClash>
0.2976

> <Gold.Chemscore.DEInternal>
3.1172

> <Gold.Chemscore.Rot>
1.2838

> <Gold.Chemscore.Internal.Correction>
   9.000000E+99

> <Gold.Chemscore.Hbonds>
donor molecule, donor type, donor heavy atom, donor atom, acceptor molecule, acceptor atom, score
      L1  H    10    37       P1  7948  1.00
      L1  H    13    38       P1  7948  0.55
      L1  H    17    54       P1 10957  0.35
      P1  H  7989  7998       L1    24  0.68

> <Gold.Chemscore.Hbond.Weighted>
-9.8211

> <Gold.Chemscore.Metal.Weighted>
-0.0000

> <Gold.Chemscore.Lipo.Weighted>
-10.6239

> <Gold.Chemscore.Internal_Hbond.Weighted>
0.0000

> <Gold.Chemscore.DEClash.Weighted>
0.2976

> <Gold.Chemscore.DEInternal.Weighted>
3.1172

> <Gold.Chemscore.Rot.Weighted>
3.2865

> <Gold.Chemscore.Internal.Correction.Weighted>
   9.000000E+99

> <Gold.Protein.RotatedTorsions>
[ 6907 6896 6895 6894 ] final  -92.70 input  -60.11 | X-H torsion
[ 7974 7965 7964 7962 ] final  -14.74 input  175.53 | X-H torsion
[ 8008 7997 7996 7995 ] final   45.92 input   59.86 | X-H torsion
[ 10167 10162 10161 10158 ] final  119.45 input  -65.29 | X-H torsion
[ 10718 10713 10712 10709 ] final  174.51 input   66.30 | X-H torsion
[ 10763 10752 10751 10750 ] final -151.75 input  -60.55 | X-H torsion
[ 11005 11000 10999 10996 ] final -157.31 input  -57.11 | X-H torsion

> <Gold.Protein.ActiveResidues>
 VAL166  LYS551  ARG553  GLY616  TRP617  ASP618  TYR619  PRO620  LYS621  CYS622 
 ASP623  PHE694  ASN695  SER759  ASP760  ASP761  ALA762  ILE779  LEU786  VAL792 
 PHE793  MET794  SER795  GLU796  ALA797  LYS798  CYS799  TRP800  GLU811  SER814 

> <Gold.Protein.RotatedAtoms>
  150.6910  134.2082  159.4348 H   0  0  0  0  0  0  0  0  0  0  0  0  # atno 6907 bound_to 6896
  152.0045  134.9908  160.0575 H   0  0  0  0  0  0  0  0  0  0  0  0  # atno 6908 bound_to 6896
  152.1547  133.4509  159.4868 H   0  0  0  0  0  0  0  0  0  0  0  0  # atno 6909 bound_to 6896
  146.2062  140.3392  142.8406 H   0  0  0  0  0  0  0  0  0  0  0  0  # atno 7974 bound_to 7965
  155.3439  140.3409  155.4239 H   0  0  0  0  0  0  0  0  0  0  0  0  # atno 8008 bound_to 7997
  156.1799  140.1660  156.8330 H   0  0  0  0  0  0  0  0  0  0  0  0  # atno 8009 bound_to 7997
  154.5322  140.0743  156.8347 H   0  0  0  0  0  0  0  0  0  0  0  0  # atno 8010 bound_to 7997
  139.6045  144.7066  151.2985 H   0  0  0  0  0  0  0  0  0  0  0  0  # atno 10167 bound_to 10162
  156.9485  131.0024  151.2953 H   0  0  0  0  0  0  0  0  0  0  0  0  # atno 10718 bound_to 10713
  154.8038  135.3252  154.7482 H   0  0  0  0  0  0  0  0  0  0  0  0  # atno 10763 bound_to 10752
  153.8145  135.6893  153.4840 H   0  0  0  0  0  0  0  0  0  0  0  0  # atno 10764 bound_to 10752
  153.1771  135.4601  154.9923 H   0  0  0  0  0  0  0  0  0  0  0  0  # atno 10765 bound_to 10752
  140.6661  134.4298  157.5233 H   0  0  0  0  0  0  0  0  0  0  0  0  # atno 11005 bound_to 11000
  144.8797  140.7384  143.5994 LP  0  0  0  0  0  0  0  0  0  0  0  0  # atno 17320 bound_to 7965
  145.3312  139.1759  143.4536 LP  0  0  0  0  0  0  0  0  0  0  0  0  # atno 17321 bound_to 7965
  140.7274  143.6963  150.7881 LP  0  0  0  0  0  0  0  0  0  0  0  0  # atno 17342 bound_to 10162
  140.0546  143.5216  152.2657 LP  0  0  0  0  0  0  0  0  0  0  0  0  # atno 17343 bound_to 10162
  157.5737  130.8328  149.8427 LP  0  0  0  0  0  0  0  0  0  0  0  0  # atno 17370 bound_to 10713
  156.0373  130.3748  150.1527 LP  0  0  0  0  0  0  0  0  0  0  0  0  # atno 17371 bound_to 10713
  139.8997  134.8585  156.1950 LP  0  0  0  0  0  0  0  0  0  0  0  0  # atno 17394 bound_to 11000
  141.0428  133.6929  156.1629 LP  0  0  0  0  0  0  0  0  0  0  0  0  # atno 17395 bound_to 11000

$$$$
