AV-unprocessed.smi:1868|AV-procd|sdf|7584|dock9
  -GOLD-   22720 9293D 1   1.00000     0.00000
 Structure written by MMmdl.
 47 49  0  0  0  0  0  0  0  0  2 V2000
  152.4560  138.3011  154.9690 C   0  0  0  0  0  0  0  0  0  0  0  0
  152.1140  139.3838  155.9428 C   0  0  0  0  0  0  0  0  0  0  0  0
  152.8012  139.5671  157.0699 N   0  0  0  0  0  0  0  0  0  0  0  0
  152.1637  140.6508  157.6417 C   0  0  0  0  0  0  0  0  0  0  0  0
  152.4180  141.3322  158.8533 C   0  0  0  0  0  0  0  0  0  0  0  0
  151.6180  142.4282  159.2374 C   0  0  0  0  0  0  0  0  0  0  0  0
  150.5548  142.8580  158.4175 C   0  0  0  0  0  0  0  0  0  0  0  0
  150.2841  142.1937  157.2058 C   0  0  0  0  0  0  0  0  0  0  0  0
  151.0853  141.0995  156.8272 C   0  0  0  0  0  0  0  0  0  0  0  0
  151.0837  140.2397  155.7321 N   0  0  0  0  0  0  0  0  0  0  0  0
  150.1619  140.2728  154.6050 C   0  0  0  0  0  0  0  0  0  0  0  0
  149.3534  138.9682  154.4486 C   0  0  2  0  0  0  0  0  0  0  0  0
  149.9150  138.2432  153.3737 O   0  0  0  0  0  0  0  0  0  0  0  0
  147.8539  139.1986  154.1569 C   0  0  0  0  0  0  0  0  0  0  0  0
  147.2390  138.0755  153.4050 N   0  3  2  0  0  0  0  0  0  0  0  0
  146.5100  138.5404  152.1972 C   0  0  0  0  0  0  0  0  0  0  0  0
  146.0059  137.3525  151.3606 C   0  0  0  0  0  0  0  0  0  0  0  0
  145.1140  136.4189  152.1959 C   0  0  1  0  0  0  0  0  0  0  0  0
  144.6327  135.2121  151.3784 C   0  0  0  0  0  0  0  0  0  0  0  0
  145.8783  135.9843  153.4578 C   0  0  0  0  0  0  0  0  0  0  0  0
  146.3857  137.1998  154.2516 C   0  0  0  0  0  0  0  0  0  0  0  0
  153.3390  137.7542  155.3020 H   0  0  0  0  0  0  0  0  0  0  0  0
  152.6691  138.7258  153.9880 H   0  0  0  0  0  0  0  0  0  0  0  0
  151.6312  137.5948  154.8800 H   0  0  0  0  0  0  0  0  0  0  0  0
  153.2302  141.0109  159.4884 H   0  0  0  0  0  0  0  0  0  0  0  0
  151.8218  142.9419  160.1656 H   0  0  0  0  0  0  0  0  0  0  0  0
  149.9475  143.6990  158.7193 H   0  0  0  0  0  0  0  0  0  0  0  0
  149.4697  142.5220  156.5776 H   0  0  0  0  0  0  0  0  0  0  0  0
  149.4867  141.1189  154.7397 H   0  0  0  0  0  0  0  0  0  0  0  0
  150.7267  140.4829  153.6961 H   0  0  0  0  0  0  0  0  0  0  0  0
  149.4767  138.3723  155.3513 H   0  0  0  0  0  0  0  0  0  0  0  0
  149.8202  138.7529  152.5829 H   0  0  0  0  0  0  0  0  0  0  0  0
  147.2890  139.3468  155.0777 H   0  0  0  0  0  0  0  0  0  0  0  0
  147.7552  140.1250  153.5886 H   0  0  0  0  0  0  0  0  0  0  0  0
  145.6738  139.1745  152.4965 H   0  0  0  0  0  0  0  0  0  0  0  0
  147.1695  139.1534  151.5817 H   0  0  0  0  0  0  0  0  0  0  0  0
  145.4539  137.7220  150.4956 H   0  0  0  0  0  0  0  0  0  0  0  0
  146.8586  136.7970  150.9676 H   0  0  0  0  0  0  0  0  0  0  0  0
  144.2323  136.9809  152.5085 H   0  0  0  0  0  0  0  0  0  0  0  0
  145.4712  134.6068  151.0317 H   0  0  0  0  0  0  0  0  0  0  0  0
  144.0682  135.5316  150.5019 H   0  0  0  0  0  0  0  0  0  0  0  0
  143.9822  134.5696  151.9726 H   0  0  0  0  0  0  0  0  0  0  0  0
  145.2335  135.3759  154.0931 H   0  0  0  0  0  0  0  0  0  0  0  0
  146.7236  135.3522  153.1810 H   0  0  0  0  0  0  0  0  0  0  0  0
  146.9433  136.8462  155.1180 H   0  0  0  0  0  0  0  0  0  0  0  0
  145.5409  137.7741  154.6358 H   0  0  0  0  0  0  0  0  0  0  0  0
  148.0058  137.5098  153.0693 H   0  0  0  0  0  0  0  0  0  0  0  0
  1  2  1  0  0  0  0
  1 22  1  0  0  0  0
  1 23  1  0  0  0  0
  1 24  1  0  0  0  0
  2 10  1  0  0  0  0
  2  3  2  0  0  0  0
  3  4  1  0  0  0  0
  4  9  2  0  0  0  0
  4  5  1  0  0  0  0
  5  6  2  0  0  0  0
  5 25  1  0  0  0  0
  6  7  1  0  0  0  0
  6 26  1  0  0  0  0
  7  8  2  0  0  0  0
  7 27  1  0  0  0  0
  8  9  1  0  0  0  0
  8 28  1  0  0  0  0
  9 10  1  0  0  0  0
 10 11  1  0  0  0  0
 11 12  1  0  0  0  0
 11 29  1  0  0  0  0
 11 30  1  0  0  0  0
 12 13  1  0  0  0  0
 12 14  1  0  0  0  0
 12 31  1  0  0  0  0
 13 32  1  0  0  0  0
 14 15  1  0  0  0  0
 14 33  1  0  0  0  0
 14 34  1  0  0  0  0
 15 21  1  0  0  0  0
 15 16  1  0  0  0  0
 15 47  1  0  0  0  0
 16 17  1  0  0  0  0
 16 35  1  0  0  0  0
 16 36  1  0  0  0  0
 17 18  1  0  0  0  0
 17 37  1  0  0  0  0
 17 38  1  0  0  0  0
 18 19  1  0  0  0  0
 18 20  1  0  0  0  0
 18 39  1  0  0  0  0
 19 40  1  0  0  0  0
 19 41  1  0  0  0  0
 19 42  1  0  0  0  0
 20 21  1  0  0  0  0
 20 43  1  0  0  0  0
 20 44  1  0  0  0  0
 21 45  1  0  0  0  0
 21 46  1  0  0  0  0
M  CHG  1  15   1
M  END
> <s_m_source_file>
AV-unprocessed.smi

> <i_m_source_file_index>
1868

> <i_lp_mmshare_version>
43012

> <i_f3d_flags>
0

> <s_epik_input>
W2NIXTFbY0hdW2NIXVtjSF1jKGMxMiluKGMobjIpW0NIM10pW0NIMl1bQ0BIXShbT0hdKVtDSDJdTjNbQ0gyXVtDSDJdW0NIXShbQ0gzXSlbQ0gyXVtDSDJdMw==

> <s_epik_cmdline>
J2VwaWtfcHl0aG9uJywgJy1waCcsICc3LjAnLCAnLXRuJywgJzgnLCAnLW1hJywgJzIwMCcsICctbWV0YWxfYmluZGluZycsICctaW1hZScsICc8aW5maWxlLm1hZT4nLCAnLW9tYWUnLCAnPG91dGZpbGUubWFlPic=

> <r_epik_Ionization_Penalty>
0.101157

> <r_epik_Ionization_Penalty_Charging>
0.00181365

> <r_epik_Ionization_Penalty_Neutral>
0.0993436

> <r_epik_State_Penalty>
0.0871902

> <r_epik_Charging_Adjusted_Penalty>
0.0890039

> <i_epik_Tot_Q>
1

> <i_epik_Tot_abs_Q>
1

> <r_epik_Metal_State_Penalty>
9.24346e-05

> <b_epik_Metal_Only>
0

> <s_lp_Force_Field>
OPLS_2005

> <r_lp_Energy>
22.6133

> <b_lp_Chiralities_Consistent>
1

> <s_lp_Variant>
AV-unprocessed.smi:1868-1

> <Gold.Version>
5.8.1

> <Gold.Id.Protein>
6NUR|6NUR_protein|mol2

> <Gold.PLP.Fitness>
48.8961

> <Gold.PLP.PLP>
-40.0881

> <Gold.PLP.part.hbond>
-4.5689

> <Gold.PLP.part.metal>
0.0000

> <Gold.PLP.part.buried>
6.1700

> <Gold.PLP.part.nonpolar>
-40.5025

> <Gold.PLP.part.repulsive>
0.0321

> <Gold.PLP.ligand.clash>
0.0000

> <Gold.PLP.ligand.torsion>
1.6083

> <Gold.PLP.Chemscore.Hbond>
4.0000

> <Gold.PLP.Chemscore.CHOScore>
0.0000

> <Gold.PLP.Chemscore.Metal>
0.0000

> <Gold.Chemscore.Hbonds>
donor molecule, donor type, donor heavy atom, donor atom, acceptor molecule, acceptor atom, score
      L1  H    13    32       P1  7957  1.00
      L1  H    15    47       P1  7948  2.00
      P1  H  7997  8009       L1     3  1.00

> <Gold.PLP.Chemscore.Internal.Correction>
0.0247

> <Gold.Rescore>
     Score         DG    S(hbond)    S(metal)    S(lipo)     H(rot)  DE(clash)    DE(int)     intcor
     15.95     -20.29       2.29        0.00     103.28       1.92       2.80       1.53       ----

> <Gold.Chemscore.Fitness>
15.9495

> <Gold.Chemscore.DG>
-20.2882

> <Gold.Chemscore.ZeroCoef>
-5.4800

> <Gold.Chemscore.Hbond>
2.2871

> <Gold.Chemscore.Metal>
0.0000

> <Gold.Chemscore.Lipo>
103.2840

> <Gold.Chemscore.Internal_Hbond>
0.0000

> <Gold.Chemscore.DEClash>
2.8042

> <Gold.Chemscore.DEInternal>
1.5345

> <Gold.Chemscore.Rot>
1.9198

> <Gold.Chemscore.Internal.Correction>
   9.000000E+99

> <Gold.Chemscore.Hbonds>
donor molecule, donor type, donor heavy atom, donor atom, acceptor molecule, acceptor atom, score
      L1  H    13    32       P1  7957  0.55
      L1  H    15    47       P1  7948  0.96
      P1  H  7997  8009       L1     3  0.43

> <Gold.Chemscore.Hbond.Weighted>
-7.6388

> <Gold.Chemscore.Metal.Weighted>
-0.0000

> <Gold.Chemscore.Lipo.Weighted>
-12.0842

> <Gold.Chemscore.Internal_Hbond.Weighted>
0.0000

> <Gold.Chemscore.DEClash.Weighted>
2.8042

> <Gold.Chemscore.DEInternal.Weighted>
1.5345

> <Gold.Chemscore.Rot.Weighted>
4.9147

> <Gold.Chemscore.Internal.Correction.Weighted>
   9.000000E+99

> <Gold.Protein.RotatedTorsions>
[ 6907 6896 6895 6894 ] final  110.90 input  -60.11 | X-H torsion
[ 7974 7965 7964 7962 ] final   -5.98 input  175.53 | X-H torsion
[ 8008 7997 7996 7995 ] final  174.52 input   59.86 | X-H torsion
[ 10167 10162 10161 10158 ] final -138.07 input  -65.29 | X-H torsion
[ 10718 10713 10712 10709 ] final   44.22 input   66.30 | X-H torsion
[ 10763 10752 10751 10750 ] final -156.61 input  -60.55 | X-H torsion
[ 11005 11000 10999 10996 ] final -155.46 input  -57.11 | X-H torsion

> <Gold.Protein.ActiveResidues>
 VAL166  LYS551  ARG553  GLY616  TRP617  ASP618  TYR619  PRO620  LYS621  CYS622 
 ASP623  PHE694  ASN695  SER759  ASP760  ASP761  ALA762  ILE779  LEU786  VAL792 
 PHE793  MET794  SER795  GLU796  ALA797  LYS798  CYS799  TRP800  GLU811  SER814 

> <Gold.Protein.RotatedAtoms>
  152.4997  133.8734  159.7309 H   0  0  0  0  0  0  0  0  0  0  0  0  # atno 6907 bound_to 6896
  150.9215  133.6866  159.2838 H   0  0  0  0  0  0  0  0  0  0  0  0  # atno 6908 bound_to 6896
  151.4241  135.1006  159.9675 H   0  0  0  0  0  0  0  0  0  0  0  0  # atno 6909 bound_to 6896
  146.2341  140.2102  142.8335 H   0  0  0  0  0  0  0  0  0  0  0  0  # atno 7974 bound_to 7965
  156.0965  140.1432  156.9524 H   0  0  0  0  0  0  0  0  0  0  0  0  # atno 8008 bound_to 7997
  154.4675  140.0921  156.7104 H   0  0  0  0  0  0  0  0  0  0  0  0  # atno 8009 bound_to 7997
  155.4832  140.3445  155.4345 H   0  0  0  0  0  0  0  0  0  0  0  0  # atno 8010 bound_to 7997
  139.8515  143.7193  152.2657 H   0  0  0  0  0  0  0  0  0  0  0  0  # atno 10167 bound_to 10162
  157.4245  130.7988  149.7546 H   0  0  0  0  0  0  0  0  0  0  0  0  # atno 10718 bound_to 10713
  154.7699  135.3142  154.8210 H   0  0  0  0  0  0  0  0  0  0  0  0  # atno 10763 bound_to 10752
  153.8948  135.6822  153.4762 H   0  0  0  0  0  0  0  0  0  0  0  0  # atno 10764 bound_to 10752
  153.1311  135.4779  154.9285 H   0  0  0  0  0  0  0  0  0  0  0  0  # atno 10765 bound_to 10752
  140.6862  134.4091  157.5223 H   0  0  0  0  0  0  0  0  0  0  0  0  # atno 11005 bound_to 11000
  144.9713  140.8371  143.5454 LP  0  0  0  0  0  0  0  0  0  0  0  0  # atno 17320 bound_to 7965
  145.2084  139.2217  143.5156 LP  0  0  0  0  0  0  0  0  0  0  0  0  # atno 17321 bound_to 7965
  139.7461  144.7547  151.0578 LP  0  0  0  0  0  0  0  0  0  0  0  0  # atno 17342 bound_to 10162
  140.7787  143.4915  150.9887 LP  0  0  0  0  0  0  0  0  0  0  0  0  # atno 17343 bound_to 10162
  155.9892  130.3954  150.3085 LP  0  0  0  0  0  0  0  0  0  0  0  0  # atno 17370 bound_to 10713
  157.1236  131.0253  151.2999 LP  0  0  0  0  0  0  0  0  0  0  0  0  # atno 17371 bound_to 10713
  139.8937  134.8725  156.2212 LP  0  0  0  0  0  0  0  0  0  0  0  0  # atno 17394 bound_to 11000
  141.0278  133.7005  156.1378 LP  0  0  0  0  0  0  0  0  0  0  0  0  # atno 17395 bound_to 11000

$$$$
