AV-unprocessed.smi:3295|AV-procd|sdf|12636|dock2
  -GOLD-   2272018573D 1   1.00000     0.00000
 Structure written by MMmdl.
 38 39  0  0  0  0  0  0  0  0  2 V2000
  150.0794  138.7553  154.3995 C   0  0  0  0  0  0  0  0  0  0  0  0
  149.0605  139.8777  154.3047 C   0  0  0  0  0  0  0  0  0  0  0  0
  149.3970  141.1628  154.7829 C   0  0  0  0  0  0  0  0  0  0  0  0
  148.5047  142.1719  154.7016 N   0  3  0  0  0  0  0  0  0  0  0  0
  147.2753  142.0172  154.1683 C   0  0  0  0  0  0  0  0  0  0  0  0
  146.8772  140.7597  153.6733 C   0  0  0  0  0  0  0  0  0  0  0  0
  147.7722  139.6616  153.7505 C   0  0  0  0  0  0  0  0  0  0  0  0
  147.4525  138.3641  153.2588 N   0  0  0  0  0  0  0  0  0  0  0  0
  146.2614  137.7416  153.2423 C   0  0  0  0  0  0  0  0  0  0  0  0
  145.2081  138.2107  153.6720 O   0  0  0  0  0  0  0  0  0  0  0  0
  146.3641  136.5184  152.7049 N   0  0  0  0  0  0  0  0  0  0  0  0
  145.2536  135.5908  152.5065 C   0  0  0  0  0  0  0  0  0  0  0  0
  145.2045  135.0026  151.0729 C   0  0  0  0  0  0  0  0  0  0  0  0
  145.3025  136.0699  150.1500 O   0  0  0  0  0  0  0  0  0  0  0  0
  146.2548  133.9171  150.7860 C   0  0  0  0  0  0  0  0  0  0  0  0
  145.6535  132.6302  151.3596 C   0  0  0  0  0  0  0  0  0  0  0  0
  144.1291  132.8186  151.3133 C   0  0  0  0  0  0  0  0  0  0  0  0
  143.8858  134.2549  150.8276 C   0  0  0  0  0  0  0  0  0  0  0  0
  151.0051  139.0991  154.8623 H   0  0  0  0  0  0  0  0  0  0  0  0
  150.3212  138.3741  153.4068 H   0  0  0  0  0  0  0  0  0  0  0  0
  149.6875  137.9339  155.0001 H   0  0  0  0  0  0  0  0  0  0  0  0
  150.3502  141.4145  155.2248 H   0  0  0  0  0  0  0  0  0  0  0  0
  146.6524  142.8994  154.1471 H   0  0  0  0  0  0  0  0  0  0  0  0
  145.8965  140.6669  153.2327 H   0  0  0  0  0  0  0  0  0  0  0  0
  148.2395  137.8160  152.9442 H   0  0  0  0  0  0  0  0  0  0  0  0
  147.2711  136.2118  152.3853 H   0  0  0  0  0  0  0  0  0  0  0  0
  145.3979  134.7861  153.2277 H   0  0  0  0  0  0  0  0  0  0  0  0
  144.2999  136.0525  152.7696 H   0  0  0  0  0  0  0  0  0  0  0  0
  145.4493  135.7103  149.2886 H   0  0  0  0  0  0  0  0  0  0  0  0
  146.3692  133.7952  149.7076 H   0  0  0  0  0  0  0  0  0  0  0  0
  147.2456  134.1339  151.1846 H   0  0  0  0  0  0  0  0  0  0  0  0
  145.9776  131.7498  150.8039 H   0  0  0  0  0  0  0  0  0  0  0  0
  145.9755  132.5003  152.3936 H   0  0  0  0  0  0  0  0  0  0  0  0
  143.6530  132.0966  150.6488 H   0  0  0  0  0  0  0  0  0  0  0  0
  143.7056  132.6734  152.3078 H   0  0  0  0  0  0  0  0  0  0  0  0
  143.0314  134.7246  151.3166 H   0  0  0  0  0  0  0  0  0  0  0  0
  143.6667  134.2251  149.7587 H   0  0  0  0  0  0  0  0  0  0  0  0
  148.7728  143.0915  155.0532 H   0  0  0  0  0  0  0  0  0  0  0  0
  1  2  1  0  0  0  0
  1 19  1  0  0  0  0
  1 20  1  0  0  0  0
  1 21  1  0  0  0  0
  2  7  1  0  0  0  0
  2  3  2  0  0  0  0
  3  4  1  0  0  0  0
  3 22  1  0  0  0  0
  4  5  2  0  0  0  0
  4 38  1  0  0  0  0
  5  6  1  0  0  0  0
  5 23  1  0  0  0  0
  6  7  2  0  0  0  0
  6 24  1  0  0  0  0
  7  8  1  0  0  0  0
  8  9  1  0  0  0  0
  8 25  1  0  0  0  0
  9 10  2  0  0  0  0
  9 11  1  0  0  0  0
 11 12  1  0  0  0  0
 11 26  1  0  0  0  0
 12 13  1  0  0  0  0
 12 27  1  0  0  0  0
 12 28  1  0  0  0  0
 13 18  1  0  0  0  0
 13 14  1  0  0  0  0
 13 15  1  0  0  0  0
 14 29  1  0  0  0  0
 15 16  1  0  0  0  0
 15 30  1  0  0  0  0
 15 31  1  0  0  0  0
 16 17  1  0  0  0  0
 16 32  1  0  0  0  0
 16 33  1  0  0  0  0
 17 18  1  0  0  0  0
 17 34  1  0  0  0  0
 17 35  1  0  0  0  0
 18 36  1  0  0  0  0
 18 37  1  0  0  0  0
M  CHG  1   4   1
M  END
> <s_m_source_file>
AV-unprocessed.smi

> <i_m_source_file_index>
3295

> <i_lp_mmshare_version>
43012

> <i_f3d_flags>
0

> <s_epik_input>
W0NIM11jMVtjSF1uW2NIXVtjSF1jMVtOSF1DKD1PKVtOSF1bQ0gyXUMyKFtPSF0pW0NIMl1bQ0gyXVtDSDJdW0NIMl0y

> <s_epik_cmdline>
J2VwaWtfcHl0aG9uJywgJy1waCcsICc3LjAnLCAnLXRuJywgJzgnLCAnLW1hJywgJzIwMCcsICctbWV0YWxfYmluZGluZycsICctaW1hZScsICc8aW5maWxlLm1hZT4nLCAnLW9tYWUnLCAnPG91dGZpbGUubWFlPic=

> <r_epik_Ionization_Penalty>
0.684362

> <r_epik_Ionization_Penalty_Charging>
0.684339

> <r_epik_Ionization_Penalty_Neutral>
2.25036e-05

> <r_epik_State_Penalty>
0.705654

> <r_epik_Charging_Adjusted_Penalty>
1.38999

> <i_epik_Tot_Q>
1

> <i_epik_Tot_abs_Q>
1

> <r_epik_Metal_State_Penalty>
0.870015

> <b_epik_Metal_Only>
0

> <s_lp_Force_Field>
OPLS_2005

> <r_lp_Energy>
34.1555

> <b_lp_Chiralities_Consistent>
1

> <s_lp_Variant>
AV-unprocessed.smi:3295-2

> <Gold.Version>
5.8.1

> <Gold.Id.Protein>
6NUR|6NUR_protein|mol2

> <Gold.PLP.Fitness>
48.9871

> <Gold.PLP.PLP>
-35.0162

> <Gold.PLP.part.hbond>
-5.0000

> <Gold.PLP.part.metal>
0.0000

> <Gold.PLP.part.buried>
-5.1048

> <Gold.PLP.part.nonpolar>
-25.4411

> <Gold.PLP.part.repulsive>
0.4320

> <Gold.PLP.ligand.clash>
0.0000

> <Gold.PLP.ligand.torsion>
0.3889

> <Gold.PLP.Chemscore.Hbond>
4.9120

> <Gold.PLP.Chemscore.CHOScore>
0.0000

> <Gold.PLP.Chemscore.Metal>
0.0000

> <Gold.Chemscore.Hbonds>
donor molecule, donor type, donor heavy atom, donor atom, acceptor molecule, acceptor atom, score
      L1  H     4    38       P1  8028  2.00
      L1  H     8    25       P1  7948  0.98
      L1  H    11    26       P1  7948  1.00
      L1  H    14    29       P1  7921  1.00

> <Gold.PLP.Chemscore.Internal.Correction>
0.0127

> <Gold.Rescore>
     Score         DG    S(hbond)    S(metal)    S(lipo)     H(rot)  DE(clash)    DE(int)     intcor
     21.54     -23.47       3.90        0.00      80.38       1.74       0.57       1.35       ----

> <Gold.Chemscore.Fitness>
21.5425

> <Gold.Chemscore.DG>
-23.4711

> <Gold.Chemscore.ZeroCoef>
-5.4800

> <Gold.Chemscore.Hbond>
3.9032

> <Gold.Chemscore.Metal>
0.0000

> <Gold.Chemscore.Lipo>
80.3756

> <Gold.Chemscore.Internal_Hbond>
0.0000

> <Gold.Chemscore.DEClash>
0.5737

> <Gold.Chemscore.DEInternal>
1.3549

> <Gold.Chemscore.Rot>
1.7382

> <Gold.Chemscore.Internal.Correction>
   9.000000E+99

> <Gold.Chemscore.Hbonds>
donor molecule, donor type, donor heavy atom, donor atom, acceptor molecule, acceptor atom, score
      L1  H     4    38       P1  8028  1.00
      L1  H     8    25       P1  7948  0.87
      L1  H    11    26       P1  7948  1.00
      L1  H    14    29       P1  7921  0.97

> <Gold.Chemscore.Hbond.Weighted>
-13.0368

> <Gold.Chemscore.Metal.Weighted>
-0.0000

> <Gold.Chemscore.Lipo.Weighted>
-9.4039

> <Gold.Chemscore.Internal_Hbond.Weighted>
0.0000

> <Gold.Chemscore.DEClash.Weighted>
0.5737

> <Gold.Chemscore.DEInternal.Weighted>
1.3549

> <Gold.Chemscore.Rot.Weighted>
4.4497

> <Gold.Chemscore.Internal.Correction.Weighted>
   9.000000E+99

> <Gold.Protein.RotatedTorsions>
[ 6907 6896 6895 6894 ] final  159.95 input  -60.11 | X-H torsion
[ 7974 7965 7964 7962 ] final -143.65 input  175.53 | X-H torsion
[ 8008 7997 7996 7995 ] final  107.89 input   59.86 | X-H torsion
[ 10167 10162 10161 10158 ] final  151.45 input  -65.29 | X-H torsion
[ 10718 10713 10712 10709 ] final  172.10 input   66.30 | X-H torsion
[ 10763 10752 10751 10750 ] final  -32.26 input  -60.55 | X-H torsion
[ 11005 11000 10999 10996 ] final  111.58 input  -57.11 | X-H torsion

> <Gold.Protein.ActiveResidues>
 VAL166  LYS551  ARG553  GLY616  TRP617  ASP618  TYR619  PRO620  LYS621  CYS622 
 ASP623  PHE694  ASN695  SER759  ASP760  ASP761  ALA762  ILE779  LEU786  VAL792 
 PHE793  MET794  SER795  GLU796  ALA797  LYS798  CYS799  TRP800  GLU811  SER814 

> <Gold.Protein.RotatedAtoms>
  151.9780  133.3748  159.4096 H   0  0  0  0  0  0  0  0  0  0  0  0  # atno 6907 bound_to 6896
  150.6939  134.4069  159.5153 H   0  0  0  0  0  0  0  0  0  0  0  0  # atno 6908 bound_to 6896
  152.1784  134.8775  160.0579 H   0  0  0  0  0  0  0  0  0  0  0  0  # atno 6909 bound_to 6896
  144.8354  140.5808  143.5487 H   0  0  0  0  0  0  0  0  0  0  0  0  # atno 7974 bound_to 7965
  156.1860  140.3086  155.9239 H   0  0  0  0  0  0  0  0  0  0  0  0  # atno 8008 bound_to 7997
  155.3280  140.0459  157.3058 H   0  0  0  0  0  0  0  0  0  0  0  0  # atno 8009 bound_to 7997
  154.5396  140.2257  155.8673 H   0  0  0  0  0  0  0  0  0  0  0  0  # atno 8010 bound_to 7997
  139.4840  144.5440  151.7516 H   0  0  0  0  0  0  0  0  0  0  0  0  # atno 10167 bound_to 10162
  156.9838  131.0127  151.2874 H   0  0  0  0  0  0  0  0  0  0  0  0  # atno 10718 bound_to 10713
  153.8108  135.6882  153.4841 H   0  0  0  0  0  0  0  0  0  0  0  0  # atno 10763 bound_to 10752
  153.1630  135.4572  154.9796 H   0  0  0  0  0  0  0  0  0  0  0  0  # atno 10764 bound_to 10752
  154.7968  135.3322  154.7589 H   0  0  0  0  0  0  0  0  0  0  0  0  # atno 10765 bound_to 10752
  139.8907  134.9511  156.6454 H   0  0  0  0  0  0  0  0  0  0  0  0  # atno 11005 bound_to 11000
  145.4806  139.1496  143.3764 LP  0  0  0  0  0  0  0  0  0  0  0  0  # atno 17320 bound_to 7965
  146.2653  140.4942  142.8836 LP  0  0  0  0  0  0  0  0  0  0  0  0  # atno 17321 bound_to 7965
  140.4983  144.1207  150.5965 LP  0  0  0  0  0  0  0  0  0  0  0  0  # atno 17342 bound_to 10162
  140.4091  143.2665  151.9854 LP  0  0  0  0  0  0  0  0  0  0  0  0  # atno 17343 bound_to 10162
  157.5507  130.8180  149.8141 LP  0  0  0  0  0  0  0  0  0  0  0  0  # atno 17370 bound_to 10713
  156.0234  130.3788  150.1895 LP  0  0  0  0  0  0  0  0  0  0  0  0  # atno 17371 bound_to 10713
  140.7561  133.8856  155.8383 LP  0  0  0  0  0  0  0  0  0  0  0  0  # atno 17394 bound_to 11000
  140.9960  134.1214  157.4363 LP  0  0  0  0  0  0  0  0  0  0  0  0  # atno 17395 bound_to 11000

$$$$
