AV-unprocessed.smi:1284|AV-procd|sdf|5363|dock4
  -GOLD-   22720 4503D 1   1.00000     0.00000
 Structure written by MMmdl.
 39 41  0  0  0  0  0  0  0  0  1 V2000
  149.7240  137.6116  155.9754 N   0  0  0  0  0  0  0  0  0  0  0  0
  150.9454  137.5958  155.4341 C   0  0  0  0  0  0  0  0  0  0  0  0
  151.6195  136.5702  155.3677 O   0  0  0  0  0  0  0  0  0  0  0  0
  151.4825  138.9164  154.8742 C   0  0  0  0  0  0  0  0  0  0  0  0
  151.5856  139.9128  155.9956 C   0  0  0  0  0  0  0  0  0  0  0  0
  152.3508  139.6847  157.0655 N   0  0  0  0  0  0  0  0  0  0  0  0
  152.1504  140.8156  157.8322 C   0  0  0  0  0  0  0  0  0  0  0  0
  152.6855  141.1801  159.0883 C   0  0  0  0  0  0  0  0  0  0  0  0
  152.3262  142.4044  159.6890 C   0  0  0  0  0  0  0  0  0  0  0  0
  151.4289  143.2800  159.0437 C   0  0  0  0  0  0  0  0  0  0  0  0
  150.8860  142.9366  157.7905 C   0  0  0  0  0  0  0  0  0  0  0  0
  151.2485  141.7134  157.1953 C   0  0  0  0  0  0  0  0  0  0  0  0
  150.9031  141.0880  156.0019 N   0  0  0  0  0  0  0  0  0  0  0  0
  149.9929  141.6211  154.9966 C   0  0  0  0  0  0  0  0  0  0  0  0
  148.7161  140.7712  154.8396 C   0  0  2  0  0  0  0  0  0  0  0  0
  148.8499  139.8870  153.7436 O   0  0  0  0  0  0  0  0  0  0  0  0
  147.4817  141.6504  154.7176 C   0  0  0  0  0  0  0  0  0  0  0  0
  146.5128  141.6558  155.7442 C   0  0  0  0  0  0  0  0  0  0  0  0
  145.3713  142.4742  155.6384 C   0  0  0  0  0  0  0  0  0  0  0  0
  145.1932  143.2931  154.5068 C   0  0  0  0  0  0  0  0  0  0  0  0
  146.1586  143.2955  153.4819 C   0  0  0  0  0  0  0  0  0  0  0  0
  147.3002  142.4775  153.5873 C   0  0  0  0  0  0  0  0  0  0  0  0
  149.3365  136.7644  156.3644 H   0  0  0  0  0  0  0  0  0  0  0  0
  149.1963  138.4724  156.0021 H   0  0  0  0  0  0  0  0  0  0  0  0
  152.4501  138.7681  154.3952 H   0  0  0  0  0  0  0  0  0  0  0  0
  150.8069  139.2976  154.1070 H   0  0  0  0  0  0  0  0  0  0  0  0
  153.3726  140.5158  159.5911 H   0  0  0  0  0  0  0  0  0  0  0  0
  152.7400  142.6723  160.6500 H   0  0  0  0  0  0  0  0  0  0  0  0
  151.1576  144.2152  159.5113 H   0  0  0  0  0  0  0  0  0  0  0  0
  150.1985  143.6044  157.2931 H   0  0  0  0  0  0  0  0  0  0  0  0
  149.7248  142.6359  155.2927 H   0  0  0  0  0  0  0  0  0  0  0  0
  150.5113  141.7176  154.0438 H   0  0  0  0  0  0  0  0  0  0  0  0
  148.6029  140.1459  155.7261 H   0  0  0  0  0  0  0  0  0  0  0  0
  149.0886  140.3911  152.9808 H   0  0  0  0  0  0  0  0  0  0  0  0
  146.6414  141.0336  156.6176 H   0  0  0  0  0  0  0  0  0  0  0  0
  144.6325  142.4747  156.4263 H   0  0  0  0  0  0  0  0  0  0  0  0
  144.3176  143.9205  154.4262 H   0  0  0  0  0  0  0  0  0  0  0  0
  146.0249  143.9255  152.6150 H   0  0  0  0  0  0  0  0  0  0  0  0
  148.0387  142.4888  152.7987 H   0  0  0  0  0  0  0  0  0  0  0  0
  1  2  1  0  0  0  0
  1 23  1  0  0  0  0
  1 24  1  0  0  0  0
  2  3  2  0  0  0  0
  2  4  1  0  0  0  0
  4  5  1  0  0  0  0
  4 25  1  0  0  0  0
  4 26  1  0  0  0  0
  5 13  1  0  0  0  0
  5  6  2  0  0  0  0
  6  7  1  0  0  0  0
  7 12  2  0  0  0  0
  7  8  1  0  0  0  0
  8  9  2  0  0  0  0
  8 27  1  0  0  0  0
  9 10  1  0  0  0  0
  9 28  1  0  0  0  0
 10 11  2  0  0  0  0
 10 29  1  0  0  0  0
 11 12  1  0  0  0  0
 11 30  1  0  0  0  0
 12 13  1  0  0  0  0
 13 14  1  0  0  0  0
 14 15  1  0  0  0  0
 14 31  1  0  0  0  0
 14 32  1  0  0  0  0
 15 16  1  0  0  0  0
 15 17  1  0  0  0  0
 15 33  1  0  0  0  0
 16 34  1  0  0  0  0
 17 22  1  0  0  0  0
 17 18  2  0  0  0  0
 18 19  1  0  0  0  0
 18 35  1  0  0  0  0
 19 20  2  0  0  0  0
 19 36  1  0  0  0  0
 20 21  1  0  0  0  0
 20 37  1  0  0  0  0
 21 22  2  0  0  0  0
 21 38  1  0  0  0  0
 22 39  1  0  0  0  0
M  END
> <s_m_source_file>
AV-unprocessed.smi

> <i_m_source_file_index>
1284

> <i_lp_mmshare_version>
43012

> <i_f3d_flags>
0

> <s_epik_input>
W2NIXTFbY0hdW2NIXVtjSF1jKGMxMiluKGMobjIpW0NIMl1DKD1PKVtOSDJdKVtDSDJdW0NASF0oW09IXSljM1tjSF1bY0hdW2NIXVtjSF1bY0hdMw==

> <s_epik_cmdline>
J2VwaWtfcHl0aG9uJywgJy1waCcsICc3LjAnLCAnLXRuJywgJzgnLCAnLW1hJywgJzIwMCcsICctbWV0YWxfYmluZGluZycsICctaW1hZScsICc8aW5maWxlLm1hZT4nLCAnLW9tYWUnLCAnPG91dGZpbGUubWFlPic=

> <r_epik_Ionization_Penalty>
0.0366899

> <r_epik_Ionization_Penalty_Charging>
0

> <r_epik_Ionization_Penalty_Neutral>
0.0366899

> <r_epik_State_Penalty>
0.0306642

> <r_epik_Charging_Adjusted_Penalty>
0.0306642

> <i_epik_Tot_Q>
0

> <i_epik_Tot_abs_Q>
0

> <r_epik_Metal_State_Penalty>
0.028853

> <b_epik_Metal_Only>
0

> <s_lp_Force_Field>
OPLS_2005

> <r_lp_Energy>
12.351

> <b_lp_Chiralities_Consistent>
1

> <s_lp_Variant>
AV-unprocessed.smi:1284-1

> <Gold.Version>
5.8.1

> <Gold.Id.Protein>
6NUR|6NUR_protein|mol2

> <Gold.PLP.Fitness>
51.8275

> <Gold.PLP.PLP>
-45.0710

> <Gold.PLP.part.hbond>
-3.0000

> <Gold.PLP.part.metal>
0.0000

> <Gold.PLP.part.buried>
-5.7281

> <Gold.PLP.part.nonpolar>
-36.1427

> <Gold.PLP.part.repulsive>
0.0987

> <Gold.PLP.ligand.clash>
0.0000

> <Gold.PLP.ligand.torsion>
0.6486

> <Gold.PLP.Chemscore.Hbond>
2.6661

> <Gold.PLP.Chemscore.CHOScore>
0.0000

> <Gold.PLP.Chemscore.Metal>
0.0000

> <Gold.Chemscore.Hbonds>
donor molecule, donor type, donor heavy atom, donor atom, acceptor molecule, acceptor atom, score
      L1  H    16    34       P1  7957  0.75
      P1  H  7997  8009       L1     6  0.66
      P1  H 10752 10764       L1     3  1.00

> <Gold.PLP.Chemscore.Internal.Correction>
0.0553

> <Gold.Rescore>
     Score         DG    S(hbond)    S(metal)    S(lipo)     H(rot)  DE(clash)    DE(int)     intcor
     15.78     -18.02       2.21        0.00     106.68       2.86       0.51       1.72       ----

> <Gold.Chemscore.Fitness>
15.7829

> <Gold.Chemscore.DG>
-18.0163

> <Gold.Chemscore.ZeroCoef>
-5.4800

> <Gold.Chemscore.Hbond>
2.2090

> <Gold.Chemscore.Metal>
0.0000

> <Gold.Chemscore.Lipo>
106.6780

> <Gold.Chemscore.Internal_Hbond>
0.0000

> <Gold.Chemscore.DEClash>
0.5137

> <Gold.Chemscore.DEInternal>
1.7197

> <Gold.Chemscore.Rot>
2.8606

> <Gold.Chemscore.Internal.Correction>
   9.000000E+99

> <Gold.Chemscore.Hbonds>
donor molecule, donor type, donor heavy atom, donor atom, acceptor molecule, acceptor atom, score
      L1  H    16    34       P1  7957  0.75
      P1  H  7997  8009       L1     6  0.06
      P1  H 10752 10764       L1     3  1.00

> <Gold.Chemscore.Hbond.Weighted>
-7.3781

> <Gold.Chemscore.Metal.Weighted>
-0.0000

> <Gold.Chemscore.Lipo.Weighted>
-12.4813

> <Gold.Chemscore.Internal_Hbond.Weighted>
0.0000

> <Gold.Chemscore.DEClash.Weighted>
0.5137

> <Gold.Chemscore.DEInternal.Weighted>
1.7197

> <Gold.Chemscore.Rot.Weighted>
7.3231

> <Gold.Chemscore.Internal.Correction.Weighted>
   9.000000E+99

> <Gold.Protein.RotatedTorsions>
[ 6907 6896 6895 6894 ] final  104.06 input  -60.11 | X-H torsion
[ 7974 7965 7964 7962 ] final  -86.91 input  175.53 | X-H torsion
[ 8008 7997 7996 7995 ] final -168.52 input   59.86 | X-H torsion
[ 10167 10162 10161 10158 ] final   77.36 input  -65.29 | X-H torsion
[ 10718 10713 10712 10709 ] final -178.28 input   66.30 | X-H torsion
[ 10763 10752 10751 10750 ] final  -62.53 input  -60.55 | X-H torsion
[ 11005 11000 10999 10996 ] final  -89.55 input  -57.11 | X-H torsion

> <Gold.Protein.ActiveResidues>
 VAL166  LYS551  ARG553  GLY616  TRP617  ASP618  TYR619  PRO620  LYS621  CYS622 
 ASP623  PHE694  ASN695  SER759  ASP760  ASP761  ALA762  ILE779  LEU786  VAL792 
 PHE793  MET794  SER795  GLU796  ALA797  LYS798  CYS799  TRP800  GLU811  SER814 

> <Gold.Protein.RotatedAtoms>
  152.5276  133.9732  159.7771 H   0  0  0  0  0  0  0  0  0  0  0  0  # atno 6907 bound_to 6896
  151.0000  133.6057  159.2703 H   0  0  0  0  0  0  0  0  0  0  0  0  # atno 6908 bound_to 6896
  151.3170  135.0815  159.9345 H   0  0  0  0  0  0  0  0  0  0  0  0  # atno 6909 bound_to 6896
  145.4736  140.9559  143.1903 H   0  0  0  0  0  0  0  0  0  0  0  0  # atno 7974 bound_to 7965
  155.8925  140.1027  157.1408 H   0  0  0  0  0  0  0  0  0  0  0  0  # atno 8008 bound_to 7997
  154.4016  140.1308  156.4397 H   0  0  0  0  0  0  0  0  0  0  0  0  # atno 8009 bound_to 7997
  155.7517  140.3465  155.5156 H   0  0  0  0  0  0  0  0  0  0  0  0  # atno 8010 bound_to 7997
  139.9824  144.5817  150.7889 H   0  0  0  0  0  0  0  0  0  0  0  0  # atno 10167 bound_to 10162
  156.8420  130.9689  151.3099 H   0  0  0  0  0  0  0  0  0  0  0  0  # atno 10718 bound_to 10713
  154.3013  135.6234  153.5426 H   0  0  0  0  0  0  0  0  0  0  0  0  # atno 10763 bound_to 10752
  152.9840  135.5679  154.5281 H   0  0  0  0  0  0  0  0  0  0  0  0  # atno 10764 bound_to 10752
  154.4912  135.2867  155.1471 H   0  0  0  0  0  0  0  0  0  0  0  0  # atno 10765 bound_to 10752
  141.1582  133.7637  156.9611 H   0  0  0  0  0  0  0  0  0  0  0  0  # atno 11005 bound_to 11000
  144.7931  139.6289  143.7105 LP  0  0  0  0  0  0  0  0  0  0  0  0  # atno 17320 bound_to 7965
  146.2382  139.5948  142.9509 LP  0  0  0  0  0  0  0  0  0  0  0  0  # atno 17321 bound_to 7965
  140.7484  143.2922  151.3300 LP  0  0  0  0  0  0  0  0  0  0  0  0  # atno 17342 bound_to 10162
  139.6400  144.0557  152.2547 LP  0  0  0  0  0  0  0  0  0  0  0  0  # atno 17343 bound_to 10162
  157.6350  130.8760  149.9343 LP  0  0  0  0  0  0  0  0  0  0  0  0  # atno 17370 bound_to 10713
  156.0875  130.3666  150.0459 LP  0  0  0  0  0  0  0  0  0  0  0  0  # atno 17371 bound_to 10713
  140.1192  134.9428  157.2179 LP  0  0  0  0  0  0  0  0  0  0  0  0  # atno 17394 bound_to 11000
  140.3094  134.3041  155.7270 LP  0  0  0  0  0  0  0  0  0  0  0  0  # atno 17395 bound_to 11000

$$$$
