#       Name:                AV-unprocessed.smi:25
#       Creating user name   scv26
#       Creation time:       Thu Mar 26 15:44:24 2020


#       File generated by GOLD software.
#

@<TRIPOS>MOLECULE
AV-unprocessed.smi:25
    55    58     1
SMALL
NO_CHARGES


@<TRIPOS>ATOM
      1 ****        -3.7096  -1.9445   2.2534 C.3            1 S1                 0.0000
      2 ****        -3.0423  -2.3061   0.9115 C.3            1 S1                 0.0000
      3 ****        -3.2240  -3.8036   0.5761 C.3            1 S1                 0.0000
      4 ****        -1.8250  -4.3356   0.6235 C.ar           1 S1                 0.0000
      5 ****        -1.4487  -5.6833   0.4900 C.ar           1 S1                 0.0000
      6 ****        -0.0819  -6.0092   0.5940 C.ar           1 S1                 0.0000
      7 ****         0.8716  -4.9965   0.8375 C.ar           1 S1                 0.0000
      8 ****         0.4749  -3.6476   0.9700 C.ar           1 S1                 0.0000
      9 ****        -0.8967  -3.3194   0.8447 C.ar           1 S1                 0.0000
     10 ****        -1.5803  -2.0692   0.9373 N.am           1 S1                 0.0000
     11 ****        -1.0854  -0.8015   0.8860 C.2            1 S1                 0.0000
     12 ****        -1.8411   0.1733   0.8636 O.2            1 S1                 0.0000
     13 ****         0.4315  -0.5360   0.8239 C.3            1 S1                 0.0000
     14 ****         0.7802   0.8946   0.6561 N.am           1 S1                 0.0000
     15 ****         0.9900   1.6843   1.8140 C.2            1 S1                 0.0000
     16 ****         0.8700   1.2088   2.9442 O.2            1 S1                 0.0000
     17 ****         1.3547   3.0739   1.5690 C.2            1 S1                 0.0000
     18 ****         1.6349   3.8814   2.6059 F              1 S1                 0.0000
     19 ****         1.4337   3.5606   0.3138 C.2            1 S1                 0.0000
     20 ****         1.1541   2.8005  -0.8083 N.am           1 S1                 0.0000
     21 ****         1.3353   3.3510  -2.2085 C.3            1 S1                 0.0000
     22 ****         1.0788   4.8635  -2.3303 C.3            1 S1                 0.0000
     23 ****         2.4837   5.4220  -2.4459 C.3            1 S1                 0.0000
     24 ****         3.2066   4.2865  -3.1592 C.3            1 S1                 0.0000
     25 ****         2.6574   3.1069  -2.5863 O.3            1 S1                 0.0000
     26 ****         0.8704   1.4241  -0.6545 C.2            1 S1                 0.0000
     27 ****         0.6955   0.7014  -1.6381 O.2            1 S1                 0.0000
     28 ****        -4.7742  -2.1782   2.2325 H              1 S1                 0.0000
     29 ****        -3.6184  -0.8832   2.4827 H              1 S1                 0.0000
     30 ****        -3.2638  -2.5014   3.0783 H              1 S1                 0.0000
     31 ****        -3.5010  -1.7158   0.1158 H              1 S1                 0.0000
     32 ****        -3.8614  -4.3265   1.2902 H              1 S1                 0.0000
     33 ****        -3.6366  -3.9426  -0.4237 H              1 S1                 0.0000
     34 ****        -2.1886  -6.4513   0.3188 H              1 S1                 0.0000
     35 ****         0.2361  -7.0368   0.4980 H              1 S1                 0.0000
     36 ****         1.9155  -5.2574   0.9293 H              1 S1                 0.0000
     37 ****         1.2436  -2.9255   1.1773 H              1 S1                 0.0000
     38 ****         0.8848  -0.9223   1.7367 H              1 S1                 0.0000
     39 ****         0.8617  -1.1181   0.0085 H              1 S1                 0.0000
     40 ****         1.7348   4.5899   0.2040 H              1 S1                 0.0000
     41 ****         0.6402   2.8004  -2.8440 H              1 S1                 0.0000
     42 ****         0.5356   5.0400  -3.2595 H              1 S1                 0.0000
     43 ****         0.4845   5.2725  -1.5135 H              1 S1                 0.0000
     44 ****         2.5254   6.3632  -2.9945 H              1 S1                 0.0000
     45 ****         2.9193   5.5834  -1.4598 H              1 S1                 0.0000
     46 ****         2.9846   4.3012  -4.2274 H              1 S1                 0.0000
     47 ****         4.2886   4.3286  -3.0329 H              1 S1                 0.0000
     48 ****        -2.8318   0.0385   0.8831 LP             1 S1                 0.0000
     49 ****        -1.4630   1.0983   0.8259 LP             1 S1                 0.0000
     50 ****         0.6199   0.2473   3.0582 LP             1 S1                 0.0000
     51 ****         1.0228   1.7843   3.7476 LP             1 S1                 0.0000
     52 ****         2.6818   2.3665  -3.2580 LP             1 S1                 0.0000
     53 ****         3.1919   2.8456  -1.7825 LP             1 S1                 0.0000
     54 ****         0.4877  -0.2690  -1.5150 LP             1 S1                 0.0000
     55 ****         0.7615   1.0856  -2.5590 LP             1 S1                 0.0000
@<TRIPOS>BOND
    1    1    2 1     
    2    1   28 1     
    3    1   29 1     
    4    1   30 1     
    5    2   10 1     
    6    2    3 1     
    7    2   31 1     
    8    3    4 1     
    9    3   32 1     
   10    3   33 1     
   11    4    9 ar    
   12    4    5 ar    
   13    5    6 ar    
   14    5   34 1     
   15    6    7 ar    
   16    6   35 1     
   17    7    8 ar    
   18    7   36 1     
   19    8    9 ar    
   20    8   37 1     
   21    9   10 1     
   22   10   11 am    
   23   11   12 2     
   24   11   13 1     
   25   13   14 1     
   26   13   38 1     
   27   13   39 1     
   28   14   26 am    
   29   14   15 am    
   30   15   16 2     
   31   15   17 1     
   32   17   18 1     
   33   17   19 2     
   34   19   20 1     
   35   19   40 1     
   36   20   21 1     
   37   20   26 am    
   38   21   25 1     
   39   21   22 1     
   40   21   41 1     
   41   22   23 1     
   42   22   42 1     
   43   22   43 1     
   44   23   24 1     
   45   23   44 1     
   46   23   45 1     
   47   24   25 1     
   48   24   46 1     
   49   24   47 1     
   50   26   27 2     
   51   12   48 1     
   52   12   49 1     
   53   16   50 1     
   54   16   51 1     
   55   25   52 1     
   56   25   53 1     
   57   27   54 1     
   58   27   55 1     
@<TRIPOS>SUBSTRUCTURE
      1 S1             1
@<TRIPOS>SET
LONE_PAIRS      STATIC     ATOMS    <user>   **** ""
8 48 49 50 51 52 53 54 55
ATOM$BLUE        STATIC     ATOMS    COLORGROUP SYSTEM
8 48 49 50 51 52 53 54 55
