AV-unprocessed.smi:2788|AV-procd|sdf|10760|dock6
  -GOLD-   2272015193D 1   1.00000     0.00000
 Structure written by MMmdl.
 47 48  0  0  0  0  0  0  0  0  1 V2000
  149.9957  136.3161  155.5706 C   0  0  0  0  0  0  0  0  0  0  0  0
  150.3217  134.9330  156.0577 C   0  0  0  0  0  0  0  0  0  0  0  0
  150.7986  134.7739  157.2804 N   0  0  0  0  0  0  0  0  0  0  0  0
  150.9850  133.3980  157.4436 O   0  0  0  0  0  0  0  0  0  0  0  0
  150.6058  132.7746  156.2994 C   0  0  0  0  0  0  0  0  0  0  0  0
  150.7189  131.2879  156.2789 C   0  0  0  0  0  0  0  0  0  0  0  0
  150.1741  133.6887  155.3781 C   0  0  0  0  0  0  0  0  0  0  0  0
  149.6564  133.4401  153.9838 C   0  0  0  0  0  0  0  0  0  0  0  0
  148.1287  133.3907  153.9977 C   0  0  0  0  0  0  0  0  0  0  0  0
  147.5537  132.6448  154.7883 O   0  0  0  0  0  0  0  0  0  0  0  0
  147.5109  134.1893  153.1074 N   0  0  0  0  0  0  0  0  0  0  0  0
  146.0820  134.4210  152.8378 C   0  0  1  0  0  0  0  0  0  0  0  0
  145.1714  133.7145  153.8790 C   0  0  0  0  0  0  0  0  0  0  0  0
  145.8924  135.9487  153.0547 C   0  0  0  0  0  0  0  0  0  0  0  0
  146.6094  136.7327  152.1217 O   0  0  0  0  0  0  0  0  0  0  0  0
  145.7257  134.0009  151.3644 C   0  0  0  0  0  0  0  0  0  0  0  0
  144.2812  134.3536  150.9204 C   0  0  0  0  0  0  0  0  0  0  0  0
  144.0271  134.0057  149.4453 C   0  0  0  0  0  0  0  0  0  0  0  0
  144.2954  132.5206  149.1733 C   0  0  0  0  0  0  0  0  0  0  0  0
  145.7204  132.1420  149.5952 C   0  0  0  0  0  0  0  0  0  0  0  0
  145.9842  132.4988  151.0673 C   0  0  0  0  0  0  0  0  0  0  0  0
  150.0781  136.3855  154.4862 H   0  0  0  0  0  0  0  0  0  0  0  0
  150.6700  137.0588  155.9984 H   0  0  0  0  0  0  0  0  0  0  0  0
  148.9776  136.5934  155.8447 H   0  0  0  0  0  0  0  0  0  0  0  0
  149.7647  130.8268  156.5332 H   0  0  0  0  0  0  0  0  0  0  0  0
  151.4648  130.9421  156.9948 H   0  0  0  0  0  0  0  0  0  0  0  0
  151.0127  130.9336  155.2909 H   0  0  0  0  0  0  0  0  0  0  0  0
  149.9783  134.2164  153.2894 H   0  0  0  0  0  0  0  0  0  0  0  0
  150.0401  132.5022  153.5810 H   0  0  0  0  0  0  0  0  0  0  0  0
  148.1311  134.7343  152.5266 H   0  0  0  0  0  0  0  0  0  0  0  0
  144.1219  133.9596  153.7141 H   0  0  0  0  0  0  0  0  0  0  0  0
  145.4190  134.0245  154.8949 H   0  0  0  0  0  0  0  0  0  0  0  0
  145.2377  132.6292  153.8562 H   0  0  0  0  0  0  0  0  0  0  0  0
  144.8370  136.2141  152.9776 H   0  0  0  0  0  0  0  0  0  0  0  0
  146.1953  136.2517  154.0569 H   0  0  0  0  0  0  0  0  0  0  0  0
  147.4065  136.2779  151.8960 H   0  0  0  0  0  0  0  0  0  0  0  0
  146.3838  134.5699  150.7065 H   0  0  0  0  0  0  0  0  0  0  0  0
  143.5551  133.8166  151.5293 H   0  0  0  0  0  0  0  0  0  0  0  0
  144.0782  135.4145  151.0559 H   0  0  0  0  0  0  0  0  0  0  0  0
  142.9987  134.2509  149.1784 H   0  0  0  0  0  0  0  0  0  0  0  0
  144.6663  134.6179  148.8079 H   0  0  0  0  0  0  0  0  0  0  0  0
  143.5753  131.9108  149.7207 H   0  0  0  0  0  0  0  0  0  0  0  0
  144.1483  132.3017  148.1153 H   0  0  0  0  0  0  0  0  0  0  0  0
  145.8825  131.0754  149.4372 H   0  0  0  0  0  0  0  0  0  0  0  0
  146.4396  132.6604  148.9599 H   0  0  0  0  0  0  0  0  0  0  0  0
  147.0146  132.2285  151.2920 H   0  0  0  0  0  0  0  0  0  0  0  0
  145.3557  131.8765  151.7052 H   0  0  0  0  0  0  0  0  0  0  0  0
  1  2  1  0  0  0  0
  1 22  1  0  0  0  0
  1 23  1  0  0  0  0
  1 24  1  0  0  0  0
  2  7  1  0  0  0  0
  2  3  2  0  0  0  0
  3  4  1  0  0  0  0
  4  5  1  0  0  0  0
  5  6  1  0  0  0  0
  5  7  2  0  0  0  0
  6 25  1  0  0  0  0
  6 26  1  0  0  0  0
  6 27  1  0  0  0  0
  7  8  1  0  0  0  0
  8  9  1  0  0  0  0
  8 28  1  0  0  0  0
  8 29  1  0  0  0  0
  9 10  2  0  0  0  0
  9 11  1  0  0  0  0
 11 12  1  0  0  0  0
 11 30  1  0  0  0  0
 12 13  1  0  0  0  0
 12 14  1  0  0  0  0
 12 16  1  0  0  0  0
 13 31  1  0  0  0  0
 13 32  1  0  0  0  0
 13 33  1  0  0  0  0
 14 15  1  0  0  0  0
 14 34  1  0  0  0  0
 14 35  1  0  0  0  0
 15 36  1  0  0  0  0
 16 21  1  0  0  0  0
 16 17  1  0  0  0  0
 16 37  1  0  0  0  0
 17 18  1  0  0  0  0
 17 38  1  0  0  0  0
 17 39  1  0  0  0  0
 18 19  1  0  0  0  0
 18 40  1  0  0  0  0
 18 41  1  0  0  0  0
 19 20  1  0  0  0  0
 19 42  1  0  0  0  0
 19 43  1  0  0  0  0
 20 21  1  0  0  0  0
 20 44  1  0  0  0  0
 20 45  1  0  0  0  0
 21 46  1  0  0  0  0
 21 47  1  0  0  0  0
M  END
> <s_m_source_file>
AV-unprocessed.smi

> <i_m_source_file_index>
2788

> <i_lp_mmshare_version>
43012

> <i_f3d_flags>
0

> <s_epik_input>
W0NIM11jMW5vYyhbQ0gzXSljMVtDSDJdQyg9TylbTkhdW0NAQF0oW0NIM10pKFtDSDJdW09IXSlbQ0hdMltDSDJdW0NIMl1bQ0gyXVtDSDJdW0NIMl0y

> <s_epik_cmdline>
J2VwaWtfcHl0aG9uJywgJy1waCcsICc3LjAnLCAnLXRuJywgJzgnLCAnLW1hJywgJzIwMCcsICctbWV0YWxfYmluZGluZycsICctaW1hZScsICc8aW5maWxlLm1hZT4nLCAnLW9tYWUnLCAnPG91dGZpbGUubWFlPic=

> <r_lp_tautomer_probability>
1

> <r_epik_Ionization_Penalty>
1.3408e-07

> <r_epik_Ionization_Penalty_Charging>
0

> <r_epik_Ionization_Penalty_Neutral>
1.3408e-07

> <r_epik_State_Penalty>
-0

> <r_epik_Charging_Adjusted_Penalty>
0

> <i_epik_Tot_Q>
0

> <i_epik_Tot_abs_Q>
0

> <r_epik_Metal_State_Penalty>
-0

> <b_epik_Metal_Only>
0

> <s_lp_Force_Field>
OPLS_2005

> <r_lp_Energy>
15.0378

> <b_lp_Chiralities_Consistent>
1

> <s_lp_Variant>
AV-unprocessed.smi:2788-1

> <Gold.Version>
5.8.1

> <Gold.Id.Protein>
6NUR|6NUR_protein|mol2

> <Gold.PLP.Fitness>
40.4454

> <Gold.PLP.PLP>
-33.3013

> <Gold.PLP.part.hbond>
-3.6180

> <Gold.PLP.part.metal>
0.0000

> <Gold.PLP.part.buried>
-2.6686

> <Gold.PLP.part.nonpolar>
-27.9186

> <Gold.PLP.part.repulsive>
0.0107

> <Gold.PLP.ligand.clash>
0.0000

> <Gold.PLP.ligand.torsion>
0.4664

> <Gold.PLP.Chemscore.Hbond>
2.6640

> <Gold.PLP.Chemscore.CHOScore>
0.0000

> <Gold.PLP.Chemscore.Metal>
0.0000

> <Gold.Chemscore.Hbonds>
donor molecule, donor type, donor heavy atom, donor atom, acceptor molecule, acceptor atom, score
      L1  H    11    30       P1  7948  1.00
      L1  H    15    36       P1  7948  0.98
      P1  H  6896  6908       L1     4  0.65

> <Gold.PLP.Chemscore.Internal.Correction>
0.0848

> <Gold.Rescore>
     Score         DG    S(hbond)    S(metal)    S(lipo)     H(rot)  DE(clash)    DE(int)     intcor
     15.24     -17.40       2.18        0.00      88.52       2.24       0.23       1.92       ----

> <Gold.Chemscore.Fitness>
15.2405

> <Gold.Chemscore.DG>
-17.3958

> <Gold.Chemscore.ZeroCoef>
-5.4800

> <Gold.Chemscore.Hbond>
2.1803

> <Gold.Chemscore.Metal>
0.0000

> <Gold.Chemscore.Lipo>
88.5233

> <Gold.Chemscore.Internal_Hbond>
0.0000

> <Gold.Chemscore.DEClash>
0.2326

> <Gold.Chemscore.DEInternal>
1.9227

> <Gold.Chemscore.Rot>
2.2357

> <Gold.Chemscore.Internal.Correction>
   9.000000E+99

> <Gold.Chemscore.Hbonds>
donor molecule, donor type, donor heavy atom, donor atom, acceptor molecule, acceptor atom, score
      L1  H    11    30       P1  7948  0.55
      L1  H    15    36       P1  7948  0.88
      P1  H  6896  6908       L1     4  0.13

> <Gold.Chemscore.Hbond.Weighted>
-7.2821

> <Gold.Chemscore.Metal.Weighted>
-0.0000

> <Gold.Chemscore.Lipo.Weighted>
-10.3572

> <Gold.Chemscore.Internal_Hbond.Weighted>
0.0000

> <Gold.Chemscore.DEClash.Weighted>
0.2326

> <Gold.Chemscore.DEInternal.Weighted>
1.9227

> <Gold.Chemscore.Rot.Weighted>
5.7235

> <Gold.Chemscore.Internal.Correction.Weighted>
   9.000000E+99

> <Gold.Protein.RotatedTorsions>
[ 6907 6896 6895 6894 ] final   79.62 input  -60.11 | X-H torsion
[ 7974 7965 7964 7962 ] final   32.10 input  175.53 | X-H torsion
[ 8008 7997 7996 7995 ] final   -5.15 input   59.86 | X-H torsion
[ 10167 10162 10161 10158 ] final  102.74 input  -65.29 | X-H torsion
[ 10718 10713 10712 10709 ] final   25.97 input   66.30 | X-H torsion
[ 10763 10752 10751 10750 ] final  -33.10 input  -60.55 | X-H torsion
[ 11005 11000 10999 10996 ] final   71.06 input  -57.11 | X-H torsion

> <Gold.Protein.ActiveResidues>
 VAL166  LYS551  ARG553  GLY616  TRP617  ASP618  TYR619  PRO620  LYS621  CYS622 
 ASP623  PHE694  ASN695  SER759  ASP760  ASP761  ALA762  ILE779  LEU786  VAL792 
 PHE793  MET794  SER795  GLU796  ALA797  LYS798  CYS799  TRP800  GLU811  SER814 

> <Gold.Protein.RotatedAtoms>
  152.5205  134.3484  159.9241 H   0  0  0  0  0  0  0  0  0  0  0  0  # atno 6907 bound_to 6896
  151.3434  133.3947  159.2681 H   0  0  0  0  0  0  0  0  0  0  0  0  # atno 6908 bound_to 6896
  150.9785  134.9163  159.7888 H   0  0  0  0  0  0  0  0  0  0  0  0  # atno 6909 bound_to 6896
  146.1508  139.6570  142.9100 H   0  0  0  0  0  0  0  0  0  0  0  0  # atno 7974 bound_to 7965
  154.6068  140.2465  155.7720 H   0  0  0  0  0  0  0  0  0  0  0  0  # atno 8008 bound_to 7997
  156.2346  140.2954  156.0229 H   0  0  0  0  0  0  0  0  0  0  0  0  # atno 8009 bound_to 7997
  155.2118  140.0397  157.2925 H   0  0  0  0  0  0  0  0  0  0  0  0  # atno 8010 bound_to 7997
  139.7323  144.7033  151.0703 H   0  0  0  0  0  0  0  0  0  0  0  0  # atno 10167 bound_to 10162
  157.2006  130.6888  149.6187 H   0  0  0  0  0  0  0  0  0  0  0  0  # atno 10718 bound_to 10713
  153.8247  135.6871  153.4822 H   0  0  0  0  0  0  0  0  0  0  0  0  # atno 10763 bound_to 10752
  153.1547  135.4604  154.9686 H   0  0  0  0  0  0  0  0  0  0  0  0  # atno 10764 bound_to 10752
  154.7912  135.3302  154.7716 H   0  0  0  0  0  0  0  0  0  0  0  0  # atno 10765 bound_to 10752
  139.9564  134.7137  156.0744 H   0  0  0  0  0  0  0  0  0  0  0  0  # atno 11005 bound_to 11000
  145.4828  141.0438  143.2636 LP  0  0  0  0  0  0  0  0  0  0  0  0  # atno 17320 bound_to 7965
  144.7902  139.6345  143.7117 LP  0  0  0  0  0  0  0  0  0  0  0  0  # atno 17321 bound_to 7965
  140.7773  143.5027  150.9750 LP  0  0  0  0  0  0  0  0  0  0  0  0  # atno 17342 bound_to 10162
  139.8716  143.7186  152.3166 LP  0  0  0  0  0  0  0  0  0  0  0  0  # atno 17343 bound_to 10162
  155.9701  130.4584  150.5998 LP  0  0  0  0  0  0  0  0  0  0  0  0  # atno 17370 bound_to 10713
  157.3771  131.0775  151.1509 LP  0  0  0  0  0  0  0  0  0  0  0  0  # atno 17371 bound_to 10713
  141.1236  133.6605  156.3278 LP  0  0  0  0  0  0  0  0  0  0  0  0  # atno 17394 bound_to 11000
  140.5600  134.5944  157.5431 LP  0  0  0  0  0  0  0  0  0  0  0  0  # atno 17395 bound_to 11000

$$$$
