#       Name:                AV-unprocessed.smi:3160
#       Creating user name   scv26
#       Creation time:       Fri Mar 27 17:48:10 2020


#       File generated by GOLD software.
#

@<TRIPOS>MOLECULE
AV-unprocessed.smi:3160
    41    42     1
SMALL
NO_CHARGES


@<TRIPOS>ATOM
      1 ****        -2.6851  -2.0002   4.5051 C.3            1 S1                 0.0000
      2 ****        -2.6016  -1.7783   3.0224 C.2            1 S1                 0.0000
      3 ****        -3.2709  -2.4956   1.9908 C.2            1 S1                 0.0000
      4 ****        -2.9783  -2.0482   0.7807 N.2            1 S1                 0.0000
      5 ****        -2.1177  -1.0298   0.9932 N.pl3          1 S1                 0.0000
      6 ****        -1.5741  -0.2942  -0.1415 C.3            1 S1                 0.0000
      7 ****        -1.9709   1.1899  -0.0382 C.3            1 S1                 0.0000
      8 ****        -0.0431  -0.4954  -0.2806 C.3            1 S1                 0.0000
      9 ****         0.3881  -1.9722  -0.2170 C.3            1 S1                 0.0000
     10 ****         0.4328   0.0905  -1.5550 N.4            1 S1                 1.0000
     11 ****         1.4046   1.1968  -1.4186 C.3            1 S1                 0.0000
     12 ****         1.7048   1.8715  -2.7564 C.3            1 S1                 0.0000
     13 ****         3.0355   2.5969  -2.5303 C.3            1 S1                 0.0000
     14 ****         3.7395   1.8543  -1.3823 C.3            1 S1                 0.0000
     15 ****         2.7855   0.7372  -0.9426 C.3            1 S1                 0.0000
     16 ****        -1.8727  -0.8467   2.3394 C.2            1 S1                 0.0000
     17 ****        -3.2823  -2.8786   4.7509 H              1 S1                 0.0000
     18 ****        -3.1400  -1.1500   5.0136 H              1 S1                 0.0000
     19 ****        -1.6993  -2.1496   4.9458 H              1 S1                 0.0000
     20 ****        -3.9562  -3.3251   2.0853 H              1 S1                 0.0000
     21 ****        -2.0456  -0.6944  -1.0415 H              1 S1                 0.0000
     22 ****        -1.6845   1.7445  -0.9317 H              1 S1                 0.0000
     23 ****        -1.4967   1.6725   0.8170 H              1 S1                 0.0000
     24 ****        -3.0501   1.2984   0.0763 H              1 S1                 0.0000
     25 ****         0.4397   0.0153   0.5543 H              1 S1                 0.0000
     26 ****         0.1609  -2.4201   0.7507 H              1 S1                 0.0000
     27 ****         1.4631  -2.0738  -0.3692 H              1 S1                 0.0000
     28 ****        -0.1129  -2.5645  -0.9834 H              1 S1                 0.0000
     29 ****         0.8477  -0.6400  -2.1157 H              1 S1                 0.0000
     30 ****         1.0092   1.9469  -0.7312 H              1 S1                 0.0000
     31 ****         1.8322   1.1183  -3.5358 H              1 S1                 0.0000
     32 ****         0.9099   2.5467  -3.0748 H              1 S1                 0.0000
     33 ****         3.6398   2.6155  -3.4379 H              1 S1                 0.0000
     34 ****         2.8521   3.6323  -2.2397 H              1 S1                 0.0000
     35 ****         4.7054   1.4515  -1.6896 H              1 S1                 0.0000
     36 ****         3.9220   2.5421  -0.5555 H              1 S1                 0.0000
     37 ****         2.8246   0.5580   0.1325 H              1 S1                 0.0000
     38 ****         3.0629  -0.1924  -1.4424 H              1 S1                 0.0000
     39 ****        -1.2050  -0.0767   2.6974 H              1 S1                 0.0000
     40 ****        -0.3748   0.4470  -2.0460 H              1 S1                 0.0000
     41 ****        -3.3186  -2.3884  -0.0959 LP             1 S1                 0.0000
@<TRIPOS>BOND
    1    1    2 1     
    2    1   17 1     
    3    1   18 1     
    4    1   19 1     
    5    2   16 2     
    6    2    3 1     
    7    3    4 2     
    8    3   20 1     
    9    4    5 1     
   10    5    6 1     
   11    5   16 1     
   12    6    7 1     
   13    6    8 1     
   14    6   21 1     
   15    7   22 1     
   16    7   23 1     
   17    7   24 1     
   18    8    9 1     
   19    8   10 1     
   20    8   25 1     
   21    9   26 1     
   22    9   27 1     
   23    9   28 1     
   24   10   11 1     
   25   10   29 1     
   26   10   40 1     
   27   11   15 1     
   28   11   12 1     
   29   11   30 1     
   30   12   13 1     
   31   12   31 1     
   32   12   32 1     
   33   13   14 1     
   34   13   33 1     
   35   13   34 1     
   36   14   15 1     
   37   14   35 1     
   38   14   36 1     
   39   15   37 1     
   40   15   38 1     
   41   16   39 1     
   42    4   41 1     
@<TRIPOS>SUBSTRUCTURE
      1 S1             1
@<TRIPOS>SET
LONE_PAIRS      STATIC     ATOMS    <user>   **** ""
1 41
DONOR_HYDROGENS      STATIC     ATOMS    <user>   **** ""
2 29 40
ATOM$BLUE        STATIC     ATOMS    COLORGROUP SYSTEM
1 41
ATOM$RED        STATIC     ATOMS    COLORGROUP SYSTEM
2 29 40
