AV-unprocessed.smi:76|AV-procd|sdf|769|dock4
  -GOLD-   2262017113D 1   1.00000     0.00000
 Structure written by MMmdl.
 55 58  0  0  0  0  0  0  0  0  1 V2000
  149.7940  141.6291  155.7271 C   0  0  0  0  0  0  0  0  0  0  0  0
  150.5120  141.5134  157.0884 C   0  0  2  0  0  0  0  0  0  0  0  0
  150.6161  142.9082  157.7415 C   0  0  0  0  0  0  0  0  0  0  0  0
  151.3525  142.8636  159.0951 C   0  0  2  0  0  0  0  0  0  0  0  0
  151.4629  144.2572  159.7462 C   0  0  0  0  0  0  0  0  0  0  0  0
  152.1850  145.0814  158.9866 F   0  0  0  0  0  0  0  0  0  0  0  0
  150.2480  144.7791  159.9143 F   0  0  0  0  0  0  0  0  0  0  0  0
  152.0416  144.1558  160.9428 F   0  0  0  0  0  0  0  0  0  0  0  0
  152.7288  142.2027  158.8948 C   0  0  0  0  0  0  0  0  0  0  0  0
  152.5819  140.8200  158.2450 C   0  0  0  0  0  0  0  0  0  0  0  0
  151.8458  140.9050  156.9843 N   0  0  0  0  0  0  0  0  0  0  0  0
  151.8944  139.7389  156.3014 C   0  0  0  0  0  0  0  0  0  0  0  0
  152.1844  139.7385  154.9732 N   0  0  0  0  0  0  0  0  0  0  0  0
  152.2451  138.5816  154.3065 C   0  0  0  0  0  0  0  0  0  0  0  0
  152.0557  137.3420  154.7654 N   0  0  0  0  0  0  0  0  0  0  0  0
  151.7641  137.3442  156.0984 C   0  0  0  0  0  0  0  0  0  0  0  0
  151.6661  138.4900  156.9349 C   0  0  0  0  0  0  0  0  0  0  0  0
  151.3656  138.1093  158.2358 N   0  0  0  0  0  0  0  0  0  0  0  0
  151.2919  136.8076  158.1728 C   0  0  0  0  0  0  0  0  0  0  0  0
  151.5018  136.2641  156.9244 N   0  0  0  0  0  0  0  0  0  0  0  0
  151.4866  134.8511  156.5727 C   0  0  0  0  0  0  0  0  0  0  0  0
  150.2232  134.3761  155.7877 C   0  0  0  0  0  0  0  0  0  0  0  0
  149.9021  135.4227  154.6845 C   0  0  0  0  0  0  0  0  0  0  0  0
  148.6289  135.2463  154.0948 O   0  0  0  0  0  0  0  0  0  0  0  0
  150.5205  132.9959  155.1465 C   0  0  0  0  0  0  0  0  0  0  0  0
  150.5938  131.8605  156.1856 C   0  0  0  0  0  0  0  0  0  0  0  0
  149.3966  131.8183  156.9528 O   0  0  0  0  0  0  0  0  0  0  0  0
  149.1602  133.0138  157.6863 C   0  0  0  0  0  0  0  0  0  0  0  0
  148.9946  134.1982  156.7174 C   0  0  0  0  0  0  0  0  0  0  0  0
  148.8324  142.1310  155.8361 H   0  0  0  0  0  0  0  0  0  0  0  0
  149.5922  140.6526  155.2863 H   0  0  0  0  0  0  0  0  0  0  0  0
  150.3875  142.2018  155.0136 H   0  0  0  0  0  0  0  0  0  0  0  0
  149.9069  140.8795  157.7386 H   0  0  0  0  0  0  0  0  0  0  0  0
  151.1376  143.5875  157.0656 H   0  0  0  0  0  0  0  0  0  0  0  0
  149.6166  143.3215  157.8793 H   0  0  0  0  0  0  0  0  0  0  0  0
  150.7726  142.2307  159.7689 H   0  0  0  0  0  0  0  0  0  0  0  0
  153.3589  142.8343  158.2674 H   0  0  0  0  0  0  0  0  0  0  0  0
  153.2439  142.1028  159.8504 H   0  0  0  0  0  0  0  0  0  0  0  0
  153.5700  140.3917  158.0690 H   0  0  0  0  0  0  0  0  0  0  0  0
  152.0608  140.1479  158.9288 H   0  0  0  0  0  0  0  0  0  0  0  0
  152.4803  138.6602  153.2552 H   0  0  0  0  0  0  0  0  0  0  0  0
  151.0761  136.2037  159.0422 H   0  0  0  0  0  0  0  0  0  0  0  0
  152.3821  134.6469  155.9841 H   0  0  0  0  0  0  0  0  0  0  0  0
  151.6182  134.2896  157.4961 H   0  0  0  0  0  0  0  0  0  0  0  0
  149.9300  136.4341  155.0898 H   0  0  0  0  0  0  0  0  0  0  0  0
  150.6492  135.3786  153.8913 H   0  0  0  0  0  0  0  0  0  0  0  0
  148.6945  135.4449  153.1733 H   0  0  0  0  0  0  0  0  0  0  0  0
  149.7367  132.7334  154.4357 H   0  0  0  0  0  0  0  0  0  0  0  0
  151.4457  133.0346  154.5703 H   0  0  0  0  0  0  0  0  0  0  0  0
  150.7104  130.9037  155.6762 H   0  0  0  0  0  0  0  0  0  0  0  0
  151.4581  131.9657  156.8415 H   0  0  0  0  0  0  0  0  0  0  0  0
  148.2493  132.8854  158.2711 H   0  0  0  0  0  0  0  0  0  0  0  0
  149.9658  133.1854  158.4004 H   0  0  0  0  0  0  0  0  0  0  0  0
  148.7804  135.1124  157.2693 H   0  0  0  0  0  0  0  0  0  0  0  0
  148.1033  134.0064  156.1193 H   0  0  0  0  0  0  0  0  0  0  0  0
  1  2  1  0  0  0  0
  1 30  1  0  0  0  0
  1 31  1  0  0  0  0
  1 32  1  0  0  0  0
  2 11  1  0  0  0  0
  2  3  1  0  0  0  0
  2 33  1  0  0  0  0
  3  4  1  0  0  0  0
  3 34  1  0  0  0  0
  3 35  1  0  0  0  0
  4  5  1  0  0  0  0
  4  9  1  0  0  0  0
  4 36  1  0  0  0  0
  5  6  1  0  0  0  0
  5  7  1  0  0  0  0
  5  8  1  0  0  0  0
  9 10  1  0  0  0  0
  9 37  1  0  0  0  0
  9 38  1  0  0  0  0
 10 11  1  0  0  0  0
 10 39  1  0  0  0  0
 10 40  1  0  0  0  0
 11 12  1  0  0  0  0
 12 17  1  0  0  0  0
 12 13  2  0  0  0  0
 13 14  1  0  0  0  0
 14 15  2  0  0  0  0
 14 41  1  0  0  0  0
 15 16  1  0  0  0  0
 16 20  1  0  0  0  0
 16 17  2  0  0  0  0
 17 18  1  0  0  0  0
 18 19  2  0  0  0  0
 19 20  1  0  0  0  0
 19 42  1  0  0  0  0
 20 21  1  0  0  0  0
 21 22  1  0  0  0  0
 21 43  1  0  0  0  0
 21 44  1  0  0  0  0
 22 29  1  0  0  0  0
 22 23  1  0  0  0  0
 22 25  1  0  0  0  0
 23 24  1  0  0  0  0
 23 45  1  0  0  0  0
 23 46  1  0  0  0  0
 24 47  1  0  0  0  0
 25 26  1  0  0  0  0
 25 48  1  0  0  0  0
 25 49  1  0  0  0  0
 26 27  1  0  0  0  0
 26 50  1  0  0  0  0
 26 51  1  0  0  0  0
 27 28  1  0  0  0  0
 28 29  1  0  0  0  0
 28 52  1  0  0  0  0
 28 53  1  0  0  0  0
 29 54  1  0  0  0  0
 29 55  1  0  0  0  0
M  END
> <s_m_source_file>
AV-unprocessed.smi

> <i_m_source_file_index>
76

> <i_lp_mmshare_version>
43012

> <i_f3d_flags>
0

> <s_epik_input>
W0NIM11bQ0BASF0xW0NIMl1bQ0BASF0oQyhGKShGKUYpW0NIMl1bQ0gyXU4xYyhuW2NIXW4yKWMoYzIzKW5bY0hdbjNbQ0gyXUM0KFtDSDJdW09IXSlbQ0gyXVtDSDJdT1tDSDJdW0NIMl00

> <s_epik_cmdline>
J2VwaWtfcHl0aG9uJywgJy1waCcsICc3LjAnLCAnLXRuJywgJzgnLCAnLW1hJywgJzIwMCcsICctbWV0YWxfYmluZGluZycsICctaW1hZScsICc8aW5maWxlLm1hZT4nLCAnLW9tYWUnLCAnPG91dGZpbGUubWFlPic=

> <r_lp_tautomer_probability>
1

> <r_epik_Ionization_Penalty>
0.00244097

> <r_epik_Ionization_Penalty_Charging>
0

> <r_epik_Ionization_Penalty_Neutral>
0.00244097

> <r_epik_State_Penalty>
0.00151846

> <r_epik_Charging_Adjusted_Penalty>
0.00151846

> <i_epik_Tot_Q>
0

> <i_epik_Tot_abs_Q>
0

> <r_epik_Metal_State_Penalty>
-0

> <b_epik_Metal_Only>
0

> <s_lp_Force_Field>
OPLS_2005

> <r_lp_Energy>
38.0325

> <b_lp_Chiralities_Consistent>
1

> <s_lp_Variant>
AV-unprocessed.smi:76-3

> <Gold.Version>
5.8.1

> <Gold.Id.Protein>
6NUR|6NUR_protein|mol2

> <Gold.PLP.Fitness>
52.3127

> <Gold.PLP.PLP>
-45.8602

> <Gold.PLP.part.hbond>
-2.9480

> <Gold.PLP.part.metal>
0.0000

> <Gold.PLP.part.buried>
-4.1046

> <Gold.PLP.part.nonpolar>
-39.7389

> <Gold.PLP.part.repulsive>
0.1273

> <Gold.PLP.ligand.clash>
0.0000

> <Gold.PLP.ligand.torsion>
1.0513

> <Gold.PLP.Chemscore.Hbond>
2.7760

> <Gold.PLP.Chemscore.CHOScore>
0.0000

> <Gold.PLP.Chemscore.Metal>
0.0000

> <Gold.Chemscore.Hbonds>
donor molecule, donor type, donor heavy atom, donor atom, acceptor molecule, acceptor atom, score
      L1  H    24    47       P1  7948  0.99
      P1  H  7989  7998       L1    13  0.72
      P1  H 10752 10765       L1    15  0.86

> <Gold.PLP.Chemscore.Internal.Correction>
0.2272

> <Gold.Rescore>
     Score         DG    S(hbond)    S(metal)    S(lipo)     H(rot)  DE(clash)    DE(int)     intcor
     13.63     -16.80       2.16        0.00      88.99       2.47       0.20       2.97       ----

> <Gold.Chemscore.Fitness>
13.6251

> <Gold.Chemscore.DG>
-16.7991

> <Gold.Chemscore.ZeroCoef>
-5.4800

> <Gold.Chemscore.Hbond>
2.1620

> <Gold.Chemscore.Metal>
0.0000

> <Gold.Chemscore.Lipo>
88.9924

> <Gold.Chemscore.Internal_Hbond>
0.0000

> <Gold.Chemscore.DEClash>
0.2010

> <Gold.Chemscore.DEInternal>
2.9731

> <Gold.Chemscore.Rot>
2.4665

> <Gold.Chemscore.Internal.Correction>
   9.000000E+99

> <Gold.Chemscore.Hbonds>
donor molecule, donor type, donor heavy atom, donor atom, acceptor molecule, acceptor atom, score
      L1  H    24    47       P1  7948  0.81
      P1  H  7989  7998       L1    13  0.14
      P1  H 10752 10765       L1    15  0.38

> <Gold.Chemscore.Hbond.Weighted>
-7.2212

> <Gold.Chemscore.Metal.Weighted>
-0.0000

> <Gold.Chemscore.Lipo.Weighted>
-10.4121

> <Gold.Chemscore.Internal_Hbond.Weighted>
0.0000

> <Gold.Chemscore.DEClash.Weighted>
0.2010

> <Gold.Chemscore.DEInternal.Weighted>
2.9731

> <Gold.Chemscore.Rot.Weighted>
6.3142

> <Gold.Chemscore.Internal.Correction.Weighted>
   9.000000E+99

> <Gold.Protein.RotatedTorsions>
[ 6907 6896 6895 6894 ] final -120.90 input  -60.11 | X-H torsion
[ 7974 7965 7964 7962 ] final  -73.43 input  175.53 | X-H torsion
[ 8008 7997 7996 7995 ] final   14.65 input   59.86 | X-H torsion
[ 10167 10162 10161 10158 ] final  130.02 input  -65.29 | X-H torsion
[ 10718 10713 10712 10709 ] final -111.53 input   66.30 | X-H torsion
[ 10763 10752 10751 10750 ] final  174.19 input  -60.55 | X-H torsion
[ 11005 11000 10999 10996 ] final   37.65 input  -57.11 | X-H torsion

> <Gold.Protein.ActiveResidues>
 VAL166  LYS551  ARG553  GLY616  TRP617  ASP618  TYR619  PRO620  LYS621  CYS622 
 ASP623  PHE694  ASN695  SER759  ASP760  ASP761  ALA762  ILE779  LEU786  VAL792 
 PHE793  MET794  SER795  GLU796  ALA797  LYS798  CYS799  TRP800  GLU811  SER814 

> <Gold.Protein.RotatedAtoms>
  150.8435  133.7899  159.3051 H   0  0  0  0  0  0  0  0  0  0  0  0  # atno 6907 bound_to 6896
  151.5593  135.1064  159.9978 H   0  0  0  0  0  0  0  0  0  0  0  0  # atno 6908 bound_to 6896
  152.4494  133.7556  159.6774 H   0  0  0  0  0  0  0  0  0  0  0  0  # atno 6909 bound_to 6896
  145.6522  140.9279  143.0978 H   0  0  0  0  0  0  0  0  0  0  0  0  # atno 7974 bound_to 7965
  154.8515  140.2930  155.5595 H   0  0  0  0  0  0  0  0  0  0  0  0  # atno 8008 bound_to 7997
  156.3016  140.2495  156.3407 H   0  0  0  0  0  0  0  0  0  0  0  0  # atno 8009 bound_to 7997
  154.9016  140.0391  157.1885 H   0  0  0  0  0  0  0  0  0  0  0  0  # atno 8010 bound_to 7997
  139.5449  144.6765  151.4503 H   0  0  0  0  0  0  0  0  0  0  0  0  # atno 10167 bound_to 10162
  156.0652  130.5872  150.8385 H   0  0  0  0  0  0  0  0  0  0  0  0  # atno 10718 bound_to 10713
  154.4504  135.2764  155.1785 H   0  0  0  0  0  0  0  0  0  0  0  0  # atno 10763 bound_to 10752
  154.3614  135.6128  153.5696 H   0  0  0  0  0  0  0  0  0  0  0  0  # atno 10764 bound_to 10752
  152.9847  135.5835  154.4848 H   0  0  0  0  0  0  0  0  0  0  0  0  # atno 10765 bound_to 10752
  140.2205  134.3647  155.8007 H   0  0  0  0  0  0  0  0  0  0  0  0  # atno 11005 bound_to 11000
  144.7118  139.8342  143.7412 LP  0  0  0  0  0  0  0  0  0  0  0  0  # atno 17320 bound_to 7965
  146.1194  139.4209  143.0238 LP  0  0  0  0  0  0  0  0  0  0  0  0  # atno 17321 bound_to 7965
  140.6694  143.8327  150.6981 LP  0  0  0  0  0  0  0  0  0  0  0  0  # atno 17342 bound_to 10162
  140.1746  143.4166  152.1976 LP  0  0  0  0  0  0  0  0  0  0  0  0  # atno 17343 bound_to 10162
  157.5689  131.0946  150.9448 LP  0  0  0  0  0  0  0  0  0  0  0  0  # atno 17370 bound_to 10713
  156.9668  130.5476  149.5288 LP  0  0  0  0  0  0  0  0  0  0  0  0  # atno 17371 bound_to 10713
  141.2223  133.7191  156.8567 LP  0  0  0  0  0  0  0  0  0  0  0  0  # atno 17394 bound_to 11000
  140.1855  134.9003  157.2999 LP  0  0  0  0  0  0  0  0  0  0  0  0  # atno 17395 bound_to 11000

$$$$
