AV-unprocessed.smi:2822|AV-procd|sdf|10880|dock10
  -GOLD-   2272015323D 1   1.00000     0.00000
 Structure written by MMmdl.
 39 41  0  0  0  0  0  0  0  0  1 V2000
  146.7902  142.9054  154.2779 Cl  0  0  0  0  0  0  0  0  0  0  0  0
  147.4809  141.3235  154.1724 C   0  0  0  0  0  0  0  0  0  0  0  0
  146.7944  140.3067  153.4776 C   0  0  0  0  0  0  0  0  0  0  0  0
  147.2618  139.0472  153.3479 N   0  0  0  0  0  0  0  0  0  0  0  0
  148.4498  138.7574  153.9179 C   0  0  0  0  0  0  0  0  0  0  0  0
  149.2170  139.6973  154.6347 C   0  0  0  0  0  0  0  0  0  0  0  0
  148.7258  141.0176  154.7696 C   0  0  0  0  0  0  0  0  0  0  0  0
  149.4259  142.0164  155.4635 N   0  0  0  0  0  0  0  0  0  0  0  0
  150.7775  141.7831  155.9489 C   0  0  0  0  0  0  0  0  0  0  0  0
  150.8502  141.8621  157.4798 C   0  0  2  0  0  0  0  0  0  0  0  0
  151.2076  143.2821  157.9572 C   0  0  0  0  0  0  0  0  0  0  0  0
  151.3613  143.3494  159.4051 N   0  0  0  0  0  0  0  0  0  0  0  0
  151.7119  144.7004  159.8400 C   0  0  0  0  0  0  0  0  0  0  0  0
  151.8464  144.8083  161.3673 C   0  0  0  0  0  0  0  0  0  0  0  0
  152.8808  143.7983  161.8838 C   0  0  0  0  0  0  0  0  0  0  0  0
  152.5388  142.3880  161.3789 C   0  0  0  0  0  0  0  0  0  0  0  0
  152.3658  142.3769  159.8459 C   0  0  1  0  0  0  0  0  0  0  0  0
  152.0148  140.9607  159.3466 C   0  0  0  0  0  0  0  0  0  0  0  0
  151.8661  140.9694  157.9304 O   0  0  0  0  0  0  0  0  0  0  0  0
  145.8413  140.5099  153.0119 H   0  0  0  0  0  0  0  0  0  0  0  0
  148.8021  137.7435  153.7986 H   0  0  0  0  0  0  0  0  0  0  0  0
  150.1600  139.3918  155.0623 H   0  0  0  0  0  0  0  0  0  0  0  0
  148.9226  142.8202  155.8114 H   0  0  0  0  0  0  0  0  0  0  0  0
  151.1330  140.8107  155.6056 H   0  0  0  0  0  0  0  0  0  0  0  0
  151.4330  142.5406  155.5178 H   0  0  0  0  0  0  0  0  0  0  0  0
  149.8889  141.5686  157.9067 H   0  0  0  0  0  0  0  0  0  0  0  0
  152.1309  143.6047  157.4731 H   0  0  0  0  0  0  0  0  0  0  0  0
  150.4301  143.9778  157.6391 H   0  0  0  0  0  0  0  0  0  0  0  0
  152.6482  145.0088  159.3718 H   0  0  0  0  0  0  0  0  0  0  0  0
  150.9511  145.4037  159.4994 H   0  0  0  0  0  0  0  0  0  0  0  0
  152.1357  145.8209  161.6495 H   0  0  0  0  0  0  0  0  0  0  0  0
  150.8795  144.6173  161.8346 H   0  0  0  0  0  0  0  0  0  0  0  0
  153.8745  144.0812  161.5342 H   0  0  0  0  0  0  0  0  0  0  0  0
  152.9159  143.8137  162.9734 H   0  0  0  0  0  0  0  0  0  0  0  0
  153.3229  141.6906  161.6761 H   0  0  0  0  0  0  0  0  0  0  0  0
  151.6200  142.0441  161.8561 H   0  0  0  0  0  0  0  0  0  0  0  0
  153.3257  142.6488  159.4035 H   0  0  0  0  0  0  0  0  0  0  0  0
  152.8043  140.2570  159.6110 H   0  0  0  0  0  0  0  0  0  0  0  0
  151.0957  140.5988  159.8108 H   0  0  0  0  0  0  0  0  0  0  0  0
  1  2  1  0  0  0  0
  2  7  1  0  0  0  0
  2  3  2  0  0  0  0
  3  4  1  0  0  0  0
  3 20  1  0  0  0  0
  4  5  2  0  0  0  0
  5  6  1  0  0  0  0
  5 21  1  0  0  0  0
  6  7  2  0  0  0  0
  6 22  1  0  0  0  0
  7  8  1  0  0  0  0
  8  9  1  0  0  0  0
  8 23  1  0  0  0  0
  9 10  1  0  0  0  0
  9 24  1  0  0  0  0
  9 25  1  0  0  0  0
 10 19  1  0  0  0  0
 10 11  1  0  0  0  0
 10 26  1  0  0  0  0
 11 12  1  0  0  0  0
 11 27  1  0  0  0  0
 11 28  1  0  0  0  0
 12 17  1  0  0  0  0
 12 13  1  0  0  0  0
 13 14  1  0  0  0  0
 13 29  1  0  0  0  0
 13 30  1  0  0  0  0
 14 15  1  0  0  0  0
 14 31  1  0  0  0  0
 14 32  1  0  0  0  0
 15 16  1  0  0  0  0
 15 33  1  0  0  0  0
 15 34  1  0  0  0  0
 16 17  1  0  0  0  0
 16 35  1  0  0  0  0
 16 36  1  0  0  0  0
 17 18  1  0  0  0  0
 17 37  1  0  0  0  0
 18 19  1  0  0  0  0
 18 38  1  0  0  0  0
 18 39  1  0  0  0  0
M  END
> <s_m_source_file>
AV-unprocessed.smi

> <i_m_source_file_index>
2822

> <i_lp_mmshare_version>
43012

> <i_f3d_flags>
0

> <s_epik_input>
Q2xjMVtjSF1uW2NIXVtjSF1jMVtOSF1bQ0gyXVtDQEhdKFtDSDJdMilPW0NIMl1bQ0BASF0oTjIzKVtDSDJdW0NIMl1bQ0gyXVtDSDJdMw==

> <s_epik_cmdline>
J2VwaWtfcHl0aG9uJywgJy1waCcsICc3LjAnLCAnLXRuJywgJzgnLCAnLW1hJywgJzIwMCcsICctbWV0YWxfYmluZGluZycsICctaW1hZScsICc8aW5maWxlLm1hZT4nLCAnLW9tYWUnLCAnPG91dGZpbGUubWFlPic=

> <r_lp_tautomer_probability>
0.999999

> <r_epik_Ionization_Penalty>
2.10064

> <r_epik_Ionization_Penalty_Charging>
0

> <r_epik_Ionization_Penalty_Neutral>
2.10064

> <r_epik_State_Penalty>
2.1757

> <r_epik_Charging_Adjusted_Penalty>
2.1757

> <i_epik_Tot_Q>
0

> <i_epik_Tot_abs_Q>
0

> <r_epik_Metal_State_Penalty>
1.25425

> <b_epik_Metal_Only>
0

> <s_lp_Force_Field>
OPLS_2005

> <r_lp_Energy>
37.6936

> <b_lp_Chiralities_Consistent>
1

> <s_lp_Variant>
AV-unprocessed.smi:2822-21

> <Gold.Version>
5.8.1

> <Gold.Id.Protein>
6NUR|6NUR_protein|mol2

> <Gold.PLP.Fitness>
47.1266

> <Gold.PLP.PLP>
-39.2004

> <Gold.PLP.part.hbond>
-1.0000

> <Gold.PLP.part.metal>
0.0000

> <Gold.PLP.part.buried>
-0.5616

> <Gold.PLP.part.nonpolar>
-36.4038

> <Gold.PLP.part.repulsive>
0.6940

> <Gold.PLP.ligand.clash>
0.0000

> <Gold.PLP.ligand.torsion>
0.4291

> <Gold.PLP.Chemscore.Hbond>
0.9280

> <Gold.PLP.Chemscore.CHOScore>
2.0000

> <Gold.PLP.Chemscore.Metal>
0.0000

> <Gold.Chemscore.Hbonds>
donor molecule, donor type, donor heavy atom, donor atom, acceptor molecule, acceptor atom, score
      L1  H     8    23       P1  8028  0.82
      L1  C     3    20       P1 10175  1.00
      L1  C     5    21       P1  7948  1.00

> <Gold.PLP.Chemscore.Internal.Correction>
0.0004

> <Gold.Rescore>
     Score         DG    S(hbond)    S(metal)    S(lipo)     H(rot)  DE(clash)    DE(int)     intcor
     18.94     -20.80       0.96        0.00     128.71       1.15       1.48       0.38       ----

> <Gold.Chemscore.Fitness>
18.9442

> <Gold.Chemscore.DG>
-20.8022

> <Gold.Chemscore.ZeroCoef>
-5.4800

> <Gold.Chemscore.Hbond>
0.9618

> <Gold.Chemscore.Metal>
0.0000

> <Gold.Chemscore.Lipo>
128.7059

> <Gold.Chemscore.Internal_Hbond>
0.0000

> <Gold.Chemscore.DEClash>
1.4813

> <Gold.Chemscore.DEInternal>
0.3768

> <Gold.Chemscore.Rot>
1.1519

> <Gold.Chemscore.Internal.Correction>
   9.000000E+99

> <Gold.Chemscore.Hbonds>
donor molecule, donor type, donor heavy atom, donor atom, acceptor molecule, acceptor atom, score
      L1  H     8    23       P1  8028  0.81

> <Gold.Chemscore.Hbond.Weighted>
-3.2124

> <Gold.Chemscore.Metal.Weighted>
-0.0000

> <Gold.Chemscore.Lipo.Weighted>
-15.0586

> <Gold.Chemscore.Internal_Hbond.Weighted>
0.0000

> <Gold.Chemscore.DEClash.Weighted>
1.4813

> <Gold.Chemscore.DEInternal.Weighted>
0.3768

> <Gold.Chemscore.Rot.Weighted>
2.9487

> <Gold.Chemscore.Internal.Correction.Weighted>
   9.000000E+99

> <Gold.Protein.RotatedTorsions>
[ 6907 6896 6895 6894 ] final -147.71 input  -60.11 | X-H torsion
[ 7974 7965 7964 7962 ] final   76.90 input  175.53 | X-H torsion
[ 8008 7997 7996 7995 ] final  161.14 input   59.86 | X-H torsion
[ 10167 10162 10161 10158 ] final  110.86 input  -65.29 | X-H torsion
[ 10718 10713 10712 10709 ] final  179.14 input   66.30 | X-H torsion
[ 10763 10752 10751 10750 ] final -128.04 input  -60.55 | X-H torsion
[ 11005 11000 10999 10996 ] final  -83.72 input  -57.11 | X-H torsion

> <Gold.Protein.ActiveResidues>
 VAL166  LYS551  ARG553  GLY616  TRP617  ASP618  TYR619  PRO620  LYS621  CYS622 
 ASP623  PHE694  ASN695  SER759  ASP760  ASP761  ALA762  ILE779  LEU786  VAL792 
 PHE793  MET794  SER795  GLU796  ALA797  LYS798  CYS799  TRP800  GLU811  SER814 

> <Gold.Protein.RotatedAtoms>
  151.1596  133.4854  159.2594 H   0  0  0  0  0  0  0  0  0  0  0  0  # atno 6907 bound_to 6896
  151.1468  135.0207  159.8660 H   0  0  0  0  0  0  0  0  0  0  0  0  # atno 6908 bound_to 6896
  152.5463  134.1484  159.8561 H   0  0  0  0  0  0  0  0  0  0  0  0  # atno 6909 bound_to 6896
  145.6969  139.2570  143.1727 H   0  0  0  0  0  0  0  0  0  0  0  0  # atno 7974 bound_to 7965
  156.2124  140.1785  156.7666 H   0  0  0  0  0  0  0  0  0  0  0  0  # atno 8008 bound_to 7997
  154.5741  140.0677  156.9038 H   0  0  0  0  0  0  0  0  0  0  0  0  # atno 8009 bound_to 7997
  155.2619  140.3336  155.4275 H   0  0  0  0  0  0  0  0  0  0  0  0  # atno 8010 bound_to 7997
  139.6655  144.7127  151.1784 H   0  0  0  0  0  0  0  0  0  0  0  0  # atno 10167 bound_to 10162
  156.8802  130.9813  151.3063 H   0  0  0  0  0  0  0  0  0  0  0  0  # atno 10718 bound_to 10713
  154.8755  135.3941  154.3692 H   0  0  0  0  0  0  0  0  0  0  0  0  # atno 10763 bound_to 10752
  153.4454  135.7027  153.6147 H   0  0  0  0  0  0  0  0  0  0  0  0  # atno 10764 bound_to 10752
  153.4710  135.3790  155.2360 H   0  0  0  0  0  0  0  0  0  0  0  0  # atno 10765 bound_to 10752
  141.1656  133.7309  156.8762 H   0  0  0  0  0  0  0  0  0  0  0  0  # atno 11005 bound_to 11000
  146.0832  140.7740  142.9631 LP  0  0  0  0  0  0  0  0  0  0  0  0  # atno 17320 bound_to 7965
  144.6980  140.3521  143.7180 LP  0  0  0  0  0  0  0  0  0  0  0  0  # atno 17321 bound_to 7965
  140.7598  143.5926  150.8781 LP  0  0  0  0  0  0  0  0  0  0  0  0  # atno 17342 bound_to 10162
  139.9587  143.6189  152.3008 LP  0  0  0  0  0  0  0  0  0  0  0  0  # atno 17343 bound_to 10162
  157.6144  130.8607  149.9005 LP  0  0  0  0  0  0  0  0  0  0  0  0  # atno 17370 bound_to 10713
  156.0681  130.3689  150.0835 LP  0  0  0  0  0  0  0  0  0  0  0  0  # atno 17371 bound_to 10713
  140.1747  134.9075  157.2876 LP  0  0  0  0  0  0  0  0  0  0  0  0  # atno 17394 bound_to 11000
  140.2462  134.3737  155.7460 LP  0  0  0  0  0  0  0  0  0  0  0  0  # atno 17395 bound_to 11000

$$$$
