#       Name:                AV-unprocessed.smi:2083
#       Creating user name   scv26
#       Creation time:       Fri Mar 27 11:22:50 2020


#       File generated by GOLD software.
#

@<TRIPOS>MOLECULE
AV-unprocessed.smi:2083
    50    51     1
SMALL
NO_CHARGES


@<TRIPOS>ATOM
      1 ****        -4.6701   6.7396   2.1425 C.3            1 S1                 0.0000
      2 ****        -4.0048   5.4944   1.6642 C.2            1 S1                 0.0000
      3 ****        -2.8957   5.2711   0.8981 C.2            1 S1                 0.0000
      4 ****        -2.8310   3.8539   0.8315 C.2            1 S1                 0.0000
      5 ****        -1.7911   3.2101   0.1102 N.am           1 S1                 0.0000
      6 ****        -1.5831   1.8935  -0.0730 C.2            1 S1                 0.0000
      7 ****        -2.3633   1.0637   0.4095 O.2            1 S1                 0.0000
      8 ****        -0.4648   1.6450  -0.8097 N.pl3          1 S1                -1.0000
      9 ****         0.0045   0.3126  -1.1940 C.3            1 S1                 0.0000
     10 ****         0.7819  -0.3674  -0.0323 C.3            1 S1                 0.0000
     11 ****         2.1055   0.3426   0.3489 C.3            1 S1                 0.0000
     12 ****         0.9627  -1.8279  -0.3049 N.4            1 S1                 1.0000
     13 ****         0.8482  -2.6705   0.9156 C.3            1 S1                 0.0000
     14 ****         0.7749  -4.1617   0.5493 C.3            1 S1                 0.0000
     15 ****         1.9798  -4.5843  -0.3011 C.3            1 S1                 0.0000
     16 ****         2.1013  -3.6831  -1.5415 C.3            1 S1                 0.0000
     17 ****         3.3142  -4.0698  -2.3995 C.3            1 S1                 0.0000
     18 ****         2.1602  -2.2035  -1.1149 C.3            1 S1                 0.0000
     19 ****        -3.8127   3.2656   1.4989 N.2            1 S1                 0.0000
     20 ****        -4.5697   4.3136   2.0359 O.3            1 S1                 0.0000
     21 ****        -4.7015   7.4892   1.3517 H              1 S1                 0.0000
     22 ****        -4.1304   7.1632   2.9894 H              1 S1                 0.0000
     23 ****        -5.6942   6.5407   2.4590 H              1 S1                 0.0000
     24 ****        -2.2379   6.0048   0.4566 H              1 S1                 0.0000
     25 ****        -1.1161   3.8237  -0.3216 H              1 S1                 0.0000
     26 ****        -0.8254  -0.3324  -1.4873 H              1 S1                 0.0000
     27 ****         0.6491   0.3591  -2.0719 H              1 S1                 0.0000
     28 ****         0.1320  -0.2955   0.8410 H              1 S1                 0.0000
     29 ****         1.9321   1.3620   0.6981 H              1 S1                 0.0000
     30 ****         2.8093   0.4016  -0.4831 H              1 S1                 0.0000
     31 ****         2.6052  -0.1817   1.1636 H              1 S1                 0.0000
     32 ****         1.6979  -2.4819   1.5734 H              1 S1                 0.0000
     33 ****        -0.0508  -2.4051   1.4733 H              1 S1                 0.0000
     34 ****         0.7289  -4.7663   1.4555 H              1 S1                 0.0000
     35 ****        -0.1474  -4.3576   0.0004 H              1 S1                 0.0000
     36 ****         2.8902  -4.5207   0.2966 H              1 S1                 0.0000
     37 ****         1.8750  -5.6280  -0.5997 H              1 S1                 0.0000
     38 ****         1.2081  -3.8232  -2.1527 H              1 S1                 0.0000
     39 ****         4.2464  -3.9499  -1.8466 H              1 S1                 0.0000
     40 ****         3.3759  -3.4497  -3.2943 H              1 S1                 0.0000
     41 ****         3.2505  -5.1089  -2.7238 H              1 S1                 0.0000
     42 ****         2.2247  -1.5786  -2.0061 H              1 S1                 0.0000
     43 ****         3.0695  -2.0258  -0.5389 H              1 S1                 0.0000
     44 ****         0.1603  -2.0749  -0.8667 H              1 S1                 0.0000
     45 ****        -3.1541   1.3700   0.9393 LP             1 S1                 0.0000
     46 ****        -2.2031   0.0865   0.2698 LP             1 S1                 0.0000
     47 ****         0.0757   2.4308  -1.1103 LP             1 S1                 0.0000
     48 ****        -3.9774   2.2842   1.5978 LP             1 S1                 0.0000
     49 ****        -5.5062   4.2645   1.6888 LP             1 S1                 0.0000
     50 ****        -4.5799   4.2446   3.0335 LP             1 S1                 0.0000
@<TRIPOS>BOND
    1    1    2 1     
    2    1   21 1     
    3    1   22 1     
    4    1   23 1     
    5    2   20 1     
    6    2    3 2     
    7    3    4 1     
    8    3   24 1     
    9    4    5 1     
   10    4   19 2     
   11    5    6 am    
   12    5   25 1     
   13    6    7 2     
   14    6    8 1     
   15    8    9 1     
   16    9   10 1     
   17    9   26 1     
   18    9   27 1     
   19   10   11 1     
   20   10   12 1     
   21   10   28 1     
   22   11   29 1     
   23   11   30 1     
   24   11   31 1     
   25   12   18 1     
   26   12   13 1     
   27   12   44 1     
   28   13   14 1     
   29   13   32 1     
   30   13   33 1     
   31   14   15 1     
   32   14   34 1     
   33   14   35 1     
   34   15   16 1     
   35   15   36 1     
   36   15   37 1     
   37   16   17 1     
   38   16   18 1     
   39   16   38 1     
   40   17   39 1     
   41   17   40 1     
   42   17   41 1     
   43   18   42 1     
   44   18   43 1     
   45   19   20 1     
   46    7   45 1     
   47    7   46 1     
   48    8   47 1     
   49   19   48 1     
   50   20   49 1     
   51   20   50 1     
@<TRIPOS>SUBSTRUCTURE
      1 S1             1
@<TRIPOS>SET
LONE_PAIRS      STATIC     ATOMS    <user>   **** ""
6 45 46 47 48 49 50
DONOR_HYDROGENS      STATIC     ATOMS    <user>   **** ""
2 25 44
ATOM$BLUE        STATIC     ATOMS    COLORGROUP SYSTEM
6 45 46 47 48 49 50
ATOM$RED        STATIC     ATOMS    COLORGROUP SYSTEM
2 25 44
