AV-unprocessed.smi:688|AV-procd|sdf|3356|dock10
  -GOLD-   22720 0333D 1   1.00000     0.00000
 Structure written by MMmdl.
 35 36  0  0  0  0  0  0  0  0  2 V2000
  150.4392  134.3096  157.4450 O   0  0  0  0  0  0  0  0  0  0  0  0
  150.4644  135.3208  156.7445 C   0  0  0  0  0  0  0  0  0  0  0  0
  151.5184  136.1886  156.7416 N   0  5  0  0  0  0  0  0  0  0  0  0
  151.5675  137.3144  155.9645 C   0  0  0  0  0  0  0  0  0  0  0  0
  152.5261  138.0871  155.9848 O   0  0  0  0  0  0  0  0  0  0  0  0
  150.5148  137.5899  155.1383 N   0  0  0  0  0  0  0  0  0  0  0  0
  150.4837  138.7722  154.2654 C   0  0  0  0  0  0  0  0  0  0  0  0
  149.3940  139.7792  154.6955 C   0  0  2  0  0  0  0  0  0  0  0  0
  148.5392  139.9880  153.5880 O   0  0  0  0  0  0  0  0  0  0  0  0
  149.9917  141.1455  155.0720 C   0  0  0  0  0  0  0  0  0  0  0  0
  150.5935  141.0490  156.3528 O   0  0  0  0  0  0  0  0  0  0  0  0
  151.0227  142.3016  156.8606 C   0  0  0  0  0  0  0  0  0  0  0  0
  151.6815  142.1590  158.2192 C   0  0  0  0  0  0  0  0  0  0  0  0
  151.9675  140.8770  158.7345 C   0  0  0  0  0  0  0  0  0  0  0  0
  152.5664  140.7398  160.0020 C   0  0  0  0  0  0  0  0  0  0  0  0
  152.8777  141.8843  160.7617 C   0  0  0  0  0  0  0  0  0  0  0  0
  153.6128  141.7169  162.3136 Cl  0  0  0  0  0  0  0  0  0  0  0  0
  152.5861  143.1657  160.2541 C   0  0  0  0  0  0  0  0  0  0  0  0
  151.9863  143.3029  158.9870 C   0  0  0  0  0  0  0  0  0  0  0  0
  149.4003  136.7353  155.1122 C   0  0  0  0  0  0  0  0  0  0  0  0
  149.3317  135.6254  155.8728 C   0  0  0  0  0  0  0  0  0  0  0  0
  147.9466  134.5939  155.8219 Cl  0  0  0  0  0  0  0  0  0  0  0  0
  151.4649  139.2489  154.2959 H   0  0  0  0  0  0  0  0  0  0  0  0
  150.3555  138.4863  153.2200 H   0  0  0  0  0  0  0  0  0  0  0  0
  148.8240  139.3886  155.5396 H   0  0  0  0  0  0  0  0  0  0  0  0
  149.0612  139.9757  152.8007 H   0  0  0  0  0  0  0  0  0  0  0  0
  150.7663  141.4189  154.3539 H   0  0  0  0  0  0  0  0  0  0  0  0
  149.2349  141.9318  155.0462 H   0  0  0  0  0  0  0  0  0  0  0  0
  151.7207  142.7617  156.1590 H   0  0  0  0  0  0  0  0  0  0  0  0
  150.1713  142.9764  156.9619 H   0  0  0  0  0  0  0  0  0  0  0  0
  151.7296  139.9951  158.1578 H   0  0  0  0  0  0  0  0  0  0  0  0
  152.7857  139.7558  160.3897 H   0  0  0  0  0  0  0  0  0  0  0  0
  152.8213  144.0449  160.8357 H   0  0  0  0  0  0  0  0  0  0  0  0
  151.7642  144.2892  158.6064 H   0  0  0  0  0  0  0  0  0  0  0  0
  148.6079  137.0391  154.4437 H   0  0  0  0  0  0  0  0  0  0  0  0
  1  2  2  0  0  0  0
  2 21  1  0  0  0  0
  2  3  1  0  0  0  0
  3  4  1  0  0  0  0
  4  5  2  0  0  0  0
  4  6  1  0  0  0  0
  6  7  1  0  0  0  0
  6 20  1  0  0  0  0
  7  8  1  0  0  0  0
  7 23  1  0  0  0  0
  7 24  1  0  0  0  0
  8  9  1  0  0  0  0
  8 10  1  0  0  0  0
  8 25  1  0  0  0  0
  9 26  1  0  0  0  0
 10 11  1  0  0  0  0
 10 27  1  0  0  0  0
 10 28  1  0  0  0  0
 11 12  1  0  0  0  0
 12 13  1  0  0  0  0
 12 29  1  0  0  0  0
 12 30  1  0  0  0  0
 13 19  1  0  0  0  0
 13 14  2  0  0  0  0
 14 15  1  0  0  0  0
 14 31  1  0  0  0  0
 15 16  2  0  0  0  0
 15 32  1  0  0  0  0
 16 17  1  0  0  0  0
 16 18  1  0  0  0  0
 18 19  2  0  0  0  0
 18 33  1  0  0  0  0
 19 34  1  0  0  0  0
 20 21  2  0  0  0  0
 20 35  1  0  0  0  0
 21 22  1  0  0  0  0
M  CHG  1   3  -1
M  END
> <s_m_source_file>
AV-unprocessed.smi

> <i_m_source_file_index>
688

> <i_lp_mmshare_version>
43012

> <i_f3d_flags>
0

> <s_epik_input>
Tz1jMVtuSF1jKD1PKW4oW2NIXWMxQ2wpW0NIMl1bQ0BIXShbT0hdKVtDSDJdT1tDSDJdYzJbY0hdW2NIXWMoQ2wpW2NIXVtjSF0y

> <s_epik_cmdline>
J2VwaWtfcHl0aG9uJywgJy1waCcsICc3LjAnLCAnLXRuJywgJzgnLCAnLW1hJywgJzIwMCcsICctbWV0YWxfYmluZGluZycsICctaW1hZScsICc8aW5maWxlLm1hZT4nLCAnLW9tYWUnLCAnPG91dGZpbGUubWFlPic=

> <r_epik_Ionization_Penalty>
1.82111

> <r_epik_Ionization_Penalty_Charging>
5.03334e-08

> <r_epik_Ionization_Penalty_Neutral>
1.82111

> <r_epik_State_Penalty>
1.93633

> <r_epik_Charging_Adjusted_Penalty>
1.93633

> <i_epik_Tot_Q>
-1

> <i_epik_Tot_abs_Q>
1

> <r_epik_Metal_State_Penalty>
0.0147818

> <b_epik_Metal_Only>
0

> <s_lp_Force_Field>
OPLS_2005

> <r_lp_Energy>
25.7398

> <b_lp_Chiralities_Consistent>
1

> <s_lp_Variant>
AV-unprocessed.smi:688-3

> <Gold.Version>
5.8.1

> <Gold.Id.Protein>
6NUR|6NUR_protein|mol2

> <Gold.PLP.Fitness>
51.2329

> <Gold.PLP.PLP>
-42.1115

> <Gold.PLP.part.hbond>
-3.0000

> <Gold.PLP.part.metal>
0.0000

> <Gold.PLP.part.buried>
-3.0805

> <Gold.PLP.part.nonpolar>
-35.5174

> <Gold.PLP.part.repulsive>
0.0483

> <Gold.PLP.ligand.clash>
0.0000

> <Gold.PLP.ligand.torsion>
0.9985

> <Gold.PLP.Chemscore.Hbond>
3.0000

> <Gold.PLP.Chemscore.CHOScore>
0.6774

> <Gold.PLP.Chemscore.Metal>
0.0000

> <Gold.Chemscore.Hbonds>
donor molecule, donor type, donor heavy atom, donor atom, acceptor molecule, acceptor atom, score
      L1  H     9    26       P1  7957  1.00
      P1  H  6896  6907       L1     1  0.51
      L1  C    20    35       P1  7948  0.36

> <Gold.PLP.Chemscore.Internal.Correction>
0.0861

> <Gold.Rescore>
     Score         DG    S(hbond)    S(metal)    S(lipo)     H(rot)  DE(clash)    DE(int)     intcor
     17.75     -18.58       2.17        0.00     112.45       2.85       0.08       0.75       ----

> <Gold.Chemscore.Fitness>
17.7492

> <Gold.Chemscore.DG>
-18.5771

> <Gold.Chemscore.ZeroCoef>
-5.4800

> <Gold.Chemscore.Hbond>
2.1697

> <Gold.Chemscore.Metal>
0.0000

> <Gold.Chemscore.Lipo>
112.4541

> <Gold.Chemscore.Internal_Hbond>
0.0000

> <Gold.Chemscore.DEClash>
0.0808

> <Gold.Chemscore.DEInternal>
0.7472

> <Gold.Chemscore.Rot>
2.8542

> <Gold.Chemscore.Internal.Correction>
   9.000000E+99

> <Gold.Chemscore.Hbonds>
donor molecule, donor type, donor heavy atom, donor atom, acceptor molecule, acceptor atom, score
      L1  H     9    26       P1  7957  1.00
      P1  H  6896  6907       L1     1  0.51

> <Gold.Chemscore.Hbond.Weighted>
-7.2467

> <Gold.Chemscore.Metal.Weighted>
-0.0000

> <Gold.Chemscore.Lipo.Weighted>
-13.1571

> <Gold.Chemscore.Internal_Hbond.Weighted>
0.0000

> <Gold.Chemscore.DEClash.Weighted>
0.0808

> <Gold.Chemscore.DEInternal.Weighted>
0.7472

> <Gold.Chemscore.Rot.Weighted>
7.3067

> <Gold.Chemscore.Internal.Correction.Weighted>
   9.000000E+99

> <Gold.Protein.RotatedTorsions>
[ 6907 6896 6895 6894 ] final  -86.10 input  -60.11 | X-H torsion
[ 7974 7965 7964 7962 ] final  162.66 input  175.53 | X-H torsion
[ 8008 7997 7996 7995 ] final  -19.04 input   59.86 | X-H torsion
[ 10167 10162 10161 10158 ] final  -62.40 input  -65.29 | X-H torsion
[ 10718 10713 10712 10709 ] final    0.41 input   66.30 | X-H torsion
[ 10763 10752 10751 10750 ] final  108.16 input  -60.55 | X-H torsion
[ 11005 11000 10999 10996 ] final -125.25 input  -57.11 | X-H torsion

> <Gold.Protein.ActiveResidues>
 VAL166  LYS551  ARG553  GLY616  TRP617  ASP618  TYR619  PRO620  LYS621  CYS622 
 ASP623  PHE694  ASN695  SER759  ASP760  ASP761  ALA762  ILE779  LEU786  VAL792 
 PHE793  MET794  SER795  GLU796  ALA797  LYS798  CYS799  TRP800  GLU811  SER814 

> <Gold.Protein.RotatedAtoms>
  150.6868  134.3103  159.4743 H   0  0  0  0  0  0  0  0  0  0  0  0  # atno 6907 bound_to 6896
  152.0989  134.9352  160.0579 H   0  0  0  0  0  0  0  0  0  0  0  0  # atno 6908 bound_to 6896
  152.0639  133.4040  159.4467 H   0  0  0  0  0  0  0  0  0  0  0  0  # atno 6909 bound_to 6896
  144.7626  139.8072  143.6327 H   0  0  0  0  0  0  0  0  0  0  0  0  # atno 7974 bound_to 7965
  154.4864  140.2099  155.9645 H   0  0  0  0  0  0  0  0  0  0  0  0  # atno 8008 bound_to 7997
  156.1242  140.3208  155.8222 H   0  0  0  0  0  0  0  0  0  0  0  0  # atno 8009 bound_to 7997
  155.4413  140.0510  157.3001 H   0  0  0  0  0  0  0  0  0  0  0  0  # atno 8010 bound_to 7997
  140.5942  143.2347  151.6073 H   0  0  0  0  0  0  0  0  0  0  0  0  # atno 10167 bound_to 10162
  156.8330  130.5495  149.5685 H   0  0  0  0  0  0  0  0  0  0  0  0  # atno 10718 bound_to 10713
  153.4168  135.3821  155.2086 H   0  0  0  0  0  0  0  0  0  0  0  0  # atno 10763 bound_to 10752
  154.8742  135.3807  154.4433 H   0  0  0  0  0  0  0  0  0  0  0  0  # atno 10764 bound_to 10752
  153.4948  135.7088  153.5926 H   0  0  0  0  0  0  0  0  0  0  0  0  # atno 10765 bound_to 10752
  140.9777  134.0717  157.3800 H   0  0  0  0  0  0  0  0  0  0  0  0  # atno 11005 bound_to 11000
  146.1703  139.4851  142.9931 LP  0  0  0  0  0  0  0  0  0  0  0  0  # atno 17320 bound_to 7965
  145.6571  141.0249  143.1729 LP  0  0  0  0  0  0  0  0  0  0  0  0  # atno 17321 bound_to 7965
  139.5247  144.3096  152.1004 LP  0  0  0  0  0  0  0  0  0  0  0  0  # atno 17342 bound_to 10162
  140.2266  144.4412  150.6318 LP  0  0  0  0  0  0  0  0  0  0  0  0  # atno 17343 bound_to 10162
  156.0923  130.5905  150.9754 LP  0  0  0  0  0  0  0  0  0  0  0  0  # atno 17370 bound_to 10713
  157.6396  131.0912  150.8278 LP  0  0  0  0  0  0  0  0  0  0  0  0  # atno 17371 bound_to 10713
  139.8937  135.0132  156.6913 LP  0  0  0  0  0  0  0  0  0  0  0  0  # atno 17394 bound_to 11000
  140.7234  133.9121  155.8162 LP  0  0  0  0  0  0  0  0  0  0  0  0  # atno 17395 bound_to 11000

$$$$
