AV-unprocessed.smi:3314|AV-procd|sdf|12745|dock7
  -GOLD-   2272019 83D 1   1.00000     0.00000
 Structure written by MMmdl.
 37 38  0  0  0  0  0  0  0  0  3 V2000
  152.1737  144.8023  158.1479 C   0  0  0  0  0  0  0  0  0  0  0  0
  152.3142  143.4324  158.7769 C   0  0  0  0  0  0  0  0  0  0  0  0
  152.8886  143.2775  160.0530 C   0  0  0  0  0  0  0  0  0  0  0  0
  152.9926  141.9753  160.5793 C   0  0  0  0  0  0  0  0  0  0  0  0
  153.5983  141.7418  161.9473 C   0  0  0  0  0  0  0  0  0  0  0  0
  152.5642  140.8764  159.9209 N   0  0  0  0  0  0  0  0  0  0  0  0
  152.0047  141.0127  158.6950 C   0  0  0  0  0  0  0  0  0  0  0  0
  151.5939  139.9123  158.0490 N   0  5  0  0  0  0  0  0  0  0  0  0
  151.7700  139.8081  156.7095 C   0  0  0  0  0  0  0  0  0  0  0  0
  152.7137  139.3040  156.0969 O   0  0  0  0  0  0  0  0  0  0  0  0
  150.5897  140.4334  155.9319 C   0  0  2  0  0  0  0  0  0  0  0  0
  149.1930  139.9789  156.4189 C   0  0  0  0  0  0  0  0  0  0  0  0
  148.9463  138.5582  156.0748 N   0  3  1  0  0  0  0  0  0  0  0  0
  147.6520  138.0620  156.5873 C   0  0  0  0  0  0  0  0  0  0  0  0
  149.1121  138.3317  154.6216 C   0  0  0  0  0  0  0  0  0  0  0  0
  150.5024  138.8009  154.1630 C   0  0  0  0  0  0  0  0  0  0  0  0
  150.6901  140.1682  154.5268 O   0  0  0  0  0  0  0  0  0  0  0  0
  151.8713  142.2842  158.0904 C   0  0  0  0  0  0  0  0  0  0  0  0
  152.4278  145.5916  158.8560 H   0  0  0  0  0  0  0  0  0  0  0  0
  151.1483  144.9618  157.8139 H   0  0  0  0  0  0  0  0  0  0  0  0
  152.8343  144.8898  157.2852 H   0  0  0  0  0  0  0  0  0  0  0  0
  153.2404  144.1315  160.6128 H   0  0  0  0  0  0  0  0  0  0  0  0
  154.3602  142.4908  162.1653 H   0  0  0  0  0  0  0  0  0  0  0  0
  154.0651  140.7578  162.0068 H   0  0  0  0  0  0  0  0  0  0  0  0
  152.8261  141.8029  162.7143 H   0  0  0  0  0  0  0  0  0  0  0  0
  150.6593  141.5141  156.0639 H   0  0  0  0  0  0  0  0  0  0  0  0
  149.1001  140.1219  157.4966 H   0  0  0  0  0  0  0  0  0  0  0  0
  148.4242  140.6004  155.9572 H   0  0  0  0  0  0  0  0  0  0  0  0
  146.8190  138.6037  156.1374 H   0  0  0  0  0  0  0  0  0  0  0  0
  147.5963  138.1827  157.6695 H   0  0  0  0  0  0  0  0  0  0  0  0
  147.5324  137.0014  156.3638 H   0  0  0  0  0  0  0  0  0  0  0  0
  148.9864  137.2723  154.3954 H   0  0  0  0  0  0  0  0  0  0  0  0
  148.3366  138.8717  154.0762 H   0  0  0  0  0  0  0  0  0  0  0  0
  151.2853  138.1683  154.5829 H   0  0  0  0  0  0  0  0  0  0  0  0
  150.5854  138.7150  153.0796 H   0  0  0  0  0  0  0  0  0  0  0  0
  151.4293  142.3776  157.1089 H   0  0  0  0  0  0  0  0  0  0  0  0
  149.6685  138.0233  156.5374 H   0  0  0  0  0  0  0  0  0  0  0  0
  1  2  1  0  0  0  0
  1 19  1  0  0  0  0
  1 20  1  0  0  0  0
  1 21  1  0  0  0  0
  2 18  2  0  0  0  0
  2  3  1  0  0  0  0
  3  4  2  0  0  0  0
  3 22  1  0  0  0  0
  4  5  1  0  0  0  0
  4  6  1  0  0  0  0
  5 23  1  0  0  0  0
  5 24  1  0  0  0  0
  5 25  1  0  0  0  0
  6  7  2  0  0  0  0
  7  8  1  0  0  0  0
  7 18  1  0  0  0  0
  8  9  1  0  0  0  0
  9 10  2  0  0  0  0
  9 11  1  0  0  0  0
 11 17  1  0  0  0  0
 11 12  1  0  0  0  0
 11 26  1  0  0  0  0
 12 13  1  0  0  0  0
 12 27  1  0  0  0  0
 12 28  1  0  0  0  0
 13 14  1  0  0  0  0
 13 15  1  0  0  0  0
 13 37  1  0  0  0  0
 14 29  1  0  0  0  0
 14 30  1  0  0  0  0
 14 31  1  0  0  0  0
 15 16  1  0  0  0  0
 15 32  1  0  0  0  0
 15 33  1  0  0  0  0
 16 17  1  0  0  0  0
 16 34  1  0  0  0  0
 16 35  1  0  0  0  0
 18 36  1  0  0  0  0
M  CHG  1   8  -1
M  CHG  1  13   1
M  END
> <s_m_source_file>
AV-unprocessed.smi

> <i_m_source_file_index>
3314

> <i_lp_mmshare_version>
43012

> <i_f3d_flags>
0

> <s_epik_input>
W0NIM11jMVtjSF1jKFtDSDNdKW5jKFtjSF0xKVtOSF1DKD1PKVtDQEBIXTJbQ0gyXU4oW0NIM10pW0NIMl1bQ0gyXU8y

> <s_epik_cmdline>
J2VwaWtfcHl0aG9uJywgJy1waCcsICc3LjAnLCAnLXRuJywgJzgnLCAnLW1hJywgJzIwMCcsICctbWV0YWxfYmluZGluZycsICctaW1hZScsICc8aW5maWxlLm1hZT4nLCAnLW9tYWUnLCAnPG91dGZpbGUubWFlPic=

> <r_epik_Ionization_Penalty>
13.8964

> <r_epik_Ionization_Penalty_Charging>
7.88995

> <r_epik_Ionization_Penalty_Neutral>
6.00641

> <r_epik_State_Penalty>
8.39989

> <r_epik_Charging_Adjusted_Penalty>
16.2898

> <i_epik_Tot_Q>
0

> <i_epik_Tot_abs_Q>
2

> <r_epik_Metal_State_Penalty>
4.31145

> <b_epik_Metal_Only>
1

> <s_lp_Force_Field>
OPLS_2005

> <r_lp_Energy>
7.08272

> <b_lp_Chiralities_Consistent>
1

> <s_lp_Variant>
AV-unprocessed.smi:3314-15

> <Gold.Version>
5.8.1

> <Gold.Id.Protein>
6NUR|6NUR_protein|mol2

> <Gold.PLP.Fitness>
39.9634

> <Gold.PLP.PLP>
-36.3338

> <Gold.PLP.part.hbond>
-1.9450

> <Gold.PLP.part.metal>
0.0000

> <Gold.PLP.part.buried>
-5.6678

> <Gold.PLP.part.nonpolar>
-28.9834

> <Gold.PLP.part.repulsive>
0.0968

> <Gold.PLP.ligand.clash>
0.0000

> <Gold.PLP.ligand.torsion>
1.2059

> <Gold.PLP.Chemscore.Hbond>
2.0000

> <Gold.PLP.Chemscore.CHOScore>
0.0000

> <Gold.PLP.Chemscore.Metal>
0.0000

> <Gold.Chemscore.Hbonds>
donor molecule, donor type, donor heavy atom, donor atom, acceptor molecule, acceptor atom, score
      P1  H  7989  7998       L1    17  1.00
      P1  H  7997  8010       L1    10  1.00

> <Gold.PLP.Chemscore.Internal.Correction>
0.0415

> <Gold.Rescore>
     Score         DG    S(hbond)    S(metal)    S(lipo)     H(rot)  DE(clash)    DE(int)     intcor
     17.94     -20.41       1.96        0.00      93.63       1.00       0.17       2.30       ----

> <Gold.Chemscore.Fitness>
17.9424

> <Gold.Chemscore.DG>
-20.4087

> <Gold.Chemscore.ZeroCoef>
-5.4800

> <Gold.Chemscore.Hbond>
1.9563

> <Gold.Chemscore.Metal>
0.0000

> <Gold.Chemscore.Lipo>
93.6305

> <Gold.Chemscore.Internal_Hbond>
0.0000

> <Gold.Chemscore.DEClash>
0.1708

> <Gold.Chemscore.DEInternal>
2.2954

> <Gold.Chemscore.Rot>
1.0000

> <Gold.Chemscore.Internal.Correction>
   9.000000E+99

> <Gold.Chemscore.Hbonds>
donor molecule, donor type, donor heavy atom, donor atom, acceptor molecule, acceptor atom, score
      P1  H  7989  7998       L1    17  0.71
      P1  H  7997  8010       L1    10  0.93

> <Gold.Chemscore.Hbond.Weighted>
-6.5339

> <Gold.Chemscore.Metal.Weighted>
-0.0000

> <Gold.Chemscore.Lipo.Weighted>
-10.9548

> <Gold.Chemscore.Internal_Hbond.Weighted>
0.0000

> <Gold.Chemscore.DEClash.Weighted>
0.1708

> <Gold.Chemscore.DEInternal.Weighted>
2.2954

> <Gold.Chemscore.Rot.Weighted>
2.5600

> <Gold.Chemscore.Internal.Correction.Weighted>
   9.000000E+99

> <Gold.Protein.RotatedTorsions>
[ 6907 6896 6895 6894 ] final   23.08 input  -60.11 | X-H torsion
[ 7974 7965 7964 7962 ] final    8.65 input  175.53 | X-H torsion
[ 8008 7997 7996 7995 ] final   79.63 input   59.86 | X-H torsion
[ 10167 10162 10161 10158 ] final    3.40 input  -65.29 | X-H torsion
[ 10718 10713 10712 10709 ] final   37.06 input   66.30 | X-H torsion
[ 10763 10752 10751 10750 ] final -144.86 input  -60.55 | X-H torsion
[ 11005 11000 10999 10996 ] final  109.89 input  -57.11 | X-H torsion

> <Gold.Protein.ActiveResidues>
 VAL166  LYS551  ARG553  GLY616  TRP617  ASP618  TYR619  PRO620  LYS621  CYS622 
 ASP623  PHE694  ASN695  SER759  ASP760  ASP761  ALA762  ILE779  LEU786  VAL792 
 PHE793  MET794  SER795  GLU796  ALA797  LYS798  CYS799  TRP800  GLU811  SER814 

> <Gold.Protein.RotatedAtoms>
  151.9370  135.0231  160.0532 H   0  0  0  0  0  0  0  0  0  0  0  0  # atno 6907 bound_to 6896
  152.2070  133.4878  159.5097 H   0  0  0  0  0  0  0  0  0  0  0  0  # atno 6908 bound_to 6896
  150.6967  134.1434  159.4156 H   0  0  0  0  0  0  0  0  0  0  0  0  # atno 6909 bound_to 6896
  146.2413  139.9901  142.8426 H   0  0  0  0  0  0  0  0  0  0  0  0  # atno 7974 bound_to 7965
  155.8724  140.3448  155.5830 H   0  0  0  0  0  0  0  0  0  0  0  0  # atno 8008 bound_to 7997
  155.7812  140.0858  157.2077 H   0  0  0  0  0  0  0  0  0  0  0  0  # atno 8009 bound_to 7997
  154.4018  140.1500  156.3042 H   0  0  0  0  0  0  0  0  0  0  0  0  # atno 8010 bound_to 7997
  140.6587  143.7359  150.7700 H   0  0  0  0  0  0  0  0  0  0  0  0  # atno 10167 bound_to 10162
  157.3424  130.7555  149.6921 H   0  0  0  0  0  0  0  0  0  0  0  0  # atno 10718 bound_to 10713
  154.8409  135.3429  154.6413 H   0  0  0  0  0  0  0  0  0  0  0  0  # atno 10763 bound_to 10752
  153.7024  135.6969  153.5064 H   0  0  0  0  0  0  0  0  0  0  0  0  # atno 10764 bound_to 10752
  153.2513  135.4352  155.0754 H   0  0  0  0  0  0  0  0  0  0  0  0  # atno 10765 bound_to 10752
  139.8871  134.9470  156.6194 H   0  0  0  0  0  0  0  0  0  0  0  0  # atno 11005 bound_to 11000
  145.1511  140.9623  143.4432 LP  0  0  0  0  0  0  0  0  0  0  0  0  # atno 17320 bound_to 7965
  145.0204  139.3429  143.6075 LP  0  0  0  0  0  0  0  0  0  0  0  0  # atno 17321 bound_to 7965
  140.1024  143.4775  152.2417 LP  0  0  0  0  0  0  0  0  0  0  0  0  # atno 17342 bound_to 10162
  139.5816  144.7513  151.3626 LP  0  0  0  0  0  0  0  0  0  0  0  0  # atno 17343 bound_to 10162
  155.9709  130.4164  150.4227 LP  0  0  0  0  0  0  0  0  0  0  0  0  # atno 17370 bound_to 10713
  157.2277  131.0497  151.2510 LP  0  0  0  0  0  0  0  0  0  0  0  0  # atno 17371 bound_to 10713
  140.7750  133.8706  155.8522 LP  0  0  0  0  0  0  0  0  0  0  0  0  # atno 17394 bound_to 11000
  140.9809  134.1407  157.4495 LP  0  0  0  0  0  0  0  0  0  0  0  0  # atno 17395 bound_to 11000

$$$$
