AV-unprocessed.smi:1916|AV-procd|sdf|7765|dock3
  -GOLD-   22720 9513D 1   1.00000     0.00000
 Structure written by MMmdl.
 45 47  0  0  0  0  0  0  0  0  1 V2000
  151.6164  137.1933  159.7807 O   0  0  0  0  0  0  0  0  0  0  0  0
  151.0394  137.8606  158.9213 C   0  0  0  0  0  0  0  0  0  0  0  0
  151.3864  139.1191  158.6084 N   0  0  0  0  0  0  0  0  0  0  0  0
  152.4970  139.8646  159.1966 C   0  0  0  0  0  0  0  0  0  0  0  0
  152.8611  141.1229  158.3825 C   0  0  0  0  0  0  0  0  0  0  0  0
  152.5652  142.4266  159.1047 C   0  0  0  0  0  0  0  0  0  0  0  0
  152.5899  142.4934  160.5147 C   0  0  0  0  0  0  0  0  0  0  0  0
  152.2686  143.7167  161.1337 C   0  0  0  0  0  0  0  0  0  0  0  0
  151.9421  144.8212  160.3240 C   0  0  0  0  0  0  0  0  0  0  0  0
  151.9537  144.6534  158.9249 C   0  0  0  0  0  0  0  0  0  0  0  0
  152.2604  143.4853  158.3209 N   0  0  0  0  0  0  0  0  0  0  0  0
  149.8694  137.2554  158.1296 C   0  0  1  0  0  0  0  0  0  0  0  0
  150.1920  135.8222  157.6717 C   0  0  0  0  0  0  0  0  0  0  0  0
  149.3297  134.9524  158.5708 C   0  0  0  0  0  0  0  0  0  0  0  0
  149.4491  133.7288  158.6176 O   0  0  0  0  0  0  0  0  0  0  0  0
  148.4859  135.6939  159.3014 N   0  0  0  0  0  0  0  0  0  0  0  0
  147.6242  135.1724  160.3736 C   0  0  0  0  0  0  0  0  0  0  0  0
  146.1037  135.3592  160.1527 C   0  0  0  0  0  0  0  0  0  0  0  0
  145.5583  135.9267  161.4654 C   0  0  0  0  0  0  0  0  0  0  0  0
  146.7300  136.6962  162.0675 C   0  0  0  0  0  0  0  0  0  0  0  0
  147.9528  135.8482  161.7196 C   0  0  0  0  0  0  0  0  0  0  0  0
  148.5882  137.1119  158.9758 C   0  0  0  0  0  0  0  0  0  0  0  0
  150.8541  139.5898  157.8910 H   0  0  0  0  0  0  0  0  0  0  0  0
  152.2033  140.1599  160.2039 H   0  0  0  0  0  0  0  0  0  0  0  0
  153.3724  139.2235  159.3133 H   0  0  0  0  0  0  0  0  0  0  0  0
  153.9184  141.0935  158.1159 H   0  0  0  0  0  0  0  0  0  0  0  0
  152.3141  141.1163  157.4389 H   0  0  0  0  0  0  0  0  0  0  0  0
  152.8326  141.6251  161.1094 H   0  0  0  0  0  0  0  0  0  0  0  0
  152.2675  143.8044  162.2101 H   0  0  0  0  0  0  0  0  0  0  0  0
  151.6876  145.7740  160.7643 H   0  0  0  0  0  0  0  0  0  0  0  0
  151.7092  145.4792  158.2733 H   0  0  0  0  0  0  0  0  0  0  0  0
  149.6648  137.8880  157.2639 H   0  0  0  0  0  0  0  0  0  0  0  0
  149.9032  135.6669  156.6318 H   0  0  0  0  0  0  0  0  0  0  0  0
  151.2451  135.5554  157.7735 H   0  0  0  0  0  0  0  0  0  0  0  0
  147.8132  134.1022  160.4774 H   0  0  0  0  0  0  0  0  0  0  0  0
  145.8735  136.0591  159.3520 H   0  0  0  0  0  0  0  0  0  0  0  0
  145.6159  134.4192  159.8925 H   0  0  0  0  0  0  0  0  0  0  0  0
  144.6769  136.5516  161.3184 H   0  0  0  0  0  0  0  0  0  0  0  0
  145.2785  135.1088  162.1309 H   0  0  0  0  0  0  0  0  0  0  0  0
  146.8127  137.6733  161.5899 H   0  0  0  0  0  0  0  0  0  0  0  0
  146.6216  136.8563  163.1404 H   0  0  0  0  0  0  0  0  0  0  0  0
  148.0917  135.0821  162.4835 H   0  0  0  0  0  0  0  0  0  0  0  0
  148.8658  136.4453  161.6954 H   0  0  0  0  0  0  0  0  0  0  0  0
  148.6049  137.7232  159.8798 H   0  0  0  0  0  0  0  0  0  0  0  0
  147.7197  137.4120  158.3882 H   0  0  0  0  0  0  0  0  0  0  0  0
  1  2  2  0  0  0  0
  2  3  1  0  0  0  0
  2 12  1  0  0  0  0
  3  4  1  0  0  0  0
  3 23  1  0  0  0  0
  4  5  1  0  0  0  0
  4 24  1  0  0  0  0
  4 25  1  0  0  0  0
  5  6  1  0  0  0  0
  5 26  1  0  0  0  0
  5 27  1  0  0  0  0
  6 11  1  0  0  0  0
  6  7  2  0  0  0  0
  7  8  1  0  0  0  0
  7 28  1  0  0  0  0
  8  9  2  0  0  0  0
  8 29  1  0  0  0  0
  9 10  1  0  0  0  0
  9 30  1  0  0  0  0
 10 11  2  0  0  0  0
 10 31  1  0  0  0  0
 12 22  1  0  0  0  0
 12 13  1  0  0  0  0
 12 32  1  0  0  0  0
 13 14  1  0  0  0  0
 13 33  1  0  0  0  0
 13 34  1  0  0  0  0
 14 15  2  0  0  0  0
 14 16  1  0  0  0  0
 16 17  1  0  0  0  0
 16 22  1  0  0  0  0
 17 21  1  0  0  0  0
 17 18  1  0  0  0  0
 17 35  1  0  0  0  0
 18 19  1  0  0  0  0
 18 36  1  0  0  0  0
 18 37  1  0  0  0  0
 19 20  1  0  0  0  0
 19 38  1  0  0  0  0
 19 39  1  0  0  0  0
 20 21  1  0  0  0  0
 20 40  1  0  0  0  0
 20 41  1  0  0  0  0
 21 42  1  0  0  0  0
 21 43  1  0  0  0  0
 22 44  1  0  0  0  0
 22 45  1  0  0  0  0
M  END
> <s_m_source_file>
AV-unprocessed.smi

> <i_m_source_file_index>
1916

> <i_lp_mmshare_version>
43012

> <i_f3d_flags>
0

> <s_epik_input>
W0NIMl0xW0NIMl1bQ0gyXVtDSDJdW0NIXTFOKFtDSDJdMilDKD1PKVtDSDJdW0NASF0yQyg9TylbTkhdW0NIMl1bQ0gyXWMzW2NIXVtjSF1bY0hdW2NIXW4z

> <s_epik_cmdline>
J2VwaWtfcHl0aG9uJywgJy1waCcsICc3LjAnLCAnLXRuJywgJzgnLCAnLW1hJywgJzIwMCcsICctbWV0YWxfYmluZGluZycsICctaW1hZScsICc8aW5maWxlLm1hZT4nLCAnLW9tYWUnLCAnPG91dGZpbGUubWFlPic=

> <r_epik_Ionization_Penalty>
0.0252359

> <r_epik_Ionization_Penalty_Charging>
0

> <r_epik_Ionization_Penalty_Neutral>
0.0252359

> <r_epik_State_Penalty>
0.020532

> <r_epik_Charging_Adjusted_Penalty>
0.020532

> <i_epik_Tot_Q>
0

> <i_epik_Tot_abs_Q>
0

> <r_epik_Metal_State_Penalty>
0.0196901

> <b_epik_Metal_Only>
0

> <s_lp_Force_Field>
OPLS_2005

> <r_lp_Energy>
33.9945

> <b_lp_Chiralities_Consistent>
1

> <s_lp_Variant>
AV-unprocessed.smi:1916-2

> <Gold.Version>
5.8.1

> <Gold.Id.Protein>
6NUR|6NUR_protein|mol2

> <Gold.PLP.Fitness>
44.4054

> <Gold.PLP.PLP>
-41.3984

> <Gold.PLP.part.hbond>
-2.0000

> <Gold.PLP.part.metal>
0.0000

> <Gold.PLP.part.buried>
-6.1931

> <Gold.PLP.part.nonpolar>
-34.1117

> <Gold.PLP.part.repulsive>
0.1810

> <Gold.PLP.ligand.clash>
0.0000

> <Gold.PLP.ligand.torsion>
1.1807

> <Gold.PLP.Chemscore.Hbond>
1.7552

> <Gold.PLP.Chemscore.CHOScore>
0.0000

> <Gold.PLP.Chemscore.Metal>
0.0000

> <Gold.Chemscore.Hbonds>
donor molecule, donor type, donor heavy atom, donor atom, acceptor molecule, acceptor atom, score
      P1  H  6896  6908       L1    15  0.69
      P1  H  6896  6909       L1     1  1.00

> <Gold.PLP.Chemscore.Internal.Correction>
0.1029

> <Gold.Rescore>
     Score         DG    S(hbond)    S(metal)    S(lipo)     H(rot)  DE(clash)    DE(int)     intcor
     17.37     -18.69       1.05        0.00     118.05       1.61       0.12       1.19       ----

> <Gold.Chemscore.Fitness>
17.3703

> <Gold.Chemscore.DG>
-18.6862

> <Gold.Chemscore.ZeroCoef>
-5.4800

> <Gold.Chemscore.Hbond>
1.0535

> <Gold.Chemscore.Metal>
0.0000

> <Gold.Chemscore.Lipo>
118.0495

> <Gold.Chemscore.Internal_Hbond>
0.0000

> <Gold.Chemscore.DEClash>
0.1229

> <Gold.Chemscore.DEInternal>
1.1930

> <Gold.Chemscore.Rot>
1.6110

> <Gold.Chemscore.Internal.Correction>
   9.000000E+99

> <Gold.Chemscore.Hbonds>
donor molecule, donor type, donor heavy atom, donor atom, acceptor molecule, acceptor atom, score
      P1  H  6896  6908       L1    15  0.08
      P1  H  6896  6909       L1     1  0.93

> <Gold.Chemscore.Hbond.Weighted>
-3.5187

> <Gold.Chemscore.Metal.Weighted>
-0.0000

> <Gold.Chemscore.Lipo.Weighted>
-13.8118

> <Gold.Chemscore.Internal_Hbond.Weighted>
0.0000

> <Gold.Chemscore.DEClash.Weighted>
0.1229

> <Gold.Chemscore.DEInternal.Weighted>
1.1930

> <Gold.Chemscore.Rot.Weighted>
4.1243

> <Gold.Chemscore.Internal.Correction.Weighted>
   9.000000E+99

> <Gold.Protein.RotatedTorsions>
[ 6907 6896 6895 6894 ] final  116.31 input  -60.11 | X-H torsion
[ 7974 7965 7964 7962 ] final   34.18 input  175.53 | X-H torsion
[ 8008 7997 7996 7995 ] final  -92.80 input   59.86 | X-H torsion
[ 10167 10162 10161 10158 ] final -145.19 input  -65.29 | X-H torsion
[ 10718 10713 10712 10709 ] final  111.65 input   66.30 | X-H torsion
[ 10763 10752 10751 10750 ] final   77.47 input  -60.55 | X-H torsion
[ 11005 11000 10999 10996 ] final -119.72 input  -57.11 | X-H torsion

> <Gold.Protein.ActiveResidues>
 VAL166  LYS551  ARG553  GLY616  TRP617  ASP618  TYR619  PRO620  LYS621  CYS622 
 ASP623  PHE694  ASN695  SER759  ASP760  ASP761  ALA762  ILE779  LEU786  VAL792 
 PHE793  MET794  SER795  GLU796  ALA797  LYS798  CYS799  TRP800  GLU811  SER814 

> <Gold.Protein.RotatedAtoms>
  152.4686  133.7978  159.6936 H   0  0  0  0  0  0  0  0  0  0  0  0  # atno 6907 bound_to 6896
  150.8663  133.7561  159.2982 H   0  0  0  0  0  0  0  0  0  0  0  0  # atno 6908 bound_to 6896
  151.5110  135.1068  159.9906 H   0  0  0  0  0  0  0  0  0  0  0  0  # atno 6909 bound_to 6896
  146.1370  139.6302  142.9188 H   0  0  0  0  0  0  0  0  0  0  0  0  # atno 7974 bound_to 7965
  154.7277  140.0505  157.0698 H   0  0  0  0  0  0  0  0  0  0  0  0  # atno 8008 bound_to 7997
  155.0343  140.3161  155.4728 H   0  0  0  0  0  0  0  0  0  0  0  0  # atno 8009 bound_to 7997
  156.2833  140.2144  156.5465 H   0  0  0  0  0  0  0  0  0  0  0  0  # atno 8010 bound_to 7997
  139.7828  143.8076  152.2641 H   0  0  0  0  0  0  0  0  0  0  0  0  # atno 10167 bound_to 10162
  157.6433  131.0954  150.6780 H   0  0  0  0  0  0  0  0  0  0  0  0  # atno 10718 bound_to 10713
  153.0801  135.4913  154.8486 H   0  0  0  0  0  0  0  0  0  0  0  0  # atno 10763 bound_to 10752
  154.7140  135.3025  154.9155 H   0  0  0  0  0  0  0  0  0  0  0  0  # atno 10764 bound_to 10752
  153.9840  135.6786  153.4804 H   0  0  0  0  0  0  0  0  0  0  0  0  # atno 10765 bound_to 10752
  141.0195  134.0145  157.3302 H   0  0  0  0  0  0  0  0  0  0  0  0  # atno 11005 bound_to 11000
  145.5132  141.0434  143.2476 LP  0  0  0  0  0  0  0  0  0  0  0  0  # atno 17320 bound_to 7965
  144.7751  139.6648  143.7178 LP  0  0  0  0  0  0  0  0  0  0  0  0  # atno 17321 bound_to 7965
  139.8144  144.7322  150.9654 LP  0  0  0  0  0  0  0  0  0  0  0  0  # atno 17342 bound_to 10162
  140.7819  143.4219  151.0828 LP  0  0  0  0  0  0  0  0  0  0  0  0  # atno 17343 bound_to 10162
  156.7101  130.4649  149.5549 LP  0  0  0  0  0  0  0  0  0  0  0  0  # atno 17370 bound_to 10713
  156.1736  130.6453  151.0867 LP  0  0  0  0  0  0  0  0  0  0  0  0  # atno 17371 bound_to 10713
  139.9137  135.0194  156.7797 LP  0  0  0  0  0  0  0  0  0  0  0  0  # atno 17394 bound_to 11000
  140.6597  133.9656  155.7798 LP  0  0  0  0  0  0  0  0  0  0  0  0  # atno 17395 bound_to 11000

$$$$
