AV-unprocessed.smi:3080|AV-procd|sdf|11738|dock2
  -GOLD-   2272017133D 1   1.00000     0.00000
 Structure written by MMmdl.
 27 28  0  0  0  0  0  0  0  0  2 V2000
  152.9462  142.9711  162.0435 C   0  0  0  0  0  0  0  0  0  0  0  0
  153.3108  141.9863  161.1052 C   0  0  0  0  0  0  0  0  0  0  0  0
  152.9123  142.1470  159.7638 C   0  0  0  0  0  0  0  0  0  0  0  0
  152.1643  143.2927  159.4181 C   0  0  0  0  0  0  0  0  0  0  0  0
  151.7014  143.5162  157.9911 C   0  0  0  0  0  0  0  0  0  0  0  0
  150.8035  142.3775  157.4881 C   0  0  0  0  0  0  0  0  0  0  0  0
  150.3439  142.6313  156.1098 N   0  3  0  0  0  0  0  0  0  0  0  0
  149.8647  141.4209  155.4156 C   0  0  0  0  0  0  0  0  0  0  0  0
  148.7919  141.6906  154.3890 C   0  0  0  0  0  0  0  0  0  0  0  0
  148.4276  141.0856  155.7290 C   0  0  0  0  0  0  0  0  0  0  0  0
  151.8092  144.2411  160.3137 N   0  0  0  0  0  0  0  0  0  0  0  0
  152.1965  144.0776  161.5975 C   0  0  0  0  0  0  0  0  0  0  0  0
  153.2342  142.8807  163.0806 H   0  0  0  0  0  0  0  0  0  0  0  0
  153.8849  141.1235  161.4089 H   0  0  0  0  0  0  0  0  0  0  0  0
  153.1757  141.4068  159.0224 H   0  0  0  0  0  0  0  0  0  0  0  0
  151.1666  144.4659  157.9395 H   0  0  0  0  0  0  0  0  0  0  0  0
  152.5729  143.6196  157.3431 H   0  0  0  0  0  0  0  0  0  0  0  0
  151.3482  141.4325  157.5149 H   0  0  0  0  0  0  0  0  0  0  0  0
  149.9346  142.2684  158.1386 H   0  0  0  0  0  0  0  0  0  0  0  0
  149.5888  143.3015  156.1431 H   0  0  0  0  0  0  0  0  0  0  0  0
  150.5906  140.6216  155.2773 H   0  0  0  0  0  0  0  0  0  0  0  0
  148.5010  142.7237  154.2072 H   0  0  0  0  0  0  0  0  0  0  0  0
  148.7534  141.0372  153.5198 H   0  0  0  0  0  0  0  0  0  0  0  0
  148.1473  140.0340  155.7395 H   0  0  0  0  0  0  0  0  0  0  0  0
  147.8909  141.7167  156.4353 H   0  0  0  0  0  0  0  0  0  0  0  0
  151.8990  144.8512  162.2900 H   0  0  0  0  0  0  0  0  0  0  0  0
  151.1063  143.0283  155.5796 H   0  0  0  0  0  0  0  0  0  0  0  0
  1 12  1  0  0  0  0
  1  2  2  0  0  0  0
  1 13  1  0  0  0  0
  2  3  1  0  0  0  0
  2 14  1  0  0  0  0
  3  4  2  0  0  0  0
  3 15  1  0  0  0  0
  4  5  1  0  0  0  0
  4 11  1  0  0  0  0
  5  6  1  0  0  0  0
  5 16  1  0  0  0  0
  5 17  1  0  0  0  0
  6  7  1  0  0  0  0
  6 18  1  0  0  0  0
  6 19  1  0  0  0  0
  7  8  1  0  0  0  0
  7 20  1  0  0  0  0
  7 27  1  0  0  0  0
  8 10  1  0  0  0  0
  8  9  1  0  0  0  0
  8 21  1  0  0  0  0
  9 10  1  0  0  0  0
  9 22  1  0  0  0  0
  9 23  1  0  0  0  0
 10 24  1  0  0  0  0
 10 25  1  0  0  0  0
 11 12  2  0  0  0  0
 12 26  1  0  0  0  0
M  CHG  1   7   1
M  END
> <s_m_source_file>
AV-unprocessed.smi

> <i_m_source_file_index>
3080

> <i_lp_mmshare_version>
43012

> <i_f3d_flags>
0

> <s_epik_input>
bjFbY0hdW2NIXVtjSF1bY0hdYzFbQ0gyXVtDSDJdW05IXVtDSF0yW0NIMl1bQ0gyXTI=

> <s_epik_cmdline>
J2VwaWtfcHl0aG9uJywgJy1waCcsICc3LjAnLCAnLXRuJywgJzgnLCAnLW1hJywgJzIwMCcsICctbWV0YWxfYmluZGluZycsICctaW1hZScsICc8aW5maWxlLm1hZT4nLCAnLW9tYWUnLCAnPG91dGZpbGUubWFlPic=

> <r_epik_Ionization_Penalty>
0.0260151

> <r_epik_Ionization_Penalty_Charging>
0.024724

> <r_epik_Ionization_Penalty_Neutral>
0.00129111

> <r_epik_State_Penalty>
0.0109584

> <r_epik_Charging_Adjusted_Penalty>
0.0356824

> <i_epik_Tot_Q>
1

> <i_epik_Tot_abs_Q>
1

> <r_epik_Metal_State_Penalty>
0.00998059

> <b_epik_Metal_Only>
0

> <s_lp_Force_Field>
OPLS_2005

> <r_lp_Energy>
12.7619

> <b_lp_Chiralities_Consistent>
1

> <s_lp_Variant>
AV-unprocessed.smi:3080-1

> <Gold.Version>
5.8.1

> <Gold.Id.Protein>
6NUR|6NUR_protein|mol2

> <Gold.PLP.Fitness>
40.4515

> <Gold.PLP.PLP>
-34.6213

> <Gold.PLP.part.hbond>
-1.0000

> <Gold.PLP.part.metal>
0.0000

> <Gold.PLP.part.buried>
-3.3646

> <Gold.PLP.part.nonpolar>
-29.9480

> <Gold.PLP.part.repulsive>
0.2022

> <Gold.PLP.ligand.clash>
0.0000

> <Gold.PLP.ligand.torsion>
0.3994

> <Gold.PLP.Chemscore.Hbond>
2.0000

> <Gold.PLP.Chemscore.CHOScore>
0.0000

> <Gold.PLP.Chemscore.Metal>
0.0000

> <Gold.Chemscore.Hbonds>
donor molecule, donor type, donor heavy atom, donor atom, acceptor molecule, acceptor atom, score
      L1  H     7    20       P1  8028  2.00

> <Gold.PLP.Chemscore.Internal.Correction>
0.6291

> <Gold.Rescore>
     Score         DG    S(hbond)    S(metal)    S(lipo)     H(rot)  DE(clash)    DE(int)     intcor
     16.22     -16.68       0.99        0.00      98.36       1.42       0.06       0.40       ----

> <Gold.Chemscore.Fitness>
16.2222

> <Gold.Chemscore.DG>
-16.6816

> <Gold.Chemscore.ZeroCoef>
-5.4800

> <Gold.Chemscore.Hbond>
0.9947

> <Gold.Chemscore.Metal>
0.0000

> <Gold.Chemscore.Lipo>
98.3598

> <Gold.Chemscore.Internal_Hbond>
0.0000

> <Gold.Chemscore.DEClash>
0.0582

> <Gold.Chemscore.DEInternal>
0.4011

> <Gold.Chemscore.Rot>
1.4175

> <Gold.Chemscore.Internal.Correction>
   9.000000E+99

> <Gold.Chemscore.Hbonds>
donor molecule, donor type, donor heavy atom, donor atom, acceptor molecule, acceptor atom, score
      L1  H     7    20       P1  8028  0.95

> <Gold.Chemscore.Hbond.Weighted>
-3.3224

> <Gold.Chemscore.Metal.Weighted>
-0.0000

> <Gold.Chemscore.Lipo.Weighted>
-11.5081

> <Gold.Chemscore.Internal_Hbond.Weighted>
0.0000

> <Gold.Chemscore.DEClash.Weighted>
0.0582

> <Gold.Chemscore.DEInternal.Weighted>
0.4011

> <Gold.Chemscore.Rot.Weighted>
3.6289

> <Gold.Chemscore.Internal.Correction.Weighted>
   9.000000E+99

> <Gold.Protein.RotatedTorsions>
[ 6907 6896 6895 6894 ] final   97.24 input  -60.11 | X-H torsion
[ 7974 7965 7964 7962 ] final -109.14 input  175.53 | X-H torsion
[ 8008 7997 7996 7995 ] final   50.83 input   59.86 | X-H torsion
[ 10167 10162 10161 10158 ] final  -22.35 input  -65.29 | X-H torsion
[ 10718 10713 10712 10709 ] final    9.67 input   66.30 | X-H torsion
[ 10763 10752 10751 10750 ] final   73.60 input  -60.55 | X-H torsion
[ 11005 11000 10999 10996 ] final  -99.72 input  -57.11 | X-H torsion

> <Gold.Protein.ActiveResidues>
 VAL166  LYS551  ARG553  GLY616  TRP617  ASP618  TYR619  PRO620  LYS621  CYS622 
 ASP623  PHE694  ASN695  SER759  ASP760  ASP761  ALA762  ILE779  LEU786  VAL792 
 PHE793  MET794  SER795  GLU796  ALA797  LYS798  CYS799  TRP800  GLU811  SER814 

> <Gold.Protein.RotatedAtoms>
  152.5426  134.0763  159.8215 H   0  0  0  0  0  0  0  0  0  0  0  0  # atno 6907 bound_to 6896
  151.0871  133.5337  159.2624 H   0  0  0  0  0  0  0  0  0  0  0  0  # atno 6908 bound_to 6896
  151.2143  135.0502  159.8978 H   0  0  0  0  0  0  0  0  0  0  0  0  # atno 6909 bound_to 6896
  145.1842  140.8985  143.3462 H   0  0  0  0  0  0  0  0  0  0  0  0  # atno 7974 bound_to 7965
  155.4252  140.3448  155.4275 H   0  0  0  0  0  0  0  0  0  0  0  0  # atno 8008 bound_to 7997
  156.1369  140.1530  156.9011 H   0  0  0  0  0  0  0  0  0  0  0  0  # atno 8009 bound_to 7997
  154.4939  140.0833  156.7635 H   0  0  0  0  0  0  0  0  0  0  0  0  # atno 8010 bound_to 7997
  140.7285  143.4543  151.0471 H   0  0  0  0  0  0  0  0  0  0  0  0  # atno 10167 bound_to 10162
  156.9698  130.5964  149.5668 H   0  0  0  0  0  0  0  0  0  0  0  0  # atno 10718 bound_to 10713
  153.0532  135.5057  154.7918 H   0  0  0  0  0  0  0  0  0  0  0  0  # atno 10763 bound_to 10752
  154.6764  135.2961  154.9675 H   0  0  0  0  0  0  0  0  0  0  0  0  # atno 10764 bound_to 10752
  154.0476  135.6708  153.4849 H   0  0  0  0  0  0  0  0  0  0  0  0  # atno 10765 bound_to 10752
  141.1298  133.8343  157.1009 H   0  0  0  0  0  0  0  0  0  0  0  0  # atno 11005 bound_to 11000
  145.0106  139.3514  143.6122 LP  0  0  0  0  0  0  0  0  0  0  0  0  # atno 17320 bound_to 7965
  146.3448  139.9366  142.8746 LP  0  0  0  0  0  0  0  0  0  0  0  0  # atno 17321 bound_to 7965
  139.8222  143.7805  152.3177 LP  0  0  0  0  0  0  0  0  0  0  0  0  # atno 17342 bound_to 10162
  139.7891  144.7417  150.9980 LP  0  0  0  0  0  0  0  0  0  0  0  0  # atno 17343 bound_to 10162
  156.0287  130.5380  150.8477 LP  0  0  0  0  0  0  0  0  0  0  0  0  # atno 17370 bound_to 10713
  157.5600  131.0945  150.9572 LP  0  0  0  0  0  0  0  0  0  0  0  0  # atno 17371 bound_to 10713
  140.0334  134.9890  157.0824 LP  0  0  0  0  0  0  0  0  0  0  0  0  # atno 17394 bound_to 11000
  140.4249  134.1841  155.7166 LP  0  0  0  0  0  0  0  0  0  0  0  0  # atno 17395 bound_to 11000

$$$$
