AV-unprocessed.smi:3048|AV-procd|sdf|11626|dock5
  -GOLD-   2272017 13D 1   1.00000     0.00000
 Structure written by MMmdl.
 38 39  0  0  0  0  0  0  0  0  2 V2000
  153.4680  142.8646  163.3197 C   0  0  0  0  0  0  0  0  0  0  0  0
  153.0297  142.9615  161.8866 C   0  0  0  0  0  0  0  0  0  0  0  0
  153.4756  142.1826  160.7812 C   0  0  0  0  0  0  0  0  0  0  0  0
  152.8872  142.5192  159.6448 N   0  0  0  0  0  0  0  0  0  0  0  0
  152.0492  143.5227  159.9826 N   0  0  0  0  0  0  0  0  0  0  0  0
  151.2176  144.1437  158.9665 C   0  0  0  0  0  0  0  0  0  0  0  0
  151.5938  143.6879  157.5471 C   0  0  0  0  0  0  0  0  0  0  0  0
  150.5212  142.8800  156.9330 N   0  3  0  0  0  0  0  0  0  0  0  0
  150.9933  141.8988  155.9372 C   0  0  0  0  0  0  0  0  0  0  0  0
  149.8475  140.9812  155.4875 C   0  0  1  0  0  0  0  0  0  0  0  0
  148.7707  141.7476  154.6955 C   0  0  0  0  0  0  0  0  0  0  0  0
  147.6858  140.7873  154.1946 C   0  0  0  0  0  0  0  0  0  0  0  0
  148.3331  139.6349  153.4194 C   0  0  0  0  0  0  0  0  0  0  0  0
  149.4419  138.9803  154.2590 C   0  0  0  0  0  0  0  0  0  0  0  0
  150.3959  139.9619  154.6540 O   0  0  0  0  0  0  0  0  0  0  0  0
  152.1158  143.8107  161.3294 C   0  0  0  0  0  0  0  0  0  0  0  0
  154.2915  142.1611  163.4457 H   0  0  0  0  0  0  0  0  0  0  0  0
  152.6573  142.5283  163.9662 H   0  0  0  0  0  0  0  0  0  0  0  0
  153.8074  143.8272  163.7026 H   0  0  0  0  0  0  0  0  0  0  0  0
  154.2041  141.3851  160.7719 H   0  0  0  0  0  0  0  0  0  0  0  0
  150.1790  143.8833  159.1730 H   0  0  0  0  0  0  0  0  0  0  0  0
  151.2899  145.2286  159.0583 H   0  0  0  0  0  0  0  0  0  0  0  0
  151.8045  144.5556  156.9205 H   0  0  0  0  0  0  0  0  0  0  0  0
  152.5057  143.0908  157.5837 H   0  0  0  0  0  0  0  0  0  0  0  0
  150.0297  142.3850  157.6639 H   0  0  0  0  0  0  0  0  0  0  0  0
  151.3896  142.4403  155.0771 H   0  0  0  0  0  0  0  0  0  0  0  0
  151.8124  141.3120  156.3552 H   0  0  0  0  0  0  0  0  0  0  0  0
  149.3918  140.5250  156.3685 H   0  0  0  0  0  0  0  0  0  0  0  0
  148.3218  142.5228  155.3173 H   0  0  0  0  0  0  0  0  0  0  0  0
  149.2293  142.2547  153.8452 H   0  0  0  0  0  0  0  0  0  0  0  0
  147.1254  140.3912  155.0426 H   0  0  0  0  0  0  0  0  0  0  0  0
  146.9697  141.3157  153.5645 H   0  0  0  0  0  0  0  0  0  0  0  0
  147.5809  138.8952  153.1437 H   0  0  0  0  0  0  0  0  0  0  0  0
  148.7574  140.0123  152.4880 H   0  0  0  0  0  0  0  0  0  0  0  0
  149.0253  138.4884  155.1392 H   0  0  0  0  0  0  0  0  0  0  0  0
  149.9485  138.2114  153.6752 H   0  0  0  0  0  0  0  0  0  0  0  0
  151.5121  144.5870  161.7768 H   0  0  0  0  0  0  0  0  0  0  0  0
  149.8723  143.5095  156.4818 H   0  0  0  0  0  0  0  0  0  0  0  0
  1  2  1  0  0  0  0
  1 17  1  0  0  0  0
  1 18  1  0  0  0  0
  1 19  1  0  0  0  0
  2 16  2  0  0  0  0
  2  3  1  0  0  0  0
  3  4  2  0  0  0  0
  3 20  1  0  0  0  0
  4  5  1  0  0  0  0
  5  6  1  0  0  0  0
  5 16  1  0  0  0  0
  6  7  1  0  0  0  0
  6 21  1  0  0  0  0
  6 22  1  0  0  0  0
  7  8  1  0  0  0  0
  7 23  1  0  0  0  0
  7 24  1  0  0  0  0
  8  9  1  0  0  0  0
  8 25  1  0  0  0  0
  8 38  1  0  0  0  0
  9 10  1  0  0  0  0
  9 26  1  0  0  0  0
  9 27  1  0  0  0  0
 10 15  1  0  0  0  0
 10 11  1  0  0  0  0
 10 28  1  0  0  0  0
 11 12  1  0  0  0  0
 11 29  1  0  0  0  0
 11 30  1  0  0  0  0
 12 13  1  0  0  0  0
 12 31  1  0  0  0  0
 12 32  1  0  0  0  0
 13 14  1  0  0  0  0
 13 33  1  0  0  0  0
 13 34  1  0  0  0  0
 14 15  1  0  0  0  0
 14 35  1  0  0  0  0
 14 36  1  0  0  0  0
 16 37  1  0  0  0  0
M  CHG  1   8   1
M  END
> <s_m_source_file>
AV-unprocessed.smi

> <i_m_source_file_index>
3048

> <i_lp_mmshare_version>
43012

> <i_f3d_flags>
0

> <s_epik_input>
W0NIM11jMVtjSF1ubihbY0hdMSlbQ0gyXVtDSDJdW05IXVtDSDJdW0NAQEhdMltDSDJdW0NIMl1bQ0gyXVtDSDJdTzI=

> <s_epik_cmdline>
J2VwaWtfcHl0aG9uJywgJy1waCcsICc3LjAnLCAnLXRuJywgJzgnLCAnLW1hJywgJzIwMCcsICctbWV0YWxfYmluZGluZycsICctaW1hZScsICc8aW5maWxlLm1hZT4nLCAnLW9tYWUnLCAnPG91dGZpbGUubWFlPic=

> <r_lp_tautomer_probability>
1

> <r_epik_Ionization_Penalty>
0.0084937

> <r_epik_Ionization_Penalty_Charging>
0.00848754

> <r_epik_Ionization_Penalty_Neutral>
6.1613e-06

> <r_epik_State_Penalty>
0.00639836

> <r_epik_Charging_Adjusted_Penalty>
0.0148859

> <i_epik_Tot_Q>
1

> <i_epik_Tot_abs_Q>
1

> <r_epik_Metal_State_Penalty>
0.00642541

> <b_epik_Metal_Only>
0

> <s_lp_Force_Field>
OPLS_2005

> <r_lp_Energy>
10.7756

> <b_lp_Chiralities_Consistent>
1

> <s_lp_Variant>
AV-unprocessed.smi:3048-2

> <Gold.Version>
5.8.1

> <Gold.Id.Protein>
6NUR|6NUR_protein|mol2

> <Gold.PLP.Fitness>
48.8467

> <Gold.PLP.PLP>
-41.0742

> <Gold.PLP.part.hbond>
-2.0000

> <Gold.PLP.part.metal>
0.0000

> <Gold.PLP.part.buried>
-2.7225

> <Gold.PLP.part.nonpolar>
-35.7781

> <Gold.PLP.part.repulsive>
0.0976

> <Gold.PLP.ligand.clash>
0.0000

> <Gold.PLP.ligand.torsion>
0.6472

> <Gold.PLP.Chemscore.Hbond>
3.0000

> <Gold.PLP.Chemscore.CHOScore>
0.0000

> <Gold.PLP.Chemscore.Metal>
0.0000

> <Gold.Chemscore.Hbonds>
donor molecule, donor type, donor heavy atom, donor atom, acceptor molecule, acceptor atom, score
      L1  H     8    38       P1  8028  2.00
      P1  H  7989  7998       L1    15  1.00

> <Gold.PLP.Chemscore.Internal.Correction>
0.0670

> <Gold.Rescore>
     Score         DG    S(hbond)    S(metal)    S(lipo)     H(rot)  DE(clash)    DE(int)     intcor
     18.68     -20.68       1.90        0.00     111.07       1.61       1.39       0.60       ----

> <Gold.Chemscore.Fitness>
18.6772

> <Gold.Chemscore.DG>
-20.6759

> <Gold.Chemscore.ZeroCoef>
-5.4800

> <Gold.Chemscore.Hbond>
1.8965

> <Gold.Chemscore.Metal>
0.0000

> <Gold.Chemscore.Lipo>
111.0742

> <Gold.Chemscore.Internal_Hbond>
0.0000

> <Gold.Chemscore.DEClash>
1.3948

> <Gold.Chemscore.DEInternal>
0.6039

> <Gold.Chemscore.Rot>
1.6149

> <Gold.Chemscore.Internal.Correction>
   9.000000E+99

> <Gold.Chemscore.Hbonds>
donor molecule, donor type, donor heavy atom, donor atom, acceptor molecule, acceptor atom, score
      L1  H     8    38       P1  8028  1.00
      P1  H  7989  7998       L1    15  0.50

> <Gold.Chemscore.Hbond.Weighted>
-6.3343

> <Gold.Chemscore.Metal.Weighted>
-0.0000

> <Gold.Chemscore.Lipo.Weighted>
-12.9957

> <Gold.Chemscore.Internal_Hbond.Weighted>
0.0000

> <Gold.Chemscore.DEClash.Weighted>
1.3948

> <Gold.Chemscore.DEInternal.Weighted>
0.6039

> <Gold.Chemscore.Rot.Weighted>
4.1341

> <Gold.Chemscore.Internal.Correction.Weighted>
   9.000000E+99

> <Gold.Protein.RotatedTorsions>
[ 6907 6896 6895 6894 ] final  116.23 input  -60.11 | X-H torsion
[ 7974 7965 7964 7962 ] final  177.87 input  175.53 | X-H torsion
[ 8008 7997 7996 7995 ] final   39.45 input   59.86 | X-H torsion
[ 10167 10162 10161 10158 ] final   70.77 input  -65.29 | X-H torsion
[ 10718 10713 10712 10709 ] final    8.21 input   66.30 | X-H torsion
[ 10763 10752 10751 10750 ] final   41.12 input  -60.55 | X-H torsion
[ 11005 11000 10999 10996 ] final -134.89 input  -57.11 | X-H torsion

> <Gold.Protein.ActiveResidues>
 VAL166  LYS551  ARG553  GLY616  TRP617  ASP618  TYR619  PRO620  LYS621  CYS622 
 ASP623  PHE694  ASN695  SER759  ASP760  ASP761  ALA762  ILE779  LEU786  VAL792 
 PHE793  MET794  SER795  GLU796  ALA797  LYS798  CYS799  TRP800  GLU811  SER814 

> <Gold.Protein.RotatedAtoms>
  152.4691  133.7990  159.6942 H   0  0  0  0  0  0  0  0  0  0  0  0  # atno 6907 bound_to 6896
  150.8671  133.7549  159.2979 H   0  0  0  0  0  0  0  0  0  0  0  0  # atno 6908 bound_to 6896
  151.5096  135.1068  159.9902 H   0  0  0  0  0  0  0  0  0  0  0  0  # atno 6909 bound_to 6896
  144.7163  140.0313  143.6439 H   0  0  0  0  0  0  0  0  0  0  0  0  # atno 7974 bound_to 7965
  155.2368  140.3342  155.4297 H   0  0  0  0  0  0  0  0  0  0  0  0  # atno 8008 bound_to 7997
  156.2272  140.1834  156.7378 H   0  0  0  0  0  0  0  0  0  0  0  0  # atno 8009 bound_to 7997
  154.5918  140.0637  156.9234 H   0  0  0  0  0  0  0  0  0  0  0  0  # atno 8010 bound_to 7997
  140.0533  144.5294  150.7347 H   0  0  0  0  0  0  0  0  0  0  0  0  # atno 10167 bound_to 10162
  156.9482  130.5887  149.5655 H   0  0  0  0  0  0  0  0  0  0  0  0  # atno 10718 bound_to 10713
  152.9917  135.6171  154.2735 H   0  0  0  0  0  0  0  0  0  0  0  0  # atno 10763 bound_to 10752
  154.2467  135.2786  155.2834 H   0  0  0  0  0  0  0  0  0  0  0  0  # atno 10764 bound_to 10752
  154.5323  135.5784  153.6826 H   0  0  0  0  0  0  0  0  0  0  0  0  # atno 10765 bound_to 10752
  140.8949  134.1765  157.4502 H   0  0  0  0  0  0  0  0  0  0  0  0  # atno 11005 bound_to 11000
  146.0100  139.3162  143.0876 LP  0  0  0  0  0  0  0  0  0  0  0  0  # atno 17320 bound_to 7965
  145.8693  140.9429  143.0659 LP  0  0  0  0  0  0  0  0  0  0  0  0  # atno 17321 bound_to 7965
  140.7206  143.2585  151.4290 LP  0  0  0  0  0  0  0  0  0  0  0  0  # atno 17342 bound_to 10162
  139.5939  144.1439  152.2121 LP  0  0  0  0  0  0  0  0  0  0  0  0  # atno 17343 bound_to 10162
  156.0374  130.5460  150.8688 LP  0  0  0  0  0  0  0  0  0  0  0  0  # atno 17370 bound_to 10713
  157.5739  131.0946  150.9375 LP  0  0  0  0  0  0  0  0  0  0  0  0  # atno 17371 bound_to 10713
  139.8734  134.9874  156.5366 LP  0  0  0  0  0  0  0  0  0  0  0  0  # atno 17394 bound_to 11000
  140.8302  133.8285  155.8976 LP  0  0  0  0  0  0  0  0  0  0  0  0  # atno 17395 bound_to 11000

$$$$
