#       Name:                AV-unprocessed.smi:930
#       Creating user name   scv26
#       Creation time:       Fri Mar 27 02:10:24 2020


#       File generated by GOLD software.
#

@<TRIPOS>MOLECULE
AV-unprocessed.smi:930
    36    37     1
SMALL
NO_CHARGES


@<TRIPOS>ATOM
      1 ****        -6.4121   2.3281  -0.7969 C.3            1 S1                 0.0000
      2 ****        -5.0374   2.1577  -0.2478 C.2            1 S1                 0.0000
      3 ****        -4.7939   2.0114   1.0566 N.2            1 S1                 0.0000
      4 ****        -3.4398   1.8662   1.3225 N.2            1 S1                 0.0000
      5 ****        -2.6808   1.8949   0.2180 C.2            1 S1                 0.0000
      6 ****        -1.3436   1.7737   0.2604 N.pl3          1 S1                -1.0000
      7 ****        -0.7634   0.5840  -0.0183 C.2            1 S1                 0.0000
      8 ****        -1.3465  -0.4576  -0.3280 O.2            1 S1                 0.0000
      9 ****         0.5749   0.6032   0.0666 N.am           1 S1                 0.0000
     10 ****         1.4704  -0.5233  -0.1847 C.3            1 S1                 0.0000
     11 ****         1.5751  -1.4255   1.0627 C.3            1 S1                 0.0000
     12 ****         2.5733  -2.5739   0.8432 C.3            1 S1                 0.0000
     13 ****         3.9549  -2.0425   0.4303 C.3            1 S1                 0.0000
     14 ****         3.8546  -1.1478  -0.8149 C.3            1 S1                 0.0000
     15 ****         2.8586   0.0027  -0.5956 C.3            1 S1                 0.0000
     16 ****        -3.6067   2.1300  -1.2646 S.3            1 S1                 0.0000
     17 ****        -6.9099   1.3604  -0.8606 H              1 S1                 0.0000
     18 ****        -6.3696   2.7670  -1.7937 H              1 S1                 0.0000
     19 ****        -6.9981   2.9840  -0.1526 H              1 S1                 0.0000
     20 ****         1.0070   1.4773   0.3279 H              1 S1                 0.0000
     21 ****         1.0756  -1.1128  -1.0143 H              1 S1                 0.0000
     22 ****         1.8897  -0.8316   1.9221 H              1 S1                 0.0000
     23 ****         0.5969  -1.8367   1.3145 H              1 S1                 0.0000
     24 ****         2.6602  -3.1692   1.7525 H              1 S1                 0.0000
     25 ****         2.1932  -3.2431   0.0704 H              1 S1                 0.0000
     26 ****         4.3893  -1.4752   1.2544 H              1 S1                 0.0000
     27 ****         4.6314  -2.8753   0.2371 H              1 S1                 0.0000
     28 ****         4.8370  -0.7463  -1.0647 H              1 S1                 0.0000
     29 ****         3.5382  -1.7462  -1.6701 H              1 S1                 0.0000
     30 ****         2.7782   0.5965  -1.5068 H              1 S1                 0.0000
     31 ****         3.2440   0.6712   0.1757 H              1 S1                 0.0000
     32 ****        -5.5046   2.0069   1.7601 LP             1 S1                 0.0000
     33 ****        -3.0682   1.7518   2.2438 LP             1 S1                 0.0000
     34 ****        -0.7772   2.5628   0.4979 LP             1 S1                 0.0000
     35 ****        -2.3444  -0.4720  -0.3919 LP             1 S1                 0.0000
     36 ****        -0.8215  -1.2879  -0.5153 LP             1 S1                 0.0000
@<TRIPOS>BOND
    1    1    2 1     
    2    1   17 1     
    3    1   18 1     
    4    1   19 1     
    5    2   16 1     
    6    2    3 2     
    7    3    4 1     
    8    4    5 2     
    9    5    6 1     
   10    5   16 1     
   11    6    7 1     
   12    7    8 2     
   13    7    9 am    
   14    9   10 1     
   15    9   20 1     
   16   10   15 1     
   17   10   11 1     
   18   10   21 1     
   19   11   12 1     
   20   11   22 1     
   21   11   23 1     
   22   12   13 1     
   23   12   24 1     
   24   12   25 1     
   25   13   14 1     
   26   13   26 1     
   27   13   27 1     
   28   14   15 1     
   29   14   28 1     
   30   14   29 1     
   31   15   30 1     
   32   15   31 1     
   33    3   32 1     
   34    4   33 1     
   35    6   34 1     
   36    8   35 1     
   37    8   36 1     
@<TRIPOS>SUBSTRUCTURE
      1 S1             1
@<TRIPOS>SET
LONE_PAIRS      STATIC     ATOMS    <user>   **** ""
5 32 33 34 35 36
DONOR_HYDROGENS      STATIC     ATOMS    <user>   **** ""
1 20
ATOM$BLUE        STATIC     ATOMS    COLORGROUP SYSTEM
5 32 33 34 35 36
ATOM$RED        STATIC     ATOMS    COLORGROUP SYSTEM
1 20
