#       Name:                AV-unprocessed.smi:3056
#       Creating user name   scv26
#       Creation time:       Fri Mar 27 17:05:19 2020


#       File generated by GOLD software.
#

@<TRIPOS>MOLECULE
AV-unprocessed.smi:3056
    53    54     1
SMALL
NO_CHARGES


@<TRIPOS>ATOM
      1 ****        -3.6650  -2.5802  -3.7557 C.3            1 S1                 0.0000
      2 ****        -3.0720  -2.8863  -2.4108 C.2            1 S1                 0.0000
      3 ****        -2.8871  -4.1607  -1.8036 C.2            1 S1                 0.0000
      4 ****        -2.3317  -4.0840  -0.6054 N.2            1 S1                 0.0000
      5 ****        -2.1389  -2.7626  -0.4038 N.pl3          1 S1                 0.0000
      6 ****        -1.5368  -2.2969   0.8392 C.3            1 S1                 0.0000
      7 ****        -2.5700  -1.4702   1.6279 C.3            1 S1                 0.0000
      8 ****        -0.2169  -1.5225   0.5803 C.3            1 S1                 0.0000
      9 ****         0.7721  -2.2956  -0.3180 C.3            1 S1                 0.0000
     10 ****         0.4280  -1.2571   1.8680 N.3            1 S1                 0.0000
     11 ****         1.2939  -0.0630   1.8859 C.3            1 S1                 0.0000
     12 ****         0.5465   1.2824   1.7801 C.2            1 S1                 0.0000
     13 ****        -0.6700   1.3038   1.9771 O.2            1 S1                 0.0000
     14 ****         1.2422   2.4038   1.4751 N.am           1 S1                 0.0000
     15 ****         0.6036   3.6920   1.1965 C.3            1 S1                 0.0000
     16 ****         0.8403   4.0228  -0.2883 C.3            1 S1                 0.0000
     17 ****         2.2407   4.0424  -0.5627 O.3            1 S1                 0.0000
     18 ****         2.9031   2.8156  -0.2535 C.3            1 S1                 0.0000
     19 ****         4.3870   2.9702  -0.6032 C.3            1 S1                 0.0000
     20 ****         2.6851   2.4948   1.2384 C.3            1 S1                 0.0000
     21 ****        -2.5825  -2.0173  -1.4777 C.2            1 S1                 0.0000
     22 ****        -4.0296  -3.4795  -4.2524 H              1 S1                 0.0000
     23 ****        -2.9344  -2.1194  -4.4206 H              1 S1                 0.0000
     24 ****        -4.5077  -1.8931  -3.6766 H              1 S1                 0.0000
     25 ****        -3.1391  -5.1345  -2.1968 H              1 S1                 0.0000
     26 ****        -1.2984  -3.1801   1.4360 H              1 S1                 0.0000
     27 ****        -2.1982  -1.1985   2.6158 H              1 S1                 0.0000
     28 ****        -3.4914  -2.0345   1.7747 H              1 S1                 0.0000
     29 ****        -2.8252  -0.5474   1.1059 H              1 S1                 0.0000
     30 ****        -0.4739  -0.5891   0.0791 H              1 S1                 0.0000
     31 ****         0.3548  -2.4845  -1.3069 H              1 S1                 0.0000
     32 ****         1.0301  -3.2605   0.1196 H              1 S1                 0.0000
     33 ****         1.6992  -1.7451  -0.4747 H              1 S1                 0.0000
     34 ****        -0.2772  -1.1984   2.5891 H              1 S1                 0.0000
     35 ****         1.8547  -0.0609   2.8208 H              1 S1                 0.0000
     36 ****         2.0229  -0.1521   1.0818 H              1 S1                 0.0000
     37 ****        -0.4663   3.6941   1.4082 H              1 S1                 0.0000
     38 ****         1.0404   4.4639   1.8317 H              1 S1                 0.0000
     39 ****         0.3466   3.2922  -0.9313 H              1 S1                 0.0000
     40 ****         0.4188   4.9983  -0.5306 H              1 S1                 0.0000
     41 ****         2.4806   2.0180  -0.8676 H              1 S1                 0.0000
     42 ****         4.9366   2.0518  -0.3955 H              1 S1                 0.0000
     43 ****         4.8463   3.7739  -0.0273 H              1 S1                 0.0000
     44 ****         4.5157   3.2020  -1.6607 H              1 S1                 0.0000
     45 ****         3.0980   3.2937   1.8565 H              1 S1                 0.0000
     46 ****         3.2343   1.5994   1.5250 H              1 S1                 0.0000
     47 ****        -2.5104  -0.9395  -1.4897 H              1 S1                 0.0000
     48 ****        -2.1052  -4.8365   0.0130 LP             1 S1                 0.0000
     49 ****         1.0450  -2.0252   2.0397 LP             1 S1                 0.0000
     50 ****        -1.1552   0.4585   2.2011 LP             1 S1                 0.0000
     51 ****        -1.1718   2.1664   1.9130 LP             1 S1                 0.0000
     52 ****         2.6584   4.7720  -0.0212 LP             1 S1                 0.0000
     53 ****         2.3692   4.2341  -1.5357 LP             1 S1                 0.0000
@<TRIPOS>BOND
    1    1    2 1     
    2    1   22 1     
    3    1   23 1     
    4    1   24 1     
    5    2   21 2     
    6    2    3 1     
    7    3    4 2     
    8    3   25 1     
    9    4    5 1     
   10    5    6 1     
   11    5   21 1     
   12    6    7 1     
   13    6    8 1     
   14    6   26 1     
   15    7   27 1     
   16    7   28 1     
   17    7   29 1     
   18    8    9 1     
   19    8   10 1     
   20    8   30 1     
   21    9   31 1     
   22    9   32 1     
   23    9   33 1     
   24   10   11 1     
   25   10   34 1     
   26   11   12 1     
   27   11   35 1     
   28   11   36 1     
   29   12   13 2     
   30   12   14 am    
   31   14   20 1     
   32   14   15 1     
   33   15   16 1     
   34   15   37 1     
   35   15   38 1     
   36   16   17 1     
   37   16   39 1     
   38   16   40 1     
   39   17   18 1     
   40   18   19 1     
   41   18   20 1     
   42   18   41 1     
   43   19   42 1     
   44   19   43 1     
   45   19   44 1     
   46   20   45 1     
   47   20   46 1     
   48   21   47 1     
   49    4   48 1     
   50   10   49 1     
   51   13   50 1     
   52   13   51 1     
   53   17   52 1     
   54   17   53 1     
@<TRIPOS>SUBSTRUCTURE
      1 S1             1
@<TRIPOS>SET
LONE_PAIRS      STATIC     ATOMS    <user>   **** ""
6 48 49 50 51 52 53
DONOR_HYDROGENS      STATIC     ATOMS    <user>   **** ""
1 34
ATOM$BLUE        STATIC     ATOMS    COLORGROUP SYSTEM
6 48 49 50 51 52 53
ATOM$RED        STATIC     ATOMS    COLORGROUP SYSTEM
1 34
