AV-unprocessed.smi:2271|AV-procd|sdf|9161|dock1
  -GOLD-   2272012373D 1   1.00000     0.00000
 Structure written by MMmdl.
 46 47  0  0  0  0  0  0  0  0  2 V2000
  153.4667  140.9874  160.2338 C   0  0  0  0  0  0  0  0  0  0  0  0
  152.7504  142.1951  159.6673 C   0  0  0  0  0  0  0  0  0  0  0  0
  153.0884  143.4986  160.0806 C   0  0  0  0  0  0  0  0  0  0  0  0
  152.3860  144.5769  159.5134 C   0  0  0  0  0  0  0  0  0  0  0  0
  151.3822  144.3095  158.5628 C   0  0  0  0  0  0  0  0  0  0  0  0
  151.1042  142.9715  158.2034 C   0  0  0  0  0  0  0  0  0  0  0  0
  150.0773  142.8079  157.2358 N   0  0  0  0  0  0  0  0  0  0  0  0
  149.3969  141.6893  156.9297 C   0  0  0  0  0  0  0  0  0  0  0  0
  149.5415  140.5953  157.4765 O   0  0  0  0  0  0  0  0  0  0  0  0
  148.5285  141.9056  155.9303 N   0  0  0  0  0  0  0  0  0  0  0  0
  147.6355  140.9041  155.3536 C   0  0  0  0  0  0  0  0  0  0  0  0
  148.2025  140.2806  154.0555 C   0  0  2  0  0  0  0  0  0  0  0  0
  147.0912  139.7063  153.1572 C   0  0  0  0  0  0  0  0  0  0  0  0
  146.5121  138.3911  153.7118 C   0  0  0  0  0  0  0  0  0  0  0  0
  147.5761  137.3774  153.9312 N   0  3  2  0  0  0  0  0  0  0  0  0
  147.0213  136.0664  154.3557 C   0  0  0  0  0  0  0  0  0  0  0  0
  146.0073  135.4941  153.3498 C   0  0  0  0  0  0  0  0  0  0  0  0
  146.5712  135.4669  152.0557 O   0  0  0  0  0  0  0  0  0  0  0  0
  148.6427  137.8862  154.8331 C   0  0  0  0  0  0  0  0  0  0  0  0
  149.2617  139.1817  154.2805 C   0  0  0  0  0  0  0  0  0  0  0  0
  151.7881  141.9383  158.7554 N   0  0  0  0  0  0  0  0  0  0  0  0
  154.1316  141.2694  161.0506 H   0  0  0  0  0  0  0  0  0  0  0  0
  154.0629  140.5046  159.4593 H   0  0  0  0  0  0  0  0  0  0  0  0
  152.7477  140.2626  160.6169 H   0  0  0  0  0  0  0  0  0  0  0  0
  153.8648  143.6710  160.8116 H   0  0  0  0  0  0  0  0  0  0  0  0
  152.6132  145.5925  159.8015 H   0  0  0  0  0  0  0  0  0  0  0  0
  150.8344  145.1270  158.1167 H   0  0  0  0  0  0  0  0  0  0  0  0
  149.8417  143.6364  156.7099 H   0  0  0  0  0  0  0  0  0  0  0  0
  148.4767  142.8357  155.5407 H   0  0  0  0  0  0  0  0  0  0  0  0
  147.3920  140.1364  156.0889 H   0  0  0  0  0  0  0  0  0  0  0  0
  146.6940  141.4066  155.1307 H   0  0  0  0  0  0  0  0  0  0  0  0
  148.6821  141.0902  153.5032 H   0  0  0  0  0  0  0  0  0  0  0  0
  146.2949  140.4395  153.0245 H   0  0  0  0  0  0  0  0  0  0  0  0
  147.4970  139.5204  152.1617 H   0  0  0  0  0  0  0  0  0  0  0  0
  145.9776  138.5696  154.6457 H   0  0  0  0  0  0  0  0  0  0  0  0
  145.7799  138.0025  153.0030 H   0  0  0  0  0  0  0  0  0  0  0  0
  147.8387  135.3612  154.5130 H   0  0  0  0  0  0  0  0  0  0  0  0
  146.5215  136.1718  155.3199 H   0  0  0  0  0  0  0  0  0  0  0  0
  145.6671  134.4967  153.6250 H   0  0  0  0  0  0  0  0  0  0  0  0
  145.1213  136.1291  153.3210 H   0  0  0  0  0  0  0  0  0  0  0  0
  147.4946  135.6589  152.1251 H   0  0  0  0  0  0  0  0  0  0  0  0
  148.2322  138.0515  155.8298 H   0  0  0  0  0  0  0  0  0  0  0  0
  149.4328  137.1448  154.9425 H   0  0  0  0  0  0  0  0  0  0  0  0
  149.7485  138.9585  153.3302 H   0  0  0  0  0  0  0  0  0  0  0  0
  150.0567  139.5299  154.9388 H   0  0  0  0  0  0  0  0  0  0  0  0
  148.0037  137.2206  153.0292 H   0  0  0  0  0  0  0  0  0  0  0  0
  1  2  1  0  0  0  0
  1 22  1  0  0  0  0
  1 23  1  0  0  0  0
  1 24  1  0  0  0  0
  2 21  1  0  0  0  0
  2  3  2  0  0  0  0
  3  4  1  0  0  0  0
  3 25  1  0  0  0  0
  4  5  2  0  0  0  0
  4 26  1  0  0  0  0
  5  6  1  0  0  0  0
  5 27  1  0  0  0  0
  6  7  1  0  0  0  0
  6 21  2  0  0  0  0
  7  8  1  0  0  0  0
  7 28  1  0  0  0  0
  8  9  2  0  0  0  0
  8 10  1  0  0  0  0
 10 11  1  0  0  0  0
 10 29  1  0  0  0  0
 11 12  1  0  0  0  0
 11 30  1  0  0  0  0
 11 31  1  0  0  0  0
 12 20  1  0  0  0  0
 12 13  1  0  0  0  0
 12 32  1  0  0  0  0
 13 14  1  0  0  0  0
 13 33  1  0  0  0  0
 13 34  1  0  0  0  0
 14 15  1  0  0  0  0
 14 35  1  0  0  0  0
 14 36  1  0  0  0  0
 15 16  1  0  0  0  0
 15 19  1  0  0  0  0
 15 46  1  0  0  0  0
 16 17  1  0  0  0  0
 16 37  1  0  0  0  0
 16 38  1  0  0  0  0
 17 18  1  0  0  0  0
 17 39  1  0  0  0  0
 17 40  1  0  0  0  0
 18 41  1  0  0  0  0
 19 20  1  0  0  0  0
 19 42  1  0  0  0  0
 19 43  1  0  0  0  0
 20 44  1  0  0  0  0
 20 45  1  0  0  0  0
M  CHG  1  15   1
M  END
> <s_m_source_file>
AV-unprocessed.smi

> <i_m_source_file_index>
2271

> <i_lp_mmshare_version>
43012

> <i_f3d_flags>
0

> <s_epik_input>
W0NIM11jMVtjSF1bY0hdW2NIXWMobjEpW05IXUMoPU8pW05IXVtDSDJdW0NIXTJbQ0gyXVtDSDJdTihbQ0gyXVtDSDJdMilbQ0gyXVtDSDJdW09IXQ==

> <s_epik_cmdline>
J2VwaWtfcHl0aG9uJywgJy1waCcsICc3LjAnLCAnLXRuJywgJzgnLCAnLW1hJywgJzIwMCcsICctbWV0YWxfYmluZGluZycsICctaW1hZScsICc8aW5maWxlLm1hZT4nLCAnLW9tYWUnLCAnPG91dGZpbGUubWFlPic=

> <r_epik_Ionization_Penalty>
0.00184663

> <r_epik_Ionization_Penalty_Charging>
0.00177223

> <r_epik_Ionization_Penalty_Neutral>
7.44064e-05

> <r_epik_State_Penalty>
0.00120075

> <r_epik_Charging_Adjusted_Penalty>
0.00297297

> <i_epik_Tot_Q>
1

> <i_epik_Tot_abs_Q>
1

> <r_epik_Metal_State_Penalty>
-0

> <b_epik_Metal_Only>
0

> <s_lp_Force_Field>
OPLS_2005

> <r_lp_Energy>
20.3482

> <b_lp_Chiralities_Consistent>
1

> <s_lp_Variant>
AV-unprocessed.smi:2271-2

> <Gold.Version>
5.8.1

> <Gold.Id.Protein>
6NUR|6NUR_protein|mol2

> <Gold.PLP.Fitness>
50.9450

> <Gold.PLP.PLP>
-36.7114

> <Gold.PLP.part.hbond>
-4.0000

> <Gold.PLP.part.metal>
0.0000

> <Gold.PLP.part.buried>
-4.0908

> <Gold.PLP.part.nonpolar>
-28.9437

> <Gold.PLP.part.repulsive>
0.1034

> <Gold.PLP.ligand.clash>
0.0000

> <Gold.PLP.ligand.torsion>
0.4645

> <Gold.PLP.Chemscore.Hbond>
4.9920

> <Gold.PLP.Chemscore.CHOScore>
0.0000

> <Gold.PLP.Chemscore.Metal>
0.0000

> <Gold.Chemscore.Hbonds>
donor molecule, donor type, donor heavy atom, donor atom, acceptor molecule, acceptor atom, score
      L1  H     7    28       P1  8028  1.00
      L1  H    10    29       P1  8028  1.00
      L1  H    15    46       P1  7948  2.00
      L1  H    18    41       P1  7948  1.00

> <Gold.PLP.Chemscore.Internal.Correction>
0.1865

> <Gold.Rescore>
     Score         DG    S(hbond)    S(metal)    S(lipo)     H(rot)  DE(clash)    DE(int)     intcor
     21.69     -23.52       3.91        0.00      94.87       2.39       0.10       1.73       ----

> <Gold.Chemscore.Fitness>
21.6926

> <Gold.Chemscore.DG>
-23.5245

> <Gold.Chemscore.ZeroCoef>
-5.4800

> <Gold.Chemscore.Hbond>
3.9137

> <Gold.Chemscore.Metal>
0.0000

> <Gold.Chemscore.Lipo>
94.8735

> <Gold.Chemscore.Internal_Hbond>
0.0000

> <Gold.Chemscore.DEClash>
0.1015

> <Gold.Chemscore.DEInternal>
1.7304

> <Gold.Chemscore.Rot>
2.3935

> <Gold.Chemscore.Internal.Correction>
   9.000000E+99

> <Gold.Chemscore.Hbonds>
donor molecule, donor type, donor heavy atom, donor atom, acceptor molecule, acceptor atom, score
      L1  H     7    28       P1  8028  0.99
      L1  H    10    29       P1  8028  0.95
      L1  H    15    46       P1  7948  0.97
      L1  H    18    41       P1  7948  0.96

> <Gold.Chemscore.Hbond.Weighted>
-13.0718

> <Gold.Chemscore.Metal.Weighted>
-0.0000

> <Gold.Chemscore.Lipo.Weighted>
-11.1002

> <Gold.Chemscore.Internal_Hbond.Weighted>
0.0000

> <Gold.Chemscore.DEClash.Weighted>
0.1015

> <Gold.Chemscore.DEInternal.Weighted>
1.7304

> <Gold.Chemscore.Rot.Weighted>
6.1274

> <Gold.Chemscore.Internal.Correction.Weighted>
   9.000000E+99

> <Gold.Protein.RotatedTorsions>
[ 6907 6896 6895 6894 ] final -139.47 input  -60.11 | X-H torsion
[ 7974 7965 7964 7962 ] final   53.13 input  175.53 | X-H torsion
[ 8008 7997 7996 7995 ] final -178.30 input   59.86 | X-H torsion
[ 10167 10162 10161 10158 ] final -149.17 input  -65.29 | X-H torsion
[ 10718 10713 10712 10709 ] final -132.19 input   66.30 | X-H torsion
[ 10763 10752 10751 10750 ] final   56.59 input  -60.55 | X-H torsion
[ 11005 11000 10999 10996 ] final  -98.96 input  -57.11 | X-H torsion

> <Gold.Protein.ActiveResidues>
 VAL166  LYS551  ARG553  GLY616  TRP617  ASP618  TYR619  PRO620  LYS621  CYS622 
 ASP623  PHE694  ASN695  SER759  ASP760  ASP761  ALA762  ILE779  LEU786  VAL792 
 PHE793  MET794  SER795  GLU796  ALA797  LYS798  CYS799  TRP800  GLU811  SER814 

> <Gold.Protein.RotatedAtoms>
  151.0483  133.5646  159.2644 H   0  0  0  0  0  0  0  0  0  0  0  0  # atno 6907 bound_to 6896
  151.2667  135.0671  159.9128 H   0  0  0  0  0  0  0  0  0  0  0  0  # atno 6908 bound_to 6896
  152.5377  134.0219  159.8039 H   0  0  0  0  0  0  0  0  0  0  0  0  # atno 6909 bound_to 6896
  145.9743  139.4179  143.0171 H   0  0  0  0  0  0  0  0  0  0  0  0  # atno 7974 bound_to 7965
  156.0171  140.1253  157.0395 H   0  0  0  0  0  0  0  0  0  0  0  0  # atno 8008 bound_to 7997
  154.4297  140.1076  156.5981 H   0  0  0  0  0  0  0  0  0  0  0  0  # atno 8009 bound_to 7997
  155.5997  140.3470  155.4592 H   0  0  0  0  0  0  0  0  0  0  0  0  # atno 8010 bound_to 7997
  139.7466  143.8581  152.2576 H   0  0  0  0  0  0  0  0  0  0  0  0  # atno 10167 bound_to 10162
  156.2320  130.7043  151.0869 H   0  0  0  0  0  0  0  0  0  0  0  0  # atno 10718 bound_to 10713
  152.9834  135.5671  154.5253 H   0  0  0  0  0  0  0  0  0  0  0  0  # atno 10763 bound_to 10752
  154.4734  135.2786  155.1627 H   0  0  0  0  0  0  0  0  0  0  0  0  # atno 10764 bound_to 10752
  154.3166  135.6277  153.5542 H   0  0  0  0  0  0  0  0  0  0  0  0  # atno 10765 bound_to 10752
  141.1326  133.8285  157.0909 H   0  0  0  0  0  0  0  0  0  0  0  0  # atno 11005 bound_to 11000
  145.7861  140.9835  143.1073 LP  0  0  0  0  0  0  0  0  0  0  0  0  # atno 17320 bound_to 7965
  144.6845  139.9625  143.7480 LP  0  0  0  0  0  0  0  0  0  0  0  0  # atno 17321 bound_to 7965
  139.8547  144.7147  150.9172 LP  0  0  0  0  0  0  0  0  0  0  0  0  # atno 17342 bound_to 10162
  140.7793  143.3869  151.1378 LP  0  0  0  0  0  0  0  0  0  0  0  0  # atno 17343 bound_to 10162
  157.7137  131.0721  150.6405 LP  0  0  0  0  0  0  0  0  0  0  0  0  # atno 17370 bound_to 10713
  156.6473  130.4475  149.5731 LP  0  0  0  0  0  0  0  0  0  0  0  0  # atno 17371 bound_to 10713
  140.0393  134.9862  157.0930 LP  0  0  0  0  0  0  0  0  0  0  0  0  # atno 17394 bound_to 11000
  140.4161  134.1930  155.7163 LP  0  0  0  0  0  0  0  0  0  0  0  0  # atno 17395 bound_to 11000

$$$$
