AV-unprocessed.smi:3284|AV-procd|sdf|12573|dock4
  -GOLD-   2272018493D 1   1.00000     0.00000
 Structure written by MMmdl.
 44 45  0  0  0  0  0  0  0  0  2 V2000
  152.0079  145.0975  157.1618 C   0  0  0  0  0  0  0  0  0  0  0  0
  152.0808  144.3074  158.4580 C   0  0  0  0  0  0  0  0  0  0  0  0
  151.9086  144.9384  159.6352 C   0  0  0  0  0  0  0  0  0  0  0  0
  152.0353  144.2728  160.9860 C   0  0  0  0  0  0  0  0  0  0  0  0
  152.8521  142.9823  160.8876 C   0  0  0  0  0  0  0  0  0  0  0  0
  152.3453  142.0811  159.7498 C   0  0  2  0  0  0  0  0  0  0  0  0
  153.1399  140.7605  159.7512 C   0  0  0  0  0  0  0  0  0  0  0  0
  152.3789  142.7968  158.3634 C   0  0  1  0  0  0  0  0  0  0  0  0
  151.4459  142.0613  157.3650 C   0  0  0  0  0  0  0  0  0  0  0  0
  150.0323  142.4753  157.4803 N   0  3  0  0  0  0  0  0  0  0  0  0
  149.0840  141.5640  156.8117 C   0  0  0  0  0  0  0  0  0  0  0  0
  149.5504  141.2236  155.3906 C   0  0  0  0  0  0  0  0  0  0  0  0
  148.5746  140.3473  154.6690 C   0  0  0  0  0  0  0  0  0  0  0  0
  148.8328  139.0887  154.3275 N   0  0  0  0  0  0  0  0  0  0  0  0
  147.6881  138.6583  153.6648 C   0  0  0  0  0  0  0  0  0  0  0  0
  146.7742  139.6834  153.6223 C   0  0  0  0  0  0  0  0  0  0  0  0
  147.3590  140.7661  154.2658 N   0  0  0  0  0  0  0  0  0  0  0  0
  146.7568  142.0722  154.4508 C   0  0  0  0  0  0  0  0  0  0  0  0
  152.8836  144.8994  156.5434 H   0  0  0  0  0  0  0  0  0  0  0  0
  151.9770  146.1707  157.3538 H   0  0  0  0  0  0  0  0  0  0  0  0
  151.1094  144.8432  156.5997 H   0  0  0  0  0  0  0  0  0  0  0  0
  151.6781  145.9939  159.6528 H   0  0  0  0  0  0  0  0  0  0  0  0
  152.5177  144.9613  161.6800 H   0  0  0  0  0  0  0  0  0  0  0  0
  151.0359  144.0731  161.3737 H   0  0  0  0  0  0  0  0  0  0  0  0
  153.9017  143.2279  160.7186 H   0  0  0  0  0  0  0  0  0  0  0  0
  152.8086  142.4547  161.8411 H   0  0  0  0  0  0  0  0  0  0  0  0
  151.3057  141.8412  159.9800 H   0  0  0  0  0  0  0  0  0  0  0  0
  154.1904  140.9315  159.5136 H   0  0  0  0  0  0  0  0  0  0  0  0
  152.7522  140.0389  159.0336 H   0  0  0  0  0  0  0  0  0  0  0  0
  153.0997  140.2829  160.7306 H   0  0  0  0  0  0  0  0  0  0  0  0
  153.4018  142.7266  157.9902 H   0  0  0  0  0  0  0  0  0  0  0  0
  151.7474  142.2503  156.3362 H   0  0  0  0  0  0  0  0  0  0  0  0
  151.5247  140.9832  157.5129 H   0  0  0  0  0  0  0  0  0  0  0  0
  149.7945  142.5215  158.4610 H   0  0  0  0  0  0  0  0  0  0  0  0
  148.9858  140.6516  157.4016 H   0  0  0  0  0  0  0  0  0  0  0  0
  148.0999  142.0337  156.7767 H   0  0  0  0  0  0  0  0  0  0  0  0
  149.6778  142.1408  154.8141 H   0  0  0  0  0  0  0  0  0  0  0  0
  150.5286  140.7422  155.4147 H   0  0  0  0  0  0  0  0  0  0  0  0
  147.6124  137.6551  153.2719 H   0  0  0  0  0  0  0  0  0  0  0  0
  145.7832  139.7304  153.1949 H   0  0  0  0  0  0  0  0  0  0  0  0
  145.8280  142.1412  153.8836 H   0  0  0  0  0  0  0  0  0  0  0  0
  147.4376  142.8496  154.1033 H   0  0  0  0  0  0  0  0  0  0  0  0
  146.5377  142.2300  155.5070 H   0  0  0  0  0  0  0  0  0  0  0  0
  149.9333  143.3973  157.0800 H   0  0  0  0  0  0  0  0  0  0  0  0
  1  2  1  0  0  0  0
  1 19  1  0  0  0  0
  1 20  1  0  0  0  0
  1 21  1  0  0  0  0
  2  8  1  0  0  0  0
  2  3  2  0  0  0  0
  3  4  1  0  0  0  0
  3 22  1  0  0  0  0
  4  5  1  0  0  0  0
  4 23  1  0  0  0  0
  4 24  1  0  0  0  0
  5  6  1  0  0  0  0
  5 25  1  0  0  0  0
  5 26  1  0  0  0  0
  6  7  1  0  0  0  0
  6  8  1  0  0  0  0
  6 27  1  0  0  0  0
  7 28  1  0  0  0  0
  7 29  1  0  0  0  0
  7 30  1  0  0  0  0
  8  9  1  0  0  0  0
  8 31  1  0  0  0  0
  9 10  1  0  0  0  0
  9 32  1  0  0  0  0
  9 33  1  0  0  0  0
 10 11  1  0  0  0  0
 10 34  1  0  0  0  0
 10 44  1  0  0  0  0
 11 12  1  0  0  0  0
 11 35  1  0  0  0  0
 11 36  1  0  0  0  0
 12 13  1  0  0  0  0
 12 37  1  0  0  0  0
 12 38  1  0  0  0  0
 13 17  1  0  0  0  0
 13 14  2  0  0  0  0
 14 15  1  0  0  0  0
 15 16  2  0  0  0  0
 15 39  1  0  0  0  0
 16 17  1  0  0  0  0
 16 40  1  0  0  0  0
 17 18  1  0  0  0  0
 18 41  1  0  0  0  0
 18 42  1  0  0  0  0
 18 43  1  0  0  0  0
M  CHG  1  10   1
M  END
> <s_m_source_file>
AV-unprocessed.smi

> <i_m_source_file_index>
3284

> <i_lp_mmshare_version>
43012

> <i_f3d_flags>
0

> <s_epik_input>
W0NIM11DMT1bQ0hdW0NIMl1bQ0gyXVtDQEBIXShbQ0gzXSlbQ0BIXTFbQ0gyXVtOSF1bQ0gyXVtDSDJdYzJuW2NIXVtjSF1uMltDSDNd

> <s_epik_cmdline>
J2VwaWtfcHl0aG9uJywgJy1waCcsICc3LjAnLCAnLXRuJywgJzgnLCAnLW1hJywgJzIwMCcsICctbWV0YWxfYmluZGluZycsICctaW1hZScsICc8aW5maWxlLm1hZT4nLCAnLW9tYWUnLCAnPG91dGZpbGUubWFlPic=

> <r_lp_tautomer_probability>
1

> <r_epik_Ionization_Penalty>
0.150779

> <r_epik_Ionization_Penalty_Charging>
0.150779

> <r_epik_Ionization_Penalty_Neutral>
1.39452e-13

> <r_epik_State_Penalty>
0.349447

> <r_epik_Charging_Adjusted_Penalty>
0.500226

> <i_epik_Tot_Q>
1

> <i_epik_Tot_abs_Q>
1

> <r_epik_Metal_State_Penalty>
0.000470967

> <b_epik_Metal_Only>
0

> <s_lp_Force_Field>
OPLS_2005

> <r_lp_Energy>
12.7039

> <b_lp_Chiralities_Consistent>
1

> <s_lp_Variant>
AV-unprocessed.smi:3284-2

> <Gold.Version>
5.8.1

> <Gold.Id.Protein>
6NUR|6NUR_protein|mol2

> <Gold.PLP.Fitness>
54.2111

> <Gold.PLP.PLP>
-44.0081

> <Gold.PLP.part.hbond>
-1.0000

> <Gold.PLP.part.metal>
0.0000

> <Gold.PLP.part.buried>
-4.6783

> <Gold.PLP.part.nonpolar>
-39.1891

> <Gold.PLP.part.repulsive>
0.1831

> <Gold.PLP.ligand.clash>
0.0000

> <Gold.PLP.ligand.torsion>
0.3529

> <Gold.PLP.Chemscore.Hbond>
1.6177

> <Gold.PLP.Chemscore.CHOScore>
2.0000

> <Gold.PLP.Chemscore.Metal>
0.0000

> <Gold.Chemscore.Hbonds>
donor molecule, donor type, donor heavy atom, donor atom, acceptor molecule, acceptor atom, score
      L1  H    10    44       P1  8028  1.14
      L1  C    15    39       P1  7948  1.00
      L1  C    16    40       P1 10175  1.00

> <Gold.PLP.Chemscore.Internal.Correction>
0.0557

> <Gold.Rescore>
     Score         DG    S(hbond)    S(metal)    S(lipo)     H(rot)  DE(clash)    DE(int)     intcor
     17.53     -19.84       0.89        0.00     132.53       1.61       2.01       0.30       ----

> <Gold.Chemscore.Fitness>
17.5314

> <Gold.Chemscore.DG>
-19.8388

> <Gold.Chemscore.ZeroCoef>
-5.4800

> <Gold.Chemscore.Hbond>
0.8910

> <Gold.Chemscore.Metal>
0.0000

> <Gold.Chemscore.Lipo>
132.5282

> <Gold.Chemscore.Internal_Hbond>
0.0000

> <Gold.Chemscore.DEClash>
2.0062

> <Gold.Chemscore.DEInternal>
0.3012

> <Gold.Chemscore.Rot>
1.6105

> <Gold.Chemscore.Internal.Correction>
   9.000000E+99

> <Gold.Chemscore.Hbonds>
donor molecule, donor type, donor heavy atom, donor atom, acceptor molecule, acceptor atom, score
      L1  H    10    44       P1  8028  0.54

> <Gold.Chemscore.Hbond.Weighted>
-2.9760

> <Gold.Chemscore.Metal.Weighted>
-0.0000

> <Gold.Chemscore.Lipo.Weighted>
-15.5058

> <Gold.Chemscore.Internal_Hbond.Weighted>
0.0000

> <Gold.Chemscore.DEClash.Weighted>
2.0062

> <Gold.Chemscore.DEInternal.Weighted>
0.3012

> <Gold.Chemscore.Rot.Weighted>
4.1230

> <Gold.Chemscore.Internal.Correction.Weighted>
   9.000000E+99

> <Gold.Protein.RotatedTorsions>
[ 6907 6896 6895 6894 ] final   85.28 input  -60.11 | X-H torsion
[ 7974 7965 7964 7962 ] final  111.59 input  175.53 | X-H torsion
[ 8008 7997 7996 7995 ] final   22.65 input   59.86 | X-H torsion
[ 10167 10162 10161 10158 ] final   40.58 input  -65.29 | X-H torsion
[ 10718 10713 10712 10709 ] final   90.74 input   66.30 | X-H torsion
[ 10763 10752 10751 10750 ] final  129.78 input  -60.55 | X-H torsion
[ 11005 11000 10999 10996 ] final   46.40 input  -57.11 | X-H torsion

> <Gold.Protein.ActiveResidues>
 VAL166  LYS551  ARG553  GLY616  TRP617  ASP618  TYR619  PRO620  LYS621  CYS622 
 ASP623  PHE694  ASN695  SER759  ASP760  ASP761  ALA762  ILE779  LEU786  VAL792 
 PHE793  MET794  SER795  GLU796  ALA797  LYS798  CYS799  TRP800  GLU811  SER814 

> <Gold.Protein.RotatedAtoms>
  152.5371  134.2610  159.8934 H   0  0  0  0  0  0  0  0  0  0  0  0  # atno 6907 bound_to 6896
  151.2570  133.4314  159.2622 H   0  0  0  0  0  0  0  0  0  0  0  0  # atno 6908 bound_to 6896
  151.0487  134.9672  159.8256 H   0  0  0  0  0  0  0  0  0  0  0  0  # atno 6909 bound_to 6896
  145.2403  139.2782  143.4121 H   0  0  0  0  0  0  0  0  0  0  0  0  # atno 7974 bound_to 7965
  154.9689  140.3087  155.4997 H   0  0  0  0  0  0  0  0  0  0  0  0  # atno 8008 bound_to 7997
  156.2968  140.2287  156.4719 H   0  0  0  0  0  0  0  0  0  0  0  0  # atno 8009 bound_to 7997
  154.7895  140.0441  157.1178 H   0  0  0  0  0  0  0  0  0  0  0  0  # atno 8010 bound_to 7997
  140.3728  144.2083  150.6132 H   0  0  0  0  0  0  0  0  0  0  0  0  # atno 10167 bound_to 10162
  157.6959  131.0382  150.3623 H   0  0  0  0  0  0  0  0  0  0  0  0  # atno 10718 bound_to 10713
  153.7474  135.3215  155.3315 H   0  0  0  0  0  0  0  0  0  0  0  0  # atno 10763 bound_to 10752
  154.8275  135.4559  154.0966 H   0  0  0  0  0  0  0  0  0  0  0  0  # atno 10764 bound_to 10752
  153.2159  135.6942  153.8141 H   0  0  0  0  0  0  0  0  0  0  0  0  # atno 10765 bound_to 10752
  140.1372  134.4629  155.8476 H   0  0  0  0  0  0  0  0  0  0  0  0  # atno 11005 bound_to 11000
  146.3330  140.2764  142.8608 LP  0  0  0  0  0  0  0  0  0  0  0  0  # atno 17320 bound_to 7965
  144.9595  140.8261  143.5522 LP  0  0  0  0  0  0  0  0  0  0  0  0  # atno 17321 bound_to 7965
  140.5016  143.2316  151.8669 LP  0  0  0  0  0  0  0  0  0  0  0  0  # atno 17342 bound_to 10162
  139.4802  144.5052  151.9007 LP  0  0  0  0  0  0  0  0  0  0  0  0  # atno 17343 bound_to 10162
  156.4058  130.3924  149.6927 LP  0  0  0  0  0  0  0  0  0  0  0  0  # atno 17370 bound_to 10713
  156.4228  130.7777  151.2794 LP  0  0  0  0  0  0  0  0  0  0  0  0  # atno 17371 bound_to 10713
  141.2180  133.6819  156.7180 LP  0  0  0  0  0  0  0  0  0  0  0  0  # atno 17394 bound_to 11000
  140.2767  134.8349  157.3896 LP  0  0  0  0  0  0  0  0  0  0  0  0  # atno 17395 bound_to 11000

$$$$
