AV-unprocessed.smi:589|AV-procd|sdf|3007|dock2
  -GOLD-   2262023513D 1   1.00000     0.00000
 Structure written by MMmdl.
 40 41  0  0  0  0  0  0  0  0  1 V2000
  151.7375  145.3061  159.6617 C   0  0  0  0  0  0  0  0  0  0  0  0
  152.0261  143.8420  159.4049 C   0  0  0  0  0  0  0  0  0  0  0  0
  153.1023  143.1929  160.0361 C   0  0  0  0  0  0  0  0  0  0  0  0
  153.3290  141.8284  159.7642 C   0  0  0  0  0  0  0  0  0  0  0  0
  154.4705  141.1289  160.4883 C   0  0  0  0  0  0  0  0  0  0  0  0
  152.4700  141.1598  158.8458 C   0  0  0  0  0  0  0  0  0  0  0  0
  152.6556  139.7002  158.5113 C   0  0  0  0  0  0  0  0  0  0  0  0
  151.5433  139.0211  158.2169 N   0  0  0  0  0  0  0  0  0  0  0  0
  153.7644  139.1697  158.5450 O   0  0  0  0  0  0  0  0  0  0  0  0
  151.3994  141.9084  158.2755 C   0  0  0  0  0  0  0  0  0  0  0  0
  150.5097  141.3190  157.3611 N   0  0  0  0  0  0  0  0  0  0  0  0
  149.1271  141.2475  157.8101 C   0  0  0  0  0  0  0  0  0  0  0  0
  148.3139  140.3701  156.8422 C   0  0  1  0  0  0  0  0  0  0  0  0
  146.8259  140.3424  157.2058 C   0  0  0  0  0  0  0  0  0  0  0  0
  148.4396  140.8851  155.5155 O   0  0  0  0  0  0  0  0  0  0  0  0
  149.7832  140.9849  155.0323 C   0  0  2  0  0  0  0  0  0  0  0  0
  150.3915  139.6048  154.7249 C   0  0  0  0  0  0  0  0  0  0  0  0
  150.6359  141.8266  156.0025 C   0  0  0  0  0  0  0  0  0  0  0  0
  151.1937  143.2185  158.5496 N   0  0  0  0  0  0  0  0  0  0  0  0
  152.4190  145.7201  160.4052 H   0  0  0  0  0  0  0  0  0  0  0  0
  150.7181  145.4334  160.0271 H   0  0  0  0  0  0  0  0  0  0  0  0
  151.8478  145.8803  158.7415 H   0  0  0  0  0  0  0  0  0  0  0  0
  153.7374  143.7313  160.7244 H   0  0  0  0  0  0  0  0  0  0  0  0
  154.1459  140.1729  160.9000 H   0  0  0  0  0  0  0  0  0  0  0  0
  154.8380  141.7325  161.3190 H   0  0  0  0  0  0  0  0  0  0  0  0
  155.3050  140.9536  159.8091 H   0  0  0  0  0  0  0  0  0  0  0  0
  151.5984  138.0410  157.9809 H   0  0  0  0  0  0  0  0  0  0  0  0
  150.6511  139.4935  158.2288 H   0  0  0  0  0  0  0  0  0  0  0  0
  149.0888  140.8331  158.8183 H   0  0  0  0  0  0  0  0  0  0  0  0
  148.7019  142.2513  157.8544 H   0  0  0  0  0  0  0  0  0  0  0  0
  148.6882  139.3465  156.8754 H   0  0  0  0  0  0  0  0  0  0  0  0
  146.6752  139.9428  158.2088 H   0  0  0  0  0  0  0  0  0  0  0  0
  146.2671  139.7150  156.5109 H   0  0  0  0  0  0  0  0  0  0  0  0
  146.3929  141.3425  157.1744 H   0  0  0  0  0  0  0  0  0  0  0  0
  149.7276  141.5233  154.0859 H   0  0  0  0  0  0  0  0  0  0  0  0
  151.3640  139.7112  154.2439 H   0  0  0  0  0  0  0  0  0  0  0  0
  149.7495  139.0382  154.0503 H   0  0  0  0  0  0  0  0  0  0  0  0
  150.5417  139.0087  155.6247 H   0  0  0  0  0  0  0  0  0  0  0  0
  150.3005  142.8644  155.9787 H   0  0  0  0  0  0  0  0  0  0  0  0
  151.6820  141.8218  155.6938 H   0  0  0  0  0  0  0  0  0  0  0  0
  1  2  1  0  0  0  0
  1 20  1  0  0  0  0
  1 21  1  0  0  0  0
  1 22  1  0  0  0  0
  2 19  1  0  0  0  0
  2  3  2  0  0  0  0
  3  4  1  0  0  0  0
  3 23  1  0  0  0  0
  4  5  1  0  0  0  0
  4  6  2  0  0  0  0
  5 24  1  0  0  0  0
  5 25  1  0  0  0  0
  5 26  1  0  0  0  0
  6  7  1  0  0  0  0
  6 10  1  0  0  0  0
  7  8  1  0  0  0  0
  7  9  2  0  0  0  0
  8 27  1  0  0  0  0
  8 28  1  0  0  0  0
 10 11  1  0  0  0  0
 10 19  2  0  0  0  0
 11 18  1  0  0  0  0
 11 12  1  0  0  0  0
 12 13  1  0  0  0  0
 12 29  1  0  0  0  0
 12 30  1  0  0  0  0
 13 14  1  0  0  0  0
 13 15  1  0  0  0  0
 13 31  1  0  0  0  0
 14 32  1  0  0  0  0
 14 33  1  0  0  0  0
 14 34  1  0  0  0  0
 15 16  1  0  0  0  0
 16 17  1  0  0  0  0
 16 18  1  0  0  0  0
 16 35  1  0  0  0  0
 17 36  1  0  0  0  0
 17 37  1  0  0  0  0
 17 38  1  0  0  0  0
 18 39  1  0  0  0  0
 18 40  1  0  0  0  0
M  END
> <s_m_source_file>
AV-unprocessed.smi

> <i_m_source_file_index>
589

> <i_lp_mmshare_version>
43012

> <i_f3d_flags>
0

> <s_epik_input>
W0NIM11jMVtjSF1jKFtDSDNdKWMoQyg9TylbTkgyXSljKG4xKU4yW0NIMl1bQ0BASF0oW0NIM10pT1tDQEBIXShbQ0gzXSlbQ0gyXTI=

> <s_epik_cmdline>
J2VwaWtfcHl0aG9uJywgJy1waCcsICc3LjAnLCAnLXRuJywgJzgnLCAnLW1hJywgJzIwMCcsICctbWV0YWxfYmluZGluZycsICctaW1hZScsICc8aW5maWxlLm1hZT4nLCAnLW9tYWUnLCAnPG91dGZpbGUubWFlPic=

> <r_lp_tautomer_probability>
1

> <r_epik_Ionization_Penalty>
0.000626871

> <r_epik_Ionization_Penalty_Charging>
0

> <r_epik_Ionization_Penalty_Neutral>
0.000626871

> <r_epik_State_Penalty>
0.000395665

> <r_epik_Charging_Adjusted_Penalty>
0.000395665

> <i_epik_Tot_Q>
0

> <i_epik_Tot_abs_Q>
0

> <r_epik_Metal_State_Penalty>
-0

> <b_epik_Metal_Only>
0

> <s_lp_Force_Field>
OPLS_2005

> <r_lp_Energy>
27.549

> <b_lp_Chiralities_Consistent>
1

> <s_lp_Variant>
AV-unprocessed.smi:589-3

> <Gold.Version>
5.8.1

> <Gold.Id.Protein>
6NUR|6NUR_protein|mol2

> <Gold.PLP.Fitness>
39.5436

> <Gold.PLP.PLP>
-37.1014

> <Gold.PLP.part.hbond>
-1.0000

> <Gold.PLP.part.metal>
0.0000

> <Gold.PLP.part.buried>
-3.9324

> <Gold.PLP.part.nonpolar>
-31.7615

> <Gold.PLP.part.repulsive>
0.2705

> <Gold.PLP.ligand.clash>
0.0000

> <Gold.PLP.ligand.torsion>
0.4518

> <Gold.PLP.Chemscore.Hbond>
1.0000

> <Gold.PLP.Chemscore.CHOScore>
0.0000

> <Gold.PLP.Chemscore.Metal>
0.0000

> <Gold.Chemscore.Hbonds>
donor molecule, donor type, donor heavy atom, donor atom, acceptor molecule, acceptor atom, score
      P1  H  7997  8010       L1     9  1.00

> <Gold.PLP.Chemscore.Internal.Correction>
0.3458

> <Gold.Rescore>
     Score         DG    S(hbond)    S(metal)    S(lipo)     H(rot)  DE(clash)    DE(int)     intcor
     13.66     -17.03       0.99        0.00      92.20       1.00       0.04       3.32       ----

> <Gold.Chemscore.Fitness>
13.6635

> <Gold.Chemscore.DG>
-17.0285

> <Gold.Chemscore.ZeroCoef>
-5.4800

> <Gold.Chemscore.Hbond>
0.9945

> <Gold.Chemscore.Metal>
0.0000

> <Gold.Chemscore.Lipo>
92.1955

> <Gold.Chemscore.Internal_Hbond>
0.0000

> <Gold.Chemscore.DEClash>
0.0403

> <Gold.Chemscore.DEInternal>
3.3247

> <Gold.Chemscore.Rot>
1.0000

> <Gold.Chemscore.Internal.Correction>
   9.000000E+99

> <Gold.Chemscore.Hbonds>
donor molecule, donor type, donor heavy atom, donor atom, acceptor molecule, acceptor atom, score
      P1  H  7997  8010       L1     9  0.45

> <Gold.Chemscore.Hbond.Weighted>
-3.3216

> <Gold.Chemscore.Metal.Weighted>
-0.0000

> <Gold.Chemscore.Lipo.Weighted>
-10.7869

> <Gold.Chemscore.Internal_Hbond.Weighted>
0.0000

> <Gold.Chemscore.DEClash.Weighted>
0.0403

> <Gold.Chemscore.DEInternal.Weighted>
3.3247

> <Gold.Chemscore.Rot.Weighted>
2.5600

> <Gold.Chemscore.Internal.Correction.Weighted>
   9.000000E+99

> <Gold.Protein.RotatedTorsions>
[ 6907 6896 6895 6894 ] final  -84.82 input  -60.11 | X-H torsion
[ 7974 7965 7964 7962 ] final -115.91 input  175.53 | X-H torsion
[ 8008 7997 7996 7995 ] final   24.87 input   59.86 | X-H torsion
[ 10167 10162 10161 10158 ] final -174.00 input  -65.29 | X-H torsion
[ 10718 10713 10712 10709 ] final   56.17 input   66.30 | X-H torsion
[ 10763 10752 10751 10750 ] final -123.43 input  -60.55 | X-H torsion
[ 11005 11000 10999 10996 ] final  -92.28 input  -57.11 | X-H torsion

> <Gold.Protein.ActiveResidues>
 VAL166  LYS551  ARG553  GLY616  TRP617  ASP618  TYR619  PRO620  LYS621  CYS622 
 ASP623  PHE694  ASN695  SER759  ASP760  ASP761  ALA762  ILE779  LEU786  VAL792 
 PHE793  MET794  SER795  GLU796  ALA797  LYS798  CYS799  TRP800  GLU811  SER814 

> <Gold.Protein.RotatedAtoms>
  150.6874  134.3299  159.4822 H   0  0  0  0  0  0  0  0  0  0  0  0  # atno 6907 bound_to 6896
  152.1165  134.9234  160.0574 H   0  0  0  0  0  0  0  0  0  0  0  0  # atno 6908 bound_to 6896
  152.0457  133.3962  159.4392 H   0  0  0  0  0  0  0  0  0  0  0  0  # atno 6909 bound_to 6896
  145.1029  140.8563  143.3915 H   0  0  0  0  0  0  0  0  0  0  0  0  # atno 7974 bound_to 7965
  155.0029  140.3127  155.4860 H   0  0  0  0  0  0  0  0  0  0  0  0  # atno 8008 bound_to 7997
  156.2922  140.2228  156.5080 H   0  0  0  0  0  0  0  0  0  0  0  0  # atno 8009 bound_to 7997
  154.7602  140.0459  157.0955 H   0  0  0  0  0  0  0  0  0  0  0  0  # atno 8010 bound_to 7997
  139.5658  144.1760  152.1309 H   0  0  0  0  0  0  0  0  0  0  0  0  # atno 10167 bound_to 10162
  157.5408  130.8696  149.8819 H   0  0  0  0  0  0  0  0  0  0  0  0  # atno 10718 bound_to 10713
  154.8707  135.4098  154.2942 H   0  0  0  0  0  0  0  0  0  0  0  0  # atno 10763 bound_to 10752
  153.3812  135.7011  153.6569 H   0  0  0  0  0  0  0  0  0  0  0  0  # atno 10764 bound_to 10752
  153.5390  135.3652  155.2681 H   0  0  0  0  0  0  0  0  0  0  0  0  # atno 10765 bound_to 10752
  141.1525  133.7811  156.9998 H   0  0  0  0  0  0  0  0  0  0  0  0  # atno 11005 bound_to 11000
  145.0935  139.2873  143.5723 LP  0  0  0  0  0  0  0  0  0  0  0  0  # atno 17320 bound_to 7965
  146.3529  140.0479  142.8638 LP  0  0  0  0  0  0  0  0  0  0  0  0  # atno 17321 bound_to 7965
  140.1282  144.5312  150.6819 LP  0  0  0  0  0  0  0  0  0  0  0  0  # atno 17342 bound_to 10162
  140.6941  143.2393  151.5050 LP  0  0  0  0  0  0  0  0  0  0  0  0  # atno 17343 bound_to 10162
  156.0495  130.3720  150.1236 LP  0  0  0  0  0  0  0  0  0  0  0  0  # atno 17370 bound_to 10713
  156.9415  130.9746  151.3515 LP  0  0  0  0  0  0  0  0  0  0  0  0  # atno 17371 bound_to 10713
  140.0947  134.9571  157.1831 LP  0  0  0  0  0  0  0  0  0  0  0  0  # atno 17394 bound_to 11000
  140.3398  134.2716  155.7214 LP  0  0  0  0  0  0  0  0  0  0  0  0  # atno 17395 bound_to 11000

$$$$
