AV-unprocessed.smi:7|AV-procd|sdf|43|dock7
  -GOLD-   2262015163D 1   1.00000     0.00000
 Structure written by MMmdl.
 45 48  0  0  0  0  0  0  0  0  1 V2000
  152.1298  134.1819  157.1136 O   0  0  0  0  0  0  0  0  0  0  0  0
  151.2720  134.1476  156.2307 C   0  0  0  0  0  0  0  0  0  0  0  0
  150.6865  132.8773  155.7419 C   0  0  0  0  0  0  0  0  0  0  0  0
  150.9477  131.5576  156.1092 N   0  0  0  0  0  0  0  0  0  0  0  0
  150.1198  130.8639  155.3286 C   0  0  0  0  0  0  0  0  0  0  0  0
  149.3719  131.6301  154.5127 N   0  0  0  0  0  0  0  0  0  0  0  0
  148.4312  131.0448  153.6348 C   0  0  0  0  0  0  0  0  0  0  0  0
  147.4645  131.8395  152.9786 C   0  0  0  0  0  0  0  0  0  0  0  0
  146.5291  131.2423  152.1109 C   0  0  0  0  0  0  0  0  0  0  0  0
  146.5550  129.8508  151.8952 C   0  0  0  0  0  0  0  0  0  0  0  0
  147.5157  129.0553  152.5488 C   0  0  0  0  0  0  0  0  0  0  0  0
  148.4509  129.6502  153.4178 C   0  0  0  0  0  0  0  0  0  0  0  0
  149.7270  132.9466  154.7693 C   0  0  0  0  0  0  0  0  0  0  0  0
  149.2100  134.0619  154.1511 N   0  0  0  0  0  0  0  0  0  0  0  0
  149.7510  135.1654  154.5982 C   0  0  0  0  0  0  0  0  0  0  0  0
  150.7618  135.2495  155.6029 N   0  0  0  0  0  0  0  0  0  0  0  0
  151.2296  136.6007  155.9498 C   0  0  0  0  0  0  0  0  0  0  0  0
  151.0291  137.6030  154.7847 C   0  0  2  0  0  0  0  0  0  0  0  0
  152.1242  137.4493  153.8996 O   0  0  0  0  0  0  0  0  0  0  0  0
  150.9550  139.0861  155.2433 C   0  0  0  0  0  0  0  0  0  0  0  0
  150.5130  139.8588  154.1404 O   0  0  0  0  0  0  0  0  0  0  0  0
  149.9901  139.3557  156.4133 C   0  0  0  0  0  0  0  0  0  0  0  0
  150.5166  140.6343  157.0625 C   0  0  0  0  0  0  0  0  0  0  0  0
  152.0365  140.5056  156.9614 C   0  0  0  0  0  0  0  0  0  0  0  0
  152.3107  139.6894  155.6886 C   0  0  0  0  0  0  0  0  0  0  0  0
  150.0572  129.7857  155.3640 H   0  0  0  0  0  0  0  0  0  0  0  0
  147.4313  132.9068  153.1421 H   0  0  0  0  0  0  0  0  0  0  0  0
  145.7903  131.8522  151.6121 H   0  0  0  0  0  0  0  0  0  0  0  0
  145.8373  129.3939  151.2297 H   0  0  0  0  0  0  0  0  0  0  0  0
  147.5361  127.9880  152.3839 H   0  0  0  0  0  0  0  0  0  0  0  0
  149.1861  129.0332  153.9135 H   0  0  0  0  0  0  0  0  0  0  0  0
  149.4401  136.1365  154.2094 H   0  0  0  0  0  0  0  0  0  0  0  0
  150.6760  136.9313  156.8299 H   0  0  0  0  0  0  0  0  0  0  0  0
  152.2699  136.5979  156.2820 H   0  0  0  0  0  0  0  0  0  0  0  0
  150.1168  137.3655  154.2351 H   0  0  0  0  0  0  0  0  0  0  0  0
  151.7874  137.3270  153.0252 H   0  0  0  0  0  0  0  0  0  0  0  0
  149.5711  139.8014  154.0922 H   0  0  0  0  0  0  0  0  0  0  0  0
  148.9485  139.4421  156.1003 H   0  0  0  0  0  0  0  0  0  0  0  0
  150.0401  138.5479  157.1440 H   0  0  0  0  0  0  0  0  0  0  0  0
  150.1806  141.5030  156.4946 H   0  0  0  0  0  0  0  0  0  0  0  0
  150.1736  140.7557  158.0903 H   0  0  0  0  0  0  0  0  0  0  0  0
  152.5324  141.4767  156.9479 H   0  0  0  0  0  0  0  0  0  0  0  0
  152.4116  139.9597  157.8282 H   0  0  0  0  0  0  0  0  0  0  0  0
  153.0540  138.9219  155.9058 H   0  0  0  0  0  0  0  0  0  0  0  0
  152.7481  140.3182  154.9112 H   0  0  0  0  0  0  0  0  0  0  0  0
  1  2  2  0  0  0  0
  2 16  1  0  0  0  0
  2  3  1  0  0  0  0
  3 13  2  0  0  0  0
  3  4  1  0  0  0  0
  4  5  2  0  0  0  0
  5  6  1  0  0  0  0
  5 26  1  0  0  0  0
  6  7  1  0  0  0  0
  6 13  1  0  0  0  0
  7 12  1  0  0  0  0
  7  8  2  0  0  0  0
  8  9  1  0  0  0  0
  8 27  1  0  0  0  0
  9 10  2  0  0  0  0
  9 28  1  0  0  0  0
 10 11  1  0  0  0  0
 10 29  1  0  0  0  0
 11 12  2  0  0  0  0
 11 30  1  0  0  0  0
 12 31  1  0  0  0  0
 13 14  1  0  0  0  0
 14 15  2  0  0  0  0
 15 16  1  0  0  0  0
 15 32  1  0  0  0  0
 16 17  1  0  0  0  0
 17 18  1  0  0  0  0
 17 33  1  0  0  0  0
 17 34  1  0  0  0  0
 18 19  1  0  0  0  0
 18 20  1  0  0  0  0
 18 35  1  0  0  0  0
 19 36  1  0  0  0  0
 20 25  1  0  0  0  0
 20 21  1  0  0  0  0
 20 22  1  0  0  0  0
 21 37  1  0  0  0  0
 22 23  1  0  0  0  0
 22 38  1  0  0  0  0
 22 39  1  0  0  0  0
 23 24  1  0  0  0  0
 23 40  1  0  0  0  0
 23 41  1  0  0  0  0
 24 25  1  0  0  0  0
 24 42  1  0  0  0  0
 24 43  1  0  0  0  0
 25 44  1  0  0  0  0
 25 45  1  0  0  0  0
M  END
> <s_m_source_file>
AV-unprocessed.smi

> <i_m_source_file_index>
7

> <i_lp_mmshare_version>
43012

> <i_f3d_flags>
0

> <s_epik_input>
W0NIMl0xW0NIMl1bQ0gyXVtDSDJdQzEoW09IXSlbQ0BASF0oW09IXSlbQ0gyXW4oYzI9TylbY0hdbmMoYzIzKW4oW2NIXW4zKS1jNFtjSF1bY0hdW2NIXVtjSF1bY0hdNA==

> <s_epik_cmdline>
J2VwaWtfcHl0aG9uJywgJy1waCcsICc3LjAnLCAnLXRuJywgJzgnLCAnLW1hJywgJzIwMCcsICctbWV0YWxfYmluZGluZycsICctaW1hZScsICc8aW5maWxlLm1hZT4nLCAnLW9tYWUnLCAnPG91dGZpbGUubWFlPic=

> <r_lp_tautomer_probability>
1

> <r_epik_Ionization_Penalty>
0.000116694

> <r_epik_Ionization_Penalty_Charging>
6.60428e-09

> <r_epik_Ionization_Penalty_Neutral>
0.000116688

> <r_epik_State_Penalty>
-0

> <r_epik_Charging_Adjusted_Penalty>
6.60428e-09

> <i_epik_Tot_Q>
0

> <i_epik_Tot_abs_Q>
0

> <r_epik_Metal_State_Penalty>
-0

> <b_epik_Metal_Only>
0

> <s_lp_Force_Field>
OPLS_2005

> <r_lp_Energy>
55.7438

> <b_lp_Chiralities_Consistent>
1

> <s_lp_Variant>
AV-unprocessed.smi:7-1

> <Gold.Version>
5.8.1

> <Gold.Id.Protein>
6NUR|6NUR_protein|mol2

> <Gold.PLP.Fitness>
53.3450

> <Gold.PLP.PLP>
-43.7107

> <Gold.PLP.part.hbond>
-4.9838

> <Gold.PLP.part.metal>
0.0000

> <Gold.PLP.part.buried>
-4.7179

> <Gold.PLP.part.nonpolar>
-34.9747

> <Gold.PLP.part.repulsive>
0.1574

> <Gold.PLP.ligand.clash>
0.0000

> <Gold.PLP.ligand.torsion>
0.8654

> <Gold.PLP.Chemscore.Hbond>
3.0000

> <Gold.PLP.Chemscore.CHOScore>
0.7843

> <Gold.PLP.Chemscore.Metal>
0.0000

> <Gold.Chemscore.Hbonds>
donor molecule, donor type, donor heavy atom, donor atom, acceptor molecule, acceptor atom, score
      L1  H    19    36       P1  7949  0.75
      P1  H  7989  7998       L1    21  1.00
      P1  H 10752 10765       L1    19  0.80
      L1  C    15    32       P1  7948  0.71

> <Gold.PLP.Chemscore.Internal.Correction>
0.0123

> <Gold.Rescore>
     Score         DG    S(hbond)    S(metal)    S(lipo)     H(rot)  DE(clash)    DE(int)     intcor
     15.17     -17.33       2.72        0.00      84.60       2.79       1.22       0.94       ----

> <Gold.Chemscore.Fitness>
15.1714

> <Gold.Chemscore.DG>
-17.3267

> <Gold.Chemscore.ZeroCoef>
-5.4800

> <Gold.Chemscore.Hbond>
2.7186

> <Gold.Chemscore.Metal>
0.0000

> <Gold.Chemscore.Lipo>
84.6043

> <Gold.Chemscore.Internal_Hbond>
0.0000

> <Gold.Chemscore.DEClash>
1.2162

> <Gold.Chemscore.DEInternal>
0.9391

> <Gold.Chemscore.Rot>
2.7860

> <Gold.Chemscore.Internal.Correction>
   9.000000E+99

> <Gold.Chemscore.Hbonds>
donor molecule, donor type, donor heavy atom, donor atom, acceptor molecule, acceptor atom, score
      L1  H    19    36       P1  7949  0.71
      P1  H  7989  7998       L1    21  0.92
      P1  H 10752 10765       L1    19  0.12

> <Gold.Chemscore.Hbond.Weighted>
-9.0801

> <Gold.Chemscore.Metal.Weighted>
-0.0000

> <Gold.Chemscore.Lipo.Weighted>
-9.8987

> <Gold.Chemscore.Internal_Hbond.Weighted>
0.0000

> <Gold.Chemscore.DEClash.Weighted>
1.2162

> <Gold.Chemscore.DEInternal.Weighted>
0.9391

> <Gold.Chemscore.Rot.Weighted>
7.1322

> <Gold.Chemscore.Internal.Correction.Weighted>
   9.000000E+99

> <Gold.Protein.RotatedTorsions>
[ 6907 6896 6895 6894 ] final -119.83 input  -60.11 | X-H torsion
[ 7974 7965 7964 7962 ] final -136.51 input  175.53 | X-H torsion
[ 8008 7997 7996 7995 ] final  103.84 input   59.86 | X-H torsion
[ 10167 10162 10161 10158 ] final -117.63 input  -65.29 | X-H torsion
[ 10718 10713 10712 10709 ] final  -90.11 input   66.30 | X-H torsion
[ 10763 10752 10751 10750 ] final  146.95 input  -60.55 | X-H torsion
[ 11005 11000 10999 10996 ] final  -54.18 input  -57.11 | X-H torsion

> <Gold.Protein.ActiveResidues>
 VAL166  LYS551  ARG553  GLY616  TRP617  ASP618  TYR619  PRO620  LYS621  CYS622 
 ASP623  PHE694  ASN695  SER759  ASP760  ASP761  ALA762  ILE779  LEU786  VAL792 
 PHE793  MET794  SER795  GLU796  ALA797  LYS798  CYS799  TRP800  GLU811  SER814 

> <Gold.Protein.RotatedAtoms>
  150.8339  133.8045  159.3087 H   0  0  0  0  0  0  0  0  0  0  0  0  # atno 6907 bound_to 6896
  151.5767  135.1058  160.0017 H   0  0  0  0  0  0  0  0  0  0  0  0  # atno 6908 bound_to 6896
  152.4415  133.7414  159.6699 H   0  0  0  0  0  0  0  0  0  0  0  0  # atno 6909 bound_to 6896
  144.8921  140.6656  143.5139 H   0  0  0  0  0  0  0  0  0  0  0  0  # atno 7974 bound_to 7965
  156.1520  140.3158  155.8664 H   0  0  0  0  0  0  0  0  0  0  0  0  # atno 8008 bound_to 7997
  155.3952  140.0496  157.3056 H   0  0  0  0  0  0  0  0  0  0  0  0  # atno 8009 bound_to 7997
  154.5067  140.2149  155.9248 H   0  0  0  0  0  0  0  0  0  0  0  0  # atno 8010 bound_to 7997
  140.0663  143.4920  152.2004 H   0  0  0  0  0  0  0  0  0  0  0  0  # atno 10167 bound_to 10162
  155.9986  130.4897  150.5273 H   0  0  0  0  0  0  0  0  0  0  0  0  # atno 10718 bound_to 10713
  154.0303  135.2898  155.3369 H   0  0  0  0  0  0  0  0  0  0  0  0  # atno 10763 bound_to 10752
  154.6992  135.5195  153.8505 H   0  0  0  0  0  0  0  0  0  0  0  0  # atno 10764 bound_to 10752
  153.0643  135.6625  154.0517 H   0  0  0  0  0  0  0  0  0  0  0  0  # atno 10765 bound_to 10752
  141.1013  133.6618  156.4283 H   0  0  0  0  0  0  0  0  0  0  0  0  # atno 11005 bound_to 11000
  145.3765  139.1646  143.4304 LP  0  0  0  0  0  0  0  0  0  0  0  0  # atno 17320 bound_to 7965
  146.3060  140.3842  142.8687 LP  0  0  0  0  0  0  0  0  0  0  0  0  # atno 17321 bound_to 7965
  139.5863  144.7532  151.3512 LP  0  0  0  0  0  0  0  0  0  0  0  0  # atno 17342 bound_to 10162
  140.7148  143.7296  150.7633 LP  0  0  0  0  0  0  0  0  0  0  0  0  # atno 17343 bound_to 10162
  157.3226  131.0685  151.1920 LP  0  0  0  0  0  0  0  0  0  0  0  0  # atno 17370 bound_to 10713
  157.2828  130.6758  149.6074 LP  0  0  0  0  0  0  0  0  0  0  0  0  # atno 17371 bound_to 10713
  140.5014  134.6482  157.5250 LP  0  0  0  0  0  0  0  0  0  0  0  0  # atno 17394 bound_to 11000
  139.9866  134.7052  155.9763 LP  0  0  0  0  0  0  0  0  0  0  0  0  # atno 17395 bound_to 11000

$$$$
