AV-unprocessed.smi:2775|AV-procd|sdf|10699|dock3
  -GOLD-   2272015133D 1   1.00000     0.00000
 Structure written by MMmdl.
 43 46  0  0  0  0  0  0  0  0  2 V2000
  144.4635  132.5567  150.5241 C   0  0  0  0  0  0  0  0  0  0  0  0
  144.4739  133.8761  151.2718 C   0  0  0  0  0  0  0  0  0  0  0  0
  143.3031  134.5406  151.3903 N   0  3  0  0  0  0  0  0  0  0  0  0
  143.1879  135.7183  152.0391 C   0  0  0  0  0  0  0  0  0  0  0  0
  144.3227  136.3109  152.6260 C   0  0  0  0  0  0  0  0  0  0  0  0
  145.5795  135.6647  152.5165 C   0  0  0  0  0  0  0  0  0  0  0  0
  146.7697  136.1844  153.0934 N   0  0  0  0  0  0  0  0  0  0  0  0
  146.9113  136.8926  154.2303 C   0  0  0  0  0  0  0  0  0  0  0  0
  145.9986  137.1536  155.0109 O   0  0  0  0  0  0  0  0  0  0  0  0
  148.1605  137.3438  154.4367 N   0  0  0  0  0  0  0  0  0  0  0  0
  148.6427  138.1390  155.5687 C   0  0  1  0  0  0  0  0  0  0  0  0
  150.1254  137.8920  155.9373 C   0  0  1  0  0  0  0  0  0  0  0  0
  151.0762  137.1197  155.0584 C   0  0  0  0  0  0  0  0  0  0  0  0
  151.4887  138.1517  154.0141 C   0  0  0  0  0  0  0  0  0  0  0  0
  151.4278  139.4024  154.6992 O   0  0  0  0  0  0  0  0  0  0  0  0
  150.4051  139.3741  155.6988 C   0  0  1  0  0  0  0  0  0  0  0  0
  148.9693  139.5926  155.1873 C   0  0  0  0  0  0  0  0  0  0  0  0
  148.6900  140.1976  153.7954 C   0  0  0  0  0  0  0  0  0  0  0  0
  148.4247  141.5360  154.4880 C   0  0  0  0  0  0  0  0  0  0  0  0
  148.1376  140.7473  155.7677 C   0  0  0  0  0  0  0  0  0  0  0  0
  145.6492  134.4222  151.8396 C   0  0  0  0  0  0  0  0  0  0  0  0
  147.1575  133.5825  151.6973 Cl  0  0  0  0  0  0  0  0  0  0  0  0
  145.1353  132.6009  149.6665 H   0  0  0  0  0  0  0  0  0  0  0  0
  143.4652  132.3123  150.1594 H   0  0  0  0  0  0  0  0  0  0  0  0
  144.7916  131.7482  151.1775 H   0  0  0  0  0  0  0  0  0  0  0  0
  142.1962  136.1454  152.0748 H   0  0  0  0  0  0  0  0  0  0  0  0
  144.2074  137.2427  153.1588 H   0  0  0  0  0  0  0  0  0  0  0  0
  147.5948  136.1190  152.5147 H   0  0  0  0  0  0  0  0  0  0  0  0
  148.8381  137.1554  153.7116 H   0  0  0  0  0  0  0  0  0  0  0  0
  147.9930  138.1005  156.4451 H   0  0  0  0  0  0  0  0  0  0  0  0
  150.2126  137.6273  156.9918 H   0  0  0  0  0  0  0  0  0  0  0  0
  151.9482  136.8098  155.6354 H   0  0  0  0  0  0  0  0  0  0  0  0
  150.6443  136.2236  154.6141 H   0  0  0  0  0  0  0  0  0  0  0  0
  152.4826  137.9654  153.6066 H   0  0  0  0  0  0  0  0  0  0  0  0
  150.7802  138.1575  153.1853 H   0  0  0  0  0  0  0  0  0  0  0  0
  150.6521  139.9341  156.6013 H   0  0  0  0  0  0  0  0  0  0  0  0
  149.5322  140.2102  153.1041 H   0  0  0  0  0  0  0  0  0  0  0  0
  147.7917  139.7991  153.3215 H   0  0  0  0  0  0  0  0  0  0  0  0
  149.3199  142.1553  154.5657 H   0  0  0  0  0  0  0  0  0  0  0  0
  147.5760  142.0959  154.0943 H   0  0  0  0  0  0  0  0  0  0  0  0
  147.0816  140.4938  155.8748 H   0  0  0  0  0  0  0  0  0  0  0  0
  148.5368  141.1947  156.6782 H   0  0  0  0  0  0  0  0  0  0  0  0
  142.4666  134.1305  150.9743 H   0  0  0  0  0  0  0  0  0  0  0  0
  1  2  1  0  0  0  0
  1 23  1  0  0  0  0
  1 24  1  0  0  0  0
  1 25  1  0  0  0  0
  2 21  1  0  0  0  0
  2  3  2  0  0  0  0
  3  4  1  0  0  0  0
  3 43  1  0  0  0  0
  4  5  2  0  0  0  0
  4 26  1  0  0  0  0
  5  6  1  0  0  0  0
  5 27  1  0  0  0  0
  6  7  1  0  0  0  0
  6 21  2  0  0  0  0
  7  8  1  0  0  0  0
  7 28  1  0  0  0  0
  8  9  2  0  0  0  0
  8 10  1  0  0  0  0
 10 11  1  0  0  0  0
 10 29  1  0  0  0  0
 11 17  1  0  0  0  0
 11 12  1  0  0  0  0
 11 30  1  0  0  0  0
 12 16  1  0  0  0  0
 12 13  1  0  0  0  0
 12 31  1  0  0  0  0
 13 14  1  0  0  0  0
 13 32  1  0  0  0  0
 13 33  1  0  0  0  0
 14 15  1  0  0  0  0
 14 34  1  0  0  0  0
 14 35  1  0  0  0  0
 15 16  1  0  0  0  0
 16 17  1  0  0  0  0
 16 36  1  0  0  0  0
 17 20  1  0  0  0  0
 17 18  1  0  0  0  0
 18 19  1  0  0  0  0
 18 37  1  0  0  0  0
 18 38  1  0  0  0  0
 19 20  1  0  0  0  0
 19 39  1  0  0  0  0
 19 40  1  0  0  0  0
 20 41  1  0  0  0  0
 20 42  1  0  0  0  0
 21 22  1  0  0  0  0
M  CHG  1   3   1
M  END
> <s_m_source_file>
AV-unprocessed.smi

> <i_m_source_file_index>
2775

> <i_lp_mmshare_version>
43012

> <i_f3d_flags>
0

> <s_epik_input>
W0NIM11jMW5bY0hdW2NIXWMoYzFDbClbTkhdQyg9TylbTkhdW0NAQEhdMltDQEhdKFtDSDJdW0NIMl1PMylbQ0BASF0zQzI0W0NIMl1bQ0gyXVtDSDJdNA==

> <s_epik_cmdline>
J2VwaWtfcHl0aG9uJywgJy1waCcsICc3LjAnLCAnLXRuJywgJzgnLCAnLW1hJywgJzIwMCcsICctbWV0YWxfYmluZGluZycsICctaW1hZScsICc8aW5maWxlLm1hZT4nLCAnLW9tYWUnLCAnPG91dGZpbGUubWFlPic=

> <r_epik_Ionization_Penalty>
2.4104

> <r_epik_Ionization_Penalty_Charging>
2.41038

> <r_epik_Ionization_Penalty_Neutral>
1.9872e-05

> <r_epik_State_Penalty>
2.56896

> <r_epik_Charging_Adjusted_Penalty>
4.97934

> <i_epik_Tot_Q>
1

> <i_epik_Tot_abs_Q>
1

> <r_epik_Metal_State_Penalty>
2.57906

> <b_epik_Metal_Only>
0

> <s_lp_Force_Field>
OPLS_2005

> <r_lp_Energy>
62.8505

> <b_lp_Chiralities_Consistent>
1

> <s_lp_Variant>
AV-unprocessed.smi:2775-12

> <Gold.Version>
5.8.1

> <Gold.Id.Protein>
6NUR|6NUR_protein|mol2

> <Gold.PLP.Fitness>
41.0703

> <Gold.PLP.PLP>
-28.2418

> <Gold.PLP.part.hbond>
-3.9788

> <Gold.PLP.part.metal>
0.0000

> <Gold.PLP.part.buried>
-2.6069

> <Gold.PLP.part.nonpolar>
-22.0580

> <Gold.PLP.part.repulsive>
0.1179

> <Gold.PLP.ligand.clash>
0.0000

> <Gold.PLP.ligand.torsion>
0.4773

> <Gold.PLP.Chemscore.Hbond>
4.5404

> <Gold.PLP.Chemscore.CHOScore>
0.0000

> <Gold.PLP.Chemscore.Metal>
0.0000

> <Gold.Chemscore.Hbonds>
donor molecule, donor type, donor heavy atom, donor atom, acceptor molecule, acceptor atom, score
      L1  H     3    43       P1 10186  1.66
      L1  H     7    28       P1  7948  0.93
      L1  H    10    29       P1  7948  0.76
      P1  H  7989  7998       L1    15  1.00

> <Gold.PLP.Chemscore.Internal.Correction>
0.1621

> <Gold.Rescore>
     Score         DG    S(hbond)    S(metal)    S(lipo)     H(rot)  DE(clash)    DE(int)     intcor
     20.35     -23.04       3.02        0.00      85.73       1.00       1.63       1.05       ----

> <Gold.Chemscore.Fitness>
20.3550

> <Gold.Chemscore.DG>
-23.0428

> <Gold.Chemscore.ZeroCoef>
-5.4800

> <Gold.Chemscore.Hbond>
3.0218

> <Gold.Chemscore.Metal>
0.0000

> <Gold.Chemscore.Lipo>
85.7279

> <Gold.Chemscore.Internal_Hbond>
0.0000

> <Gold.Chemscore.DEClash>
1.6348

> <Gold.Chemscore.DEInternal>
1.0531

> <Gold.Chemscore.Rot>
1.0000

> <Gold.Chemscore.Internal.Correction>
   9.000000E+99

> <Gold.Chemscore.Hbonds>
donor molecule, donor type, donor heavy atom, donor atom, acceptor molecule, acceptor atom, score
      L1  H     3    43       P1 10186  0.24
      L1  H     7    28       P1  7948  0.89
      L1  H    10    29       P1  7948  0.72
      P1  H  7989  7998       L1    15  0.78

> <Gold.Chemscore.Hbond.Weighted>
-10.0927

> <Gold.Chemscore.Metal.Weighted>
-0.0000

> <Gold.Chemscore.Lipo.Weighted>
-10.0302

> <Gold.Chemscore.Internal_Hbond.Weighted>
0.0000

> <Gold.Chemscore.DEClash.Weighted>
1.6348

> <Gold.Chemscore.DEInternal.Weighted>
1.0531

> <Gold.Chemscore.Rot.Weighted>
2.5600

> <Gold.Chemscore.Internal.Correction.Weighted>
   9.000000E+99

> <Gold.Protein.RotatedTorsions>
[ 6907 6896 6895 6894 ] final  -11.00 input  -60.11 | X-H torsion
[ 7974 7965 7964 7962 ] final  161.86 input  175.53 | X-H torsion
[ 8008 7997 7996 7995 ] final  -61.66 input   59.86 | X-H torsion
[ 10167 10162 10161 10158 ] final  165.86 input  -65.29 | X-H torsion
[ 10718 10713 10712 10709 ] final  122.10 input   66.30 | X-H torsion
[ 10763 10752 10751 10750 ] final  176.58 input  -60.55 | X-H torsion
[ 11005 11000 10999 10996 ] final  -87.92 input  -57.11 | X-H torsion

> <Gold.Protein.ActiveResidues>
 VAL166  LYS551  ARG553  GLY616  TRP617  ASP618  TYR619  PRO620  LYS621  CYS622 
 ASP623  PHE694  ASN695  SER759  ASP760  ASP761  ALA762  ILE779  LEU786  VAL792 
 PHE793  MET794  SER795  GLU796  ALA797  LYS798  CYS799  TRP800  GLU811  SER814 

> <Gold.Protein.RotatedAtoms>
  151.3931  135.0959  159.9532 H   0  0  0  0  0  0  0  0  0  0  0  0  # atno 6907 bound_to 6896
  152.5073  133.8960  159.7428 H   0  0  0  0  0  0  0  0  0  0  0  0  # atno 6908 bound_to 6896
  150.9418  133.6592  159.2818 H   0  0  0  0  0  0  0  0  0  0  0  0  # atno 6909 bound_to 6896
  144.7665  139.7957  143.6313 H   0  0  0  0  0  0  0  0  0  0  0  0  # atno 7974 bound_to 7965
  154.4459  140.1013  156.6466 H   0  0  0  0  0  0  0  0  0  0  0  0  # atno 8008 bound_to 7997
  155.5443  140.3484  155.4435 H   0  0  0  0  0  0  0  0  0  0  0  0  # atno 8009 bound_to 7997
  156.0575  140.1318  156.9969 H   0  0  0  0  0  0  0  0  0  0  0  0  # atno 8010 bound_to 7997
  139.4913  144.4088  151.9324 H   0  0  0  0  0  0  0  0  0  0  0  0  # atno 10167 bound_to 10162
  157.5768  131.1078  150.8264 H   0  0  0  0  0  0  0  0  0  0  0  0  # atno 10718 bound_to 10713
  154.4830  135.2775  155.1556 H   0  0  0  0  0  0  0  0  0  0  0  0  # atno 10763 bound_to 10752
  154.3259  135.6200  153.5532 H   0  0  0  0  0  0  0  0  0  0  0  0  # atno 10764 bound_to 10752
  152.9877  135.5754  154.5235 H   0  0  0  0  0  0  0  0  0  0  0  0  # atno 10765 bound_to 10752
  141.1610  133.7539  156.9377 H   0  0  0  0  0  0  0  0  0  0  0  0  # atno 11005 bound_to 11000
  146.1776  139.4954  142.9887 LP  0  0  0  0  0  0  0  0  0  0  0  0  # atno 17320 bound_to 7965
  145.6454  141.0275  143.1789 LP  0  0  0  0  0  0  0  0  0  0  0  0  # atno 17321 bound_to 7965
  140.3529  144.3067  150.5946 LP  0  0  0  0  0  0  0  0  0  0  0  0  # atno 17342 bound_to 10162
  140.5470  143.2213  151.7991 LP  0  0  0  0  0  0  0  0  0  0  0  0  # atno 17343 bound_to 10162
  156.8721  130.5150  149.5296 LP  0  0  0  0  0  0  0  0  0  0  0  0  # atno 17370 bound_to 10713
  156.0812  130.5822  150.9567 LP  0  0  0  0  0  0  0  0  0  0  0  0  # atno 17371 bound_to 10713
  140.1343  134.9335  157.2380 LP  0  0  0  0  0  0  0  0  0  0  0  0  # atno 17394 bound_to 11000
  140.2914  134.3235  155.7314 LP  0  0  0  0  0  0  0  0  0  0  0  0  # atno 17395 bound_to 11000

$$$$
