#       Name:                AV-unprocessed.smi:2156
#       Creating user name   scv26
#       Creation time:       Fri Mar 27 11:56:03 2020


#       File generated by GOLD software.
#

@<TRIPOS>MOLECULE
AV-unprocessed.smi:2156
    40    40     1
SMALL
NO_CHARGES


@<TRIPOS>ATOM
      1 ****        -3.7457  -2.1045  -1.6069 C.3            1 S1                 0.0000
      2 ****        -2.3686  -1.4493  -1.4558 C.3            1 S1                 0.0000
      3 ****        -1.2163  -2.4595  -1.5951 C.3            1 S1                 0.0000
      4 ****         0.1881  -1.8276  -1.5144 C.3            1 S1                 0.0000
      5 ****         1.2880  -2.8601  -1.7971 C.3            1 S1                 0.0000
      6 ****         0.4169  -1.2372  -0.1965 N.am           1 S1                 0.0000
      7 ****         0.4445   0.0747   0.0874 C.2            1 S1                 0.0000
      8 ****         0.2609   0.9542  -0.7554 O.2            1 S1                 0.0000
      9 ****         0.6908   0.4350   1.5595 C.3            1 S1                 0.0000
     10 ****         1.0981   1.8343   1.7528 N.am           1 S1                 0.0000
     11 ****         0.1587   2.7945   2.1015 C.2            1 S1                 0.0000
     12 ****         0.4613   4.1015   2.2846 C.2            1 S1                 0.0000
     13 ****         1.8319   4.5727   2.1173 C.2            1 S1                 0.0000
     14 ****         2.2049   5.7346   2.2629 O.2            1 S1                 0.0000
     15 ****         2.7469   3.5777   1.7631 N.am           1 S1                 0.0000
     16 ****         2.4414   2.2294   1.5709 C.2            1 S1                 0.0000
     17 ****         3.3253   1.4341   1.2541 O.2            1 S1                 0.0000
     18 ****         3.7082   3.8574   1.6332 H              1 S1                 0.0000
     19 ****        -4.5399  -1.3644  -1.5094 H              1 S1                 0.0000
     20 ****        -3.9048  -2.8661  -0.8432 H              1 S1                 0.0000
     21 ****        -3.8522  -2.5796  -2.5826 H              1 S1                 0.0000
     22 ****        -2.2590  -0.6657  -2.2063 H              1 S1                 0.0000
     23 ****        -2.3198  -0.9554  -0.4853 H              1 S1                 0.0000
     24 ****        -1.3151  -3.2310  -0.8300 H              1 S1                 0.0000
     25 ****        -1.3169  -2.9708  -2.5535 H              1 S1                 0.0000
     26 ****         0.2620  -1.0605  -2.2873 H              1 S1                 0.0000
     27 ****         1.1684  -3.3001  -2.7877 H              1 S1                 0.0000
     28 ****         1.2693  -3.6717  -1.0689 H              1 S1                 0.0000
     29 ****         2.2762  -2.4007  -1.7602 H              1 S1                 0.0000
     30 ****         0.5697  -1.8829   0.5647 H              1 S1                 0.0000
     31 ****        -0.2254   0.2306   2.1152 H              1 S1                 0.0000
     32 ****         1.4395  -0.2381   1.9821 H              1 S1                 0.0000
     33 ****        -0.8706   2.4918   2.2313 H              1 S1                 0.0000
     34 ****        -0.3152   4.8023   2.5550 H              1 S1                 0.0000
     35 ****         0.0800   0.7051  -1.7068 LP             1 S1                 0.0000
     36 ****         0.2926   1.9173  -0.4881 LP             1 S1                 0.0000
     37 ****         1.5462   6.4432   2.5162 LP             1 S1                 0.0000
     38 ****         3.1670   5.9715   2.1281 LP             1 S1                 0.0000
     39 ****         3.1034   0.4689   1.1160 LP             1 S1                 0.0000
     40 ****         4.2655   1.7530   1.1347 LP             1 S1                 0.0000
@<TRIPOS>BOND
    1    1    2 1     
    2    1   19 1     
    3    1   20 1     
    4    1   21 1     
    5    2    3 1     
    6    2   22 1     
    7    2   23 1     
    8    3    4 1     
    9    3   24 1     
   10    3   25 1     
   11    4    5 1     
   12    4    6 1     
   13    4   26 1     
   14    5   27 1     
   15    5   28 1     
   16    5   29 1     
   17    6    7 am    
   18    6   30 1     
   19    7    8 2     
   20    7    9 1     
   21    9   10 1     
   22    9   31 1     
   23    9   32 1     
   24   10   16 1     
   25   10   11 1     
   26   11   12 2     
   27   11   33 1     
   28   12   13 1     
   29   12   34 1     
   30   13   14 2     
   31   13   15 1     
   32   15   18 1     
   33   15   16 1     
   34   16   17 2     
   35    8   35 1     
   36    8   36 1     
   37   14   37 1     
   38   14   38 1     
   39   17   39 1     
   40   17   40 1     
@<TRIPOS>SUBSTRUCTURE
      1 S1             1
@<TRIPOS>SET
LONE_PAIRS      STATIC     ATOMS    <user>   **** ""
6 35 36 37 38 39 40
DONOR_HYDROGENS      STATIC     ATOMS    <user>   **** ""
2 30 18
ATOM$BLUE        STATIC     ATOMS    COLORGROUP SYSTEM
6 35 36 37 38 39 40
ATOM$RED        STATIC     ATOMS    COLORGROUP SYSTEM
2 30 18
