AV-unprocessed.smi:1196|AV-procd|sdf|5000|dock9
  -GOLD-   22720 4 13D 1   1.00000     0.00000
 Structure written by MMmdl.
 36 37  0  0  0  0  0  0  0  0  2 V2000
  151.5303  145.6846  159.7152 C   0  0  0  0  0  0  0  0  0  0  0  0
  150.6027  144.4819  159.9479 C   0  0  2  0  0  0  0  0  0  0  0  0
  150.9373  143.3198  158.9924 C   0  0  0  0  0  0  0  0  0  0  0  0
  152.1031  142.5674  159.4211 N   0  0  0  0  0  0  0  0  0  0  0  0
  152.9288  142.8061  160.4996 C   0  0  0  0  0  0  0  0  0  0  0  0
  153.8926  141.8391  160.4951 C   0  0  0  0  0  0  0  0  0  0  0  0
  153.5675  141.0439  159.3609 C   0  0  0  0  0  0  0  0  0  0  0  0
  152.4946  141.4807  158.7214 N   0  0  0  0  0  0  0  0  0  0  0  0
  149.2092  144.8877  159.7741 N   0  0  0  0  0  0  0  0  0  0  0  0
  148.2519  144.8140  160.7114 C   0  0  0  0  0  0  0  0  0  0  0  0
  148.4508  144.3914  161.8507 O   0  0  0  0  0  0  0  0  0  0  0  0
  146.8562  145.2822  160.2936 C   0  0  0  0  0  0  0  0  0  0  0  0
  145.9944  144.1360  159.7305 C   0  0  0  0  0  0  0  0  0  0  0  0
  145.7701  142.9970  160.7472 C   0  0  2  0  0  0  0  0  0  0  0  0
  145.6925  141.7032  160.0903 N   0  5  0  0  0  0  0  0  0  0  0  0
  144.4951  141.1434  160.3845 C   0  0  0  0  0  0  0  0  0  0  0  0
  144.0672  140.0500  160.0220 O   0  0  0  0  0  0  0  0  0  0  0  0
  143.7707  141.9563  161.1605 N   0  0  0  0  0  0  0  0  0  0  0  0
  144.4166  143.0870  161.4263 C   0  0  0  0  0  0  0  0  0  0  0  0
  144.0146  144.0382  162.0949 O   0  0  0  0  0  0  0  0  0  0  0  0
  152.5751  145.4056  159.8545 H   0  0  0  0  0  0  0  0  0  0  0  0
  151.3121  146.4931  160.4137 H   0  0  0  0  0  0  0  0  0  0  0  0
  151.4226  146.0791  158.7044 H   0  0  0  0  0  0  0  0  0  0  0  0
  150.7523  144.1329  160.9714 H   0  0  0  0  0  0  0  0  0  0  0  0
  150.0910  142.6365  158.9067 H   0  0  0  0  0  0  0  0  0  0  0  0
  151.1309  143.7011  157.9886 H   0  0  0  0  0  0  0  0  0  0  0  0
  152.7655  143.6365  161.1704 H   0  0  0  0  0  0  0  0  0  0  0  0
  154.7067  141.7191  161.1943 H   0  0  0  0  0  0  0  0  0  0  0  0
  154.0754  140.1677  158.9861 H   0  0  0  0  0  0  0  0  0  0  0  0
  148.9504  145.2523  158.8687 H   0  0  0  0  0  0  0  0  0  0  0  0
  146.3546  145.7386  161.1483 H   0  0  0  0  0  0  0  0  0  0  0  0
  146.9671  146.0664  159.5444 H   0  0  0  0  0  0  0  0  0  0  0  0
  145.0257  144.5385  159.4291 H   0  0  0  0  0  0  0  0  0  0  0  0
  146.4516  143.7409  158.8209 H   0  0  0  0  0  0  0  0  0  0  0  0
  146.5412  143.0281  161.5182 H   0  0  0  0  0  0  0  0  0  0  0  0
  142.8428  141.7413  161.4933 H   0  0  0  0  0  0  0  0  0  0  0  0
  1  2  1  0  0  0  0
  1 21  1  0  0  0  0
  1 22  1  0  0  0  0
  1 23  1  0  0  0  0
  2  3  1  0  0  0  0
  2  9  1  0  0  0  0
  2 24  1  0  0  0  0
  3  4  1  0  0  0  0
  3 25  1  0  0  0  0
  3 26  1  0  0  0  0
  4  8  1  0  0  0  0
  4  5  1  0  0  0  0
  5  6  2  0  0  0  0
  5 27  1  0  0  0  0
  6  7  1  0  0  0  0
  6 28  1  0  0  0  0
  7  8  2  0  0  0  0
  7 29  1  0  0  0  0
  9 10  1  0  0  0  0
  9 30  1  0  0  0  0
 10 11  2  0  0  0  0
 10 12  1  0  0  0  0
 12 13  1  0  0  0  0
 12 31  1  0  0  0  0
 12 32  1  0  0  0  0
 13 14  1  0  0  0  0
 13 33  1  0  0  0  0
 13 34  1  0  0  0  0
 14 19  1  0  0  0  0
 14 15  1  0  0  0  0
 14 35  1  0  0  0  0
 15 16  1  0  0  0  0
 16 17  2  0  0  0  0
 16 18  1  0  0  0  0
 18 19  1  0  0  0  0
 18 36  1  0  0  0  0
 19 20  2  0  0  0  0
M  CHG  1  15  -1
M  END
> <s_m_source_file>
AV-unprocessed.smi

> <i_m_source_file_index>
1196

> <i_lp_mmshare_version>
43012

> <i_f3d_flags>
0

> <s_epik_input>
bjFbY0hdW2NIXVtjSF1uMVtDSDJdW0NAQEhdKFtDSDNdKVtOSF1DKD1PKVtDSDJdW0NIMl1bQ0BASF0yW05IXUMoPU8pW05IXUMyPU8=

> <s_epik_cmdline>
J2VwaWtfcHl0aG9uJywgJy1waCcsICc3LjAnLCAnLXRuJywgJzgnLCAnLW1hJywgJzIwMCcsICctbWV0YWxfYmluZGluZycsICctaW1hZScsICc8aW5maWxlLm1hZT4nLCAnLW9tYWUnLCAnPG91dGZpbGUubWFlPic=

> <r_lp_tautomer_probability>
1

> <r_epik_Ionization_Penalty>
5.79547

> <r_epik_Ionization_Penalty_Charging>
5.79516

> <r_epik_Ionization_Penalty_Neutral>
0.000313087

> <r_epik_State_Penalty>
5.80096

> <r_epik_Charging_Adjusted_Penalty>
11.5961

> <i_epik_Tot_Q>
-1

> <i_epik_Tot_abs_Q>
1

> <r_epik_Metal_State_Penalty>
2.14443

> <b_epik_Metal_Only>
1

> <s_lp_Force_Field>
OPLS_2005

> <r_lp_Energy>
13.4847

> <b_lp_Chiralities_Consistent>
1

> <s_lp_Variant>
AV-unprocessed.smi:1196-5

> <Gold.Version>
5.8.1

> <Gold.Id.Protein>
6NUR|6NUR_protein|mol2

> <Gold.PLP.Fitness>
46.0544

> <Gold.PLP.PLP>
-36.8425

> <Gold.PLP.part.hbond>
-3.0000

> <Gold.PLP.part.metal>
0.0000

> <Gold.PLP.part.buried>
-7.5780

> <Gold.PLP.part.nonpolar>
-28.0264

> <Gold.PLP.part.repulsive>
0.8689

> <Gold.PLP.ligand.clash>
0.0000

> <Gold.PLP.ligand.torsion>
1.0624

> <Gold.PLP.Chemscore.Hbond>
3.7593

> <Gold.PLP.Chemscore.CHOScore>
0.0000

> <Gold.PLP.Chemscore.Metal>
0.0000

> <Gold.Chemscore.Hbonds>
donor molecule, donor type, donor heavy atom, donor atom, acceptor molecule, acceptor atom, score
      L1  H     9    30       P1  8029  1.00
      P1  H  6933  6944       L1    11  0.69
      P1  H  6934  6946       L1    15  2.00

> <Gold.PLP.Chemscore.Internal.Correction>
0.0589

> <Gold.Rescore>
     Score         DG    S(hbond)    S(metal)    S(lipo)     H(rot)  DE(clash)    DE(int)     intcor
     12.61     -13.82       2.19        0.00      71.99       2.89       0.11       1.10       ----

> <Gold.Chemscore.Fitness>
12.6103

> <Gold.Chemscore.DG>
-13.8203

> <Gold.Chemscore.ZeroCoef>
-5.4800

> <Gold.Chemscore.Hbond>
2.1938

> <Gold.Chemscore.Metal>
0.0000

> <Gold.Chemscore.Lipo>
71.9915

> <Gold.Chemscore.Internal_Hbond>
0.0000

> <Gold.Chemscore.DEClash>
0.1102

> <Gold.Chemscore.DEInternal>
1.0998

> <Gold.Chemscore.Rot>
2.8946

> <Gold.Chemscore.Internal.Correction>
   9.000000E+99

> <Gold.Chemscore.Hbonds>
donor molecule, donor type, donor heavy atom, donor atom, acceptor molecule, acceptor atom, score
      L1  H     9    30       P1  8029  0.93
      P1  H  6933  6944       L1    11  0.17
      P1  H  6934  6946       L1    15  0.39

> <Gold.Chemscore.Hbond.Weighted>
-7.3274

> <Gold.Chemscore.Metal.Weighted>
-0.0000

> <Gold.Chemscore.Lipo.Weighted>
-8.4230

> <Gold.Chemscore.Internal_Hbond.Weighted>
0.0000

> <Gold.Chemscore.DEClash.Weighted>
0.1102

> <Gold.Chemscore.DEInternal.Weighted>
1.0998

> <Gold.Chemscore.Rot.Weighted>
7.4101

> <Gold.Chemscore.Internal.Correction.Weighted>
   9.000000E+99

> <Gold.Protein.RotatedTorsions>
[ 6907 6896 6895 6894 ] final   54.56 input  -60.11 | X-H torsion
[ 7974 7965 7964 7962 ] final    8.15 input  175.53 | X-H torsion
[ 8008 7997 7996 7995 ] final  161.14 input   59.86 | X-H torsion
[ 10167 10162 10161 10158 ] final -109.45 input  -65.29 | X-H torsion
[ 10718 10713 10712 10709 ] final   95.12 input   66.30 | X-H torsion
[ 10763 10752 10751 10750 ] final  -65.79 input  -60.55 | X-H torsion
[ 11005 11000 10999 10996 ] final   28.04 input  -57.11 | X-H torsion

> <Gold.Protein.ActiveResidues>
 VAL166  LYS551  ARG553  GLY616  TRP617  ASP618  TYR619  PRO620  LYS621  CYS622 
 ASP623  PHE694  ASN695  SER759  ASP760  ASP761  ALA762  ILE779  LEU786  VAL792 
 PHE793  MET794  SER795  GLU796  ALA797  LYS798  CYS799  TRP800  GLU811  SER814 

> <Gold.Protein.RotatedAtoms>
  152.3452  134.7081  160.0252 H   0  0  0  0  0  0  0  0  0  0  0  0  # atno 6907 bound_to 6896
  151.7453  133.3319  159.3385 H   0  0  0  0  0  0  0  0  0  0  0  0  # atno 6908 bound_to 6896
  150.7504  134.6174  159.6162 H   0  0  0  0  0  0  0  0  0  0  0  0  # atno 6909 bound_to 6896
  146.2419  139.9977  142.8419 H   0  0  0  0  0  0  0  0  0  0  0  0  # atno 7974 bound_to 7965
  156.2124  140.1785  156.7665 H   0  0  0  0  0  0  0  0  0  0  0  0  # atno 8008 bound_to 7997
  154.5742  140.0677  156.9039 H   0  0  0  0  0  0  0  0  0  0  0  0  # atno 8009 bound_to 7997
  155.2618  140.3336  155.4275 H   0  0  0  0  0  0  0  0  0  0  0  0  # atno 8010 bound_to 7997
  140.1552  143.4166  152.1466 H   0  0  0  0  0  0  0  0  0  0  0  0  # atno 10167 bound_to 10162
  157.6942  131.0535  150.4291 H   0  0  0  0  0  0  0  0  0  0  0  0  # atno 10718 bound_to 10713
  154.3502  135.6138  153.5639 H   0  0  0  0  0  0  0  0  0  0  0  0  # atno 10763 bound_to 10752
  152.9798  135.5790  154.4752 H   0  0  0  0  0  0  0  0  0  0  0  0  # atno 10764 bound_to 10752
  154.4471  135.2852  155.1784 H   0  0  0  0  0  0  0  0  0  0  0  0  # atno 10765 bound_to 10752
  140.3199  134.2555  155.7719 H   0  0  0  0  0  0  0  0  0  0  0  0  # atno 11005 bound_to 11000
  145.1444  140.9589  143.4469 LP  0  0  0  0  0  0  0  0  0  0  0  0  # atno 17320 bound_to 7965
  145.0264  139.3378  143.6046 LP  0  0  0  0  0  0  0  0  0  0  0  0  # atno 17321 bound_to 7965
  139.5407  144.7253  151.4743 LP  0  0  0  0  0  0  0  0  0  0  0  0  # atno 17342 bound_to 10162
  140.6678  143.8360  150.6962 LP  0  0  0  0  0  0  0  0  0  0  0  0  # atno 17343 bound_to 10162
  156.4659  130.4042  149.6547 LP  0  0  0  0  0  0  0  0  0  0  0  0  # atno 17370 bound_to 10713
  156.3645  130.7499  151.2475 LP  0  0  0  0  0  0  0  0  0  0  0  0  # atno 17371 bound_to 10713
  141.2089  133.7764  157.0030 LP  0  0  0  0  0  0  0  0  0  0  0  0  # atno 17394 bound_to 11000
  140.0951  134.9569  157.1837 LP  0  0  0  0  0  0  0  0  0  0  0  0  # atno 17395 bound_to 11000

$$$$
