AV-unprocessed.smi:438|AV-procd|sdf|2577|dock10
  -GOLD-   2262022563D 1   1.00000     0.00000
 Structure written by MMmdl.
 48 49  0  0  0  0  0  0  0  0  1 V2000
  148.1242  133.8693  157.6657 C   0  0  0  0  0  0  0  0  0  0  0  0
  148.3126  135.0729  158.5709 C   0  0  0  0  0  0  0  0  0  0  0  0
  149.5324  135.6529  158.5314 N   0  0  0  0  0  0  0  0  0  0  0  0
  149.7112  136.7181  159.3132 C   0  0  0  0  0  0  0  0  0  0  0  0
  151.3201  137.4737  159.2820 S   0  0  0  0  0  0  0  0  0  0  0  0
  150.9341  139.0935  158.5515 C   0  0  0  0  0  0  0  0  0  0  0  0
  152.1534  140.0094  158.5167 C   0  0  0  0  0  0  0  0  0  0  0  0
  153.0678  139.7852  157.7243 O   0  0  0  0  0  0  0  0  0  0  0  0
  152.1451  141.0414  159.3754 N   0  0  0  0  0  0  0  0  0  0  0  0
  153.1746  142.0756  159.4962 C   0  0  2  0  0  0  0  0  0  0  0  0
  154.0076  141.8423  160.7730 C   0  0  0  0  0  0  0  0  0  0  0  0
  153.2060  142.1308  162.0542 C   0  0  0  0  0  0  0  0  0  0  0  0
  152.6112  143.5464  162.0311 C   0  0  0  0  0  0  0  0  0  0  0  0
  151.7568  143.7737  160.7736 C   0  0  0  0  0  0  0  0  0  0  0  0
  152.5584  143.4983  159.4843 C   0  0  2  0  0  0  0  0  0  0  0  0
  151.7183  143.7823  158.2270 C   0  0  0  0  0  0  0  0  0  0  0  0
  148.8256  137.2731  160.1403 N   0  0  0  0  0  0  0  0  0  0  0  0
  147.6020  136.7043  160.1920 C   0  0  0  0  0  0  0  0  0  0  0  0
  146.6732  137.2622  161.0217 O   0  0  0  0  0  0  0  0  0  0  0  0
  147.2804  135.5671  159.4093 C   0  0  0  0  0  0  0  0  0  0  0  0
  145.8992  134.9263  159.4672 C   0  0  0  0  0  0  0  0  0  0  0  0
  145.1908  134.9557  158.1062 C   0  0  0  0  0  0  0  0  0  0  0  0
  143.9556  134.2802  158.1960 O   0  0  0  0  0  0  0  0  0  0  0  0
  147.2227  133.9777  157.0624 H   0  0  0  0  0  0  0  0  0  0  0  0
  148.0366  132.9600  158.2609 H   0  0  0  0  0  0  0  0  0  0  0  0
  148.9678  133.7471  156.9849 H   0  0  0  0  0  0  0  0  0  0  0  0
  150.5615  138.9437  157.5378 H   0  0  0  0  0  0  0  0  0  0  0  0
  150.1379  139.5872  159.1089 H   0  0  0  0  0  0  0  0  0  0  0  0
  151.3426  141.1364  159.9806 H   0  0  0  0  0  0  0  0  0  0  0  0
  153.8595  142.0008  158.6498 H   0  0  0  0  0  0  0  0  0  0  0  0
  154.3903  140.8211  160.7932 H   0  0  0  0  0  0  0  0  0  0  0  0
  154.8838  142.4915  160.7502 H   0  0  0  0  0  0  0  0  0  0  0  0
  152.4051  141.3985  162.1629 H   0  0  0  0  0  0  0  0  0  0  0  0
  153.8491  142.0135  162.9270 H   0  0  0  0  0  0  0  0  0  0  0  0
  152.0081  143.7110  162.9245 H   0  0  0  0  0  0  0  0  0  0  0  0
  153.4169  144.2809  162.0625 H   0  0  0  0  0  0  0  0  0  0  0  0
  150.8758  143.1315  160.8094 H   0  0  0  0  0  0  0  0  0  0  0  0
  151.3871  144.7996  160.7686 H   0  0  0  0  0  0  0  0  0  0  0  0
  153.3907  144.2037  159.4676 H   0  0  0  0  0  0  0  0  0  0  0  0
  150.8207  143.1642  158.1919 H   0  0  0  0  0  0  0  0  0  0  0  0
  152.2920  143.5892  157.3202 H   0  0  0  0  0  0  0  0  0  0  0  0
  151.3990  144.8242  158.1984 H   0  0  0  0  0  0  0  0  0  0  0  0
  145.8090  136.9029  160.8924 H   0  0  0  0  0  0  0  0  0  0  0  0
  145.9796  133.8999  159.8248 H   0  0  0  0  0  0  0  0  0  0  0  0
  145.2943  135.4444  160.2123 H   0  0  0  0  0  0  0  0  0  0  0  0
  145.0120  135.9825  157.7855 H   0  0  0  0  0  0  0  0  0  0  0  0
  145.8014  134.4753  157.3412 H   0  0  0  0  0  0  0  0  0  0  0  0
  144.1091  133.3555  158.0756 H   0  0  0  0  0  0  0  0  0  0  0  0
  1  2  1  0  0  0  0
  1 24  1  0  0  0  0
  1 25  1  0  0  0  0
  1 26  1  0  0  0  0
  2 20  1  0  0  0  0
  2  3  2  0  0  0  0
  3  4  1  0  0  0  0
  4  5  1  0  0  0  0
  4 17  2  0  0  0  0
  5  6  1  0  0  0  0
  6  7  1  0  0  0  0
  6 27  1  0  0  0  0
  6 28  1  0  0  0  0
  7  8  2  0  0  0  0
  7  9  1  0  0  0  0
  9 10  1  0  0  0  0
  9 29  1  0  0  0  0
 10 15  1  0  0  0  0
 10 11  1  0  0  0  0
 10 30  1  0  0  0  0
 11 12  1  0  0  0  0
 11 31  1  0  0  0  0
 11 32  1  0  0  0  0
 12 13  1  0  0  0  0
 12 33  1  0  0  0  0
 12 34  1  0  0  0  0
 13 14  1  0  0  0  0
 13 35  1  0  0  0  0
 13 36  1  0  0  0  0
 14 15  1  0  0  0  0
 14 37  1  0  0  0  0
 14 38  1  0  0  0  0
 15 16  1  0  0  0  0
 15 39  1  0  0  0  0
 16 40  1  0  0  0  0
 16 41  1  0  0  0  0
 16 42  1  0  0  0  0
 17 18  1  0  0  0  0
 18 19  1  0  0  0  0
 18 20  2  0  0  0  0
 19 43  1  0  0  0  0
 20 21  1  0  0  0  0
 21 22  1  0  0  0  0
 21 44  1  0  0  0  0
 21 45  1  0  0  0  0
 22 23  1  0  0  0  0
 22 46  1  0  0  0  0
 22 47  1  0  0  0  0
 23 48  1  0  0  0  0
M  END
> <s_m_source_file>
AV-unprocessed.smi

> <i_m_source_file_index>
438

> <i_lp_mmshare_version>
43012

> <i_f3d_flags>
0

> <s_epik_input>
W09IXVtDSDJdW0NIMl1jMWMoW09IXSluYyhuYzFbQ0gzXSlTW0NIMl1DKD1PKVtOSF1bQ0BASF0yW0NIMl1bQ0gyXVtDSDJdW0NIMl1bQ0BIXTJbQ0gzXQ==

> <s_epik_cmdline>
J2VwaWtfcHl0aG9uJywgJy1waCcsICc3LjAnLCAnLXRuJywgJzgnLCAnLW1hJywgJzIwMCcsICctbWV0YWxfYmluZGluZycsICctaW1hZScsICc8aW5maWxlLm1hZT4nLCAnLW9tYWUnLCAnPG91dGZpbGUubWFlPic=

> <r_lp_tautomer_probability>
0.0660145

> <r_epik_Ionization_Penalty>
2.91405

> <r_epik_Ionization_Penalty_Charging>
0

> <r_epik_Ionization_Penalty_Neutral>
2.91405

> <r_epik_State_Penalty>
2.44767

> <r_epik_Charging_Adjusted_Penalty>
2.44767

> <i_epik_Tot_Q>
0

> <i_epik_Tot_abs_Q>
0

> <r_epik_Metal_State_Penalty>
3.04288

> <b_epik_Metal_Only>
0

> <s_lp_Force_Field>
OPLS_2005

> <r_lp_Energy>
3.55381

> <b_lp_Chiralities_Consistent>
1

> <s_lp_Variant>
AV-unprocessed.smi:438-15

> <Gold.Version>
5.8.1

> <Gold.Id.Protein>
6NUR|6NUR_protein|mol2

> <Gold.PLP.Fitness>
50.9942

> <Gold.PLP.PLP>
-41.1111

> <Gold.PLP.part.hbond>
-5.0000

> <Gold.PLP.part.metal>
0.0000

> <Gold.PLP.part.buried>
-3.5417

> <Gold.PLP.part.nonpolar>
-32.1830

> <Gold.PLP.part.repulsive>
0.1378

> <Gold.PLP.ligand.clash>
0.0000

> <Gold.PLP.ligand.torsion>
0.3051

> <Gold.PLP.Chemscore.Hbond>
3.4800

> <Gold.PLP.Chemscore.CHOScore>
0.0000

> <Gold.PLP.Chemscore.Metal>
0.0000

> <Gold.Chemscore.Hbonds>
donor molecule, donor type, donor heavy atom, donor atom, acceptor molecule, acceptor atom, score
      P1  H  6896  6907       L1     3  0.95
      P1  H  6931  6943       L1    17  0.51
      P1  H  6934  6947       L1    19  1.00
      P1  H  7997  8008       L1     8  1.00

> <Gold.PLP.Chemscore.Internal.Correction>
0.0532

> <Gold.Rescore>
     Score         DG    S(hbond)    S(metal)    S(lipo)     H(rot)  DE(clash)    DE(int)     intcor
     16.27     -16.73       2.47        0.00     100.85       3.44       0.15       0.31       ----

> <Gold.Chemscore.Fitness>
16.2726

> <Gold.Chemscore.DG>
-16.7278

> <Gold.Chemscore.ZeroCoef>
-5.4800

> <Gold.Chemscore.Hbond>
2.4683

> <Gold.Chemscore.Metal>
0.0000

> <Gold.Chemscore.Lipo>
100.8533

> <Gold.Chemscore.Internal_Hbond>
0.0000

> <Gold.Chemscore.DEClash>
0.1461

> <Gold.Chemscore.DEInternal>
0.3091

> <Gold.Chemscore.Rot>
3.4359

> <Gold.Chemscore.Internal.Correction>
   9.000000E+99

> <Gold.Chemscore.Hbonds>
donor molecule, donor type, donor heavy atom, donor atom, acceptor molecule, acceptor atom, score
      P1  H  6896  6907       L1     3  0.09
      P1  H  6931  6943       L1    17  0.30
      P1  H  6934  6947       L1    19  0.30
      P1  H  7997  8008       L1     8  0.99

> <Gold.Chemscore.Hbond.Weighted>
-8.2440

> <Gold.Chemscore.Metal.Weighted>
-0.0000

> <Gold.Chemscore.Lipo.Weighted>
-11.7998

> <Gold.Chemscore.Internal_Hbond.Weighted>
0.0000

> <Gold.Chemscore.DEClash.Weighted>
0.1461

> <Gold.Chemscore.DEInternal.Weighted>
0.3091

> <Gold.Chemscore.Rot.Weighted>
8.7960

> <Gold.Chemscore.Internal.Correction.Weighted>
   9.000000E+99

> <Gold.Protein.RotatedTorsions>
[ 6907 6896 6895 6894 ] final  -81.86 input  -60.11 | X-H torsion
[ 7974 7965 7964 7962 ] final  -35.54 input  175.53 | X-H torsion
[ 8008 7997 7996 7995 ] final  -84.90 input   59.86 | X-H torsion
[ 10167 10162 10161 10158 ] final   13.99 input  -65.29 | X-H torsion
[ 10718 10713 10712 10709 ] final  120.85 input   66.30 | X-H torsion
[ 10763 10752 10751 10750 ] final  -98.25 input  -60.55 | X-H torsion
[ 11005 11000 10999 10996 ] final   -0.91 input  -57.11 | X-H torsion

> <Gold.Protein.ActiveResidues>
 VAL166  LYS551  ARG553  GLY616  TRP617  ASP618  TYR619  PRO620  LYS621  CYS622 
 ASP623  PHE694  ASN695  SER759  ASP760  ASP761  ALA762  ILE779  LEU786  VAL792 
 PHE793  MET794  SER795  GLU796  ALA797  LYS798  CYS799  TRP800  GLU811  SER814 

> <Gold.Protein.RotatedAtoms>
  150.6905  134.3753  159.5009 H   0  0  0  0  0  0  0  0  0  0  0  0  # atno 6907 bound_to 6896
  152.1563  134.8945  160.0554 H   0  0  0  0  0  0  0  0  0  0  0  0  # atno 6908 bound_to 6896
  152.0024  133.3795  159.4224 H   0  0  0  0  0  0  0  0  0  0  0  0  # atno 6909 bound_to 6896
  146.0737  140.6172  142.8940 H   0  0  0  0  0  0  0  0  0  0  0  0  # atno 7974 bound_to 7965
  154.6348  140.0599  156.9776 H   0  0  0  0  0  0  0  0  0  0  0  0  # atno 8008 bound_to 7997
  155.1608  140.3282  155.4393 H   0  0  0  0  0  0  0  0  0  0  0  0  # atno 8009 bound_to 7997
  156.2501  140.1931  156.6716 H   0  0  0  0  0  0  0  0  0  0  0  0  # atno 8010 bound_to 7997
  140.5966  143.8690  150.6924 H   0  0  0  0  0  0  0  0  0  0  0  0  # atno 10167 bound_to 10162
  157.5861  131.1070  150.8093 H   0  0  0  0  0  0  0  0  0  0  0  0  # atno 10718 bound_to 10713
  154.7398  135.5016  153.9104 H   0  0  0  0  0  0  0  0  0  0  0  0  # atno 10763 bound_to 10752
  153.1032  135.6690  153.9643 H   0  0  0  0  0  0  0  0  0  0  0  0  # atno 10764 bound_to 10752
  153.9423  135.3066  155.3421 H   0  0  0  0  0  0  0  0  0  0  0  0  # atno 10765 bound_to 10752
  140.6414  133.9486  155.8328 H   0  0  0  0  0  0  0  0  0  0  0  0  # atno 11005 bound_to 11000
  144.7248  140.4490  143.6981 LP  0  0  0  0  0  0  0  0  0  0  0  0  # atno 17320 bound_to 7965
  145.6344  139.1541  143.2951 LP  0  0  0  0  0  0  0  0  0  0  0  0  # atno 17321 bound_to 7965
  140.2225  143.3797  152.1631 LP  0  0  0  0  0  0  0  0  0  0  0  0  # atno 17342 bound_to 10162
  139.5262  144.7105  151.5221 LP  0  0  0  0  0  0  0  0  0  0  0  0  # atno 17343 bound_to 10162
  156.8526  130.5086  149.5310 LP  0  0  0  0  0  0  0  0  0  0  0  0  # atno 17370 bound_to 10713
  156.0910  130.5896  150.9732 LP  0  0  0  0  0  0  0  0  0  0  0  0  # atno 17371 bound_to 10713
  141.0604  134.0355  157.3667 LP  0  0  0  0  0  0  0  0  0  0  0  0  # atno 17394 bound_to 11000
  139.9079  135.0184  156.7564 LP  0  0  0  0  0  0  0  0  0  0  0  0  # atno 17395 bound_to 11000

$$$$
