#       Name:                AV-unprocessed.smi:17
#       Creating user name   scv26
#       Creation time:       Thu Mar 26 15:25:29 2020


#       File generated by GOLD software.
#

@<TRIPOS>MOLECULE
AV-unprocessed.smi:17
    64    66     1
SMALL
NO_CHARGES


@<TRIPOS>ATOM
      1 ****        -2.9276  -1.6997  -3.1539 C.3            1 S1                 0.0000
      2 ****        -3.3717  -0.9123  -1.9109 C.3            1 S1                 0.0000
      3 ****        -2.7531   0.4133  -1.8148 N.pl3          1 S1                 0.0000
      4 ****        -1.3947   0.4800  -1.7511 C.ar           1 S1                 0.0000
      5 ****        -0.7373   1.3546  -2.5589 N.ar           1 S1                 0.0000
      6 ****         0.5950   1.4408  -2.5280 C.ar           1 S1                 0.0000
      7 ****         1.4566   0.7571  -1.7748 N.ar           1 S1                 0.0000
      8 ****         0.8087  -0.1211  -0.9583 C.ar           1 S1                 0.0000
      9 ****        -0.5994  -0.3265  -0.8844 C.ar           1 S1                 0.0000
     10 ****        -0.8781  -1.2970   0.0721 N.2            1 S1                 0.0000
     11 ****         0.2916  -1.6432   0.5344 C.2            1 S1                 0.0000
     12 ****         1.3594  -0.9813  -0.0244 N.pl3          1 S1                 0.0000
     13 ****         2.7610  -1.1655   0.3106 C.3            1 S1                 0.0000
     14 ****         3.1604  -0.5047   1.6572 C.3            1 S1                 0.0000
     15 ****         2.8054   1.0047   1.6756 C.3            1 S1                 0.0000
     16 ****         3.6058   1.7344   0.7685 O.3            1 S1                 0.0000
     17 ****         4.6503  -0.7953   2.0151 C.3            1 S1                 0.0000
     18 ****         4.9280  -2.2575   2.3532 C.3            1 S1                 0.0000
     19 ****         4.6210  -2.3534   3.8498 C.3            1 S1                 0.0000
     20 ****         4.6541  -1.0190   4.3442 O.3            1 S1                 0.0000
     21 ****         5.1423  -0.1622   3.3232 C.3            1 S1                 0.0000
     22 ****        -3.5136   1.6242  -2.1568 C.3            1 S1                 0.0000
     23 ****        -3.9734   1.6115  -3.6247 C.3            1 S1                 0.0000
     24 ****        -4.6948   1.8761  -1.1948 C.3            1 S1                 0.0000
     25 ****        -4.1569   2.2944   0.5273 S.o2           1 S1                 0.0000
     26 ****        -3.9946   0.6400   1.3168 C.3            1 S1                 0.0000
     27 ****        -2.8234   2.9141   0.4845 O.2            1 S1                 0.0000
     28 ****        -5.2674   2.9939   1.1907 O.2            1 S1                 0.0000
     29 ****        -3.4444  -2.6579  -3.2050 H              1 S1                 0.0000
     30 ****        -1.8574  -1.9064  -3.1374 H              1 S1                 0.0000
     31 ****        -3.1490  -1.1564  -4.0724 H              1 S1                 0.0000
     32 ****        -4.4544  -0.8010  -1.9475 H              1 S1                 0.0000
     33 ****        -3.1738  -1.4900  -1.0100 H              1 S1                 0.0000
     34 ****         1.0334   2.1617  -3.2022 H              1 S1                 0.0000
     35 ****         0.4090  -2.3904   1.3059 H              1 S1                 0.0000
     36 ****         2.9450  -2.2381   0.3232 H              1 S1                 0.0000
     37 ****         3.3700  -0.7650  -0.5007 H              1 S1                 0.0000
     38 ****         2.5449  -0.9658   2.4310 H              1 S1                 0.0000
     39 ****         1.7583   1.1679   1.4226 H              1 S1                 0.0000
     40 ****         2.9209   1.4288   2.6715 H              1 S1                 0.0000
     41 ****         3.3326   2.6390   0.7870 H              1 S1                 0.0000
     42 ****         5.2798  -0.4688   1.1861 H              1 S1                 0.0000
     43 ****         4.3693  -2.9853   1.7678 H              1 S1                 0.0000
     44 ****         5.9866  -2.4669   2.1914 H              1 S1                 0.0000
     45 ****         3.6278  -2.7683   4.0232 H              1 S1                 0.0000
     46 ****         5.3464  -2.9801   4.3690 H              1 S1                 0.0000
     47 ****         6.2330  -0.1796   3.3546 H              1 S1                 0.0000
     48 ****         4.8437   0.8721   3.4805 H              1 S1                 0.0000
     49 ****        -2.8638   2.4929  -2.0512 H              1 S1                 0.0000
     50 ****        -4.4486   2.5554  -3.8928 H              1 S1                 0.0000
     51 ****        -4.6939   0.8156  -3.8138 H              1 S1                 0.0000
     52 ****        -3.1303   1.4677  -4.3009 H              1 S1                 0.0000
     53 ****        -5.2598   2.7373  -1.5521 H              1 S1                 0.0000
     54 ****        -5.3958   1.0435  -1.1545 H              1 S1                 0.0000
     55 ****        -3.7951   0.7681   2.3802 H              1 S1                 0.0000
     56 ****        -3.1691   0.0925   0.8685 H              1 S1                 0.0000
     57 ****        -4.9197   0.0785   1.1891 H              1 S1                 0.0000
     58 ****        -1.2568   1.9390  -3.1822 LP             1 S1                 0.0000
     59 ****         2.4494   0.8734  -1.8049 LP             1 S1                 0.0000
     60 ****        -1.7733  -1.6499   0.3441 LP             1 S1                 0.0000
     61 ****         3.4908   1.3663  -0.1541 LP             1 S1                 0.0000
     62 ****         4.5667   1.6668   1.0370 LP             1 S1                 0.0000
     63 ****         5.2578  -0.9708   5.1400 LP             1 S1                 0.0000
     64 ****         3.7320  -0.7357   4.6077 LP             1 S1                 0.0000
@<TRIPOS>BOND
    1    1    2 1     
    2    1   29 1     
    3    1   30 1     
    4    1   31 1     
    5    2    3 1     
    6    2   32 1     
    7    2   33 1     
    8    3    4 1     
    9    3   22 1     
   10    4    9 ar    
   11    4    5 ar    
   12    5    6 ar    
   13    6    7 ar    
   14    6   34 1     
   15    7    8 ar    
   16    8   12 1     
   17    8    9 ar    
   18    9   10 1     
   19   10   11 2     
   20   11   12 1     
   21   11   35 1     
   22   12   13 1     
   23   13   14 1     
   24   13   36 1     
   25   13   37 1     
   26   14   15 1     
   27   14   17 1     
   28   14   38 1     
   29   15   16 1     
   30   15   39 1     
   31   15   40 1     
   32   16   41 1     
   33   17   21 1     
   34   17   18 1     
   35   17   42 1     
   36   18   19 1     
   37   18   43 1     
   38   18   44 1     
   39   19   20 1     
   40   19   45 1     
   41   19   46 1     
   42   20   21 1     
   43   21   47 1     
   44   21   48 1     
   45   22   23 1     
   46   22   24 1     
   47   22   49 1     
   48   23   50 1     
   49   23   51 1     
   50   23   52 1     
   51   24   25 1     
   52   24   53 1     
   53   24   54 1     
   54   25   26 1     
   55   25   27 2     
   56   25   28 2     
   57   26   55 1     
   58   26   56 1     
   59   26   57 1     
   60    5   58 1     
   61    7   59 1     
   62   10   60 1     
   63   16   61 1     
   64   16   62 1     
   65   20   63 1     
   66   20   64 1     
@<TRIPOS>SUBSTRUCTURE
      1 S1             1
@<TRIPOS>SET
LONE_PAIRS      STATIC     ATOMS    <user>   **** ""
9 58 59 60 61 62 63 64 27 28
DONOR_HYDROGENS      STATIC     ATOMS    <user>   **** ""
1 41
ATOM$BLUE        STATIC     ATOMS    COLORGROUP SYSTEM
9 58 59 60 61 62 63 64 27 28
ATOM$RED        STATIC     ATOMS    COLORGROUP SYSTEM
1 41
