AV-unprocessed.smi:2943|AV-procd|sdf|11271|dock2
  -GOLD-   2272016163D 1   1.00000     0.00000
 Structure written by MMmdl.
 37 39  0  0  0  0  0  0  0  0  2 V2000
  150.4958  142.0811  156.1262 C   0  0  0  0  0  0  0  0  0  0  0  0
  150.2227  140.8185  155.3632 C   0  0  0  0  0  0  0  0  0  0  0  0
  151.0136  139.6916  155.3392 C   0  0  0  0  0  0  0  0  0  0  0  0
  152.3131  139.4588  156.0474 C   0  0  0  0  0  0  0  0  0  0  0  0
  150.4257  138.7168  154.5296 N   0  0  0  0  0  0  0  0  0  0  0  0
  150.9562  137.3870  154.2636 C   0  0  0  0  0  0  0  0  0  0  0  0
  150.4740  136.3597  155.3000 C   0  0  1  0  0  0  0  0  0  0  0  0
  149.2930  135.5136  154.8319 C   0  0  0  0  0  0  0  0  0  0  0  0
  149.4232  134.3001  155.7240 C   0  0  0  0  0  0  0  0  0  0  0  0
  150.9377  134.1211  155.7945 C   0  0  0  0  0  0  0  0  0  0  0  0
  151.4992  135.4189  155.6103 O   0  0  0  0  0  0  0  0  0  0  0  0
  149.2501  139.2305  154.0066 C   0  0  0  0  0  0  0  0  0  0  0  0
  148.3673  138.6316  153.1620 N   0  3  0  0  0  0  0  0  0  0  0  0
  147.2978  139.3432  152.7906 C   0  0  0  0  0  0  0  0  0  0  0  0
  147.0763  140.5949  153.2174 N   0  0  0  0  0  0  0  0  0  0  0  0
  147.9342  141.2213  154.0599 C   0  0  0  0  0  0  0  0  0  0  0  0
  147.6141  142.5225  154.4396 N   0  0  0  0  0  0  0  0  0  0  0  0
  149.0991  140.5457  154.5089 C   0  0  0  0  0  0  0  0  0  0  0  0
  151.0562  141.8860  157.0406 H   0  0  0  0  0  0  0  0  0  0  0  0
  149.5725  142.5774  156.4225 H   0  0  0  0  0  0  0  0  0  0  0  0
  151.0740  142.7839  155.5263 H   0  0  0  0  0  0  0  0  0  0  0  0
  152.7702  140.3973  156.3603 H   0  0  0  0  0  0  0  0  0  0  0  0
  153.0323  138.9518  155.4042 H   0  0  0  0  0  0  0  0  0  0  0  0
  152.1634  138.8467  156.9370 H   0  0  0  0  0  0  0  0  0  0  0  0
  150.6688  137.0784  153.2583 H   0  0  0  0  0  0  0  0  0  0  0  0
  152.0456  137.4398  154.2626 H   0  0  0  0  0  0  0  0  0  0  0  0
  150.2007  136.8638  156.2284 H   0  0  0  0  0  0  0  0  0  0  0  0
  148.3352  136.0237  154.9388 H   0  0  0  0  0  0  0  0  0  0  0  0
  149.4138  135.2232  153.7874 H   0  0  0  0  0  0  0  0  0  0  0  0
  149.0244  134.5216  156.7150 H   0  0  0  0  0  0  0  0  0  0  0  0
  148.9062  133.4220  155.3358 H   0  0  0  0  0  0  0  0  0  0  0  0
  151.2576  133.6798  156.7386 H   0  0  0  0  0  0  0  0  0  0  0  0
  151.2846  133.4772  154.9855 H   0  0  0  0  0  0  0  0  0  0  0  0
  146.6024  138.8641  152.1171 H   0  0  0  0  0  0  0  0  0  0  0  0
  146.7797  142.9812  154.1031 H   0  0  0  0  0  0  0  0  0  0  0  0
  148.2007  143.0454  155.0742 H   0  0  0  0  0  0  0  0  0  0  0  0
  148.5288  137.6822  152.8256 H   0  0  0  0  0  0  0  0  0  0  0  0
  1  2  1  0  0  0  0
  1 19  1  0  0  0  0
  1 20  1  0  0  0  0
  1 21  1  0  0  0  0
  2 18  1  0  0  0  0
  2  3  2  0  0  0  0
  3  4  1  0  0  0  0
  3  5  1  0  0  0  0
  4 22  1  0  0  0  0
  4 23  1  0  0  0  0
  4 24  1  0  0  0  0
  5  6  1  0  0  0  0
  5 12  1  0  0  0  0
  6  7  1  0  0  0  0
  6 25  1  0  0  0  0
  6 26  1  0  0  0  0
  7 11  1  0  0  0  0
  7  8  1  0  0  0  0
  7 27  1  0  0  0  0
  8  9  1  0  0  0  0
  8 28  1  0  0  0  0
  8 29  1  0  0  0  0
  9 10  1  0  0  0  0
  9 30  1  0  0  0  0
  9 31  1  0  0  0  0
 10 11  1  0  0  0  0
 10 32  1  0  0  0  0
 10 33  1  0  0  0  0
 12 18  1  0  0  0  0
 12 13  2  0  0  0  0
 13 14  1  0  0  0  0
 13 37  1  0  0  0  0
 14 15  2  0  0  0  0
 14 34  1  0  0  0  0
 15 16  1  0  0  0  0
 16 17  1  0  0  0  0
 16 18  2  0  0  0  0
 17 35  1  0  0  0  0
 17 36  1  0  0  0  0
M  CHG  1  13   1
M  END
> <s_m_source_file>
AV-unprocessed.smi

> <i_m_source_file_index>
2943

> <i_lp_mmshare_version>
43012

> <i_f3d_flags>
0

> <s_epik_input>
bjFbY0hdbmMoW05IMl0pYyhjMTIpYyhbQ0gzXSljKFtDSDNdKW4yW0NIMl1bQ0BASF0zW0NIMl1bQ0gyXVtDSDJdTzM=

> <s_epik_cmdline>
J2VwaWtfcHl0aG9uJywgJy1waCcsICc3LjAnLCAnLXRuJywgJzgnLCAnLW1hJywgJzIwMCcsICctbWV0YWxfYmluZGluZycsICctaW1hZScsICc8aW5maWxlLm1hZT4nLCAnLW9tYWUnLCAnPG91dGZpbGUubWFlPic=

> <r_epik_Ionization_Penalty>
2.35523

> <r_epik_Ionization_Penalty_Charging>
2.35518

> <r_epik_Ionization_Penalty_Neutral>
5.21205e-05

> <r_epik_State_Penalty>
2.50981

> <r_epik_Charging_Adjusted_Penalty>
4.86499

> <i_epik_Tot_Q>
1

> <i_epik_Tot_abs_Q>
1

> <r_epik_Metal_State_Penalty>
2.52087

> <b_epik_Metal_Only>
0

> <s_lp_Force_Field>
OPLS_2005

> <r_lp_Energy>
21.0174

> <b_lp_Chiralities_Consistent>
1

> <s_lp_Variant>
AV-unprocessed.smi:2943-4

> <Gold.Version>
5.8.1

> <Gold.Id.Protein>
6NUR|6NUR_protein|mol2

> <Gold.PLP.Fitness>
43.5825

> <Gold.PLP.PLP>
-33.4001

> <Gold.PLP.part.hbond>
-4.0000

> <Gold.PLP.part.metal>
0.0000

> <Gold.PLP.part.buried>
1.7696

> <Gold.PLP.part.nonpolar>
-31.1796

> <Gold.PLP.part.repulsive>
0.4494

> <Gold.PLP.ligand.clash>
0.0000

> <Gold.PLP.ligand.torsion>
0.8976

> <Gold.PLP.Chemscore.Hbond>
3.9920

> <Gold.PLP.Chemscore.CHOScore>
0.0000

> <Gold.PLP.Chemscore.Metal>
0.0000

> <Gold.Chemscore.Hbonds>
donor molecule, donor type, donor heavy atom, donor atom, acceptor molecule, acceptor atom, score
      L1  H    13    37       P1  7948  2.00
      L1  H    17    36       P1  8028  0.94
      P1  H 10752 10763       L1    11  1.00

> <Gold.PLP.Chemscore.Internal.Correction>
0.0015

> <Gold.Rescore>
     Score         DG    S(hbond)    S(metal)    S(lipo)     H(rot)  DE(clash)    DE(int)     intcor
     17.48     -18.89       2.83        0.00      61.66       1.27       0.75       0.66       ----

> <Gold.Chemscore.Fitness>
17.4784

> <Gold.Chemscore.DG>
-18.8920

> <Gold.Chemscore.ZeroCoef>
-5.4800

> <Gold.Chemscore.Hbond>
2.8310

> <Gold.Chemscore.Metal>
0.0000

> <Gold.Chemscore.Lipo>
61.6579

> <Gold.Chemscore.Internal_Hbond>
0.0000

> <Gold.Chemscore.DEClash>
0.7545

> <Gold.Chemscore.DEInternal>
0.6592

> <Gold.Chemscore.Rot>
1.2725

> <Gold.Chemscore.Internal.Correction>
   9.000000E+99

> <Gold.Chemscore.Hbonds>
donor molecule, donor type, donor heavy atom, donor atom, acceptor molecule, acceptor atom, score
      L1  H    13    37       P1  7948  1.00
      L1  H    17    36       P1  8028  0.90
      P1  H 10752 10763       L1    11  0.88

> <Gold.Chemscore.Hbond.Weighted>
-9.4556

> <Gold.Chemscore.Metal.Weighted>
-0.0000

> <Gold.Chemscore.Lipo.Weighted>
-7.2140

> <Gold.Chemscore.Internal_Hbond.Weighted>
0.0000

> <Gold.Chemscore.DEClash.Weighted>
0.7545

> <Gold.Chemscore.DEInternal.Weighted>
0.6592

> <Gold.Chemscore.Rot.Weighted>
3.2576

> <Gold.Chemscore.Internal.Correction.Weighted>
   9.000000E+99

> <Gold.Protein.RotatedTorsions>
[ 6907 6896 6895 6894 ] final  -21.56 input  -60.11 | X-H torsion
[ 7974 7965 7964 7962 ] final  145.73 input  175.53 | X-H torsion
[ 8008 7997 7996 7995 ] final   23.24 input   59.86 | X-H torsion
[ 10167 10162 10161 10158 ] final  -15.80 input  -65.29 | X-H torsion
[ 10718 10713 10712 10709 ] final  143.05 input   66.30 | X-H torsion
[ 10763 10752 10751 10750 ] final   67.62 input  -60.55 | X-H torsion
[ 11005 11000 10999 10996 ] final -148.17 input  -57.11 | X-H torsion

> <Gold.Protein.ActiveResidues>
 VAL166  LYS551  ARG553  GLY616  TRP617  ASP618  TYR619  PRO620  LYS621  CYS622 
 ASP623  PHE694  ASN695  SER759  ASP760  ASP761  ALA762  ILE779  LEU786  VAL792 
 PHE793  MET794  SER795  GLU796  ALA797  LYS798  CYS799  TRP800  GLU811  SER814 

> <Gold.Protein.RotatedAtoms>
  151.2315  135.0556  159.8989 H   0  0  0  0  0  0  0  0  0  0  0  0  # atno 6907 bound_to 6896
  152.5404  134.0532  159.8129 H   0  0  0  0  0  0  0  0  0  0  0  0  # atno 6908 bound_to 6896
  151.0712  133.5416  159.2658 H   0  0  0  0  0  0  0  0  0  0  0  0  # atno 6909 bound_to 6896
  144.8728  139.5819  143.5879 H   0  0  0  0  0  0  0  0  0  0  0  0  # atno 7974 bound_to 7965
  154.9780  140.3098  155.4959 H   0  0  0  0  0  0  0  0  0  0  0  0  # atno 8008 bound_to 7997
  156.2957  140.2272  156.4816 H   0  0  0  0  0  0  0  0  0  0  0  0  # atno 8009 bound_to 7997
  154.7816  140.0445  157.1119 H   0  0  0  0  0  0  0  0  0  0  0  0  # atno 8010 bound_to 7997
  140.7224  143.5181  150.9667 H   0  0  0  0  0  0  0  0  0  0  0  0  # atno 10167 bound_to 10162
  157.3734  131.0982  151.0807 H   0  0  0  0  0  0  0  0  0  0  0  0  # atno 10718 bound_to 10713
  153.0195  135.5277  154.7007 H   0  0  0  0  0  0  0  0  0  0  0  0  # atno 10763 bound_to 10752
  154.6117  135.2879  155.0427 H   0  0  0  0  0  0  0  0  0  0  0  0  # atno 10764 bound_to 10752
  154.1447  135.6572  153.5002 H   0  0  0  0  0  0  0  0  0  0  0  0  # atno 10765 bound_to 10752
  140.7640  134.3265  157.5094 H   0  0  0  0  0  0  0  0  0  0  0  0  # atno 11005 bound_to 11000
  146.2942  139.7228  142.9139 LP  0  0  0  0  0  0  0  0  0  0  0  0  # atno 17320 bound_to 7965
  145.4098  141.0395  143.3023 LP  0  0  0  0  0  0  0  0  0  0  0  0  # atno 17321 bound_to 7965
  139.8898  143.6968  152.3147 LP  0  0  0  0  0  0  0  0  0  0  0  0  # atno 17342 bound_to 10162
  139.7279  144.7589  151.0848 LP  0  0  0  0  0  0  0  0  0  0  0  0  # atno 17343 bound_to 10162
  157.1902  130.6348  149.5702 LP  0  0  0  0  0  0  0  0  0  0  0  0  # atno 17370 bound_to 10713
  155.9760  130.4724  150.6499 LP  0  0  0  0  0  0  0  0  0  0  0  0  # atno 17371 bound_to 10713
  139.8766  134.9220  156.3289 LP  0  0  0  0  0  0  0  0  0  0  0  0  # atno 17394 bound_to 11000
  140.9636  133.7372  156.0436 LP  0  0  0  0  0  0  0  0  0  0  0  0  # atno 17395 bound_to 11000

$$$$
