AV-unprocessed.smi:1381|AV-procd|sdf|5619|dock7
  -GOLD-   22720 5233D 1   1.00000     0.00000
 Structure written by MMmdl.
 42 43  0  0  0  0  0  0  0  0  3 V2000
  147.4219  135.5556  163.0643 C   0  0  0  0  0  0  0  0  0  0  0  0
  147.5695  135.8279  161.6067 C   0  0  0  0  0  0  0  0  0  0  0  0
  147.3519  135.0690  160.4914 C   0  0  0  0  0  0  0  0  0  0  0  0
  147.6959  135.9498  159.4314 C   0  0  0  0  0  0  0  0  0  0  0  0
  147.6020  135.5257  158.0794 N   0  0  0  0  0  0  0  0  0  0  0  0
  148.5453  134.9570  157.3062 C   0  0  0  0  0  0  0  0  0  0  0  0
  149.6744  134.7351  157.7592 O   0  0  0  0  0  0  0  0  0  0  0  0
  148.0885  134.6905  156.0520 N   0  5  0  0  0  0  0  0  0  0  0  0
  148.0860  135.6486  154.9455 C   0  0  0  0  0  0  0  0  0  0  0  0
  148.8492  136.9211  155.3564 C   0  0  0  0  0  0  0  0  0  0  0  0
  149.3827  137.6486  154.1708 N   0  3  1  0  0  0  0  0  0  0  0  0
  148.6954  138.9305  153.8686 C   0  0  0  0  0  0  0  0  0  0  0  0
  149.1725  140.0586  154.8091 C   0  0  2  0  0  0  0  0  0  0  0  0
  148.5645  141.4152  154.4357 C   0  0  0  0  0  0  0  0  0  0  0  0
  150.5900  140.1697  154.7280 O   0  0  0  0  0  0  0  0  0  0  0  0
  151.2614  138.9796  155.1294 C   0  0  2  0  0  0  0  0  0  0  0  0
  152.7702  139.2471  155.0939 C   0  0  0  0  0  0  0  0  0  0  0  0
  150.8540  137.8343  154.1817 C   0  0  0  0  0  0  0  0  0  0  0  0
  148.0849  137.1407  159.8623 N   0  0  0  0  0  0  0  0  0  0  0  0
  148.0068  137.0683  161.2582 O   0  0  0  0  0  0  0  0  0  0  0  0
  147.0325  134.5520  163.2363 H   0  0  0  0  0  0  0  0  0  0  0  0
  146.7354  136.2677  163.5224 H   0  0  0  0  0  0  0  0  0  0  0  0
  148.3835  135.6366  163.5711 H   0  0  0  0  0  0  0  0  0  0  0  0
  147.0045  134.0478  160.4435 H   0  0  0  0  0  0  0  0  0  0  0  0
  146.7029  135.6635  157.6426 H   0  0  0  0  0  0  0  0  0  0  0  0
  148.5449  135.2427  154.0430 H   0  0  0  0  0  0  0  0  0  0  0  0
  147.0699  135.9255  154.6645 H   0  0  0  0  0  0  0  0  0  0  0  0
  148.1911  137.5673  155.9377 H   0  0  0  0  0  0  0  0  0  0  0  0
  149.6584  136.6430  156.0337 H   0  0  0  0  0  0  0  0  0  0  0  0
  148.9177  139.1982  152.8347 H   0  0  0  0  0  0  0  0  0  0  0  0
  147.6133  138.8045  153.9281 H   0  0  0  0  0  0  0  0  0  0  0  0
  148.8932  139.8336  155.8395 H   0  0  0  0  0  0  0  0  0  0  0  0
  147.4760  141.3861  154.4923 H   0  0  0  0  0  0  0  0  0  0  0  0
  148.8393  141.7065  153.4213 H   0  0  0  0  0  0  0  0  0  0  0  0
  148.9110  142.1969  155.1122 H   0  0  0  0  0  0  0  0  0  0  0  0
  150.9792  138.7353  156.1549 H   0  0  0  0  0  0  0  0  0  0  0  0
  153.3323  138.3657  155.4038 H   0  0  0  0  0  0  0  0  0  0  0  0
  153.0375  140.0641  155.7648 H   0  0  0  0  0  0  0  0  0  0  0  0
  153.1000  139.5193  154.0908 H   0  0  0  0  0  0  0  0  0  0  0  0
  151.3511  136.9015  154.4520 H   0  0  0  0  0  0  0  0  0  0  0  0
  151.1747  138.0678  153.1655 H   0  0  0  0  0  0  0  0  0  0  0  0
  149.1905  137.0243  153.3990 H   0  0  0  0  0  0  0  0  0  0  0  0
  1  2  1  0  0  0  0
  1 21  1  0  0  0  0
  1 22  1  0  0  0  0
  1 23  1  0  0  0  0
  2 20  1  0  0  0  0
  2  3  2  0  0  0  0
  3  4  1  0  0  0  0
  3 24  1  0  0  0  0
  4  5  1  0  0  0  0
  4 19  2  0  0  0  0
  5  6  1  0  0  0  0
  5 25  1  0  0  0  0
  6  7  2  0  0  0  0
  6  8  1  0  0  0  0
  8  9  1  0  0  0  0
  9 10  1  0  0  0  0
  9 26  1  0  0  0  0
  9 27  1  0  0  0  0
 10 11  1  0  0  0  0
 10 28  1  0  0  0  0
 10 29  1  0  0  0  0
 11 18  1  0  0  0  0
 11 12  1  0  0  0  0
 11 42  1  0  0  0  0
 12 13  1  0  0  0  0
 12 30  1  0  0  0  0
 12 31  1  0  0  0  0
 13 14  1  0  0  0  0
 13 15  1  0  0  0  0
 13 32  1  0  0  0  0
 14 33  1  0  0  0  0
 14 34  1  0  0  0  0
 14 35  1  0  0  0  0
 15 16  1  0  0  0  0
 16 17  1  0  0  0  0
 16 18  1  0  0  0  0
 16 36  1  0  0  0  0
 17 37  1  0  0  0  0
 17 38  1  0  0  0  0
 17 39  1  0  0  0  0
 18 40  1  0  0  0  0
 18 41  1  0  0  0  0
 19 20  1  0  0  0  0
M  CHG  1   8  -1
M  CHG  1  11   1
M  END
> <s_m_source_file>
AV-unprocessed.smi

> <i_m_source_file_index>
1381

> <i_lp_mmshare_version>
43012

> <i_f3d_flags>
0

> <s_epik_input>
W0NIM11jMVtjSF1jKG5vMSlbTkhdQyg9TylbTkhdW0NIMl1bQ0gyXU4yW0NIMl1bQ0BASF0oW0NIM10pT1tDQEBIXShbQ0gzXSlbQ0gyXTI=

> <s_epik_cmdline>
J2VwaWtfcHl0aG9uJywgJy1waCcsICc3LjAnLCAnLXRuJywgJzgnLCAnLW1hJywgJzIwMCcsICctbWV0YWxfYmluZGluZycsICctaW1hZScsICc8aW5maWxlLm1hZT4nLCAnLW9tYWUnLCAnPG91dGZpbGUubWFlPic=

> <r_epik_Ionization_Penalty>
6.8073

> <r_epik_Ionization_Penalty_Charging>
6.80729

> <r_epik_Ionization_Penalty_Neutral>
5.65391e-06

> <r_epik_State_Penalty>
7.47323

> <r_epik_Charging_Adjusted_Penalty>
14.2805

> <i_epik_Tot_Q>
0

> <i_epik_Tot_abs_Q>
2

> <r_epik_Metal_State_Penalty>
3.40035

> <b_epik_Metal_Only>
1

> <s_lp_Force_Field>
OPLS_2005

> <r_lp_Energy>
13.1386

> <b_lp_Chiralities_Consistent>
1

> <s_lp_Variant>
AV-unprocessed.smi:1381-18

> <Gold.Version>
5.8.1

> <Gold.Id.Protein>
6NUR|6NUR_protein|mol2

> <Gold.PLP.Fitness>
43.7083

> <Gold.PLP.PLP>
-33.4536

> <Gold.PLP.part.hbond>
-6.5396

> <Gold.PLP.part.metal>
0.0000

> <Gold.PLP.part.buried>
-0.2053

> <Gold.PLP.part.nonpolar>
-27.1433

> <Gold.PLP.part.repulsive>
0.1249

> <Gold.PLP.ligand.clash>
0.0000

> <Gold.PLP.ligand.torsion>
2.3784

> <Gold.PLP.Chemscore.Hbond>
4.9913

> <Gold.PLP.Chemscore.CHOScore>
0.0000

> <Gold.PLP.Chemscore.Metal>
0.0000

> <Gold.Chemscore.Hbonds>
donor molecule, donor type, donor heavy atom, donor atom, acceptor molecule, acceptor atom, score
      L1  H    11    42       P1  7948  2.00
      P1  H  6896  6907       L1     7  1.00
      P1  H  6931  6943       L1    20  1.00
      P1  H  7989  7998       L1    15  1.00

> <Gold.PLP.Chemscore.Internal.Correction>
0.0379

> <Gold.Rescore>
     Score         DG    S(hbond)    S(metal)    S(lipo)     H(rot)  DE(clash)    DE(int)     intcor
     19.86     -22.25       3.65        0.00      73.68       1.58       0.02       2.36       ----

> <Gold.Chemscore.Fitness>
19.8569

> <Gold.Chemscore.DG>
-22.2453

> <Gold.Chemscore.ZeroCoef>
-5.4800

> <Gold.Chemscore.Hbond>
3.6490

> <Gold.Chemscore.Metal>
0.0000

> <Gold.Chemscore.Lipo>
73.6784

> <Gold.Chemscore.Internal_Hbond>
0.0000

> <Gold.Chemscore.DEClash>
0.0243

> <Gold.Chemscore.DEInternal>
2.3641

> <Gold.Chemscore.Rot>
1.5792

> <Gold.Chemscore.Internal.Correction>
   9.000000E+99

> <Gold.Chemscore.Hbonds>
donor molecule, donor type, donor heavy atom, donor atom, acceptor molecule, acceptor atom, score
      L1  H    11    42       P1  7948  0.99
      P1  H  6896  6907       L1     7  0.92
      P1  H  6931  6943       L1    20  0.64
      P1  H  7989  7998       L1    15  0.50

> <Gold.Chemscore.Hbond.Weighted>
-12.1878

> <Gold.Chemscore.Metal.Weighted>
-0.0000

> <Gold.Chemscore.Lipo.Weighted>
-8.6204

> <Gold.Chemscore.Internal_Hbond.Weighted>
0.0000

> <Gold.Chemscore.DEClash.Weighted>
0.0243

> <Gold.Chemscore.DEInternal.Weighted>
2.3641

> <Gold.Chemscore.Rot.Weighted>
4.0428

> <Gold.Chemscore.Internal.Correction.Weighted>
   9.000000E+99

> <Gold.Protein.RotatedTorsions>
[ 6907 6896 6895 6894 ] final -100.99 input  -60.11 | X-H torsion
[ 7974 7965 7964 7962 ] final  169.21 input  175.53 | X-H torsion
[ 8008 7997 7996 7995 ] final   40.84 input   59.86 | X-H torsion
[ 10167 10162 10161 10158 ] final  120.46 input  -65.29 | X-H torsion
[ 10718 10713 10712 10709 ] final  -61.72 input   66.30 | X-H torsion
[ 10763 10752 10751 10750 ] final  -83.61 input  -60.55 | X-H torsion
[ 11005 11000 10999 10996 ] final -128.20 input  -57.11 | X-H torsion

> <Gold.Protein.ActiveResidues>
 VAL166  LYS551  ARG553  GLY616  TRP617  ASP618  TYR619  PRO620  LYS621  CYS622 
 ASP623  PHE694  ASN695  SER759  ASP760  ASP761  ALA762  ILE779  LEU786  VAL792 
 PHE793  MET794  SER795  GLU796  ALA797  LYS798  CYS799  TRP800  GLU811  SER814 

> <Gold.Protein.RotatedAtoms>
  150.7137  134.0803  159.3895 H   0  0  0  0  0  0  0  0  0  0  0  0  # atno 6907 bound_to 6896
  151.8786  135.0460  160.0496 H   0  0  0  0  0  0  0  0  0  0  0  0  # atno 6908 bound_to 6896
  152.2585  133.5241  159.5404 H   0  0  0  0  0  0  0  0  0  0  0  0  # atno 6909 bound_to 6896
  144.7362  139.9022  143.6410 H   0  0  0  0  0  0  0  0  0  0  0  0  # atno 7974 bound_to 7965
  155.2598  140.3358  155.4274 H   0  0  0  0  0  0  0  0  0  0  0  0  # atno 8008 bound_to 7997
  156.2179  140.1797  156.7588 H   0  0  0  0  0  0  0  0  0  0  0  0  # atno 8009 bound_to 7997
  154.5781  140.0658  156.9049 H   0  0  0  0  0  0  0  0  0  0  0  0  # atno 8010 bound_to 7997
  139.5981  144.7048  151.3128 H   0  0  0  0  0  0  0  0  0  0  0  0  # atno 10167 bound_to 10162
  156.0903  130.4201  150.1034 H   0  0  0  0  0  0  0  0  0  0  0  0  # atno 10718 bound_to 10713
  154.5898  135.5550  153.7267 H   0  0  0  0  0  0  0  0  0  0  0  0  # atno 10763 bound_to 10752
  153.0112  135.6340  154.1865 H   0  0  0  0  0  0  0  0  0  0  0  0  # atno 10764 bound_to 10752
  154.1806  135.2887  155.3033 H   0  0  0  0  0  0  0  0  0  0  0  0  # atno 10765 bound_to 10752
  140.9535  134.1033  157.4038 H   0  0  0  0  0  0  0  0  0  0  0  0  # atno 11005 bound_to 11000
  146.1063  139.4064  143.0315 LP  0  0  0  0  0  0  0  0  0  0  0  0  # atno 17320 bound_to 7965
  145.7506  140.9974  143.1252 LP  0  0  0  0  0  0  0  0  0  0  0  0  # atno 17321 bound_to 7965
  140.7228  143.7089  150.7785 LP  0  0  0  0  0  0  0  0  0  0  0  0  # atno 17342 bound_to 10162
  140.0659  143.5109  152.2604 LP  0  0  0  0  0  0  0  0  0  0  0  0  # atno 17343 bound_to 10162
  156.9045  130.9631  151.3571 LP  0  0  0  0  0  0  0  0  0  0  0  0  # atno 17370 bound_to 10713
  157.6050  130.8540  149.8861 LP  0  0  0  0  0  0  0  0  0  0  0  0  # atno 17371 bound_to 10713
  139.8855  135.0073  156.6438 LP  0  0  0  0  0  0  0  0  0  0  0  0  # atno 17394 bound_to 11000
  140.7568  133.8851  155.8388 LP  0  0  0  0  0  0  0  0  0  0  0  0  # atno 17395 bound_to 11000

$$$$
