#       Name:                AV-unprocessed.smi:101
#       Creating user name   scv26
#       Creation time:       Thu Mar 26 17:41:28 2020


#       File generated by GOLD software.
#

@<TRIPOS>MOLECULE
AV-unprocessed.smi:101
    56    58     1
SMALL
NO_CHARGES


@<TRIPOS>ATOM
      1 ****         1.1609   2.9375   0.3975 C.3            1 S1                 0.0000
      2 ****        -0.0551   2.4578   1.1736 C.2            1 S1                 0.0000
      3 ****        -0.7519   1.3488   0.8177 C.2            1 S1                 0.0000
      4 ****        -1.8629   0.8774   1.5064 N.am           1 S1                 0.0000
      5 ****        -2.6246  -0.3679   1.0833 C.3            1 S1                 0.0000
      6 ****        -2.1260  -0.8422  -0.1402 O.3            1 S1                 0.0000
      7 ****        -1.5265  -2.1308   0.0001 C.3            1 S1                 0.0000
      8 ****        -0.0128  -1.9888   0.2550 C.3            1 S1                 0.0000
      9 ****         0.6170  -1.5101  -0.9228 O.3            1 S1                 0.0000
     10 ****         1.8362  -0.9375  -0.8525 C.2            1 S1                 0.0000
     11 ****         2.4928  -0.8531   0.1875 O.2            1 S1                 0.0000
     12 ****         2.2990  -0.3945  -2.1616 C.ar           1 S1                 0.0000
     13 ****         3.5486   0.2640  -2.2344 C.ar           1 S1                 0.0000
     14 ****         4.0090   0.7957  -3.4545 C.ar           1 S1                 0.0000
     15 ****         3.2252   0.6754  -4.6166 C.ar           1 S1                 0.0000
     16 ****         1.9799   0.0232  -4.5572 C.ar           1 S1                 0.0000
     17 ****         1.5174  -0.5090  -3.3378 C.ar           1 S1                 0.0000
     18 ****        -2.3209  -2.7246   1.1651 C.3            1 S1                 0.0000
     19 ****        -1.7264  -3.8538   1.7793 O.3            1 S1                 0.0000
     20 ****        -2.5311  -1.5383   2.0969 C.3            1 S1                 0.0000
     21 ****        -1.4736  -1.4114   3.0358 O.3            1 S1                 0.0000
     22 ****        -2.3479   1.6140   2.6072 C.2            1 S1                 0.0000
     23 ****        -3.3539   1.2846   3.2348 O.2            1 S1                 0.0000
     24 ****        -1.6334   2.7523   2.9761 N.am           1 S1                 0.0000
     25 ****        -0.4900   3.2366   2.3361 C.2            1 S1                 0.0000
     26 ****         0.0604   4.2511   2.7609 O.2            1 S1                 0.0000
     27 ****        -1.9719   3.2726   3.7723 H              1 S1                 0.0000
     28 ****         1.4000   2.2741  -0.4344 H              1 S1                 0.0000
     29 ****         2.0350   2.9815   1.0479 H              1 S1                 0.0000
     30 ****         0.9847   3.9336  -0.0095 H              1 S1                 0.0000
     31 ****        -0.4131   0.8240  -0.0593 H              1 S1                 0.0000
     32 ****        -3.6488  -0.0289   0.9162 H              1 S1                 0.0000
     33 ****        -1.6860  -2.7166  -0.9058 H              1 S1                 0.0000
     34 ****         0.1743  -1.3166   1.0923 H              1 S1                 0.0000
     35 ****         0.4240  -2.9544   0.5106 H              1 S1                 0.0000
     36 ****         4.1671   0.3702  -1.3546 H              1 S1                 0.0000
     37 ****         4.9648   1.2967  -3.4976 H              1 S1                 0.0000
     38 ****         3.5785   1.0831  -5.5523 H              1 S1                 0.0000
     39 ****         1.3774  -0.0689  -5.4488 H              1 S1                 0.0000
     40 ****         0.5562  -1.0018  -3.3265 H              1 S1                 0.0000
     41 ****        -3.2957  -3.0337   0.7845 H              1 S1                 0.0000
     42 ****        -1.6530  -4.5429   1.1365 H              1 S1                 0.0000
     43 ****        -3.4685  -1.6237   2.6476 H              1 S1                 0.0000
     44 ****        -1.4346  -2.2055   3.5468 H              1 S1                 0.0000
     45 ****        -1.4393  -0.2003  -0.4815 LP             1 S1                 0.0000
     46 ****        -2.8790  -0.9042  -0.7953 LP             1 S1                 0.0000
     47 ****         2.1258  -1.2211   1.0418 LP             1 S1                 0.0000
     48 ****         3.3924  -0.4166   0.1768 LP             1 S1                 0.0000
     49 ****        -2.2966  -4.1625   2.5405 LP             1 S1                 0.0000
     50 ****        -0.8177  -3.6126   2.1199 LP             1 S1                 0.0000
     51 ****        -1.6462  -0.6307   3.6364 LP             1 S1                 0.0000
     52 ****        -0.6078  -1.2762   2.5540 LP             1 S1                 0.0000
     53 ****        -3.8624   0.4653   2.9700 LP             1 S1                 0.0000
     54 ****        -3.6629   1.8363   4.0095 LP             1 S1                 0.0000
     55 ****         0.8753   4.6068   2.3032 LP             1 S1                 0.0000
     56 ****        -0.3069   4.7203   3.5639 LP             1 S1                 0.0000
@<TRIPOS>BOND
    1    1    2 1     
    2    1   28 1     
    3    1   29 1     
    4    1   30 1     
    5    2   25 1     
    6    2    3 2     
    7    3    4 1     
    8    3   31 1     
    9    4    5 1     
   10    4   22 1     
   11    5   20 1     
   12    5    6 1     
   13    5   32 1     
   14    6    7 1     
   15    7    8 1     
   16    7   18 1     
   17    7   33 1     
   18    8    9 1     
   19    8   34 1     
   20    8   35 1     
   21    9   10 1     
   22   10   11 2     
   23   10   12 1     
   24   12   17 ar    
   25   12   13 ar    
   26   13   14 ar    
   27   13   36 1     
   28   14   15 ar    
   29   14   37 1     
   30   15   16 ar    
   31   15   38 1     
   32   16   17 ar    
   33   16   39 1     
   34   17   40 1     
   35   18   19 1     
   36   18   20 1     
   37   18   41 1     
   38   19   42 1     
   39   20   21 1     
   40   20   43 1     
   41   21   44 1     
   42   22   23 2     
   43   22   24 1     
   44   24   27 1     
   45   24   25 1     
   46   25   26 2     
   47    6   45 1     
   48    6   46 1     
   49   11   47 1     
   50   11   48 1     
   51   19   49 1     
   52   19   50 1     
   53   21   51 1     
   54   21   52 1     
   55   23   53 1     
   56   23   54 1     
   57   26   55 1     
   58   26   56 1     
@<TRIPOS>SUBSTRUCTURE
      1 S1             1
@<TRIPOS>SET
LONE_PAIRS      STATIC     ATOMS    <user>   **** ""
12 45 46 47 48 49 50 51 52 53 54 55 56
DONOR_HYDROGENS      STATIC     ATOMS    <user>   **** ""
3 42 44 27
ATOM$BLUE        STATIC     ATOMS    COLORGROUP SYSTEM
12 45 46 47 48 49 50 51 52 53 54 55 56
ATOM$RED        STATIC     ATOMS    COLORGROUP SYSTEM
3 42 44 27
