#       Name:                AV-unprocessed.smi:1254
#       Creating user name   scv26
#       Creation time:       Fri Mar 27 04:39:12 2020


#       File generated by GOLD software.
#

@<TRIPOS>MOLECULE
AV-unprocessed.smi:1254
    53    54     1
SMALL
NO_CHARGES


@<TRIPOS>ATOM
      1 ****        -2.9369   6.2068  -3.3103 C.3            1 S1                 0.0000
      2 ****        -3.2811   5.1576  -2.3093 C.2            1 S1                 0.0000
      3 ****        -2.5660   4.5534  -1.3145 C.2            1 S1                 0.0000
      4 ****        -3.5019   3.6462  -0.7467 C.2            1 S1                 0.0000
      5 ****        -3.2730   2.8222   0.2875 N.pl3          1 S1                -1.0000
      6 ****        -2.7100   1.6100   0.0818 C.2            1 S1                 0.0000
      7 ****        -2.3597   1.1397  -1.0033 O.2            1 S1                 0.0000
      8 ****        -2.5336   0.9003   1.2052 N.am           1 S1                 0.0000
      9 ****        -1.9252  -0.4228   1.2906 C.3            1 S1                 0.0000
     10 ****        -0.3951  -0.3552   1.1422 C.3            1 S1                 0.0000
     11 ****         0.2483  -1.7546   1.1415 C.3            1 S1                 0.0000
     12 ****         1.7249  -1.6435   1.0432 N.4            1 S1                 1.0000
     13 ****         2.4225  -2.9536   0.9803 C.3            1 S1                 0.0000
     14 ****         2.2765  -3.6606  -0.3851 C.3            1 S1                 0.0000
     15 ****         2.9226  -5.0533  -0.3415 C.3            1 S1                 0.0000
     16 ****         2.8741  -2.8282  -1.5320 C.3            1 S1                 0.0000
     17 ****         2.2499  -0.7768   2.1251 C.3            1 S1                 0.0000
     18 ****         1.5373   0.5856   2.1188 C.3            1 S1                 0.0000
     19 ****         0.1350   0.3861   2.2366 O.3            1 S1                 0.0000
     20 ****        -4.6853   3.7065  -1.3344 N.2            1 S1                 0.0000
     21 ****        -4.5503   4.6696  -2.3415 O.3            1 S1                 0.0000
     22 ****        -3.0447   7.2012  -2.8770 H              1 S1                 0.0000
     23 ****        -3.5880   6.1448  -4.1825 H              1 S1                 0.0000
     24 ****        -1.9070   6.0948  -3.6499 H              1 S1                 0.0000
     25 ****        -1.5374   4.7290  -1.0380 H              1 S1                 0.0000
     26 ****        -2.8370   1.3212   2.0713 H              1 S1                 0.0000
     27 ****        -2.1911  -0.8627   2.2520 H              1 S1                 0.0000
     28 ****        -2.3551  -1.0698   0.5242 H              1 S1                 0.0000
     29 ****        -0.1453   0.1499   0.2072 H              1 S1                 0.0000
     30 ****        -0.0201  -2.2944   2.0511 H              1 S1                 0.0000
     31 ****        -0.1456  -2.3261   0.3022 H              1 S1                 0.0000
     32 ****         3.4858  -2.8029   1.1742 H              1 S1                 0.0000
     33 ****         2.0551  -3.5928   1.7847 H              1 S1                 0.0000
     34 ****         1.2192  -3.8150  -0.5981 H              1 S1                 0.0000
     35 ****         3.9924  -4.9889  -0.1401 H              1 S1                 0.0000
     36 ****         2.7940  -5.5767  -1.2895 H              1 S1                 0.0000
     37 ****         2.4741  -5.6717   0.4367 H              1 S1                 0.0000
     38 ****         3.9367  -2.6405  -1.3747 H              1 S1                 0.0000
     39 ****         2.3756  -1.8633  -1.6284 H              1 S1                 0.0000
     40 ****         2.7665  -3.3432  -2.4872 H              1 S1                 0.0000
     41 ****         2.1068  -1.2682   3.0888 H              1 S1                 0.0000
     42 ****         3.3226  -0.6284   1.9959 H              1 S1                 0.0000
     43 ****         1.8791   1.1925   2.9573 H              1 S1                 0.0000
     44 ****         1.7646   1.1429   1.2086 H              1 S1                 0.0000
     45 ****         1.9274  -1.1666   0.1760 H              1 S1                 0.0000
     46 ****        -3.5198   3.1058   1.2142 LP             1 S1                 0.0000
     47 ****        -2.4843   1.6702  -1.8418 LP             1 S1                 0.0000
     48 ****        -1.9511   0.2279  -1.0445 LP             1 S1                 0.0000
     49 ****        -0.0496  -0.1128   3.0834 LP             1 S1                 0.0000
     50 ****        -0.3158   1.2781   2.2702 LP             1 S1                 0.0000
     51 ****        -5.5026   3.1768  -1.1076 LP             1 S1                 0.0000
     52 ****        -4.7281   4.2521  -3.2326 LP             1 S1                 0.0000
     53 ****        -5.2009   5.4129  -2.1859 LP             1 S1                 0.0000
@<TRIPOS>BOND
    1    1    2 1     
    2    1   22 1     
    3    1   23 1     
    4    1   24 1     
    5    2   21 1     
    6    2    3 2     
    7    3    4 1     
    8    3   25 1     
    9    4    5 1     
   10    4   20 2     
   11    5    6 1     
   12    6    7 2     
   13    6    8 am    
   14    8    9 1     
   15    8   26 1     
   16    9   10 1     
   17    9   27 1     
   18    9   28 1     
   19   10   19 1     
   20   10   11 1     
   21   10   29 1     
   22   11   12 1     
   23   11   30 1     
   24   11   31 1     
   25   12   13 1     
   26   12   17 1     
   27   12   45 1     
   28   13   14 1     
   29   13   32 1     
   30   13   33 1     
   31   14   15 1     
   32   14   16 1     
   33   14   34 1     
   34   15   35 1     
   35   15   36 1     
   36   15   37 1     
   37   16   38 1     
   38   16   39 1     
   39   16   40 1     
   40   17   18 1     
   41   17   41 1     
   42   17   42 1     
   43   18   19 1     
   44   18   43 1     
   45   18   44 1     
   46   20   21 1     
   47    5   46 1     
   48    7   47 1     
   49    7   48 1     
   50   19   49 1     
   51   19   50 1     
   52   20   51 1     
   53   21   52 1     
   54   21   53 1     
@<TRIPOS>SUBSTRUCTURE
      1 S1             1
@<TRIPOS>SET
LONE_PAIRS      STATIC     ATOMS    <user>   **** ""
8 46 47 48 49 50 51 52 53
DONOR_HYDROGENS      STATIC     ATOMS    <user>   **** ""
2 26 45
ATOM$BLUE        STATIC     ATOMS    COLORGROUP SYSTEM
8 46 47 48 49 50 51 52 53
ATOM$RED        STATIC     ATOMS    COLORGROUP SYSTEM
2 26 45
