AV-unprocessed.smi:2373|AV-procd|sdf|9439|dock6
  -GOLD-   2272013 63D 1   1.00000     0.00000
 Structure written by MMmdl.
 47 48  0  0  0  0  0  0  0  0  2 V2000
  152.9333  144.3778  158.1828 C   0  0  0  0  0  0  0  0  0  0  0  0
  151.5512  143.9357  158.3312 N   0  0  0  0  0  0  0  0  0  0  0  0
  150.6099  144.7179  159.1219 C   0  0  0  0  0  0  0  0  0  0  0  0
  151.1486  142.6986  157.7833 C   0  0  0  0  0  0  0  0  0  0  0  0
  151.7355  141.4617  158.1458 C   0  0  0  0  0  0  0  0  0  0  0  0
  151.2773  140.2672  157.5533 C   0  0  0  0  0  0  0  0  0  0  0  0
  150.2423  140.3086  156.5961 C   0  0  0  0  0  0  0  0  0  0  0  0
  149.8078  139.0749  156.0388 N   0  0  0  0  0  0  0  0  0  0  0  0
  149.9611  137.8309  156.5250 C   0  0  0  0  0  0  0  0  0  0  0  0
  150.4984  137.5511  157.5956 O   0  0  0  0  0  0  0  0  0  0  0  0
  149.4294  136.9206  155.6915 N   0  0  0  0  0  0  0  0  0  0  0  0
  149.3860  135.4584  155.8467 C   0  0  0  0  0  0  0  0  0  0  0  0
  148.6192  134.7942  154.6626 C   0  0  0  0  0  0  0  0  0  0  0  0
  147.1683  135.2689  154.4497 C   0  0  0  0  0  0  0  0  0  0  0  0
  146.7327  134.8937  153.1612 O   0  0  0  0  0  0  0  0  0  0  0  0
  150.8592  134.9838  155.9193 C   0  0  0  0  0  0  0  0  0  0  0  0
  151.0025  133.5330  156.4123 C   0  0  0  0  0  0  0  0  0  0  0  0
  150.3798  133.3903  157.6811 O   0  0  0  0  0  0  0  0  0  0  0  0
  148.9833  133.6479  157.6352 C   0  0  0  0  0  0  0  0  0  0  0  0
  148.7251  135.1031  157.2053 C   0  0  0  0  0  0  0  0  0  0  0  0
  149.6809  141.5675  156.2747 C   0  0  0  0  0  0  0  0  0  0  0  0
  150.1489  142.6866  156.8682 N   0  3  0  0  0  0  0  0  0  0  0  0
  153.1979  144.4626  157.1282 H   0  0  0  0  0  0  0  0  0  0  0  0
  153.6148  143.6700  158.6562 H   0  0  0  0  0  0  0  0  0  0  0  0
  153.0902  145.3530  158.6442 H   0  0  0  0  0  0  0  0  0  0  0  0
  150.2481  144.1392  159.9723 H   0  0  0  0  0  0  0  0  0  0  0  0
  149.7555  145.0170  158.5141 H   0  0  0  0  0  0  0  0  0  0  0  0
  151.0747  145.6240  159.5108 H   0  0  0  0  0  0  0  0  0  0  0  0
  152.5314  141.4070  158.8735 H   0  0  0  0  0  0  0  0  0  0  0  0
  151.7248  139.3248  157.8338 H   0  0  0  0  0  0  0  0  0  0  0  0
  149.2853  139.1500  155.1781 H   0  0  0  0  0  0  0  0  0  0  0  0
  149.0112  137.2745  154.8434 H   0  0  0  0  0  0  0  0  0  0  0  0
  149.1694  134.9445  153.7344 H   0  0  0  0  0  0  0  0  0  0  0  0
  148.6062  133.7132  154.8055 H   0  0  0  0  0  0  0  0  0  0  0  0
  146.4932  134.8287  155.1831 H   0  0  0  0  0  0  0  0  0  0  0  0
  147.0878  136.3517  154.5366 H   0  0  0  0  0  0  0  0  0  0  0  0
  147.4350  135.0489  152.5480 H   0  0  0  0  0  0  0  0  0  0  0  0
  151.3623  135.1021  154.9603 H   0  0  0  0  0  0  0  0  0  0  0  0
  151.4075  135.6207  156.6157 H   0  0  0  0  0  0  0  0  0  0  0  0
  150.5803  132.8235  155.6998 H   0  0  0  0  0  0  0  0  0  0  0  0
  152.0579  133.2801  156.5148 H   0  0  0  0  0  0  0  0  0  0  0  0
  148.4916  132.9424  156.9643 H   0  0  0  0  0  0  0  0  0  0  0  0
  148.5658  133.4761  158.6273 H   0  0  0  0  0  0  0  0  0  0  0  0
  149.1196  135.7583  157.9838 H   0  0  0  0  0  0  0  0  0  0  0  0
  147.6502  135.2830  157.1767 H   0  0  0  0  0  0  0  0  0  0  0  0
  148.8721  141.7324  155.5792 H   0  0  0  0  0  0  0  0  0  0  0  0
  149.7209  143.5767  156.6124 H   0  0  0  0  0  0  0  0  0  0  0  0
  1  2  1  0  0  0  0
  1 23  1  0  0  0  0
  1 24  1  0  0  0  0
  1 25  1  0  0  0  0
  2  3  1  0  0  0  0
  2  4  1  0  0  0  0
  3 26  1  0  0  0  0
  3 27  1  0  0  0  0
  3 28  1  0  0  0  0
  4 22  1  0  0  0  0
  4  5  2  0  0  0  0
  5  6  1  0  0  0  0
  5 29  1  0  0  0  0
  6  7  2  0  0  0  0
  6 30  1  0  0  0  0
  7  8  1  0  0  0  0
  7 21  1  0  0  0  0
  8  9  1  0  0  0  0
  8 31  1  0  0  0  0
  9 10  2  0  0  0  0
  9 11  1  0  0  0  0
 11 12  1  0  0  0  0
 11 32  1  0  0  0  0
 12 20  1  0  0  0  0
 12 13  1  0  0  0  0
 12 16  1  0  0  0  0
 13 14  1  0  0  0  0
 13 33  1  0  0  0  0
 13 34  1  0  0  0  0
 14 15  1  0  0  0  0
 14 35  1  0  0  0  0
 14 36  1  0  0  0  0
 15 37  1  0  0  0  0
 16 17  1  0  0  0  0
 16 38  1  0  0  0  0
 16 39  1  0  0  0  0
 17 18  1  0  0  0  0
 17 40  1  0  0  0  0
 17 41  1  0  0  0  0
 18 19  1  0  0  0  0
 19 20  1  0  0  0  0
 19 42  1  0  0  0  0
 19 43  1  0  0  0  0
 20 44  1  0  0  0  0
 20 45  1  0  0  0  0
 21 22  2  0  0  0  0
 21 46  1  0  0  0  0
 22 47  1  0  0  0  0
M  CHG  1  22   1
M  END
> <s_m_source_file>
AV-unprocessed.smi

> <i_m_source_file_index>
2373

> <i_lp_mmshare_version>
43012

> <i_f3d_flags>
0

> <s_epik_input>
W0NIM11OKFtDSDNdKWMxW2NIXVtjSF1jKFtjSF1uMSlbTkhdQyg9TylbTkhdQzIoW0NIMl1bQ0gyXVtPSF0pW0NIMl1bQ0gyXU9bQ0gyXVtDSDJdMg==

> <s_epik_cmdline>
J2VwaWtfcHl0aG9uJywgJy1waCcsICc3LjAnLCAnLXRuJywgJzgnLCAnLW1hJywgJzIwMCcsICctbWV0YWxfYmluZGluZycsICctaW1hZScsICc8aW5maWxlLm1hZT4nLCAnLW9tYWUnLCAnPG91dGZpbGUubWFlPic=

> <r_lp_tautomer_probability>
0.999994

> <r_epik_Ionization_Penalty>
0.250535

> <r_epik_Ionization_Penalty_Charging>
0.250515

> <r_epik_Ionization_Penalty_Neutral>
1.96065e-05

> <r_epik_State_Penalty>
0.241842

> <r_epik_Charging_Adjusted_Penalty>
0.492357

> <i_epik_Tot_Q>
1

> <i_epik_Tot_abs_Q>
1

> <r_epik_Metal_State_Penalty>
0.533268

> <b_epik_Metal_Only>
0

> <s_lp_Force_Field>
OPLS_2005

> <r_lp_Energy>
24.7544

> <b_lp_Chiralities_Consistent>
1

> <s_lp_Variant>
AV-unprocessed.smi:2373-1

> <Gold.Version>
5.8.1

> <Gold.Id.Protein>
6NUR|6NUR_protein|mol2

> <Gold.PLP.Fitness>
39.0475

> <Gold.PLP.PLP>
-29.6792

> <Gold.PLP.part.hbond>
-2.9395

> <Gold.PLP.part.metal>
0.0000

> <Gold.PLP.part.buried>
-2.9296

> <Gold.PLP.part.nonpolar>
-23.7846

> <Gold.PLP.part.repulsive>
0.0428

> <Gold.PLP.ligand.clash>
0.0000

> <Gold.PLP.ligand.torsion>
1.3367

> <Gold.PLP.Chemscore.Hbond>
4.0000

> <Gold.PLP.Chemscore.CHOScore>
0.0000

> <Gold.PLP.Chemscore.Metal>
0.0000

> <Gold.Chemscore.Hbonds>
donor molecule, donor type, donor heavy atom, donor atom, acceptor molecule, acceptor atom, score
      L1  H    15    37       P1  7948  1.00
      L1  H    22    47       P1  8028  2.00
      P1  H  6896  6909       L1    18  1.00

> <Gold.PLP.Chemscore.Internal.Correction>
0.0417

> <Gold.Rescore>
     Score         DG    S(hbond)    S(metal)    S(lipo)     H(rot)  DE(clash)    DE(int)     intcor
     15.01     -18.49       2.92        0.00      74.09       2.12       0.07       3.41       ----

> <Gold.Chemscore.Fitness>
15.0104

> <Gold.Chemscore.DG>
-18.4915

> <Gold.Chemscore.ZeroCoef>
-5.4800

> <Gold.Chemscore.Hbond>
2.9216

> <Gold.Chemscore.Metal>
0.0000

> <Gold.Chemscore.Lipo>
74.0949

> <Gold.Chemscore.Internal_Hbond>
0.0000

> <Gold.Chemscore.DEClash>
0.0704

> <Gold.Chemscore.DEInternal>
3.4107

> <Gold.Chemscore.Rot>
2.1155

> <Gold.Chemscore.Internal.Correction>
   9.000000E+99

> <Gold.Chemscore.Hbonds>
donor molecule, donor type, donor heavy atom, donor atom, acceptor molecule, acceptor atom, score
      L1  H    15    37       P1  7948  0.90
      L1  H    22    47       P1  8028  0.99
      P1  H  6896  6909       L1    18  0.82

> <Gold.Chemscore.Hbond.Weighted>
-9.7582

> <Gold.Chemscore.Metal.Weighted>
-0.0000

> <Gold.Chemscore.Lipo.Weighted>
-8.6691

> <Gold.Chemscore.Internal_Hbond.Weighted>
0.0000

> <Gold.Chemscore.DEClash.Weighted>
0.0704

> <Gold.Chemscore.DEInternal.Weighted>
3.4107

> <Gold.Chemscore.Rot.Weighted>
5.4158

> <Gold.Chemscore.Internal.Correction.Weighted>
   9.000000E+99

> <Gold.Protein.RotatedTorsions>
[ 6907 6896 6895 6894 ] final  -18.89 input  -60.11 | X-H torsion
[ 7974 7965 7964 7962 ] final -138.08 input  175.53 | X-H torsion
[ 8008 7997 7996 7995 ] final   20.76 input   59.86 | X-H torsion
[ 10167 10162 10161 10158 ] final  -96.21 input  -65.29 | X-H torsion
[ 10718 10713 10712 10709 ] final  175.59 input   66.30 | X-H torsion
[ 10763 10752 10751 10750 ] final   86.53 input  -60.55 | X-H torsion
[ 11005 11000 10999 10996 ] final  -74.94 input  -57.11 | X-H torsion

> <Gold.Protein.ActiveResidues>
 VAL166  LYS551  ARG553  GLY616  TRP617  ASP618  TYR619  PRO620  LYS621  CYS622 
 ASP623  PHE694  ASN695  SER759  ASP760  ASP761  ALA762  ILE779  LEU786  VAL792 
 PHE793  MET794  SER795  GLU796  ALA797  LYS798  CYS799  TRP800  GLU811  SER814 

> <Gold.Protein.RotatedAtoms>
  151.2714  135.0685  159.9135 H   0  0  0  0  0  0  0  0  0  0  0  0  # atno 6907 bound_to 6896
  152.5350  134.0126  159.7956 H   0  0  0  0  0  0  0  0  0  0  0  0  # atno 6908 bound_to 6896
  151.0365  133.5693  159.2686 H   0  0  0  0  0  0  0  0  0  0  0  0  # atno 6909 bound_to 6896
  144.8788  140.6476  143.5219 H   0  0  0  0  0  0  0  0  0  0  0  0  # atno 7974 bound_to 7965
  154.9404  140.3052  155.5124 H   0  0  0  0  0  0  0  0  0  0  0  0  # atno 8008 bound_to 7997
  156.2996  140.2337  156.4409 H   0  0  0  0  0  0  0  0  0  0  0  0  # atno 8009 bound_to 7997
  154.8151  140.0426  157.1359 H   0  0  0  0  0  0  0  0  0  0  0  0  # atno 8010 bound_to 7997
  140.2962  143.3191  152.0295 H   0  0  0  0  0  0  0  0  0  0  0  0  # atno 10167 bound_to 10162
  156.9326  130.9976  151.2984 H   0  0  0  0  0  0  0  0  0  0  0  0  # atno 10718 bound_to 10713
  153.1580  135.4577  154.9731 H   0  0  0  0  0  0  0  0  0  0  0  0  # atno 10763 bound_to 10752
  154.7876  135.3209  154.7854 H   0  0  0  0  0  0  0  0  0  0  0  0  # atno 10764 bound_to 10752
  153.8348  135.6935  153.4864 H   0  0  0  0  0  0  0  0  0  0  0  0  # atno 10765 bound_to 10752
  141.1640  133.6929  156.7441 H   0  0  0  0  0  0  0  0  0  0  0  0  # atno 11005 bound_to 11000
  145.3993  139.1601  143.4186 LP  0  0  0  0  0  0  0  0  0  0  0  0  # atno 17320 bound_to 7965
  146.2980  140.4089  142.8714 LP  0  0  0  0  0  0  0  0  0  0  0  0  # atno 17321 bound_to 7965
  139.4926  144.6489  151.6718 LP  0  0  0  0  0  0  0  0  0  0  0  0  # atno 17342 bound_to 10162
  140.5690  144.0141  150.6207 LP  0  0  0  0  0  0  0  0  0  0  0  0  # atno 17343 bound_to 10162
  157.5837  130.8394  149.8559 LP  0  0  0  0  0  0  0  0  0  0  0  0  # atno 17370 bound_to 10713
  156.0440  130.3732  150.1363 LP  0  0  0  0  0  0  0  0  0  0  0  0  # atno 17371 bound_to 10713
  140.2652  134.8435  157.3796 LP  0  0  0  0  0  0  0  0  0  0  0  0  # atno 17394 bound_to 11000
  140.1573  134.4773  155.7919 LP  0  0  0  0  0  0  0  0  0  0  0  0  # atno 17395 bound_to 11000

$$$$
