AV-unprocessed.smi:3196|AV-procd|sdf|12222|dock3
  -GOLD-   2272018 53D 1   1.00000     0.00000
 Structure written by MMmdl.
 33 34  0  0  0  0  0  0  0  0  1 V2000
  151.4275  139.1253  154.8343 C   0  0  0  0  0  0  0  0  0  0  0  0
  149.9410  139.4564  155.0043 C   0  0  0  0  0  0  0  0  0  0  0  0
  149.1388  139.2379  153.7145 C   0  0  0  0  0  0  0  0  0  0  0  0
  147.6989  139.7030  153.8438 C   0  0  1  0  0  0  0  0  0  0  0  0
  146.8988  140.0921  152.6295 C   0  0  0  0  0  0  0  0  0  0  0  0
  146.5277  138.8449  153.4063 C   0  0  1  0  0  0  0  0  0  0  0  0
  146.7817  137.5835  152.7750 N   0  0  0  0  0  0  0  0  0  0  0  0
  145.8859  136.6527  152.4005 C   0  0  0  0  0  0  0  0  0  0  0  0
  144.6815  136.8413  152.5534 O   0  0  0  0  0  0  0  0  0  0  0  0
  146.4330  135.5620  151.8271 N   0  0  0  0  0  0  0  0  0  0  0  0
  145.8118  134.3928  151.3052 C   0  0  0  0  0  0  0  0  0  0  0  0
  144.5485  134.3627  150.6644 C   0  0  0  0  0  0  0  0  0  0  0  0
  144.0558  133.1264  150.2001 C   0  0  0  0  0  0  0  0  0  0  0  0
  144.7214  131.9602  150.3360 N   0  0  0  0  0  0  0  0  0  0  0  0
  145.9216  131.9906  150.9522 C   0  0  0  0  0  0  0  0  0  0  0  0
  146.5054  133.1722  151.4512 C   0  0  0  0  0  0  0  0  0  0  0  0
  147.7151  133.1306  152.0609 F   0  0  0  0  0  0  0  0  0  0  0  0
  151.9709  139.2894  155.7650 H   0  0  0  0  0  0  0  0  0  0  0  0
  151.8845  139.7508  154.0672 H   0  0  0  0  0  0  0  0  0  0  0  0
  151.5683  138.0834  154.5459 H   0  0  0  0  0  0  0  0  0  0  0  0
  149.5254  138.8410  155.8031 H   0  0  0  0  0  0  0  0  0  0  0  0
  149.8380  140.4931  155.3271 H   0  0  0  0  0  0  0  0  0  0  0  0
  149.6210  139.7658  152.8909 H   0  0  0  0  0  0  0  0  0  0  0  0
  149.1364  138.1795  153.4517 H   0  0  0  0  0  0  0  0  0  0  0  0
  147.5219  140.2967  154.7388 H   0  0  0  0  0  0  0  0  0  0  0  0
  146.2419  140.9547  152.7194 H   0  0  0  0  0  0  0  0  0  0  0  0
  147.3659  139.9651  151.6543 H   0  0  0  0  0  0  0  0  0  0  0  0
  145.6143  138.9329  153.9927 H   0  0  0  0  0  0  0  0  0  0  0  0
  147.7451  137.4023  152.5325 H   0  0  0  0  0  0  0  0  0  0  0  0
  147.4387  135.5794  151.7391 H   0  0  0  0  0  0  0  0  0  0  0  0
  143.9452  135.2445  150.5203 H   0  0  0  0  0  0  0  0  0  0  0  0
  143.0965  133.0734  149.7068 H   0  0  0  0  0  0  0  0  0  0  0  0
  146.4323  131.0444  151.0517 H   0  0  0  0  0  0  0  0  0  0  0  0
  1  2  1  0  0  0  0
  1 18  1  0  0  0  0
  1 19  1  0  0  0  0
  1 20  1  0  0  0  0
  2  3  1  0  0  0  0
  2 21  1  0  0  0  0
  2 22  1  0  0  0  0
  3  4  1  0  0  0  0
  3 23  1  0  0  0  0
  3 24  1  0  0  0  0
  4  6  1  0  0  0  0
  4  5  1  0  0  0  0
  4 25  1  0  0  0  0
  5  6  1  0  0  0  0
  5 26  1  0  0  0  0
  5 27  1  0  0  0  0
  6  7  1  0  0  0  0
  6 28  1  0  0  0  0
  7  8  1  0  0  0  0
  7 29  1  0  0  0  0
  8  9  2  0  0  0  0
  8 10  1  0  0  0  0
 10 11  1  0  0  0  0
 10 30  1  0  0  0  0
 11 16  1  0  0  0  0
 11 12  2  0  0  0  0
 12 13  1  0  0  0  0
 12 31  1  0  0  0  0
 13 14  2  0  0  0  0
 13 32  1  0  0  0  0
 14 15  1  0  0  0  0
 15 16  2  0  0  0  0
 15 33  1  0  0  0  0
 16 17  1  0  0  0  0
M  END
> <s_m_source_file>
AV-unprocessed.smi

> <i_m_source_file_index>
3196

> <i_lp_mmshare_version>
43012

> <i_f3d_flags>
0

> <s_epik_input>
W0NIM11bQ0gyXVtDSDJdW0NAQEhdMVtDSDJdW0NASF0xW05IXUMoPU8pW05IXWMyW2NIXVtjSF1uW2NIXWMyRg==

> <s_epik_cmdline>
J2VwaWtfcHl0aG9uJywgJy1waCcsICc3LjAnLCAnLXRuJywgJzgnLCAnLW1hJywgJzIwMCcsICctbWV0YWxfYmluZGluZycsICctaW1hZScsICc8aW5maWxlLm1hZT4nLCAnLW9tYWUnLCAnPG91dGZpbGUubWFlPic=

> <r_epik_Ionization_Penalty>
0.00341997

> <r_epik_Ionization_Penalty_Charging>
0

> <r_epik_Ionization_Penalty_Neutral>
0.00341997

> <r_epik_State_Penalty>
0.00239198

> <r_epik_Charging_Adjusted_Penalty>
0.00239198

> <i_epik_Tot_Q>
0

> <i_epik_Tot_abs_Q>
0

> <r_epik_Metal_State_Penalty>
-0

> <b_epik_Metal_Only>
0

> <s_lp_Force_Field>
OPLS_2005

> <r_lp_Energy>
35.1311

> <b_lp_Chiralities_Consistent>
1

> <s_lp_Variant>
AV-unprocessed.smi:3196-2

> <Gold.Version>
5.8.1

> <Gold.Id.Protein>
6NUR|6NUR_protein|mol2

> <Gold.PLP.Fitness>
37.9203

> <Gold.PLP.PLP>
-28.1508

> <Gold.PLP.part.hbond>
-2.0000

> <Gold.PLP.part.metal>
0.0000

> <Gold.PLP.part.buried>
2.2779

> <Gold.PLP.part.nonpolar>
-28.3090

> <Gold.PLP.part.repulsive>
0.4335

> <Gold.PLP.ligand.clash>
0.0000

> <Gold.PLP.ligand.torsion>
0.7344

> <Gold.PLP.Chemscore.Hbond>
1.9440

> <Gold.PLP.Chemscore.CHOScore>
1.6141

> <Gold.PLP.Chemscore.Metal>
0.0000

> <Gold.Chemscore.Hbonds>
donor molecule, donor type, donor heavy atom, donor atom, acceptor molecule, acceptor atom, score
      L1  H     7    29       P1  7948  0.96
      L1  H    10    30       P1  7948  1.00
      L1  C    13    32       P1 10186  1.00
      L1  C    15    33       P1 10747  0.53

> <Gold.PLP.Chemscore.Internal.Correction>
0.5641

> <Gold.Rescore>
     Score         DG    S(hbond)    S(metal)    S(lipo)     H(rot)  DE(clash)    DE(int)     intcor
     16.10     -17.12       1.93        0.00      74.58       1.39       0.25       0.76       ----

> <Gold.Chemscore.Fitness>
16.1026

> <Gold.Chemscore.DG>
-17.1159

> <Gold.Chemscore.ZeroCoef>
-5.4800

> <Gold.Chemscore.Hbond>
1.9331

> <Gold.Chemscore.Metal>
0.0000

> <Gold.Chemscore.Lipo>
74.5769

> <Gold.Chemscore.Internal_Hbond>
0.0000

> <Gold.Chemscore.DEClash>
0.2510

> <Gold.Chemscore.DEInternal>
0.7623

> <Gold.Chemscore.Rot>
1.3852

> <Gold.Chemscore.Internal.Correction>
   9.000000E+99

> <Gold.Chemscore.Hbonds>
donor molecule, donor type, donor heavy atom, donor atom, acceptor molecule, acceptor atom, score
      L1  H     7    29       P1  7948  0.92
      L1  H    10    30       P1  7948  0.98

> <Gold.Chemscore.Hbond.Weighted>
-6.4565

> <Gold.Chemscore.Metal.Weighted>
-0.0000

> <Gold.Chemscore.Lipo.Weighted>
-8.7255

> <Gold.Chemscore.Internal_Hbond.Weighted>
0.0000

> <Gold.Chemscore.DEClash.Weighted>
0.2510

> <Gold.Chemscore.DEInternal.Weighted>
0.7623

> <Gold.Chemscore.Rot.Weighted>
3.5460

> <Gold.Chemscore.Internal.Correction.Weighted>
   9.000000E+99

> <Gold.Protein.RotatedTorsions>
[ 6907 6896 6895 6894 ] final  -80.64 input  -60.11 | X-H torsion
[ 7974 7965 7964 7962 ] final  -31.78 input  175.53 | X-H torsion
[ 8008 7997 7996 7995 ] final  -48.38 input   59.86 | X-H torsion
[ 10167 10162 10161 10158 ] final  -54.52 input  -65.29 | X-H torsion
[ 10718 10713 10712 10709 ] final  -54.71 input   66.30 | X-H torsion
[ 10763 10752 10751 10750 ] final  104.11 input  -60.55 | X-H torsion
[ 11005 11000 10999 10996 ] final   65.74 input  -57.11 | X-H torsion

> <Gold.Protein.ActiveResidues>
 VAL166  LYS551  ARG553  GLY616  TRP617  ASP618  TYR619  PRO620  LYS621  CYS622 
 ASP623  PHE694  ASN695  SER759  ASP760  ASP761  ALA762  ILE779  LEU786  VAL792 
 PHE793  MET794  SER795  GLU796  ALA797  LYS798  CYS799  TRP800  GLU811  SER814 

> <Gold.Protein.RotatedAtoms>
  150.6926  134.3939  159.5088 H   0  0  0  0  0  0  0  0  0  0  0  0  # atno 6907 bound_to 6896
  152.1723  134.8821  160.0542 H   0  0  0  0  0  0  0  0  0  0  0  0  # atno 6908 bound_to 6896
  151.9843  133.3733  159.4156 H   0  0  0  0  0  0  0  0  0  0  0  0  # atno 6909 bound_to 6896
  146.1041  140.5710  142.8807 H   0  0  0  0  0  0  0  0  0  0  0  0  # atno 7974 bound_to 7965
  154.4028  140.1323  156.4330 H   0  0  0  0  0  0  0  0  0  0  0  0  # atno 8008 bound_to 7997
  155.7533  140.3487  155.5141 H   0  0  0  0  0  0  0  0  0  0  0  0  # atno 8009 bound_to 7997
  155.8929  140.1006  157.1396 H   0  0  0  0  0  0  0  0  0  0  0  0  # atno 8010 bound_to 7997
  140.6426  143.2516  151.4948 H   0  0  0  0  0  0  0  0  0  0  0  0  # atno 10167 bound_to 10162
  156.1428  130.4154  150.0075 H   0  0  0  0  0  0  0  0  0  0  0  0  # atno 10718 bound_to 10713
  153.3616  135.3954  155.1722 H   0  0  0  0  0  0  0  0  0  0  0  0  # atno 10763 bound_to 10752
  154.8680  135.3681  154.5092 H   0  0  0  0  0  0  0  0  0  0  0  0  # atno 10764 bound_to 10752
  153.5552  135.7082  153.5633 H   0  0  0  0  0  0  0  0  0  0  0  0  # atno 10765 bound_to 10752
  139.9875  134.6644  156.0149 H   0  0  0  0  0  0  0  0  0  0  0  0  # atno 11005 bound_to 11000
  144.7456  140.5060  143.6838 LP  0  0  0  0  0  0  0  0  0  0  0  0  # atno 17320 bound_to 7965
  145.5796  139.1488  143.3243 LP  0  0  0  0  0  0  0  0  0  0  0  0  # atno 17321 bound_to 7965
  139.5635  144.2098  152.1729 LP  0  0  0  0  0  0  0  0  0  0  0  0  # atno 17342 bound_to 10162
  140.1373  144.5234  150.6766 LP  0  0  0  0  0  0  0  0  0  0  0  0  # atno 17343 bound_to 10162
  156.7955  130.9271  151.3646 LP  0  0  0  0  0  0  0  0  0  0  0  0  # atno 17370 bound_to 10713
  157.6590  130.8950  149.9790 LP  0  0  0  0  0  0  0  0  0  0  0  0  # atno 17371 bound_to 10713
  141.1538  133.6545  156.4095 LP  0  0  0  0  0  0  0  0  0  0  0  0  # atno 17394 bound_to 11000
  140.4973  134.6519  157.5234 LP  0  0  0  0  0  0  0  0  0  0  0  0  # atno 17395 bound_to 11000

$$$$
