AV-unprocessed.smi:1217|AV-procd|sdf|5102|dock4
  -GOLD-   22720 4153D 1   1.00000     0.00000
 Structure written by MMmdl.
 34 35  0  0  0  0  0  0  0  0  1 V2000
  147.9211  141.5199  153.9762 C   0  0  0  0  0  0  0  0  0  0  0  0
  148.9132  141.0024  155.0289 C   0  0  2  0  0  0  0  0  0  0  0  0
  149.3630  142.1326  155.8390 N   0  0  0  0  0  0  0  0  0  0  0  0
  150.0072  142.0461  157.0126 C   0  0  0  0  0  0  0  0  0  0  0  0
  150.2977  140.9791  157.5543 O   0  0  0  0  0  0  0  0  0  0  0  0
  150.2909  143.2666  157.5003 N   0  0  0  0  0  0  0  0  0  0  0  0
  150.9153  143.5963  158.7329 C   0  0  0  0  0  0  0  0  0  0  0  0
  150.9563  144.9769  159.0326 C   0  0  0  0  0  0  0  0  0  0  0  0
  151.5491  145.4078  160.2353 C   0  0  0  0  0  0  0  0  0  0  0  0
  152.0839  144.4457  161.1102 C   0  0  0  0  0  0  0  0  0  0  0  0
  152.0011  143.0915  160.7370 C   0  0  0  0  0  0  0  0  0  0  0  0
  151.4346  142.6766  159.5842 N   0  0  0  0  0  0  0  0  0  0  0  0
  150.1288  140.3002  154.3905 C   0  0  2  0  0  0  0  0  0  0  0  0
  149.8804  138.8517  153.9646 C   0  0  0  0  0  0  0  0  0  0  0  0
  151.2601  138.2124  154.0197 C   0  0  0  0  0  0  0  0  0  0  0  0
  152.1138  139.2307  154.7789 C   0  0  0  0  0  0  0  0  0  0  0  0
  151.1820  140.1490  155.3303 O   0  0  0  0  0  0  0  0  0  0  0  0
  147.5185  140.7051  153.3744 H   0  0  0  0  0  0  0  0  0  0  0  0
  148.3948  142.2311  153.2986 H   0  0  0  0  0  0  0  0  0  0  0  0
  147.0759  142.0219  154.4484 H   0  0  0  0  0  0  0  0  0  0  0  0
  148.3826  140.2847  155.6572 H   0  0  0  0  0  0  0  0  0  0  0  0
  149.1729  143.0531  155.4715 H   0  0  0  0  0  0  0  0  0  0  0  0
  150.0160  144.0521  156.9297 H   0  0  0  0  0  0  0  0  0  0  0  0
  150.5391  145.7026  158.3496 H   0  0  0  0  0  0  0  0  0  0  0  0
  151.5913  146.4584  160.4816 H   0  0  0  0  0  0  0  0  0  0  0  0
  152.5450  144.7371  162.0422 H   0  0  0  0  0  0  0  0  0  0  0  0
  152.3987  142.3212  161.3809 H   0  0  0  0  0  0  0  0  0  0  0  0
  150.4984  140.8770  153.5401 H   0  0  0  0  0  0  0  0  0  0  0  0
  149.2232  138.3553  154.6800 H   0  0  0  0  0  0  0  0  0  0  0  0
  149.4198  138.7771  152.9791 H   0  0  0  0  0  0  0  0  0  0  0  0
  151.2210  137.2555  154.5410 H   0  0  0  0  0  0  0  0  0  0  0  0
  151.6639  138.0358  153.0223 H   0  0  0  0  0  0  0  0  0  0  0  0
  152.7238  138.7714  155.5570 H   0  0  0  0  0  0  0  0  0  0  0  0
  152.7773  139.7616  154.0947 H   0  0  0  0  0  0  0  0  0  0  0  0
  1  2  1  0  0  0  0
  1 18  1  0  0  0  0
  1 19  1  0  0  0  0
  1 20  1  0  0  0  0
  2  3  1  0  0  0  0
  2 13  1  0  0  0  0
  2 21  1  0  0  0  0
  3  4  1  0  0  0  0
  3 22  1  0  0  0  0
  4  5  2  0  0  0  0
  4  6  1  0  0  0  0
  6  7  1  0  0  0  0
  6 23  1  0  0  0  0
  7 12  1  0  0  0  0
  7  8  2  0  0  0  0
  8  9  1  0  0  0  0
  8 24  1  0  0  0  0
  9 10  2  0  0  0  0
  9 25  1  0  0  0  0
 10 11  1  0  0  0  0
 10 26  1  0  0  0  0
 11 12  2  0  0  0  0
 11 27  1  0  0  0  0
 13 17  1  0  0  0  0
 13 14  1  0  0  0  0
 13 28  1  0  0  0  0
 14 15  1  0  0  0  0
 14 29  1  0  0  0  0
 14 30  1  0  0  0  0
 15 16  1  0  0  0  0
 15 31  1  0  0  0  0
 15 32  1  0  0  0  0
 16 17  1  0  0  0  0
 16 33  1  0  0  0  0
 16 34  1  0  0  0  0
M  END
> <s_m_source_file>
AV-unprocessed.smi

> <i_m_source_file_index>
1217

> <i_lp_mmshare_version>
43012

> <i_f3d_flags>
0

> <s_epik_input>
TzFbQ0gyXVtDSDJdW0NIMl1bQ0BIXTFbQ0BIXShbQ0gzXSlbTkhdQyg9TylbTkhdYzJbY0hdW2NIXVtjSF1bY0hdbjI=

> <s_epik_cmdline>
J2VwaWtfcHl0aG9uJywgJy1waCcsICc3LjAnLCAnLXRuJywgJzgnLCAnLW1hJywgJzIwMCcsICctbWV0YWxfYmluZGluZycsICctaW1hZScsICc8aW5maWxlLm1hZT4nLCAnLW9tYWUnLCAnPG91dGZpbGUubWFlPic=

> <r_lp_tautomer_probability>
1

> <r_epik_Ionization_Penalty>
4.51768e-05

> <r_epik_Ionization_Penalty_Charging>
0

> <r_epik_Ionization_Penalty_Neutral>
4.51768e-05

> <r_epik_State_Penalty>
-0

> <r_epik_Charging_Adjusted_Penalty>
0

> <i_epik_Tot_Q>
0

> <i_epik_Tot_abs_Q>
0

> <r_epik_Metal_State_Penalty>
-0

> <b_epik_Metal_Only>
0

> <s_lp_Force_Field>
OPLS_2005

> <r_lp_Energy>
20.7335

> <b_lp_Chiralities_Consistent>
1

> <s_lp_Variant>
AV-unprocessed.smi:1217-1

> <Gold.Version>
5.8.1

> <Gold.Id.Protein>
6NUR|6NUR_protein|mol2

> <Gold.PLP.Fitness>
44.3143

> <Gold.PLP.PLP>
-39.3894

> <Gold.PLP.part.hbond>
-2.7101

> <Gold.PLP.part.metal>
0.0000

> <Gold.PLP.part.buried>
-4.0164

> <Gold.PLP.part.nonpolar>
-32.7782

> <Gold.PLP.part.repulsive>
0.1782

> <Gold.PLP.ligand.clash>
0.0000

> <Gold.PLP.ligand.torsion>
0.4881

> <Gold.PLP.Chemscore.Hbond>
1.9600

> <Gold.PLP.Chemscore.CHOScore>
0.0000

> <Gold.PLP.Chemscore.Metal>
0.0000

> <Gold.Chemscore.Hbonds>
donor molecule, donor type, donor heavy atom, donor atom, acceptor molecule, acceptor atom, score
      L1  H     3    22       P1  8028  1.00
      L1  H     6    23       P1  8028  0.98

> <Gold.PLP.Chemscore.Internal.Correction>
0.0210

> <Gold.Rescore>
     Score         DG    S(hbond)    S(metal)    S(lipo)     H(rot)  DE(clash)    DE(int)     intcor
     14.20     -19.08       1.86        0.00      90.51       1.25       0.00       4.88       ----

> <Gold.Chemscore.Fitness>
14.2007

> <Gold.Chemscore.DG>
-19.0825

> <Gold.Chemscore.ZeroCoef>
-5.4800

> <Gold.Chemscore.Hbond>
1.8604

> <Gold.Chemscore.Metal>
0.0000

> <Gold.Chemscore.Lipo>
90.5145

> <Gold.Chemscore.Internal_Hbond>
0.0000

> <Gold.Chemscore.DEClash>
0.0000

> <Gold.Chemscore.DEInternal>
4.8818

> <Gold.Chemscore.Rot>
1.2506

> <Gold.Chemscore.Internal.Correction>
   9.000000E+99

> <Gold.Chemscore.Hbonds>
donor molecule, donor type, donor heavy atom, donor atom, acceptor molecule, acceptor atom, score
      L1  H     3    22       P1  8028  0.97
      L1  H     6    23       P1  8028  0.88

> <Gold.Chemscore.Hbond.Weighted>
-6.2139

> <Gold.Chemscore.Metal.Weighted>
-0.0000

> <Gold.Chemscore.Lipo.Weighted>
-10.5902

> <Gold.Chemscore.Internal_Hbond.Weighted>
0.0000

> <Gold.Chemscore.DEClash.Weighted>
0.0000

> <Gold.Chemscore.DEInternal.Weighted>
4.8818

> <Gold.Chemscore.Rot.Weighted>
3.2016

> <Gold.Chemscore.Internal.Correction.Weighted>
   9.000000E+99

> <Gold.Protein.RotatedTorsions>
[ 6907 6896 6895 6894 ] final   93.63 input  -60.11 | X-H torsion
[ 7974 7965 7964 7962 ] final   72.84 input  175.53 | X-H torsion
[ 8008 7997 7996 7995 ] final   98.69 input   59.86 | X-H torsion
[ 10167 10162 10161 10158 ] final  -65.65 input  -65.29 | X-H torsion
[ 10718 10713 10712 10709 ] final -121.07 input   66.30 | X-H torsion
[ 10763 10752 10751 10750 ] final   62.46 input  -60.55 | X-H torsion
[ 11005 11000 10999 10996 ] final -162.62 input  -57.11 | X-H torsion

> <Gold.Protein.ActiveResidues>
 VAL166  LYS551  ARG553  GLY616  TRP617  ASP618  TYR619  PRO620  LYS621  CYS622 
 ASP623  PHE694  ASN695  SER759  ASP760  ASP761  ALA762  ILE779  LEU786  VAL792 
 PHE793  MET794  SER795  GLU796  ALA797  LYS798  CYS799  TRP800  GLU811  SER814 

> <Gold.Protein.RotatedAtoms>
  152.5452  134.1319  159.8442 H   0  0  0  0  0  0  0  0  0  0  0  0  # atno 6907 bound_to 6896
  151.1364  133.4994  159.2605 H   0  0  0  0  0  0  0  0  0  0  0  0  # atno 6908 bound_to 6896
  151.1620  135.0288  159.8769 H   0  0  0  0  0  0  0  0  0  0  0  0  # atno 6909 bound_to 6896
  145.7484  139.2749  143.1445 H   0  0  0  0  0  0  0  0  0  0  0  0  # atno 7974 bound_to 7965
  156.1029  140.3240  155.7967 H   0  0  0  0  0  0  0  0  0  0  0  0  # atno 8008 bound_to 7997
  155.4805  140.0553  157.2985 H   0  0  0  0  0  0  0  0  0  0  0  0  # atno 8009 bound_to 7997
  154.4709  140.2010  156.0013 H   0  0  0  0  0  0  0  0  0  0  0  0  # atno 8010 bound_to 7997
  140.5714  143.2318  151.6531 H   0  0  0  0  0  0  0  0  0  0  0  0  # atno 10167 bound_to 10162
  156.1308  130.6394  150.9618 H   0  0  0  0  0  0  0  0  0  0  0  0  # atno 10718 bound_to 10713
  152.9983  135.5464  154.6196 H   0  0  0  0  0  0  0  0  0  0  0  0  # atno 10763 bound_to 10752
  154.5498  135.2826  155.1021 H   0  0  0  0  0  0  0  0  0  0  0  0  # atno 10764 bound_to 10752
  154.2265  135.6441  153.5214 H   0  0  0  0  0  0  0  0  0  0  0  0  # atno 10765 bound_to 10752
  140.6072  134.4887  157.5212 H   0  0  0  0  0  0  0  0  0  0  0  0  # atno 11005 bound_to 11000
  146.0380  140.8193  142.9843 LP  0  0  0  0  0  0  0  0  0  0  0  0  # atno 17320 bound_to 7965
  144.6855  140.2868  143.7284 LP  0  0  0  0  0  0  0  0  0  0  0  0  # atno 17321 bound_to 7965
  139.5119  144.3492  152.0668 LP  0  0  0  0  0  0  0  0  0  0  0  0  # atno 17342 bound_to 10162
  140.2630  144.4046  150.6178 LP  0  0  0  0  0  0  0  0  0  0  0  0  # atno 17343 bound_to 10162
  157.6486  131.0900  150.8099 LP  0  0  0  0  0  0  0  0  0  0  0  0  # atno 17370 bound_to 10713
  156.8185  130.4976  149.5346 LP  0  0  0  0  0  0  0  0  0  0  0  0  # atno 17371 bound_to 10713
  139.9207  134.8154  156.1220 LP  0  0  0  0  0  0  0  0  0  0  0  0  # atno 17394 bound_to 11000
  141.0833  133.6745  156.2381 LP  0  0  0  0  0  0  0  0  0  0  0  0  # atno 17395 bound_to 11000

$$$$
