AV-unprocessed.smi:1648|AV-procd|sdf|6631|dock5
  -GOLD-   22720 7333D 1   1.00000     0.00000
 Structure written by MMmdl.
 41 41  0  0  0  0  0  0  0  0  1 V2000
  151.0406  138.0965  154.2425 C   0  0  0  0  0  0  0  0  0  0  0  0
  149.6271  138.4917  154.6747 C   0  0  0  0  0  0  0  0  0  0  0  0
  149.4784  139.2552  155.6260 O   0  0  0  0  0  0  0  0  0  0  0  0
  148.5707  137.9935  154.0086 N   0  0  0  0  0  0  0  0  0  0  0  0
  147.1506  138.2490  154.2665 C   0  0  2  0  0  0  0  0  0  0  0  0
  146.3615  136.9466  154.0321 C   0  0  0  0  0  0  0  0  0  0  0  0
  145.2588  136.7782  154.5551 O   0  0  0  0  0  0  0  0  0  0  0  0
  146.9554  136.0282  153.2539 N   0  0  0  0  0  0  0  0  0  0  0  0
  146.4013  134.7235  152.9063 C   0  0  2  0  0  0  0  0  0  0  0  0
  147.4319  133.6175  153.2001 C   0  0  0  0  0  0  0  0  0  0  0  0
  145.9410  134.7513  151.4353 C   0  0  0  0  0  0  0  0  0  0  0  0
  145.3397  133.5011  151.0098 N   0  0  0  0  0  0  0  0  0  0  0  0
  144.0086  133.2826  150.6804 C   0  0  0  0  0  0  0  0  0  0  0  0
  143.9017  131.9541  150.3360 C   0  0  0  0  0  0  0  0  0  0  0  0
  145.1477  131.3409  150.4410 N   0  0  0  0  0  0  0  0  0  0  0  0
  145.9492  132.3193  150.8419 C   0  0  0  0  0  0  0  0  0  0  0  0
  146.6544  139.3518  153.2848 C   0  0  0  0  0  0  0  0  0  0  0  0
  146.8067  138.9196  151.8127 C   0  0  0  0  0  0  0  0  0  0  0  0
  147.3640  140.7074  153.4866 C   0  0  0  0  0  0  0  0  0  0  0  0
  151.2238  138.3771  153.2054 H   0  0  0  0  0  0  0  0  0  0  0  0
  151.1913  137.0222  154.3485 H   0  0  0  0  0  0  0  0  0  0  0  0
  151.7845  138.6006  154.8602 H   0  0  0  0  0  0  0  0  0  0  0  0
  148.7711  137.3560  153.2516 H   0  0  0  0  0  0  0  0  0  0  0  0
  147.0087  138.5952  155.2918 H   0  0  0  0  0  0  0  0  0  0  0  0
  147.8642  136.2505  152.8741 H   0  0  0  0  0  0  0  0  0  0  0  0
  145.5207  134.5419  153.5257 H   0  0  0  0  0  0  0  0  0  0  0  0
  147.0205  132.6259  153.0105 H   0  0  0  0  0  0  0  0  0  0  0  0
  147.7472  133.6386  154.2436 H   0  0  0  0  0  0  0  0  0  0  0  0
  148.3228  133.7329  152.5817 H   0  0  0  0  0  0  0  0  0  0  0  0
  145.2094  135.5464  151.2837 H   0  0  0  0  0  0  0  0  0  0  0  0
  146.7834  134.9722  150.7778 H   0  0  0  0  0  0  0  0  0  0  0  0
  143.2683  134.0681  150.7199 H   0  0  0  0  0  0  0  0  0  0  0  0
  143.0313  131.3974  150.0219 H   0  0  0  0  0  0  0  0  0  0  0  0
  147.0040  132.1713  151.0214 H   0  0  0  0  0  0  0  0  0  0  0  0
  145.5894  139.5169  153.4586 H   0  0  0  0  0  0  0  0  0  0  0  0
  147.8472  138.6995  151.5717 H   0  0  0  0  0  0  0  0  0  0  0  0
  146.4696  139.7051  151.1357 H   0  0  0  0  0  0  0  0  0  0  0  0
  146.2172  138.0319  151.5837 H   0  0  0  0  0  0  0  0  0  0  0  0
  148.4452  140.6054  153.3874 H   0  0  0  0  0  0  0  0  0  0  0  0
  147.1574  141.1395  154.4659 H   0  0  0  0  0  0  0  0  0  0  0  0
  147.0325  141.4373  152.7476 H   0  0  0  0  0  0  0  0  0  0  0  0
  1  2  1  0  0  0  0
  1 20  1  0  0  0  0
  1 21  1  0  0  0  0
  1 22  1  0  0  0  0
  2  3  2  0  0  0  0
  2  4  1  0  0  0  0
  4  5  1  0  0  0  0
  4 23  1  0  0  0  0
  5  6  1  0  0  0  0
  5 17  1  0  0  0  0
  5 24  1  0  0  0  0
  6  7  2  0  0  0  0
  6  8  1  0  0  0  0
  8  9  1  0  0  0  0
  8 25  1  0  0  0  0
  9 10  1  0  0  0  0
  9 11  1  0  0  0  0
  9 26  1  0  0  0  0
 10 27  1  0  0  0  0
 10 28  1  0  0  0  0
 10 29  1  0  0  0  0
 11 12  1  0  0  0  0
 11 30  1  0  0  0  0
 11 31  1  0  0  0  0
 12 16  1  0  0  0  0
 12 13  1  0  0  0  0
 13 14  2  0  0  0  0
 13 32  1  0  0  0  0
 14 15  1  0  0  0  0
 14 33  1  0  0  0  0
 15 16  2  0  0  0  0
 16 34  1  0  0  0  0
 17 18  1  0  0  0  0
 17 19  1  0  0  0  0
 17 35  1  0  0  0  0
 18 36  1  0  0  0  0
 18 37  1  0  0  0  0
 18 38  1  0  0  0  0
 19 39  1  0  0  0  0
 19 40  1  0  0  0  0
 19 41  1  0  0  0  0
M  END
> <s_m_source_file>
AV-unprocessed.smi

> <i_m_source_file_index>
1648

> <i_lp_mmshare_version>
43012

> <i_f3d_flags>
0

> <s_epik_input>
W0NIM11DKD1PKVtOSF1bQ0BASF0oW0NIXShbQ0gzXSlbQ0gzXSlDKD1PKVtOSF1bQ0BIXShbQ0gzXSlbQ0gyXW4xW2NIXVtjSF1uW2NIXTE=

> <s_epik_cmdline>
J2VwaWtfcHl0aG9uJywgJy1waCcsICc3LjAnLCAnLXRuJywgJzgnLCAnLW1hJywgJzIwMCcsICctbWV0YWxfYmluZGluZycsICctaW1hZScsICc8aW5maWxlLm1hZT4nLCAnLW9tYWUnLCAnPG91dGZpbGUubWFlPic=

> <r_lp_tautomer_probability>
1

> <r_epik_Ionization_Penalty>
0.628885

> <r_epik_Ionization_Penalty_Charging>
0.628884

> <r_epik_Ionization_Penalty_Neutral>
4.35155e-07

> <r_epik_State_Penalty>
0.64556

> <r_epik_Charging_Adjusted_Penalty>
1.27444

> <i_epik_Tot_Q>
0

> <i_epik_Tot_abs_Q>
0

> <r_epik_Metal_State_Penalty>
0.30874

> <b_epik_Metal_Only>
0

> <s_lp_Force_Field>
OPLS_2005

> <r_lp_Energy>
10.0668

> <b_lp_Chiralities_Consistent>
1

> <s_lp_Variant>
AV-unprocessed.smi:1648-5

> <Gold.Version>
5.8.1

> <Gold.Id.Protein>
6NUR|6NUR_protein|mol2

> <Gold.PLP.Fitness>
43.8312

> <Gold.PLP.PLP>
-31.2982

> <Gold.PLP.part.hbond>
-1.7454

> <Gold.PLP.part.metal>
0.0000

> <Gold.PLP.part.buried>
-2.4928

> <Gold.PLP.part.nonpolar>
-27.9811

> <Gold.PLP.part.repulsive>
0.1721

> <Gold.PLP.ligand.clash>
0.0000

> <Gold.PLP.ligand.torsion>
1.1371

> <Gold.PLP.Chemscore.Hbond>
1.9263

> <Gold.PLP.Chemscore.CHOScore>
2.9831

> <Gold.PLP.Chemscore.Metal>
0.0000

> <Gold.Chemscore.Hbonds>
donor molecule, donor type, donor heavy atom, donor atom, acceptor molecule, acceptor atom, score
      L1  H     4    23       P1  7948  1.00
      L1  H     8    25       P1  7948  0.89
      L1  C    13    32       P1 10186  0.91
      L1  C    14    33       P1 10952  1.00
      L1  C    16    34       P1 10747  1.00

> <Gold.PLP.Chemscore.Internal.Correction>
0.0791

> <Gold.Rescore>
     Score         DG    S(hbond)    S(metal)    S(lipo)     H(rot)  DE(clash)    DE(int)     intcor
     12.82     -13.56       1.99        0.00      67.43       2.52       0.09       0.65       ----

> <Gold.Chemscore.Fitness>
12.8228

> <Gold.Chemscore.DG>
-13.5582

> <Gold.Chemscore.ZeroCoef>
-5.4800

> <Gold.Chemscore.Hbond>
1.9892

> <Gold.Chemscore.Metal>
0.0000

> <Gold.Chemscore.Lipo>
67.4304

> <Gold.Chemscore.Internal_Hbond>
0.0000

> <Gold.Chemscore.DEClash>
0.0903

> <Gold.Chemscore.DEInternal>
0.6450

> <Gold.Chemscore.Rot>
2.5216

> <Gold.Chemscore.Internal.Correction>
   9.000000E+99

> <Gold.Chemscore.Hbonds>
donor molecule, donor type, donor heavy atom, donor atom, acceptor molecule, acceptor atom, score
      L1  H     4    23       P1  7948  1.00
      L1  H     8    25       P1  7948  0.84

> <Gold.Chemscore.Hbond.Weighted>
-6.6441

> <Gold.Chemscore.Metal.Weighted>
-0.0000

> <Gold.Chemscore.Lipo.Weighted>
-7.8894

> <Gold.Chemscore.Internal_Hbond.Weighted>
0.0000

> <Gold.Chemscore.DEClash.Weighted>
0.0903

> <Gold.Chemscore.DEInternal.Weighted>
0.6450

> <Gold.Chemscore.Rot.Weighted>
6.4553

> <Gold.Chemscore.Internal.Correction.Weighted>
   9.000000E+99

> <Gold.Protein.RotatedTorsions>
[ 6907 6896 6895 6894 ] final   -0.63 input  -60.11 | X-H torsion
[ 7974 7965 7964 7962 ] final   77.39 input  175.53 | X-H torsion
[ 8008 7997 7996 7995 ] final  -85.78 input   59.86 | X-H torsion
[ 10167 10162 10161 10158 ] final   20.89 input  -65.29 | X-H torsion
[ 10718 10713 10712 10709 ] final   34.07 input   66.30 | X-H torsion
[ 10763 10752 10751 10750 ] final   48.61 input  -60.55 | X-H torsion
[ 11005 11000 10999 10996 ] final -115.47 input  -57.11 | X-H torsion

> <Gold.Protein.ActiveResidues>
 VAL166  LYS551  ARG553  GLY616  TRP617  ASP618  TYR619  PRO620  LYS621  CYS622 
 ASP623  PHE694  ASN695  SER759  ASP760  ASP761  ALA762  ILE779  LEU786  VAL792 
 PHE793  MET794  SER795  GLU796  ALA797  LYS798  CYS799  TRP800  GLU811  SER814 

> <Gold.Protein.RotatedAtoms>
  151.5592  135.1066  159.9968 H   0  0  0  0  0  0  0  0  0  0  0  0  # atno 6907 bound_to 6896
  152.4455  133.7523  159.6711 H   0  0  0  0  0  0  0  0  0  0  0  0  # atno 6908 bound_to 6896
  150.8369  133.7931  159.3100 H   0  0  0  0  0  0  0  0  0  0  0  0  # atno 6909 bound_to 6896
  145.6906  139.2551  143.1762 H   0  0  0  0  0  0  0  0  0  0  0  0  # atno 7974 bound_to 7965
  154.6446  140.0587  156.9885 H   0  0  0  0  0  0  0  0  0  0  0  0  # atno 8008 bound_to 7997
  155.1465  140.3270  155.4422 H   0  0  0  0  0  0  0  0  0  0  0  0  # atno 8009 bound_to 7997
  156.2547  140.1955  156.6578 H   0  0  0  0  0  0  0  0  0  0  0  0  # atno 8010 bound_to 7997
  140.5469  143.9578  150.6553 H   0  0  0  0  0  0  0  0  0  0  0  0  # atno 10167 bound_to 10162
  157.3057  130.7373  149.6694 H   0  0  0  0  0  0  0  0  0  0  0  0  # atno 10718 bound_to 10713
  152.9791  135.5938  154.3955 H   0  0  0  0  0  0  0  0  0  0  0  0  # atno 10763 bound_to 10752
  154.3606  135.2767  155.2324 H   0  0  0  0  0  0  0  0  0  0  0  0  # atno 10764 bound_to 10752
  154.4323  135.6033  153.6131 H   0  0  0  0  0  0  0  0  0  0  0  0  # atno 10765 bound_to 10752
  141.0485  133.9724  157.2876 H   0  0  0  0  0  0  0  0  0  0  0  0  # atno 11005 bound_to 11000
  146.0885  140.7683  142.9607 LP  0  0  0  0  0  0  0  0  0  0  0  0  # atno 17320 bound_to 7965
  144.6998  140.3600  143.7165 LP  0  0  0  0  0  0  0  0  0  0  0  0  # atno 17321 bound_to 7965
  140.2994  143.3271  152.0986 LP  0  0  0  0  0  0  0  0  0  0  0  0  # atno 17342 bound_to 10162
  139.5011  144.6706  151.6251 LP  0  0  0  0  0  0  0  0  0  0  0  0  # atno 17343 bound_to 10162
  155.9674  130.4266  150.4708 LP  0  0  0  0  0  0  0  0  0  0  0  0  # atno 17370 bound_to 10713
  157.2697  131.0584  151.2267 LP  0  0  0  0  0  0  0  0  0  0  0  0  # atno 17371 bound_to 10713
  139.9331  135.0198  156.8467 LP  0  0  0  0  0  0  0  0  0  0  0  0  # atno 17394 bound_to 11000
  140.6100  134.0091  155.7573 LP  0  0  0  0  0  0  0  0  0  0  0  0  # atno 17395 bound_to 11000

$$$$
