AV-unprocessed.smi:193|AV-procd|sdf|1509|dock4
  -GOLD-   2262019343D 1   1.00000     0.00000
 Structure written by MMmdl.
 62 66  0  0  0  0  0  0  0  0  2 V2000
  146.6178  135.6333  156.1368 C   0  0  0  0  0  0  0  0  0  0  0  0
  146.3685  136.2767  154.7639 C   0  0  1  0  0  0  0  0  0  0  0  0
  147.4045  137.3836  154.4857 C   0  0  0  0  0  0  0  0  0  0  0  0
  146.8678  138.4283  153.6101 N   0  0  0  0  0  0  0  0  0  0  0  0
  147.3550  139.6800  153.7942 C   0  0  0  0  0  0  0  0  0  0  0  0
  146.6461  140.7564  153.3610 N   0  0  0  0  0  0  0  0  0  0  0  0
  147.1138  141.9928  153.5599 C   0  0  0  0  0  0  0  0  0  0  0  0
  148.2432  142.3711  154.1621 N   0  0  0  0  0  0  0  0  0  0  0  0
  148.9566  141.2937  154.5989 C   0  0  0  0  0  0  0  0  0  0  0  0
  148.5888  139.9268  154.4562 C   0  0  0  0  0  0  0  0  0  0  0  0
  149.5636  139.1098  155.0155 N   0  0  0  0  0  0  0  0  0  0  0  0
  150.4549  139.9477  155.4709 C   0  0  0  0  0  0  0  0  0  0  0  0
  150.1655  141.2792  155.2724 N   0  0  0  0  0  0  0  0  0  0  0  0
  150.9757  142.4153  155.6839 C   0  0  0  0  0  0  0  0  0  0  0  0
  150.7934  142.8071  157.1711 C   0  0  0  0  0  0  0  0  0  0  0  0
  149.4020  142.8466  157.4392 O   0  0  0  0  0  0  0  0  0  0  0  0
  151.4340  141.7479  158.0899 C   0  0  0  0  0  0  0  0  0  0  0  0
  151.4228  142.1790  159.5672 C   0  0  0  0  0  0  0  0  0  0  0  0
  152.0644  143.4402  159.7106 O   0  0  0  0  0  0  0  0  0  0  0  0
  151.3942  144.4814  159.0104 C   0  0  0  0  0  0  0  0  0  0  0  0
  151.3943  144.1918  157.4987 C   0  0  0  0  0  0  0  0  0  0  0  0
  146.5935  138.1291  152.2057 C   0  0  0  0  0  0  0  0  0  0  0  0
  145.6731  136.9169  151.9988 C   0  0  0  0  0  0  0  0  0  0  0  0
  146.4052  135.6579  152.2731 N   0  3  2  0  0  0  0  0  0  0  0  0
  146.0689  134.5851  151.3105 C   0  0  1  0  0  0  0  0  0  0  0  0
  146.5023  133.2113  151.7666 C   0  0  0  0  0  0  0  0  0  0  0  0
  145.0407  133.6013  151.8239 C   0  0  2  0  0  0  0  0  0  0  0  0
  144.0450  132.9639  150.8803 C   0  0  0  0  0  0  0  0  0  0  0  0
  146.3208  135.1775  153.6768 C   0  0  0  0  0  0  0  0  0  0  0  0
  147.6019  135.1661  156.1849 H   0  0  0  0  0  0  0  0  0  0  0  0
  145.8734  134.8664  156.3536 H   0  0  0  0  0  0  0  0  0  0  0  0
  146.5630  136.3746  156.9346 H   0  0  0  0  0  0  0  0  0  0  0  0
  145.3854  136.7464  154.8265 H   0  0  0  0  0  0  0  0  0  0  0  0
  147.6830  137.8393  155.4375 H   0  0  0  0  0  0  0  0  0  0  0  0
  148.3192  136.9657  154.0631 H   0  0  0  0  0  0  0  0  0  0  0  0
  146.4930  142.7938  153.1859 H   0  0  0  0  0  0  0  0  0  0  0  0
  151.3521  139.6169  155.9737 H   0  0  0  0  0  0  0  0  0  0  0  0
  152.0208  142.1778  155.4802 H   0  0  0  0  0  0  0  0  0  0  0  0
  150.7270  143.2602  155.0405 H   0  0  0  0  0  0  0  0  0  0  0  0
  149.0081  143.5008  156.8824 H   0  0  0  0  0  0  0  0  0  0  0  0
  150.9296  140.7875  157.9766 H   0  0  0  0  0  0  0  0  0  0  0  0
  152.4691  141.5858  157.7866 H   0  0  0  0  0  0  0  0  0  0  0  0
  150.4044  142.2292  159.9559 H   0  0  0  0  0  0  0  0  0  0  0  0
  151.9541  141.4448  160.1730 H   0  0  0  0  0  0  0  0  0  0  0  0
  150.3773  144.5937  159.3893 H   0  0  0  0  0  0  0  0  0  0  0  0
  151.9085  145.4222  159.2077 H   0  0  0  0  0  0  0  0  0  0  0  0
  152.4235  144.2300  157.1398 H   0  0  0  0  0  0  0  0  0  0  0  0
  150.8577  144.9839  156.9751 H   0  0  0  0  0  0  0  0  0  0  0  0
  146.1220  138.9914  151.7333 H   0  0  0  0  0  0  0  0  0  0  0  0
  147.5375  137.9771  151.6803 H   0  0  0  0  0  0  0  0  0  0  0  0
  144.7526  136.9891  152.5795 H   0  0  0  0  0  0  0  0  0  0  0  0
  145.3633  136.9265  150.9528 H   0  0  0  0  0  0  0  0  0  0  0  0
  146.1056  134.8528  150.2557 H   0  0  0  0  0  0  0  0  0  0  0  0
  146.8059  132.5024  150.9987 H   0  0  0  0  0  0  0  0  0  0  0  0
  147.0354  133.1261  152.7120 H   0  0  0  0  0  0  0  0  0  0  0  0
  144.6385  133.7858  152.8187 H   0  0  0  0  0  0  0  0  0  0  0  0
  144.4959  132.7834  149.9040 H   0  0  0  0  0  0  0  0  0  0  0  0
  143.1828  133.6176  150.7493 H   0  0  0  0  0  0  0  0  0  0  0  0
  143.7021  132.0119  151.2857 H   0  0  0  0  0  0  0  0  0  0  0  0
  147.1414  134.4751  153.8284 H   0  0  0  0  0  0  0  0  0  0  0  0
  145.4013  134.6040  153.8042 H   0  0  0  0  0  0  0  0  0  0  0  0
  147.3775  135.8773  152.1088 H   0  0  0  0  0  0  0  0  0  0  0  0
  1  2  1  0  0  0  0
  1 30  1  0  0  0  0
  1 31  1  0  0  0  0
  1 32  1  0  0  0  0
  2 29  1  0  0  0  0
  2  3  1  0  0  0  0
  2 33  1  0  0  0  0
  3  4  1  0  0  0  0
  3 34  1  0  0  0  0
  3 35  1  0  0  0  0
  4  5  1  0  0  0  0
  4 22  1  0  0  0  0
  5 10  1  0  0  0  0
  5  6  2  0  0  0  0
  6  7  1  0  0  0  0
  7  8  2  0  0  0  0
  7 36  1  0  0  0  0
  8  9  1  0  0  0  0
  9 13  1  0  0  0  0
  9 10  2  0  0  0  0
 10 11  1  0  0  0  0
 11 12  2  0  0  0  0
 12 13  1  0  0  0  0
 12 37  1  0  0  0  0
 13 14  1  0  0  0  0
 14 15  1  0  0  0  0
 14 38  1  0  0  0  0
 14 39  1  0  0  0  0
 15 21  1  0  0  0  0
 15 16  1  0  0  0  0
 15 17  1  0  0  0  0
 16 40  1  0  0  0  0
 17 18  1  0  0  0  0
 17 41  1  0  0  0  0
 17 42  1  0  0  0  0
 18 19  1  0  0  0  0
 18 43  1  0  0  0  0
 18 44  1  0  0  0  0
 19 20  1  0  0  0  0
 20 21  1  0  0  0  0
 20 45  1  0  0  0  0
 20 46  1  0  0  0  0
 21 47  1  0  0  0  0
 21 48  1  0  0  0  0
 22 23  1  0  0  0  0
 22 49  1  0  0  0  0
 22 50  1  0  0  0  0
 23 24  1  0  0  0  0
 23 51  1  0  0  0  0
 23 52  1  0  0  0  0
 24 25  1  0  0  0  0
 24 29  1  0  0  0  0
 24 62  1  0  0  0  0
 25 27  1  0  0  0  0
 25 26  1  0  0  0  0
 25 53  1  0  0  0  0
 26 27  1  0  0  0  0
 26 54  1  0  0  0  0
 26 55  1  0  0  0  0
 27 28  1  0  0  0  0
 27 56  1  0  0  0  0
 28 57  1  0  0  0  0
 28 58  1  0  0  0  0
 28 59  1  0  0  0  0
 29 60  1  0  0  0  0
 29 61  1  0  0  0  0
M  CHG  1  24   1
M  END
> <s_m_source_file>
AV-unprocessed.smi

> <i_m_source_file_index>
193

> <i_lp_mmshare_version>
43012

> <i_f3d_flags>
0

> <s_epik_input>
W0NIM11bQ0BASF0xW0NIMl1bQ0BIXTFOKFtDSDJdMilbQ0gyXVtDSDJdTihbQ0gyXVtDQEhdMltDSDNdKWMobltjSF1uMyljKGMzNCluW2NIXW40W0NIMl1DNShbT0hdKVtDSDJdW0NIMl1PW0NIMl1bQ0gyXTU=

> <s_epik_cmdline>
J2VwaWtfcHl0aG9uJywgJy1waCcsICc3LjAnLCAnLXRuJywgJzgnLCAnLW1hJywgJzIwMCcsICctbWV0YWxfYmluZGluZycsICctaW1hZScsICc8aW5maWxlLm1hZT4nLCAnLW9tYWUnLCAnPG91dGZpbGUubWFlPic=

> <r_lp_tautomer_probability>
1

> <r_epik_Ionization_Penalty>
0.0540825

> <r_epik_Ionization_Penalty_Charging>
0.0538476

> <r_epik_Ionization_Penalty_Neutral>
0.000234891

> <r_epik_State_Penalty>
0.0200719

> <r_epik_Charging_Adjusted_Penalty>
0.0739194

> <i_epik_Tot_Q>
1

> <i_epik_Tot_abs_Q>
1

> <r_epik_Metal_State_Penalty>
0.0199414

> <b_epik_Metal_Only>
0

> <s_lp_Force_Field>
OPLS_2005

> <r_lp_Energy>
55.1026

> <b_lp_Chiralities_Consistent>
1

> <s_lp_Variant>
AV-unprocessed.smi:193-14

> <Gold.Version>
5.8.1

> <Gold.Id.Protein>
6NUR|6NUR_protein|mol2

> <Gold.PLP.Fitness>
49.8543

> <Gold.PLP.PLP>
-41.8788

> <Gold.PLP.part.hbond>
-2.9399

> <Gold.PLP.part.metal>
0.0000

> <Gold.PLP.part.buried>
-3.9962

> <Gold.PLP.part.nonpolar>
-37.2647

> <Gold.PLP.part.repulsive>
2.9555

> <Gold.PLP.ligand.clash>
0.1361

> <Gold.PLP.ligand.torsion>
1.3596

> <Gold.PLP.Chemscore.Hbond>
3.0000

> <Gold.PLP.Chemscore.CHOScore>
0.0000

> <Gold.PLP.Chemscore.Metal>
0.0000

> <Gold.Chemscore.Hbonds>
donor molecule, donor type, donor heavy atom, donor atom, acceptor molecule, acceptor atom, score
      L1  H    16    40       P1  8028  1.00
      L1  H    24    62       P1  7948  2.00
      P1  H  8011  8017       L1     8  0.01

> <Gold.PLP.Chemscore.Internal.Correction>
1.8307

> <Gold.Rescore>
     Score         DG    S(hbond)    S(metal)    S(lipo)     H(rot)  DE(clash)    DE(int)     intcor
     12.96     -17.82       1.91        0.00      99.00       2.20       2.12       2.74       ----

> <Gold.Chemscore.Fitness>
12.9594

> <Gold.Chemscore.DG>
-17.8183

> <Gold.Chemscore.ZeroCoef>
-5.4800

> <Gold.Chemscore.Hbond>
1.9137

> <Gold.Chemscore.Metal>
0.0000

> <Gold.Chemscore.Lipo>
99.0012

> <Gold.Chemscore.Internal_Hbond>
0.0000

> <Gold.Chemscore.DEClash>
2.1203

> <Gold.Chemscore.DEInternal>
2.7386

> <Gold.Chemscore.Rot>
2.2018

> <Gold.Chemscore.Internal.Correction>
   9.000000E+99

> <Gold.Chemscore.Hbonds>
donor molecule, donor type, donor heavy atom, donor atom, acceptor molecule, acceptor atom, score
      L1  H    16    40       P1  8028  0.74
      L1  H    24    62       P1  7948  0.99
      P1  H  8022  8030       L1     8  0.02

> <Gold.Chemscore.Hbond.Weighted>
-6.3918

> <Gold.Chemscore.Metal.Weighted>
-0.0000

> <Gold.Chemscore.Lipo.Weighted>
-11.5831

> <Gold.Chemscore.Internal_Hbond.Weighted>
0.0000

> <Gold.Chemscore.DEClash.Weighted>
2.1203

> <Gold.Chemscore.DEInternal.Weighted>
2.7386

> <Gold.Chemscore.Rot.Weighted>
5.6366

> <Gold.Chemscore.Internal.Correction.Weighted>
   9.000000E+99

> <Gold.Protein.RotatedTorsions>
[ 6907 6896 6895 6894 ] final -144.63 input  -60.11 | X-H torsion
[ 7974 7965 7964 7962 ] final  106.87 input  175.53 | X-H torsion
[ 8008 7997 7996 7995 ] final   -2.14 input   59.86 | X-H torsion
[ 10167 10162 10161 10158 ] final  138.04 input  -65.29 | X-H torsion
[ 10718 10713 10712 10709 ] final   -9.38 input   66.30 | X-H torsion
[ 10763 10752 10751 10750 ] final  -46.09 input  -60.55 | X-H torsion
[ 11005 11000 10999 10996 ] final  -30.51 input  -57.11 | X-H torsion

> <Gold.Protein.ActiveResidues>
 VAL166  LYS551  ARG553  GLY616  TRP617  ASP618  TYR619  PRO620  LYS621  CYS622 
 ASP623  PHE694  ASN695  SER759  ASP760  ASP761  ALA762  ILE779  LEU786  VAL792 
 PHE793  MET794  SER795  GLU796  ALA797  LYS798  CYS799  TRP800  GLU811  SER814 

> <Gold.Protein.RotatedAtoms>
  151.1166  133.5134  159.2603 H   0  0  0  0  0  0  0  0  0  0  0  0  # atno 6907 bound_to 6896
  151.1908  135.0401  159.8841 H   0  0  0  0  0  0  0  0  0  0  0  0  # atno 6908 bound_to 6896
  152.5453  134.1007  159.8370 H   0  0  0  0  0  0  0  0  0  0  0  0  # atno 6909 bound_to 6896
  145.3010  139.2569  143.3814 H   0  0  0  0  0  0  0  0  0  0  0  0  # atno 7974 bound_to 7965
  154.6390  140.2542  155.7344 H   0  0  0  0  0  0  0  0  0  0  0  0  # atno 8008 bound_to 7997
  156.2519  140.2891  156.0696 H   0  0  0  0  0  0  0  0  0  0  0  0  # atno 8009 bound_to 7997
  155.1626  140.0384  157.2836 H   0  0  0  0  0  0  0  0  0  0  0  0  # atno 8010 bound_to 7997
  139.5124  144.6376  151.5656 H   0  0  0  0  0  0  0  0  0  0  0  0  # atno 10167 bound_to 10162
  156.6889  130.5059  149.5949 H   0  0  0  0  0  0  0  0  0  0  0  0  # atno 10718 bound_to 10713
  154.0392  135.6646  153.4788 H   0  0  0  0  0  0  0  0  0  0  0  0  # atno 10763 bound_to 10752
  153.0508  135.5085  154.7858 H   0  0  0  0  0  0  0  0  0  0  0  0  # atno 10764 bound_to 10752
  154.6829  135.3048  154.9554 H   0  0  0  0  0  0  0  0  0  0  0  0  # atno 10765 bound_to 10752
  140.9388  133.7291  156.1045 H   0  0  0  0  0  0  0  0  0  0  0  0  # atno 11005 bound_to 11000
  146.3152  140.3524  142.8657 LP  0  0  0  0  0  0  0  0  0  0  0  0  # atno 17320 bound_to 7965
  144.9094  140.7739  143.5817 LP  0  0  0  0  0  0  0  0  0  0  0  0  # atno 17321 bound_to 7965
  140.6130  143.9400  150.6467 LP  0  0  0  0  0  0  0  0  0  0  0  0  # atno 17342 bound_to 10162
  140.2649  143.3497  152.1289 LP  0  0  0  0  0  0  0  0  0  0  0  0  # atno 17343 bound_to 10162
  156.1812  130.6500  151.0953 LP  0  0  0  0  0  0  0  0  0  0  0  0  # atno 17370 bound_to 10713
  157.7016  131.0773  150.6802 LP  0  0  0  0  0  0  0  0  0  0  0  0  # atno 17371 bound_to 10713
  140.7762  134.3777  157.5497 LP  0  0  0  0  0  0  0  0  0  0  0  0  # atno 17394 bound_to 11000
  139.8815  134.9053  156.2896 LP  0  0  0  0  0  0  0  0  0  0  0  0  # atno 17395 bound_to 11000

$$$$
