AV-unprocessed.smi:278|AV-procd|sdf|2094|dock6
  -GOLD-   2262021373D 1   1.00000     0.00000
 Structure written by MMmdl.
 50 54  0  0  0  0  0  0  0  0  1 V2000
  152.9467  140.0208  155.2540 O   0  0  0  0  0  0  0  0  0  0  0  0
  151.6832  139.5999  155.8782 S   0  0  0  0  0  0  0  0  0  0  0  0
  151.1726  138.2326  155.6931 O   0  0  0  0  0  0  0  0  0  0  0  0
  151.7515  139.9745  157.6733 C   0  0  0  0  0  0  0  0  0  0  0  0
  150.9177  141.2458  157.8804 C   0  0  0  0  0  0  0  0  0  0  0  0
  149.8194  141.3110  156.8035 C   0  0  2  0  0  0  0  0  0  0  0  0
  148.6496  140.3513  157.0474 C   0  0  0  0  0  0  0  0  0  0  0  0
  148.1451  140.0227  155.7217 N   0  0  0  0  0  0  0  0  0  0  0  0
  147.1764  139.0857  155.5471 C   0  0  0  0  0  0  0  0  0  0  0  0
  146.5641  138.5672  156.6451 N   0  0  0  0  0  0  0  0  0  0  0  0
  145.6047  137.6463  156.5183 C   0  0  0  0  0  0  0  0  0  0  0  0
  145.1031  137.1130  155.4037 N   0  0  0  0  0  0  0  0  0  0  0  0
  145.7015  137.6354  154.2959 C   0  0  0  0  0  0  0  0  0  0  0  0
  146.7353  138.6159  154.2741 C   0  0  0  0  0  0  0  0  0  0  0  0
  147.0759  138.9024  152.9557 N   0  0  0  0  0  0  0  0  0  0  0  0
  146.2971  138.1343  152.2445 C   0  0  0  0  0  0  0  0  0  0  0  0
  145.4383  137.3423  152.9701 N   0  0  0  0  0  0  0  0  0  0  0  0
  144.4629  136.4041  152.4443 C   0  0  0  0  0  0  0  0  0  0  0  0
  144.6944  134.9699  152.9590 C   0  0  1  0  0  0  0  0  0  0  0  0
  143.4769  134.3878  153.3868 O   0  0  0  0  0  0  0  0  0  0  0  0
  145.3822  134.0617  151.9203 C   0  0  1  0  0  0  0  0  0  0  0  0
  145.6296  132.6086  152.3616 C   0  0  0  0  0  0  0  0  0  0  0  0
  144.8896  131.7855  151.3223 C   0  0  0  0  0  0  0  0  0  0  0  0
  144.8374  132.7258  150.1255 C   0  0  0  0  0  0  0  0  0  0  0  0
  144.6117  133.9916  150.7234 O   0  0  0  0  0  0  0  0  0  0  0  0
  149.1825  140.2237  154.7187 C   0  0  0  0  0  0  0  0  0  0  0  0
  150.3793  140.8348  155.4619 C   0  0  2  0  0  0  0  0  0  0  0  0
  149.4303  142.3254  156.7052 H   0  0  0  0  0  0  0  0  0  0  0  0
  150.8477  141.6441  154.9013 H   0  0  0  0  0  0  0  0  0  0  0  0
  151.3132  139.1321  158.2087 H   0  0  0  0  0  0  0  0  0  0  0  0
  152.7867  140.0878  157.9955 H   0  0  0  0  0  0  0  0  0  0  0  0
  150.5051  141.2988  158.8884 H   0  0  0  0  0  0  0  0  0  0  0  0
  151.5697  142.1118  157.7609 H   0  0  0  0  0  0  0  0  0  0  0  0
  148.9846  139.4379  157.5405 H   0  0  0  0  0  0  0  0  0  0  0  0
  147.8787  140.8107  157.6669 H   0  0  0  0  0  0  0  0  0  0  0  0
  145.1765  137.2870  157.4424 H   0  0  0  0  0  0  0  0  0  0  0  0
  146.3239  138.1286  151.1646 H   0  0  0  0  0  0  0  0  0  0  0  0
  143.4649  136.7539  152.7117 H   0  0  0  0  0  0  0  0  0  0  0  0
  144.5207  136.4278  151.3554 H   0  0  0  0  0  0  0  0  0  0  0  0
  145.3392  135.0191  153.8374 H   0  0  0  0  0  0  0  0  0  0  0  0
  143.6781  133.6032  153.8739 H   0  0  0  0  0  0  0  0  0  0  0  0
  146.3431  134.5045  151.6528 H   0  0  0  0  0  0  0  0  0  0  0  0
  146.6972  132.3881  152.3281 H   0  0  0  0  0  0  0  0  0  0  0  0
  145.2831  132.3921  153.3726 H   0  0  0  0  0  0  0  0  0  0  0  0
  145.3786  130.8369  151.0995 H   0  0  0  0  0  0  0  0  0  0  0  0
  143.8773  131.5744  151.6694 H   0  0  0  0  0  0  0  0  0  0  0  0
  145.7903  132.7357  149.5941 H   0  0  0  0  0  0  0  0  0  0  0  0
  144.0486  132.4675  149.4187 H   0  0  0  0  0  0  0  0  0  0  0  0
  149.4485  139.3009  154.2029 H   0  0  0  0  0  0  0  0  0  0  0  0
  148.8079  140.9252  153.9729 H   0  0  0  0  0  0  0  0  0  0  0  0
  1  2  2  0  0  0  0
  2 27  1  0  0  0  0
  2  3  2  0  0  0  0
  2  4  1  0  0  0  0
  4  5  1  0  0  0  0
  4 30  1  0  0  0  0
  4 31  1  0  0  0  0
  5  6  1  0  0  0  0
  5 32  1  0  0  0  0
  5 33  1  0  0  0  0
  6 28  1  0  0  0  0
  6 27  1  0  0  0  0
  6  7  1  0  0  0  0
  7  8  1  0  0  0  0
  7 34  1  0  0  0  0
  7 35  1  0  0  0  0
  8  9  1  0  0  0  0
  8 26  1  0  0  0  0
  9 14  1  0  0  0  0
  9 10  2  0  0  0  0
 10 11  1  0  0  0  0
 11 12  2  0  0  0  0
 11 36  1  0  0  0  0
 12 13  1  0  0  0  0
 13 17  1  0  0  0  0
 13 14  2  0  0  0  0
 14 15  1  0  0  0  0
 15 16  2  0  0  0  0
 16 17  1  0  0  0  0
 16 37  1  0  0  0  0
 17 18  1  0  0  0  0
 18 19  1  0  0  0  0
 18 38  1  0  0  0  0
 18 39  1  0  0  0  0
 19 20  1  0  0  0  0
 19 21  1  0  0  0  0
 19 40  1  0  0  0  0
 20 41  1  0  0  0  0
 21 25  1  0  0  0  0
 21 22  1  0  0  0  0
 21 42  1  0  0  0  0
 22 23  1  0  0  0  0
 22 43  1  0  0  0  0
 22 44  1  0  0  0  0
 23 24  1  0  0  0  0
 23 45  1  0  0  0  0
 23 46  1  0  0  0  0
 24 25  1  0  0  0  0
 24 47  1  0  0  0  0
 24 48  1  0  0  0  0
 26 27  1  0  0  0  0
 26 49  1  0  0  0  0
 26 50  1  0  0  0  0
 27 29  1  0  0  0  0
M  END
> <s_m_source_file>
AV-unprocessed.smi

> <i_m_source_file_index>
278

> <i_lp_mmshare_version>
43012

> <i_f3d_flags>
0

> <s_epik_input>
W0NIMl0xW0NIMl1TKD1PKSg9TylbQ0BASF0oW0NAQEhdMTIpW0NIMl1OKFtDSDJdMiljKG5bY0hdbjMpYyhjMzQpbltjSF1uNFtDSDJdW0NASF0oW09IXSlbQ0BASF01W0NIMl1bQ0gyXVtDSDJdTzU=

> <s_epik_cmdline>
J2VwaWtfcHl0aG9uJywgJy1waCcsICc3LjAnLCAnLXRuJywgJzgnLCAnLW1hJywgJzIwMCcsICctbWV0YWxfYmluZGluZycsICctaW1hZScsICc8aW5maWxlLm1hZT4nLCAnLW9tYWUnLCAnPG91dGZpbGUubWFlPic=

> <r_lp_tautomer_probability>
1

> <r_epik_Ionization_Penalty>
0.000636766

> <r_epik_Ionization_Penalty_Charging>
0

> <r_epik_Ionization_Penalty_Neutral>
0.000636766

> <r_epik_State_Penalty>
0.000329976

> <r_epik_Charging_Adjusted_Penalty>
0.000329976

> <i_epik_Tot_Q>
0

> <i_epik_Tot_abs_Q>
0

> <r_epik_Metal_State_Penalty>
-0

> <b_epik_Metal_Only>
0

> <s_lp_Force_Field>
OPLS_2005

> <r_lp_Energy>
51.0774

> <b_lp_Chiralities_Consistent>
1

> <s_lp_Variant>
AV-unprocessed.smi:278-8

> <Gold.Version>
5.8.1

> <Gold.Id.Protein>
6NUR|6NUR_protein|mol2

> <Gold.PLP.Fitness>
40.9132

> <Gold.PLP.PLP>
-33.5049

> <Gold.PLP.part.hbond>
-2.9709

> <Gold.PLP.part.metal>
0.0000

> <Gold.PLP.part.buried>
-6.6783

> <Gold.PLP.part.nonpolar>
-26.0229

> <Gold.PLP.part.repulsive>
0.5646

> <Gold.PLP.ligand.clash>
0.0000

> <Gold.PLP.ligand.torsion>
0.7966

> <Gold.PLP.Chemscore.Hbond>
2.0254

> <Gold.PLP.Chemscore.CHOScore>
0.8900

> <Gold.PLP.Chemscore.Metal>
0.0000

> <Gold.Chemscore.Hbonds>
donor molecule, donor type, donor heavy atom, donor atom, acceptor molecule, acceptor atom, score
      L1  H    20    41       P1 10957  0.29
      P1  H  7989  7998       L1     1  0.05
      P1  H  7997  8010       L1     1  1.00
      L1  C    16    37       P1 10171  0.19

> <Gold.PLP.Chemscore.Internal.Correction>
0.2552

> <Gold.Rescore>
     Score         DG    S(hbond)    S(metal)    S(lipo)     H(rot)  DE(clash)    DE(int)     intcor
     13.46     -14.07       1.95        0.00      64.43       2.13       0.00       0.61       ----

> <Gold.Chemscore.Fitness>
13.4603

> <Gold.Chemscore.DG>
-14.0680

> <Gold.Chemscore.ZeroCoef>
-5.4800

> <Gold.Chemscore.Hbond>
1.9504

> <Gold.Chemscore.Metal>
0.0000

> <Gold.Chemscore.Lipo>
64.4312

> <Gold.Chemscore.Internal_Hbond>
0.0000

> <Gold.Chemscore.DEClash>
0.0000

> <Gold.Chemscore.DEInternal>
0.6077

> <Gold.Chemscore.Rot>
2.1346

> <Gold.Chemscore.Internal.Correction>
   9.000000E+99

> <Gold.Chemscore.Hbonds>
donor molecule, donor type, donor heavy atom, donor atom, acceptor molecule, acceptor atom, score
      L1  H    20    41       P1 10957  0.29
      P1  H  7997  8010       L1     1  1.00

> <Gold.Chemscore.Hbond.Weighted>
-6.5142

> <Gold.Chemscore.Metal.Weighted>
-0.0000

> <Gold.Chemscore.Lipo.Weighted>
-7.5384

> <Gold.Chemscore.Internal_Hbond.Weighted>
0.0000

> <Gold.Chemscore.DEClash.Weighted>
0.0000

> <Gold.Chemscore.DEInternal.Weighted>
0.6077

> <Gold.Chemscore.Rot.Weighted>
5.4646

> <Gold.Chemscore.Internal.Correction.Weighted>
   9.000000E+99

> <Gold.Protein.RotatedTorsions>
[ 6907 6896 6895 6894 ] final -103.56 input  -60.11 | X-H torsion
[ 7974 7965 7964 7962 ] final -129.67 input  175.53 | X-H torsion
[ 8008 7997 7996 7995 ] final  106.96 input   59.86 | X-H torsion
[ 10167 10162 10161 10158 ] final -140.58 input  -65.29 | X-H torsion
[ 10718 10713 10712 10709 ] final  143.42 input   66.30 | X-H torsion
[ 10763 10752 10751 10750 ] final   37.39 input  -60.55 | X-H torsion
[ 11005 11000 10999 10996 ] final   36.77 input  -57.11 | X-H torsion

> <Gold.Protein.ActiveResidues>
 VAL166  LYS551  ARG553  GLY616  TRP617  ASP618  TYR619  PRO620  LYS621  CYS622 
 ASP623  PHE694  ASN695  SER759  ASP760  ASP761  ALA762  ILE779  LEU786  VAL792 
 PHE793  MET794  SER795  GLU796  ALA797  LYS798  CYS799  TRP800  GLU811  SER814 

> <Gold.Protein.RotatedAtoms>
  150.7246  134.0411  159.3765 H   0  0  0  0  0  0  0  0  0  0  0  0  # atno 6907 bound_to 6896
  151.8385  135.0596  160.0454 H   0  0  0  0  0  0  0  0  0  0  0  0  # atno 6908 bound_to 6896
  152.2881  133.5498  159.5576 H   0  0  0  0  0  0  0  0  0  0  0  0  # atno 6909 bound_to 6896
  144.9549  140.7385  143.4765 H   0  0  0  0  0  0  0  0  0  0  0  0  # atno 7974 bound_to 7965
  156.1786  140.3103  155.9105 H   0  0  0  0  0  0  0  0  0  0  0  0  # atno 8008 bound_to 7997
  155.3434  140.0467  157.3062 H   0  0  0  0  0  0  0  0  0  0  0  0  # atno 8009 bound_to 7997
  154.5317  140.2233  155.8803 H   0  0  0  0  0  0  0  0  0  0  0  0  # atno 8010 bound_to 7997
  139.8268  143.7500  152.2666 H   0  0  0  0  0  0  0  0  0  0  0  0  # atno 10167 bound_to 10162
  157.3691  131.0976  151.0845 H   0  0  0  0  0  0  0  0  0  0  0  0  # atno 10718 bound_to 10713
  153.0039  135.6279  154.2137 H   0  0  0  0  0  0  0  0  0  0  0  0  # atno 10763 bound_to 10752
  154.1880  135.2810  155.3033 H   0  0  0  0  0  0  0  0  0  0  0  0  # atno 10764 bound_to 10752
  154.5782  135.5655  153.7219 H   0  0  0  0  0  0  0  0  0  0  0  0  # atno 10765 bound_to 10752
  140.2292  134.3548  155.7971 H   0  0  0  0  0  0  0  0  0  0  0  0  # atno 11005 bound_to 11000
  145.2787  139.1926  143.4802 LP  0  0  0  0  0  0  0  0  0  0  0  0  # atno 17320 bound_to 7965
  146.3334  140.2745  142.8607 LP  0  0  0  0  0  0  0  0  0  0  0  0  # atno 17321 bound_to 7965
  139.7696  144.7481  151.0244 LP  0  0  0  0  0  0  0  0  0  0  0  0  # atno 17342 bound_to 10162
  140.7809  143.4660  151.0211 LP  0  0  0  0  0  0  0  0  0  0  0  0  # atno 17343 bound_to 10162
  157.1956  130.6371  149.5720 LP  0  0  0  0  0  0  0  0  0  0  0  0  # atno 17370 bound_to 10713
  155.9752  130.4708  150.6441 LP  0  0  0  0  0  0  0  0  0  0  0  0  # atno 17371 bound_to 10713
  141.2219  133.7236  156.8703 LP  0  0  0  0  0  0  0  0  0  0  0  0  # atno 17394 bound_to 11000
  140.1768  134.9061  157.2901 LP  0  0  0  0  0  0  0  0  0  0  0  0  # atno 17395 bound_to 11000

$$$$
