#       Name:                AV-unprocessed.smi:402
#       Creating user name   scv26
#       Creation time:       Thu Mar 26 22:44:08 2020


#       File generated by GOLD software.
#

@<TRIPOS>MOLECULE
AV-unprocessed.smi:402
    42    43     1
SMALL
NO_CHARGES


@<TRIPOS>ATOM
      1 ****         0.8414   0.5204   3.6715 O.2            1 S1                 0.0000
      2 ****         1.2144   0.5468   2.4993 C.2            1 S1                 0.0000
      3 ****         2.4817   1.3406   2.1349 C.3            1 S1                 0.0000
      4 ****         2.8093   1.3670   0.6972 N.am           1 S1                 0.0000
      5 ****         3.7411   0.4152   0.2373 C.2            1 S1                 0.0000
      6 ****         4.1082   0.3459  -1.0520 C.2            1 S1                 0.0000
      7 ****         3.5209   1.2829  -1.9801 C.2            1 S1                 0.0000
      8 ****         2.6260   2.1952  -1.5518 C.2            1 S1                 0.0000
      9 ****         2.2190   2.2721  -0.1440 C.2            1 S1                 0.0000
     10 ****         1.3921   3.0930   0.2532 O.2            1 S1                 0.0000
     11 ****         0.5581  -0.0876   1.5150 N.am           1 S1                 0.0000
     12 ****        -0.6781  -0.8398   1.6786 C.3            1 S1                 0.0000
     13 ****        -1.3642  -1.0843   0.3210 C.3            1 S1                 0.0000
     14 ****        -1.7357   0.2334  -0.3972 C.3            1 S1                 0.0000
     15 ****        -2.4378  -0.0277  -1.7396 C.3            1 S1                 0.0000
     16 ****        -3.6777  -0.9159  -1.5577 C.3            1 S1                 0.0000
     17 ****        -3.3148  -2.2320  -0.8541 C.3            1 S1                 0.0000
     18 ****        -2.6155  -1.9698   0.4897 C.3            1 S1                 0.0000
     19 ****         2.3706   2.3583   2.5133 H              1 S1                 0.0000
     20 ****         3.3146   0.9221   2.7016 H              1 S1                 0.0000
     21 ****         4.1287  -0.2519   0.9937 H              1 S1                 0.0000
     22 ****         4.8220  -0.3924  -1.3864 H              1 S1                 0.0000
     23 ****         3.8003   1.2520  -3.0231 H              1 S1                 0.0000
     24 ****         2.1965   2.8876  -2.2609 H              1 S1                 0.0000
     25 ****         0.9293  -0.0211   0.5784 H              1 S1                 0.0000
     26 ****        -0.4444  -1.7903   2.1603 H              1 S1                 0.0000
     27 ****        -1.3560  -0.3027   2.3445 H              1 S1                 0.0000
     28 ****        -0.6602  -1.6250  -0.3140 H              1 S1                 0.0000
     29 ****        -2.3875   0.8291   0.2435 H              1 S1                 0.0000
     30 ****        -0.8456   0.8379  -0.5754 H              1 S1                 0.0000
     31 ****        -2.7235   0.9189  -2.1993 H              1 S1                 0.0000
     32 ****        -1.7416  -0.5079  -2.4282 H              1 S1                 0.0000
     33 ****        -4.4273  -0.3824  -0.9718 H              1 S1                 0.0000
     34 ****        -4.1322  -1.1241  -2.5266 H              1 S1                 0.0000
     35 ****        -4.2139  -2.8280  -0.6951 H              1 S1                 0.0000
     36 ****        -2.6620  -2.8231  -1.4975 H              1 S1                 0.0000
     37 ****        -2.3404  -2.9209   0.9471 H              1 S1                 0.0000
     38 ****        -3.3162  -1.4907   1.1750 H              1 S1                 0.0000
     39 ****         1.3598   1.0104   4.3723 LP             1 S1                 0.0000
     40 ****         0.0199   0.0089   3.9234 LP             1 S1                 0.0000
     41 ****         1.1316   3.1133   1.2184 LP             1 S1                 0.0000
     42 ****         0.9809   3.7395  -0.3894 LP             1 S1                 0.0000
@<TRIPOS>BOND
    1    1    2 2     
    2    2    3 1     
    3    2   11 am    
    4    3    4 1     
    5    3   19 1     
    6    3   20 1     
    7    4    9 am    
    8    4    5 1     
    9    5    6 2     
   10    5   21 1     
   11    6    7 1     
   12    6   22 1     
   13    7    8 2     
   14    7   23 1     
   15    8    9 1     
   16    8   24 1     
   17    9   10 2     
   18   11   12 1     
   19   11   25 1     
   20   12   13 1     
   21   12   26 1     
   22   12   27 1     
   23   13   18 1     
   24   13   14 1     
   25   13   28 1     
   26   14   15 1     
   27   14   29 1     
   28   14   30 1     
   29   15   16 1     
   30   15   31 1     
   31   15   32 1     
   32   16   17 1     
   33   16   33 1     
   34   16   34 1     
   35   17   18 1     
   36   17   35 1     
   37   17   36 1     
   38   18   37 1     
   39   18   38 1     
   40    1   39 1     
   41    1   40 1     
   42   10   41 1     
   43   10   42 1     
@<TRIPOS>SUBSTRUCTURE
      1 S1             1
@<TRIPOS>SET
LONE_PAIRS      STATIC     ATOMS    <user>   **** ""
4 39 40 41 42
DONOR_HYDROGENS      STATIC     ATOMS    <user>   **** ""
1 25
ATOM$BLUE        STATIC     ATOMS    COLORGROUP SYSTEM
4 39 40 41 42
ATOM$RED        STATIC     ATOMS    COLORGROUP SYSTEM
1 25
