AV-unprocessed.smi:225|AV-procd|sdf|1724|dock1
  -GOLD-   2262020203D 1   1.00000     0.00000
 Structure written by MMmdl.
 56 59  0  0  0  0  0  0  0  0  1 V2000
  151.8571  136.9280  154.1432 O   0  0  0  0  0  0  0  0  0  0  0  0
  151.0847  137.7945  154.9449 C   0  0  0  0  0  0  0  0  0  0  0  0
  151.9386  139.0033  155.3631 C   0  0  0  0  0  0  0  0  0  0  0  0
  151.1575  140.0470  156.0332 N   0  0  0  0  0  0  0  0  0  0  0  0
  151.2409  140.1187  157.4927 C   0  0  0  0  0  0  0  0  0  0  0  0
  151.9730  141.3777  158.0033 C   0  0  0  0  0  0  0  0  0  0  0  0
  152.2198  141.2818  159.5223 C   0  0  0  0  0  0  0  0  0  0  0  0
  152.9538  142.5217  160.0591 C   0  0  0  0  0  0  0  0  0  0  0  0
  152.1906  143.8107  159.7190 C   0  0  0  0  0  0  0  0  0  0  0  0
  151.9345  143.9183  158.2082 C   0  0  0  0  0  0  0  0  0  0  0  0
  151.2025  142.6750  157.6777 C   0  0  0  0  0  0  0  0  0  0  0  0
  149.9090  140.3003  155.5614 C   0  0  0  0  0  0  0  0  0  0  0  0
  149.7404  140.7884  154.3033 N   0  0  0  0  0  0  0  0  0  0  0  0
  148.5135  141.0263  153.8305 C   0  0  0  0  0  0  0  0  0  0  0  0
  147.3374  140.8461  154.4341 N   0  0  0  0  0  0  0  0  0  0  0  0
  147.4986  140.3503  155.6942 C   0  0  0  0  0  0  0  0  0  0  0  0
  148.7372  140.0554  156.3308 C   0  0  0  0  0  0  0  0  0  0  0  0
  148.5074  139.5836  157.6168 N   0  0  0  0  0  0  0  0  0  0  0  0
  147.2078  139.5927  157.7323 C   0  0  0  0  0  0  0  0  0  0  0  0
  146.5216  140.0273  156.6205 N   0  0  0  0  0  0  0  0  0  0  0  0
  145.0777  140.1359  156.4721 C   0  0  0  0  0  0  0  0  0  0  0  0
  144.5984  141.5463  156.0495 C   0  0  2  0  0  0  0  0  0  0  0  0
  144.9505  141.7642  154.6956 O   0  0  0  0  0  0  0  0  0  0  0  0
  145.2137  142.6537  156.9085 C   0  0  0  0  0  0  0  0  0  0  0  0
  144.0439  143.1467  157.7518 C   0  0  0  0  0  0  0  0  0  0  0  0
  142.9479  143.0194  156.8645 O   0  0  0  0  0  0  0  0  0  0  0  0
  143.0808  141.7624  156.2175 C   0  0  0  0  0  0  0  0  0  0  0  0
  151.4275  136.8299  153.3072 H   0  0  0  0  0  0  0  0  0  0  0  0
  150.2137  138.1210  154.3759 H   0  0  0  0  0  0  0  0  0  0  0  0
  150.7207  137.2392  155.8093 H   0  0  0  0  0  0  0  0  0  0  0  0
  152.7571  138.6827  156.0090 H   0  0  0  0  0  0  0  0  0  0  0  0
  152.4117  139.4204  154.4750 H   0  0  0  0  0  0  0  0  0  0  0  0
  150.2510  140.0702  157.9489 H   0  0  0  0  0  0  0  0  0  0  0  0
  151.7693  139.2291  157.8377 H   0  0  0  0  0  0  0  0  0  0  0  0
  152.9495  141.4366  157.5229 H   0  0  0  0  0  0  0  0  0  0  0  0
  151.2685  141.1687  160.0439 H   0  0  0  0  0  0  0  0  0  0  0  0
  152.8032  140.3887  159.7490 H   0  0  0  0  0  0  0  0  0  0  0  0
  153.0818  142.4397  161.1388 H   0  0  0  0  0  0  0  0  0  0  0  0
  153.9562  142.5666  159.6312 H   0  0  0  0  0  0  0  0  0  0  0  0
  151.2394  143.8242  160.2529 H   0  0  0  0  0  0  0  0  0  0  0  0
  152.7524  144.6787  160.0651 H   0  0  0  0  0  0  0  0  0  0  0  0
  151.3501  144.8133  157.9931 H   0  0  0  0  0  0  0  0  0  0  0  0
  152.8836  144.0347  157.6835 H   0  0  0  0  0  0  0  0  0  0  0  0
  151.0638  142.7721  156.6005 H   0  0  0  0  0  0  0  0  0  0  0  0
  150.2047  142.6301  158.1155 H   0  0  0  0  0  0  0  0  0  0  0  0
  148.4676  141.4132  152.8233 H   0  0  0  0  0  0  0  0  0  0  0  0
  146.7121  139.2776  158.6390 H   0  0  0  0  0  0  0  0  0  0  0  0
  144.7567  139.3967  155.7370 H   0  0  0  0  0  0  0  0  0  0  0  0
  144.6140  139.8466  157.4162 H   0  0  0  0  0  0  0  0  0  0  0  0
  144.3721  141.2535  154.1501 H   0  0  0  0  0  0  0  0  0  0  0  0
  146.0509  142.3163  157.5204 H   0  0  0  0  0  0  0  0  0  0  0  0
  145.5740  143.4765  156.2888 H   0  0  0  0  0  0  0  0  0  0  0  0
  143.8906  142.5080  158.6232 H   0  0  0  0  0  0  0  0  0  0  0  0
  144.1721  144.1743  158.0925 H   0  0  0  0  0  0  0  0  0  0  0  0
  142.5277  141.7367  155.2776 H   0  0  0  0  0  0  0  0  0  0  0  0
  142.6458  141.0101  156.8758 H   0  0  0  0  0  0  0  0  0  0  0  0
  1  2  1  0  0  0  0
  1 28  1  0  0  0  0
  2  3  1  0  0  0  0
  2 29  1  0  0  0  0
  2 30  1  0  0  0  0
  3  4  1  0  0  0  0
  3 31  1  0  0  0  0
  3 32  1  0  0  0  0
  4  5  1  0  0  0  0
  4 12  1  0  0  0  0
  5  6  1  0  0  0  0
  5 33  1  0  0  0  0
  5 34  1  0  0  0  0
  6 11  1  0  0  0  0
  6  7  1  0  0  0  0
  6 35  1  0  0  0  0
  7  8  1  0  0  0  0
  7 36  1  0  0  0  0
  7 37  1  0  0  0  0
  8  9  1  0  0  0  0
  8 38  1  0  0  0  0
  8 39  1  0  0  0  0
  9 10  1  0  0  0  0
  9 40  1  0  0  0  0
  9 41  1  0  0  0  0
 10 11  1  0  0  0  0
 10 42  1  0  0  0  0
 10 43  1  0  0  0  0
 11 44  1  0  0  0  0
 11 45  1  0  0  0  0
 12 17  1  0  0  0  0
 12 13  2  0  0  0  0
 13 14  1  0  0  0  0
 14 15  2  0  0  0  0
 14 46  1  0  0  0  0
 15 16  1  0  0  0  0
 16 20  1  0  0  0  0
 16 17  2  0  0  0  0
 17 18  1  0  0  0  0
 18 19  2  0  0  0  0
 19 20  1  0  0  0  0
 19 47  1  0  0  0  0
 20 21  1  0  0  0  0
 21 22  1  0  0  0  0
 21 48  1  0  0  0  0
 21 49  1  0  0  0  0
 22 27  1  0  0  0  0
 22 23  1  0  0  0  0
 22 24  1  0  0  0  0
 23 50  1  0  0  0  0
 24 25  1  0  0  0  0
 24 51  1  0  0  0  0
 24 52  1  0  0  0  0
 25 26  1  0  0  0  0
 25 53  1  0  0  0  0
 25 54  1  0  0  0  0
 26 27  1  0  0  0  0
 27 55  1  0  0  0  0
 27 56  1  0  0  0  0
M  END
> <s_m_source_file>
AV-unprocessed.smi

> <i_m_source_file_index>
225

> <i_lp_mmshare_version>
43012

> <i_f3d_flags>
0

> <s_epik_input>
W0NIMl0xW0NIMl1bQ0gyXVtDSDJdW0NIMl1bQ0hdMVtDSDJdTihbQ0gyXVtDSDJdW09IXSljKG5bY0hdbjIpYyhjMjMpbltjSF1uM1tDSDJdW0NAQF00KFtPSF0pW0NIMl1bQ0gyXU9bQ0gyXTQ=

> <s_epik_cmdline>
J2VwaWtfcHl0aG9uJywgJy1waCcsICc3LjAnLCAnLXRuJywgJzgnLCAnLW1hJywgJzIwMCcsICctbWV0YWxfYmluZGluZycsICctaW1hZScsICc8aW5maWxlLm1hZT4nLCAnLW9tYWUnLCAnPG91dGZpbGUubWFlPic=

> <r_lp_tautomer_probability>
1

> <r_epik_Ionization_Penalty>
0.00405109

> <r_epik_Ionization_Penalty_Charging>
0

> <r_epik_Ionization_Penalty_Neutral>
0.00405109

> <r_epik_State_Penalty>
0.00270467

> <r_epik_Charging_Adjusted_Penalty>
0.00270467

> <i_epik_Tot_Q>
0

> <i_epik_Tot_abs_Q>
0

> <r_epik_Metal_State_Penalty>
-0

> <b_epik_Metal_Only>
0

> <s_lp_Force_Field>
OPLS_2005

> <r_lp_Energy>
36.6988

> <b_lp_Chiralities_Consistent>
1

> <s_lp_Variant>
AV-unprocessed.smi:225-2

> <Gold.Version>
5.8.1

> <Gold.Id.Protein>
6NUR|6NUR_protein|mol2

> <Gold.PLP.Fitness>
50.9565

> <Gold.PLP.PLP>
-39.6517

> <Gold.PLP.part.hbond>
-4.0000

> <Gold.PLP.part.metal>
0.0000

> <Gold.PLP.part.buried>
-5.3853

> <Gold.PLP.part.nonpolar>
-31.3076

> <Gold.PLP.part.repulsive>
0.2773

> <Gold.PLP.ligand.clash>
0.0000

> <Gold.PLP.ligand.torsion>
1.6593

> <Gold.PLP.Chemscore.Hbond>
3.6240

> <Gold.PLP.Chemscore.CHOScore>
0.6740

> <Gold.PLP.Chemscore.Metal>
0.0000

> <Gold.Chemscore.Hbonds>
donor molecule, donor type, donor heavy atom, donor atom, acceptor molecule, acceptor atom, score
      L1  H     1    28       P1  7949  1.00
      L1  H    23    50       P1 10175  1.00
      P1  H  7989  7998       L1    13  0.62
      P1  H 10752 10763       L1     1  0.86
      L1  C    14    46       P1  7957  0.71

> <Gold.PLP.Chemscore.Internal.Correction>
1.7293

> <Gold.Rescore>
     Score         DG    S(hbond)    S(metal)    S(lipo)     H(rot)  DE(clash)    DE(int)     intcor
     12.38     -15.74       2.89        0.00      87.50       3.76       0.05       3.31       ----

> <Gold.Chemscore.Fitness>
12.3754

> <Gold.Chemscore.DG>
-15.7376

> <Gold.Chemscore.ZeroCoef>
-5.4800

> <Gold.Chemscore.Hbond>
2.8914

> <Gold.Chemscore.Metal>
0.0000

> <Gold.Chemscore.Lipo>
87.4989

> <Gold.Chemscore.Internal_Hbond>
0.0000

> <Gold.Chemscore.DEClash>
0.0484

> <Gold.Chemscore.DEInternal>
3.3139

> <Gold.Chemscore.Rot>
3.7644

> <Gold.Chemscore.Internal.Correction>
   9.000000E+99

> <Gold.Chemscore.Hbonds>
donor molecule, donor type, donor heavy atom, donor atom, acceptor molecule, acceptor atom, score
      L1  H     1    28       P1  7949  0.76
      L1  H    23    50       P1 10175  0.59
      P1  H  7989  7998       L1    13  0.33
      P1  H 10752 10763       L1     1  0.16

> <Gold.Chemscore.Hbond.Weighted>
-9.6571

> <Gold.Chemscore.Metal.Weighted>
-0.0000

> <Gold.Chemscore.Lipo.Weighted>
-10.2374

> <Gold.Chemscore.Internal_Hbond.Weighted>
0.0000

> <Gold.Chemscore.DEClash.Weighted>
0.0484

> <Gold.Chemscore.DEInternal.Weighted>
3.3139

> <Gold.Chemscore.Rot.Weighted>
9.6369

> <Gold.Chemscore.Internal.Correction.Weighted>
   9.000000E+99

> <Gold.Protein.RotatedTorsions>
[ 6907 6896 6895 6894 ] final   85.90 input  -60.11 | X-H torsion
[ 7974 7965 7964 7962 ] final   19.60 input  175.53 | X-H torsion
[ 8008 7997 7996 7995 ] final  -50.24 input   59.86 | X-H torsion
[ 10167 10162 10161 10158 ] final -172.77 input  -65.29 | X-H torsion
[ 10718 10713 10712 10709 ] final  134.76 input   66.30 | X-H torsion
[ 10763 10752 10751 10750 ] final   19.58 input  -60.55 | X-H torsion
[ 11005 11000 10999 10996 ] final  123.60 input  -57.11 | X-H torsion

> <Gold.Protein.ActiveResidues>
 VAL166  LYS551  ARG553  GLY616  TRP617  ASP618  TYR619  PRO620  LYS621  CYS622 
 ASP623  PHE694  ASN695  SER759  ASP760  ASP761  ALA762  ILE779  LEU786  VAL792 
 PHE793  MET794  SER795  GLU796  ALA797  LYS798  CYS799  TRP800  GLU811  SER814 

> <Gold.Protein.RotatedAtoms>
  152.5384  134.2514  159.8899 H   0  0  0  0  0  0  0  0  0  0  0  0  # atno 6907 bound_to 6896
  151.2477  133.4359  159.2617 H   0  0  0  0  0  0  0  0  0  0  0  0  # atno 6908 bound_to 6896
  151.0568  134.9724  159.8296 H   0  0  0  0  0  0  0  0  0  0  0  0  # atno 6909 bound_to 6896
  146.2143  139.8290  142.8664 H   0  0  0  0  0  0  0  0  0  0  0  0  # atno 7974 bound_to 7965
  154.4058  140.1277  156.4634 H   0  0  0  0  0  0  0  0  0  0  0  0  # atno 8008 bound_to 7997
  155.7250  140.3492  155.5013 H   0  0  0  0  0  0  0  0  0  0  0  0  # atno 8009 bound_to 7997
  155.9179  140.1047  157.1219 H   0  0  0  0  0  0  0  0  0  0  0  0  # atno 8010 bound_to 7997
  139.5726  144.1607  152.1405 H   0  0  0  0  0  0  0  0  0  0  0  0  # atno 10167 bound_to 10162
  157.4639  131.1075  150.9886 H   0  0  0  0  0  0  0  0  0  0  0  0  # atno 10718 bound_to 10713
  153.1150  135.6706  153.9433 H   0  0  0  0  0  0  0  0  0  0  0  0  # atno 10763 bound_to 10752
  153.8966  135.3041  155.3449 H   0  0  0  0  0  0  0  0  0  0  0  0  # atno 10764 bound_to 10752
  154.7567  135.5008  153.9466 H   0  0  0  0  0  0  0  0  0  0  0  0  # atno 10765 bound_to 10752
  139.9320  134.9641  156.8284 H   0  0  0  0  0  0  0  0  0  0  0  0  # atno 11005 bound_to 11000
  145.3017  141.0196  143.3605 LP  0  0  0  0  0  0  0  0  0  0  0  0  # atno 17320 bound_to 7965
  144.9001  139.4660  143.6636 LP  0  0  0  0  0  0  0  0  0  0  0  0  # atno 17321 bound_to 7965
  140.1143  144.5429  150.6904 LP  0  0  0  0  0  0  0  0  0  0  0  0  # atno 17342 bound_to 10162
  140.7009  143.2434  151.4865 LP  0  0  0  0  0  0  0  0  0  0  0  0  # atno 17343 bound_to 10162
  157.0673  130.5850  149.5396 LP  0  0  0  0  0  0  0  0  0  0  0  0  # atno 17370 bound_to 10713
  156.0041  130.5125  150.7769 LP  0  0  0  0  0  0  0  0  0  0  0  0  # atno 17371 bound_to 10713
  140.6176  134.0024  155.7604 LP  0  0  0  0  0  0  0  0  0  0  0  0  # atno 17394 bound_to 11000
  141.0914  133.9911  157.3231 LP  0  0  0  0  0  0  0  0  0  0  0  0  # atno 17395 bound_to 11000

$$$$
