AV-unprocessed.smi:1997|AV-procd|sdf|8086|dock2
  -GOLD-   2272010303D 1   1.00000     0.00000
 Structure written by MMmdl.
 37 39  0  0  0  0  0  0  0  0  1 V2000
  145.0283  135.9632  154.1084 O   0  0  0  0  0  0  0  0  0  0  0  0
  146.0790  136.0902  153.4789 C   0  0  0  0  0  0  0  0  0  0  0  0
  146.9770  137.0754  153.6538 N   0  0  0  0  0  0  0  0  0  0  0  0
  146.9273  138.1594  154.5699 C   0  0  0  0  0  0  0  0  0  0  0  0
  146.6944  138.0165  155.8819 N   0  0  0  0  0  0  0  0  0  0  0  0
  146.7016  139.2360  156.5446 N   0  0  0  0  0  0  0  0  0  0  0  0
  146.9406  140.2619  155.7193 C   0  0  0  0  0  0  0  0  0  0  0  0
  146.9981  141.6740  156.1993 C   0  0  0  0  0  0  0  0  0  0  0  0
  145.8901  142.2714  157.0393 C   0  0  0  0  0  0  0  0  0  0  0  0
  146.0843  142.7273  155.6158 C   0  0  0  0  0  0  0  0  0  0  0  0
  147.1783  139.8116  154.0337 S   0  0  0  0  0  0  0  0  0  0  0  0
  146.4689  135.2449  152.5123 N   0  0  0  0  0  0  0  0  0  0  0  0
  145.7067  134.0863  152.0410 C   0  0  2  0  0  0  0  0  0  0  0  0
  146.5841  133.3349  151.0136 C   0  0  0  0  0  0  0  0  0  0  0  0
  146.1938  131.8581  150.8283 C   0  0  0  0  0  0  0  0  0  0  0  0
  144.8000  131.6249  150.2252 C   0  0  0  0  0  0  0  0  0  0  0  0
  143.6508  132.1612  151.0960 C   0  0  0  0  0  0  0  0  0  0  0  0
  143.5051  133.6063  150.9819 N   0  0  0  0  0  0  0  0  0  0  0  0
  144.3958  134.5375  151.3554 C   0  0  0  0  0  0  0  0  0  0  0  0
  144.1719  135.7304  151.1487 O   0  0  0  0  0  0  0  0  0  0  0  0
  147.7897  137.0515  153.0557 H   0  0  0  0  0  0  0  0  0  0  0  0
  148.0222  141.9597  156.4311 H   0  0  0  0  0  0  0  0  0  0  0  0
  145.0146  141.6600  157.2493 H   0  0  0  0  0  0  0  0  0  0  0  0
  146.1768  142.9606  157.8310 H   0  0  0  0  0  0  0  0  0  0  0  0
  146.5010  143.7197  155.4571 H   0  0  0  0  0  0  0  0  0  0  0  0
  145.3474  142.4074  154.8816 H   0  0  0  0  0  0  0  0  0  0  0  0
  147.3444  135.4288  152.0450 H   0  0  0  0  0  0  0  0  0  0  0  0
  145.4826  133.4378  152.8901 H   0  0  0  0  0  0  0  0  0  0  0  0
  146.5870  133.8485  150.0505 H   0  0  0  0  0  0  0  0  0  0  0  0
  147.6208  133.3498  151.3538 H   0  0  0  0  0  0  0  0  0  0  0  0
  146.9324  131.3828  150.1821 H   0  0  0  0  0  0  0  0  0  0  0  0
  146.2647  131.3428  151.7869 H   0  0  0  0  0  0  0  0  0  0  0  0
  144.7453  132.0535  149.2235 H   0  0  0  0  0  0  0  0  0  0  0  0
  144.6631  130.5506  150.0977 H   0  0  0  0  0  0  0  0  0  0  0  0
  142.7127  131.7169  150.7628 H   0  0  0  0  0  0  0  0  0  0  0  0
  143.7746  131.8694  152.1399 H   0  0  0  0  0  0  0  0  0  0  0  0
  142.6540  133.9351  150.5490 H   0  0  0  0  0  0  0  0  0  0  0  0
  1  2  2  0  0  0  0
  2  3  1  0  0  0  0
  2 12  1  0  0  0  0
  3  4  1  0  0  0  0
  3 21  1  0  0  0  0
  4 11  1  0  0  0  0
  4  5  2  0  0  0  0
  5  6  1  0  0  0  0
  6  7  2  0  0  0  0
  7  8  1  0  0  0  0
  7 11  1  0  0  0  0
  8 10  1  0  0  0  0
  8  9  1  0  0  0  0
  8 22  1  0  0  0  0
  9 10  1  0  0  0  0
  9 23  1  0  0  0  0
  9 24  1  0  0  0  0
 10 25  1  0  0  0  0
 10 26  1  0  0  0  0
 12 13  1  0  0  0  0
 12 27  1  0  0  0  0
 13 19  1  0  0  0  0
 13 14  1  0  0  0  0
 13 28  1  0  0  0  0
 14 15  1  0  0  0  0
 14 29  1  0  0  0  0
 14 30  1  0  0  0  0
 15 16  1  0  0  0  0
 15 31  1  0  0  0  0
 15 32  1  0  0  0  0
 16 17  1  0  0  0  0
 16 33  1  0  0  0  0
 16 34  1  0  0  0  0
 17 18  1  0  0  0  0
 17 35  1  0  0  0  0
 17 36  1  0  0  0  0
 18 19  1  0  0  0  0
 18 37  1  0  0  0  0
 19 20  2  0  0  0  0
M  END
> <s_m_source_file>
AV-unprocessed.smi

> <i_m_source_file_index>
1997

> <i_lp_mmshare_version>
43012

> <i_f3d_flags>
0

> <s_epik_input>
W0NIMl0xW0NIMl1bQ0hdMWMoczIpbm5jMltOSF1DKD1PKVtOSF1bQ0BASF0zW0NIMl1bQ0gyXVtDSDJdW0NIMl1bTkhdQzM9Tw==

> <s_epik_cmdline>
J2VwaWtfcHl0aG9uJywgJy1waCcsICc3LjAnLCAnLXRuJywgJzgnLCAnLW1hJywgJzIwMCcsICctbWV0YWxfYmluZGluZycsICctaW1hZScsICc8aW5maWxlLm1hZT4nLCAnLW9tYWUnLCAnPG91dGZpbGUubWFlPic=

> <r_lp_tautomer_probability>
1

> <r_epik_Ionization_Penalty>
0.000421558

> <r_epik_Ionization_Penalty_Charging>
0

> <r_epik_Ionization_Penalty_Neutral>
0.000421558

> <r_epik_State_Penalty>
-0

> <r_epik_Charging_Adjusted_Penalty>
0

> <i_epik_Tot_Q>
0

> <i_epik_Tot_abs_Q>
0

> <r_epik_Metal_State_Penalty>
0.200761

> <b_epik_Metal_Only>
0

> <s_lp_Force_Field>
OPLS_2005

> <r_lp_Energy>
8.57521

> <b_lp_Chiralities_Consistent>
1

> <s_lp_Variant>
AV-unprocessed.smi:1997-1

> <Gold.Version>
5.8.1

> <Gold.Id.Protein>
6NUR|6NUR_protein|mol2

> <Gold.PLP.Fitness>
41.4160

> <Gold.PLP.PLP>
-33.4211

> <Gold.PLP.part.hbond>
-3.0000

> <Gold.PLP.part.metal>
0.0000

> <Gold.PLP.part.buried>
-4.0094

> <Gold.PLP.part.nonpolar>
-27.1249

> <Gold.PLP.part.repulsive>
1.6767

> <Gold.PLP.ligand.clash>
0.0000

> <Gold.PLP.ligand.torsion>
0.5538

> <Gold.PLP.Chemscore.Hbond>
2.9920

> <Gold.PLP.Chemscore.CHOScore>
0.0000

> <Gold.PLP.Chemscore.Metal>
0.0000

> <Gold.Chemscore.Hbonds>
donor molecule, donor type, donor heavy atom, donor atom, acceptor molecule, acceptor atom, score
      L1  H     3    21       P1  7948  1.00
      L1  H    12    27       P1  7948  1.00
      L1  H    18    37       P1 10186  1.00

> <Gold.PLP.Chemscore.Internal.Correction>
0.1265

> <Gold.Rescore>
     Score         DG    S(hbond)    S(metal)    S(lipo)     H(rot)  DE(clash)    DE(int)     intcor
     17.17     -20.27       2.94        0.00      70.61       1.29       0.49       2.61       ----

> <Gold.Chemscore.Fitness>
17.1710

> <Gold.Chemscore.DG>
-20.2709

> <Gold.Chemscore.ZeroCoef>
-5.4800

> <Gold.Chemscore.Hbond>
2.9406

> <Gold.Chemscore.Metal>
0.0000

> <Gold.Chemscore.Lipo>
70.6106

> <Gold.Chemscore.Internal_Hbond>
0.0000

> <Gold.Chemscore.DEClash>
0.4883

> <Gold.Chemscore.DEInternal>
2.6115

> <Gold.Chemscore.Rot>
1.2860

> <Gold.Chemscore.Internal.Correction>
   9.000000E+99

> <Gold.Chemscore.Hbonds>
donor molecule, donor type, donor heavy atom, donor atom, acceptor molecule, acceptor atom, score
      L1  H     3    21       P1  7948  0.98
      L1  H    12    27       P1  7948  0.98
      L1  H    18    37       P1 10186  0.86

> <Gold.Chemscore.Hbond.Weighted>
-9.8217

> <Gold.Chemscore.Metal.Weighted>
-0.0000

> <Gold.Chemscore.Lipo.Weighted>
-8.2614

> <Gold.Chemscore.Internal_Hbond.Weighted>
0.0000

> <Gold.Chemscore.DEClash.Weighted>
0.4883

> <Gold.Chemscore.DEInternal.Weighted>
2.6115

> <Gold.Chemscore.Rot.Weighted>
3.2923

> <Gold.Chemscore.Internal.Correction.Weighted>
   9.000000E+99

> <Gold.Protein.RotatedTorsions>
[ 6907 6896 6895 6894 ] final  156.88 input  -60.11 | X-H torsion
[ 7974 7965 7964 7962 ] final  167.82 input  175.53 | X-H torsion
[ 8008 7997 7996 7995 ] final   49.49 input   59.86 | X-H torsion
[ 10167 10162 10161 10158 ] final  -37.66 input  -65.29 | X-H torsion
[ 10718 10713 10712 10709 ] final   -8.52 input   66.30 | X-H torsion
[ 10763 10752 10751 10750 ] final  -24.03 input  -60.55 | X-H torsion
[ 11005 11000 10999 10996 ] final   42.93 input  -57.11 | X-H torsion

> <Gold.Protein.ActiveResidues>
 VAL166  LYS551  ARG553  GLY616  TRP617  ASP618  TYR619  PRO620  LYS621  CYS622 
 ASP623  PHE694  ASN695  SER759  ASP760  ASP761  ALA762  ILE779  LEU786  VAL792 
 PHE793  MET794  SER795  GLU796  ALA797  LYS798  CYS799  TRP800  GLU811  SER814 

> <Gold.Protein.RotatedAtoms>
  152.0233  133.3907  159.4266 H   0  0  0  0  0  0  0  0  0  0  0  0  # atno 6907 bound_to 6896
  150.6888  134.3602  159.4956 H   0  0  0  0  0  0  0  0  0  0  0  0  # atno 6908 bound_to 6896
  152.1378  134.9085  160.0606 H   0  0  0  0  0  0  0  0  0  0  0  0  # atno 6909 bound_to 6896
  144.7410  139.8817  143.6397 H   0  0  0  0  0  0  0  0  0  0  0  0  # atno 7974 bound_to 7965
  155.4030  140.3439  155.4258 H   0  0  0  0  0  0  0  0  0  0  0  0  # atno 8008 bound_to 7997
  156.1492  140.1566  156.8829 H   0  0  0  0  0  0  0  0  0  0  0  0  # atno 8009 bound_to 7997
  154.5037  140.0808  156.7833 H   0  0  0  0  0  0  0  0  0  0  0  0  # atno 8010 bound_to 7997
  140.7112  143.3327  151.2532 H   0  0  0  0  0  0  0  0  0  0  0  0  # atno 10167 bound_to 10162
  156.7014  130.5094  149.5916 H   0  0  0  0  0  0  0  0  0  0  0  0  # atno 10718 bound_to 10713
  153.6773  135.6968  153.5128 H   0  0  0  0  0  0  0  0  0  0  0  0  # atno 10763 bound_to 10752
  153.2511  135.4274  155.0798 H   0  0  0  0  0  0  0  0  0  0  0  0  # atno 10764 bound_to 10752
  154.8410  135.3531  154.6317 H   0  0  0  0  0  0  0  0  0  0  0  0  # atno 10765 bound_to 10752
  140.1693  134.4242  155.8267 H   0  0  0  0  0  0  0  0  0  0  0  0  # atno 11005 bound_to 11000
  146.1206  139.4224  143.0230 LP  0  0  0  0  0  0  0  0  0  0  0  0  # atno 17320 bound_to 7965
  145.7310  141.0042  143.1352 LP  0  0  0  0  0  0  0  0  0  0  0  0  # atno 17321 bound_to 7965
  139.6814  143.9849  152.2810 LP  0  0  0  0  0  0  0  0  0  0  0  0  # atno 17342 bound_to 10162
  139.9480  144.6639  150.8200 LP  0  0  0  0  0  0  0  0  0  0  0  0  # atno 17343 bound_to 10162
  156.1726  130.6447  151.0856 LP  0  0  0  0  0  0  0  0  0  0  0  0  # atno 17370 bound_to 10713
  157.6971  131.0790  150.6934 LP  0  0  0  0  0  0  0  0  0  0  0  0  # atno 17371 bound_to 10713
  141.2216  133.6948  156.7734 LP  0  0  0  0  0  0  0  0  0  0  0  0  # atno 17394 bound_to 11000
  140.2397  134.8623  157.3560 LP  0  0  0  0  0  0  0  0  0  0  0  0  # atno 17395 bound_to 11000

$$$$
