AV-unprocessed.smi:159|AV-procd|sdf|1339|dock9
  -GOLD-   2262019 33D 1   1.00000     0.00000
 Structure written by MMmdl.
 28 29  0  0  0  0  0  0  0  0  1 V2000
  146.1085  137.9969  153.6265 N   0  0  0  0  0  0  0  0  0  0  0  0
  146.0580  136.8085  153.0086 C   0  0  0  0  0  0  0  0  0  0  0  0
  145.7305  136.7294  151.6028 C   0  0  0  0  0  0  0  0  0  0  0  0
  145.7042  135.4962  151.0512 C   0  0  0  0  0  0  0  0  0  0  0  0
  145.9858  134.3516  151.7840 N   0  0  0  0  0  0  0  0  0  0  0  0
  145.9439  132.9833  151.1407 C   0  0  1  0  0  0  0  0  0  0  0  0
  144.8767  132.1094  151.8097 C   0  0  0  0  0  0  0  0  0  0  0  0
  143.7600  132.1367  150.7876 C   0  0  0  0  0  0  0  0  0  0  0  0
  144.5344  132.2340  149.4749 C   0  0  1  0  0  0  0  0  0  0  0  0
  143.6981  132.7879  148.3122 C   0  0  0  0  0  0  0  0  0  0  0  0
  142.3941  132.2495  148.3541 O   0  0  0  0  0  0  0  0  0  0  0  0
  145.5955  133.1281  149.7946 O   0  0  0  0  0  0  0  0  0  0  0  0
  146.2816  134.4595  153.1646 C   0  0  0  0  0  0  0  0  0  0  0  0
  146.4989  133.4703  153.8637 O   0  0  0  0  0  0  0  0  0  0  0  0
  146.3075  135.7170  153.7056 N   0  0  0  0  0  0  0  0  0  0  0  0
  146.9499  132.5646  151.1994 H   0  0  0  0  0  0  0  0  0  0  0  0
  144.9470  131.2529  149.2311 H   0  0  0  0  0  0  0  0  0  0  0  0
  146.3345  138.0489  154.6092 H   0  0  0  0  0  0  0  0  0  0  0  0
  145.9148  138.8404  153.1058 H   0  0  0  0  0  0  0  0  0  0  0  0
  145.5123  137.5945  150.9931 H   0  0  0  0  0  0  0  0  0  0  0  0
  145.4532  135.4193  150.0035 H   0  0  0  0  0  0  0  0  0  0  0  0
  145.2725  131.0991  151.9203 H   0  0  0  0  0  0  0  0  0  0  0  0
  144.5864  132.4852  152.7918 H   0  0  0  0  0  0  0  0  0  0  0  0
  143.1168  131.2578  150.8370 H   0  0  0  0  0  0  0  0  0  0  0  0
  143.1399  133.0220  150.9347 H   0  0  0  0  0  0  0  0  0  0  0  0
  143.6066  133.8710  148.3996 H   0  0  0  0  0  0  0  0  0  0  0  0
  144.1665  132.5785  147.3501 H   0  0  0  0  0  0  0  0  0  0  0  0
  141.8052  132.9125  148.6807 H   0  0  0  0  0  0  0  0  0  0  0  0
  1  2  1  0  0  0  0
  1 18  1  0  0  0  0
  1 19  1  0  0  0  0
  2 15  2  0  0  0  0
  2  3  1  0  0  0  0
  3  4  2  0  0  0  0
  3 20  1  0  0  0  0
  4  5  1  0  0  0  0
  4 21  1  0  0  0  0
  5  6  1  0  0  0  0
  5 13  1  0  0  0  0
  6 16  1  0  0  0  0
  6 12  1  0  0  0  0
  6  7  1  0  0  0  0
  7  8  1  0  0  0  0
  7 22  1  0  0  0  0
  7 23  1  0  0  0  0
  8  9  1  0  0  0  0
  8 24  1  0  0  0  0
  8 25  1  0  0  0  0
  9 17  1  0  0  0  0
  9 10  1  0  0  0  0
  9 12  1  0  0  0  0
 10 11  1  0  0  0  0
 10 26  1  0  0  0  0
 10 27  1  0  0  0  0
 11 28  1  0  0  0  0
 13 14  2  0  0  0  0
 13 15  1  0  0  0  0
M  END
> <s_m_source_file>
AV-unprocessed.smi

> <i_m_source_file_index>
159

> <i_lp_mmshare_version>
43012

> <i_f3d_flags>
0

> <s_epik_input>
W05IMl1jMVtjSF1bY0hdbihjKD1PKW4xKVtDQEhdMltDSDJdW0NIMl1bQ0BIXShPMilbQ0gyXVtPSF0=

> <s_epik_cmdline>
J2VwaWtfcHl0aG9uJywgJy1waCcsICc3LjAnLCAnLXRuJywgJzgnLCAnLW1hJywgJzIwMCcsICctbWV0YWxfYmluZGluZycsICctaW1hZScsICc8aW5maWxlLm1hZT4nLCAnLW9tYWUnLCAnPG91dGZpbGUubWFlPic=

> <r_lp_tautomer_probability>
0.99996

> <r_epik_Ionization_Penalty>
0.00126102

> <r_epik_Ionization_Penalty_Charging>
4.46248e-08

> <r_epik_Ionization_Penalty_Neutral>
0.00126097

> <r_epik_State_Penalty>
1.15523e-05

> <r_epik_Charging_Adjusted_Penalty>
1.1597e-05

> <i_epik_Tot_Q>
0

> <i_epik_Tot_abs_Q>
0

> <r_epik_Metal_State_Penalty>
-0

> <b_epik_Metal_Only>
0

> <s_epik_Chemistry_Notes>
This compound contains an acetal/aminal-like group ( X-CH(R)-Y where X, Y are N, S, or O) that may be acid/base labile, releasing an aldehyde.

> <s_lp_Force_Field>
OPLS_2005

> <r_lp_Energy>
25.8801

> <b_lp_Chiralities_Consistent>
1

> <s_lp_Variant>
AV-unprocessed.smi:159-1

> <Gold.Version>
5.8.1

> <Gold.Id.Protein>
6NUR|6NUR_protein|mol2

> <Gold.PLP.Fitness>
34.5945

> <Gold.PLP.PLP>
-27.7303

> <Gold.PLP.part.hbond>
-3.9593

> <Gold.PLP.part.metal>
0.0000

> <Gold.PLP.part.buried>
-3.4096

> <Gold.PLP.part.nonpolar>
-22.6525

> <Gold.PLP.part.repulsive>
2.4751

> <Gold.PLP.ligand.clash>
0.0000

> <Gold.PLP.ligand.torsion>
0.2249

> <Gold.PLP.Chemscore.Hbond>
1.4335

> <Gold.PLP.Chemscore.CHOScore>
1.0000

> <Gold.PLP.Chemscore.Metal>
0.0000

> <Gold.Chemscore.Hbonds>
donor molecule, donor type, donor heavy atom, donor atom, acceptor molecule, acceptor atom, score
      L1  H    11    28       P1 10186  1.00
      P1  H 10785 10796       L1    11  0.21
      L1  C     4    21       P1  7921  1.00

> <Gold.PLP.Chemscore.Internal.Correction>
0.0134

> <Gold.Rescore>
     Score         DG    S(hbond)    S(metal)    S(lipo)     H(rot)  DE(clash)    DE(int)     intcor
      8.45     -11.72       1.61        0.00      53.33       2.09       1.82       1.45       ----

> <Gold.Chemscore.Fitness>
8.4460

> <Gold.Chemscore.DG>
-11.7218

> <Gold.Chemscore.ZeroCoef>
-5.4800

> <Gold.Chemscore.Hbond>
1.6051

> <Gold.Chemscore.Metal>
0.0000

> <Gold.Chemscore.Lipo>
53.3340

> <Gold.Chemscore.Internal_Hbond>
0.0000

> <Gold.Chemscore.DEClash>
1.8229

> <Gold.Chemscore.DEInternal>
1.4529

> <Gold.Chemscore.Rot>
2.0935

> <Gold.Chemscore.Internal.Correction>
   9.000000E+99

> <Gold.Chemscore.Hbonds>
donor molecule, donor type, donor heavy atom, donor atom, acceptor molecule, acceptor atom, score
      L1  H    11    28       P1 10186  1.00
      P1  H 10785 10796       L1    11  0.01

> <Gold.Chemscore.Hbond.Weighted>
-5.3611

> <Gold.Chemscore.Metal.Weighted>
-0.0000

> <Gold.Chemscore.Lipo.Weighted>
-6.2401

> <Gold.Chemscore.Internal_Hbond.Weighted>
0.0000

> <Gold.Chemscore.DEClash.Weighted>
1.8229

> <Gold.Chemscore.DEInternal.Weighted>
1.4529

> <Gold.Chemscore.Rot.Weighted>
5.3594

> <Gold.Chemscore.Internal.Correction.Weighted>
   9.000000E+99

> <Gold.Protein.RotatedTorsions>
[ 6907 6896 6895 6894 ] final -112.62 input  -60.11 | X-H torsion
[ 7974 7965 7964 7962 ] final   30.94 input  175.53 | X-H torsion
[ 8008 7997 7996 7995 ] final    5.40 input   59.86 | X-H torsion
[ 10167 10162 10161 10158 ] final   17.99 input  -65.29 | X-H torsion
[ 10718 10713 10712 10709 ] final  150.00 input   66.30 | X-H torsion
[ 10763 10752 10751 10750 ] final  -84.18 input  -60.55 | X-H torsion
[ 11005 11000 10999 10996 ] final   62.95 input  -57.11 | X-H torsion

> <Gold.Protein.ActiveResidues>
 VAL166  LYS551  ARG553  GLY616  TRP617  ASP618  TYR619  PRO620  LYS621  CYS622 
 ASP623  PHE694  ASN695  SER759  ASP760  ASP761  ALA762  ILE779  LEU786  VAL792 
 PHE793  MET794  SER795  GLU796  ALA797  LYS798  CYS799  TRP800  GLU811  SER814 

> <Gold.Protein.RotatedAtoms>
  150.7771  133.9063  159.3355 H   0  0  0  0  0  0  0  0  0  0  0  0  # atno 6907 bound_to 6896
  151.6935  135.0940  160.0247 H   0  0  0  0  0  0  0  0  0  0  0  0  # atno 6908 bound_to 6896
  152.3811  133.6509  159.6197 H   0  0  0  0  0  0  0  0  0  0  0  0  # atno 6909 bound_to 6896
  146.1581  139.6723  142.9052 H   0  0  0  0  0  0  0  0  0  0  0  0  # atno 7974 bound_to 7965
  154.7279  140.2724  155.6483 H   0  0  0  0  0  0  0  0  0  0  0  0  # atno 8008 bound_to 7997
  156.2841  140.2721  156.1895 H   0  0  0  0  0  0  0  0  0  0  0  0  # atno 8009 bound_to 7997
  155.0421  140.0371  157.2503 H   0  0  0  0  0  0  0  0  0  0  0  0  # atno 8010 bound_to 7997
  140.5686  143.9204  150.6695 H   0  0  0  0  0  0  0  0  0  0  0  0  # atno 10167 bound_to 10162
  157.2890  131.0849  151.1476 H   0  0  0  0  0  0  0  0  0  0  0  0  # atno 10718 bound_to 10713
  154.5965  135.5530  153.7331 H   0  0  0  0  0  0  0  0  0  0  0  0  # atno 10763 bound_to 10752
  153.0137  135.6356  154.1775 H   0  0  0  0  0  0  0  0  0  0  0  0  # atno 10764 bound_to 10752
  154.1715  135.2892  155.3059 H   0  0  0  0  0  0  0  0  0  0  0  0  # atno 10765 bound_to 10752
  140.0058  134.6372  155.9858 H   0  0  0  0  0  0  0  0  0  0  0  0  # atno 11005 bound_to 11000
  145.4657  141.0434  143.2726 LP  0  0  0  0  0  0  0  0  0  0  0  0  # atno 17320 bound_to 7965
  144.7990  139.6177  143.7080 LP  0  0  0  0  0  0  0  0  0  0  0  0  # atno 17321 bound_to 7965
  140.2673  143.3481  152.1269 LP  0  0  0  0  0  0  0  0  0  0  0  0  # atno 17342 bound_to 10162
  139.5106  144.6886  151.5820 LP  0  0  0  0  0  0  0  0  0  0  0  0  # atno 17343 bound_to 10162
  157.2880  130.6782  149.6099 LP  0  0  0  0  0  0  0  0  0  0  0  0  # atno 17370 bound_to 10713
  155.9666  130.4429  150.5401 LP  0  0  0  0  0  0  0  0  0  0  0  0  # atno 17371 bound_to 10713
  141.1675  133.6537  156.4533 LP  0  0  0  0  0  0  0  0  0  0  0  0  # atno 17394 bound_to 11000
  140.4645  134.6811  157.5100 LP  0  0  0  0  0  0  0  0  0  0  0  0  # atno 17395 bound_to 11000

$$$$
