AV-unprocessed.smi:2293|AV-procd|sdf|9214|dock1
  -GOLD-   2272012433D 1   1.00000     0.00000
 Structure written by MMmdl.
 34 35  0  0  0  0  0  0  0  0  1 V2000
  148.2088  138.7248  153.6963 C   0  0  0  0  0  0  0  0  0  0  0  0
  149.1502  139.5784  154.5279 C   0  0  0  0  0  0  0  0  0  0  0  0
  148.5911  140.7373  155.0742 N   0  0  0  0  0  0  0  0  0  0  0  0
  149.3171  141.5238  155.7996 C   0  0  0  0  0  0  0  0  0  0  0  0
  150.6701  141.2492  156.0583 N   0  0  0  0  0  0  0  0  0  0  0  0
  151.3824  142.2187  156.9077 C   0  0  0  0  0  0  0  0  0  0  0  0
  151.9015  141.5799  158.2153 C   0  0  2  0  0  0  0  0  0  0  0  0
  151.0333  140.5250  158.5799 O   0  0  0  0  0  0  0  0  0  0  0  0
  152.0095  142.6161  159.3237 C   0  0  0  0  0  0  0  0  0  0  0  0
  151.5917  143.9436  159.0877 C   0  0  0  0  0  0  0  0  0  0  0  0
  151.6825  144.9092  160.1092 C   0  0  0  0  0  0  0  0  0  0  0  0
  152.1884  144.5522  161.3738 C   0  0  0  0  0  0  0  0  0  0  0  0
  152.6015  143.2281  161.6174 C   0  0  0  0  0  0  0  0  0  0  0  0
  153.0852  142.8828  162.8341 F   0  0  0  0  0  0  0  0  0  0  0  0
  152.5108  142.2623  160.5962 C   0  0  0  0  0  0  0  0  0  0  0  0
  151.2934  140.1394  155.5661 C   0  0  0  0  0  0  0  0  0  0  0  0
  152.4792  139.9036  155.8069 O   0  0  0  0  0  0  0  0  0  0  0  0
  150.4544  139.2537  154.7426 C   0  0  0  0  0  0  0  0  0  0  0  0
  151.1172  138.0045  154.1756 C   0  0  0  0  0  0  0  0  0  0  0  0
  148.5867  138.6184  152.6791 H   0  0  0  0  0  0  0  0  0  0  0  0
  147.2150  139.1705  153.6382 H   0  0  0  0  0  0  0  0  0  0  0  0
  148.1049  137.7326  154.1361 H   0  0  0  0  0  0  0  0  0  0  0  0
  148.9273  142.4363  156.2541 H   0  0  0  0  0  0  0  0  0  0  0  0
  152.2293  142.6045  156.3365 H   0  0  0  0  0  0  0  0  0  0  0  0
  150.7813  143.1041  157.1256 H   0  0  0  0  0  0  0  0  0  0  0  0
  152.8911  141.1491  158.0574 H   0  0  0  0  0  0  0  0  0  0  0  0
  150.8044  140.0426  157.8001 H   0  0  0  0  0  0  0  0  0  0  0  0
  151.1983  144.2266  158.1222 H   0  0  0  0  0  0  0  0  0  0  0  0
  151.3625  145.9237  159.9224 H   0  0  0  0  0  0  0  0  0  0  0  0
  152.2574  145.2928  162.1570 H   0  0  0  0  0  0  0  0  0  0  0  0
  152.8258  141.2480  160.7939 H   0  0  0  0  0  0  0  0  0  0  0  0
  151.5038  137.3841  154.9849 H   0  0  0  0  0  0  0  0  0  0  0  0
  151.9528  138.2815  153.5318 H   0  0  0  0  0  0  0  0  0  0  0  0
  150.4397  137.3883  153.5865 H   0  0  0  0  0  0  0  0  0  0  0  0
  1  2  1  0  0  0  0
  1 20  1  0  0  0  0
  1 21  1  0  0  0  0
  1 22  1  0  0  0  0
  2 18  2  0  0  0  0
  2  3  1  0  0  0  0
  3  4  2  0  0  0  0
  4  5  1  0  0  0  0
  4 23  1  0  0  0  0
  5  6  1  0  0  0  0
  5 16  1  0  0  0  0
  6  7  1  0  0  0  0
  6 24  1  0  0  0  0
  6 25  1  0  0  0  0
  7  8  1  0  0  0  0
  7  9  1  0  0  0  0
  7 26  1  0  0  0  0
  8 27  1  0  0  0  0
  9 15  1  0  0  0  0
  9 10  2  0  0  0  0
 10 11  1  0  0  0  0
 10 28  1  0  0  0  0
 11 12  2  0  0  0  0
 11 29  1  0  0  0  0
 12 13  1  0  0  0  0
 12 30  1  0  0  0  0
 13 14  1  0  0  0  0
 13 15  2  0  0  0  0
 15 31  1  0  0  0  0
 16 17  2  0  0  0  0
 16 18  1  0  0  0  0
 18 19  1  0  0  0  0
 19 32  1  0  0  0  0
 19 33  1  0  0  0  0
 19 34  1  0  0  0  0
M  END
> <s_m_source_file>
AV-unprocessed.smi

> <i_m_source_file_index>
2293

> <i_lp_mmshare_version>
43012

> <i_f3d_flags>
0

> <s_epik_input>
W0NIM11jMW5bY0hdbihjKD1PKWMxW0NIM10pW0NIMl1bQ0BIXShbT0hdKWMyW2NIXVtjSF1bY0hdYyhGKVtjSF0y

> <s_epik_cmdline>
J2VwaWtfcHl0aG9uJywgJy1waCcsICc3LjAnLCAnLXRuJywgJzgnLCAnLW1hJywgJzIwMCcsICctbWV0YWxfYmluZGluZycsICctaW1hZScsICc8aW5maWxlLm1hZT4nLCAnLW9tYWUnLCAnPG91dGZpbGUubWFlPic=

> <r_lp_tautomer_probability>
1

> <r_epik_Ionization_Penalty>
5.08222e-05

> <r_epik_Ionization_Penalty_Charging>
7.56727e-08

> <r_epik_Ionization_Penalty_Neutral>
5.07465e-05

> <r_epik_State_Penalty>
-0

> <r_epik_Charging_Adjusted_Penalty>
7.56727e-08

> <i_epik_Tot_Q>
0

> <i_epik_Tot_abs_Q>
0

> <r_epik_Metal_State_Penalty>
-0

> <b_epik_Metal_Only>
0

> <s_lp_Force_Field>
OPLS_2005

> <r_lp_Energy>
18.7837

> <b_lp_Chiralities_Consistent>
1

> <s_lp_Variant>
AV-unprocessed.smi:2293-1

> <Gold.Version>
5.8.1

> <Gold.Id.Protein>
6NUR|6NUR_protein|mol2

> <Gold.PLP.Fitness>
51.9027

> <Gold.PLP.PLP>
-46.6194

> <Gold.PLP.part.hbond>
-1.0000

> <Gold.PLP.part.metal>
0.0000

> <Gold.PLP.part.buried>
-2.1617

> <Gold.PLP.part.nonpolar>
-42.5120

> <Gold.PLP.part.repulsive>
0.0960

> <Gold.PLP.ligand.clash>
0.0000

> <Gold.PLP.ligand.torsion>
0.3615

> <Gold.PLP.Chemscore.Hbond>
1.0000

> <Gold.PLP.Chemscore.CHOScore>
1.0000

> <Gold.PLP.Chemscore.Metal>
0.0000

> <Gold.Chemscore.Hbonds>
donor molecule, donor type, donor heavy atom, donor atom, acceptor molecule, acceptor atom, score
      P1  H  7997  8009       L1    17  1.00
      L1  C     4    23       P1  8028  1.00

> <Gold.PLP.Chemscore.Internal.Correction>
0.0062

> <Gold.Rescore>
     Score         DG    S(hbond)    S(metal)    S(lipo)     H(rot)  DE(clash)    DE(int)     intcor
     15.57     -16.54       0.99        0.00     110.33       2.02       0.51       0.45       ----

> <Gold.Chemscore.Fitness>
15.5721

> <Gold.Chemscore.DG>
-16.5364

> <Gold.Chemscore.ZeroCoef>
-5.4800

> <Gold.Chemscore.Hbond>
0.9923

> <Gold.Chemscore.Metal>
0.0000

> <Gold.Chemscore.Lipo>
110.3285

> <Gold.Chemscore.Internal_Hbond>
0.0000

> <Gold.Chemscore.DEClash>
0.5117

> <Gold.Chemscore.DEInternal>
0.4526

> <Gold.Chemscore.Rot>
2.0181

> <Gold.Chemscore.Internal.Correction>
   9.000000E+99

> <Gold.Chemscore.Hbonds>
donor molecule, donor type, donor heavy atom, donor atom, acceptor molecule, acceptor atom, score
      P1  H  7997  8009       L1    17  1.00

> <Gold.Chemscore.Hbond.Weighted>
-3.3143

> <Gold.Chemscore.Metal.Weighted>
-0.0000

> <Gold.Chemscore.Lipo.Weighted>
-12.9084

> <Gold.Chemscore.Internal_Hbond.Weighted>
0.0000

> <Gold.Chemscore.DEClash.Weighted>
0.5117

> <Gold.Chemscore.DEInternal.Weighted>
0.4526

> <Gold.Chemscore.Rot.Weighted>
5.1663

> <Gold.Chemscore.Internal.Correction.Weighted>
   9.000000E+99

> <Gold.Protein.RotatedTorsions>
[ 6907 6896 6895 6894 ] final  -12.94 input  -60.11 | X-H torsion
[ 7974 7965 7964 7962 ] final  -53.42 input  175.53 | X-H torsion
[ 8008 7997 7996 7995 ] final -151.41 input   59.86 | X-H torsion
[ 10167 10162 10161 10158 ] final -107.61 input  -65.29 | X-H torsion
[ 10718 10713 10712 10709 ] final   77.27 input   66.30 | X-H torsion
[ 10763 10752 10751 10750 ] final  -42.60 input  -60.55 | X-H torsion
[ 11005 11000 10999 10996 ] final  137.61 input  -57.11 | X-H torsion

> <Gold.Protein.ActiveResidues>
 VAL166  LYS551  ARG553  GLY616  TRP617  ASP618  TYR619  PRO620  LYS621  CYS622 
 ASP623  PHE694  ASN695  SER759  ASP760  ASP761  ALA762  ILE779  LEU786  VAL792 
 PHE793  MET794  SER795  GLU796  ALA797  LYS798  CYS799  TRP800  GLU811  SER814 

> <Gold.Protein.RotatedAtoms>
  151.3627  135.0907  159.9439 H   0  0  0  0  0  0  0  0  0  0  0  0  # atno 6907 bound_to 6896
  152.5157  133.9243  159.7560 H   0  0  0  0  0  0  0  0  0  0  0  0  # atno 6908 bound_to 6896
  150.9640  133.6360  159.2778 H   0  0  0  0  0  0  0  0  0  0  0  0  # atno 6909 bound_to 6896
  145.8970  140.8025  142.9762 H   0  0  0  0  0  0  0  0  0  0  0  0  # atno 7974 bound_to 7965
  155.6389  140.0699  157.2625 H   0  0  0  0  0  0  0  0  0  0  0  0  # atno 8008 bound_to 7997
  154.4188  140.1754  156.1602 H   0  0  0  0  0  0  0  0  0  0  0  0  # atno 8009 bound_to 7997
  155.9871  140.3348  155.6721 H   0  0  0  0  0  0  0  0  0  0  0  0  # atno 8010 bound_to 7997
  140.1751  143.4011  152.1325 H   0  0  0  0  0  0  0  0  0  0  0  0  # atno 10167 bound_to 10162
  157.6704  130.9814  150.1618 H   0  0  0  0  0  0  0  0  0  0  0  0  # atno 10718 bound_to 10713
  153.9817  135.6716  153.4750 H   0  0  0  0  0  0  0  0  0  0  0  0  # atno 10763 bound_to 10752
  153.0745  135.4956  154.8372 H   0  0  0  0  0  0  0  0  0  0  0  0  # atno 10764 bound_to 10752
  154.7161  135.3107  154.9084 H   0  0  0  0  0  0  0  0  0  0  0  0  # atno 10765 bound_to 10752
  140.0126  134.9432  157.0309 H   0  0  0  0  0  0  0  0  0  0  0  0  # atno 11005 bound_to 11000
  144.6733  140.1618  143.7422 LP  0  0  0  0  0  0  0  0  0  0  0  0  # atno 17320 bound_to 7965
  145.8838  139.2337  143.1589 LP  0  0  0  0  0  0  0  0  0  0  0  0  # atno 17321 bound_to 7965
  139.5321  144.7170  151.5021 LP  0  0  0  0  0  0  0  0  0  0  0  0  # atno 17342 bound_to 10162
  140.6557  143.8605  150.6832 LP  0  0  0  0  0  0  0  0  0  0  0  0  # atno 17343 bound_to 10162
  156.2392  130.3689  149.8356 LP  0  0  0  0  0  0  0  0  0  0  0  0  # atno 17370 bound_to 10713
  156.6161  130.8607  151.3465 LP  0  0  0  0  0  0  0  0  0  0  0  0  # atno 17371 bound_to 10713
  140.4527  134.1565  155.7183 LP  0  0  0  0  0  0  0  0  0  0  0  0  # atno 17394 bound_to 11000
  141.1721  133.8587  157.1537 LP  0  0  0  0  0  0  0  0  0  0  0  0  # atno 17395 bound_to 11000

$$$$
