AV-unprocessed.smi:3265|AV-procd|sdf|12499|dock6
  -GOLD-   2272018403D 1   1.00000     0.00000
 Structure written by MMmdl.
 41 42  0  0  0  0  0  0  0  0  2 V2000
  146.6818  132.4344  153.4419 C   0  0  0  0  0  0  0  0  0  0  0  0
  146.5667  133.6368  152.4939 C   0  0  1  0  0  0  0  0  0  0  0  0
  145.4737  133.4153  151.4350 C   0  0  0  0  0  0  0  0  0  0  0  0
  145.3641  134.6413  150.5202 C   0  0  0  0  0  0  0  0  0  0  0  0
  145.1307  135.9198  151.3404 C   0  0  0  0  0  0  0  0  0  0  0  0
  146.2019  136.1116  152.3523 N   0  3  1  0  0  0  0  0  0  0  0  0
  146.0709  137.4071  153.0659 C   0  0  0  0  0  0  0  0  0  0  0  0
  146.4701  138.6070  152.1855 C   0  0  0  0  0  0  0  0  0  0  0  0
  147.6570  139.2780  152.7012 N   0  0  0  0  0  0  0  0  0  0  0  0
  147.7429  139.8824  153.8966 C   0  0  0  0  0  0  0  0  0  0  0  0
  146.8162  139.9160  154.7057 O   0  0  0  0  0  0  0  0  0  0  0  0
  149.0791  140.5459  154.2338 C   0  0  0  0  0  0  0  0  0  0  0  0
  150.1508  139.5679  154.2945 N   0  0  0  0  0  0  0  0  0  0  0  0
  150.0742  138.2011  154.1234 C   0  0  0  0  0  0  0  0  0  0  0  0
  151.3353  137.7010  154.2782 C   0  0  0  0  0  0  0  0  0  0  0  0
  152.1263  138.8536  154.5439 C   0  0  0  0  0  0  0  0  0  0  0  0
  151.4148  139.9695  154.5543 N   0  0  0  0  0  0  0  0  0  0  0  0
  146.3029  134.9436  153.2690 C   0  0  0  0  0  0  0  0  0  0  0  0
  145.7572  132.2764  153.9984 H   0  0  0  0  0  0  0  0  0  0  0  0
  147.4846  132.5792  154.1656 H   0  0  0  0  0  0  0  0  0  0  0  0
  146.8982  131.5191  152.8902 H   0  0  0  0  0  0  0  0  0  0  0  0
  147.5222  133.7389  151.9769 H   0  0  0  0  0  0  0  0  0  0  0  0
  145.6950  132.5281  150.8409 H   0  0  0  0  0  0  0  0  0  0  0  0
  144.5139  133.2338  151.9213 H   0  0  0  0  0  0  0  0  0  0  0  0
  146.2769  134.7436  149.9316 H   0  0  0  0  0  0  0  0  0  0  0  0
  144.5508  134.5021  149.8074 H   0  0  0  0  0  0  0  0  0  0  0  0
  145.1022  136.7750  150.6641 H   0  0  0  0  0  0  0  0  0  0  0  0
  144.1609  135.8766  151.8390 H   0  0  0  0  0  0  0  0  0  0  0  0
  145.0318  137.5381  153.3707 H   0  0  0  0  0  0  0  0  0  0  0  0
  146.6590  137.3858  153.9848 H   0  0  0  0  0  0  0  0  0  0  0  0
  146.6988  138.2868  151.1698 H   0  0  0  0  0  0  0  0  0  0  0  0
  145.6449  139.3172  152.1090 H   0  0  0  0  0  0  0  0  0  0  0  0
  148.4683  139.3042  152.0994 H   0  0  0  0  0  0  0  0  0  0  0  0
  149.3279  141.2909  153.4769 H   0  0  0  0  0  0  0  0  0  0  0  0
  149.0067  141.0700  155.1882 H   0  0  0  0  0  0  0  0  0  0  0  0
  149.1391  137.7046  153.9099 H   0  0  0  0  0  0  0  0  0  0  0  0
  151.6459  136.6688  154.2118 H   0  0  0  0  0  0  0  0  0  0  0  0
  153.1887  138.9119  154.7288 H   0  0  0  0  0  0  0  0  0  0  0  0
  145.3829  134.8584  153.8499 H   0  0  0  0  0  0  0  0  0  0  0  0
  147.1112  135.0974  153.9826 H   0  0  0  0  0  0  0  0  0  0  0  0
  147.0687  136.1575  151.8356 H   0  0  0  0  0  0  0  0  0  0  0  0
  1  2  1  0  0  0  0
  1 19  1  0  0  0  0
  1 20  1  0  0  0  0
  1 21  1  0  0  0  0
  2 18  1  0  0  0  0
  2  3  1  0  0  0  0
  2 22  1  0  0  0  0
  3  4  1  0  0  0  0
  3 23  1  0  0  0  0
  3 24  1  0  0  0  0
  4  5  1  0  0  0  0
  4 25  1  0  0  0  0
  4 26  1  0  0  0  0
  5  6  1  0  0  0  0
  5 27  1  0  0  0  0
  5 28  1  0  0  0  0
  6  7  1  0  0  0  0
  6 18  1  0  0  0  0
  6 41  1  0  0  0  0
  7  8  1  0  0  0  0
  7 29  1  0  0  0  0
  7 30  1  0  0  0  0
  8  9  1  0  0  0  0
  8 31  1  0  0  0  0
  8 32  1  0  0  0  0
  9 10  1  0  0  0  0
  9 33  1  0  0  0  0
 10 11  2  0  0  0  0
 10 12  1  0  0  0  0
 12 13  1  0  0  0  0
 12 34  1  0  0  0  0
 12 35  1  0  0  0  0
 13 17  1  0  0  0  0
 13 14  1  0  0  0  0
 14 15  2  0  0  0  0
 14 36  1  0  0  0  0
 15 16  1  0  0  0  0
 15 37  1  0  0  0  0
 16 17  2  0  0  0  0
 16 38  1  0  0  0  0
 18 39  1  0  0  0  0
 18 40  1  0  0  0  0
M  CHG  1   6   1
M  END
> <s_m_source_file>
AV-unprocessed.smi

> <i_m_source_file_index>
3265

> <i_lp_mmshare_version>
43012

> <i_f3d_flags>
0

> <s_epik_input>
W0NIM11bQ0BASF0xW0NIMl1bQ0gyXVtDSDJdTihbQ0gyXTEpW0NIMl1bQ0gyXVtOSF1DKD1PKVtDSDJdbjJbY0hdW2NIXVtjSF1uMg==

> <s_epik_cmdline>
J2VwaWtfcHl0aG9uJywgJy1waCcsICc3LjAnLCAnLXRuJywgJzgnLCAnLW1hJywgJzIwMCcsICctbWV0YWxfYmluZGluZycsICctaW1hZScsICc8aW5maWxlLm1hZT4nLCAnLW9tYWUnLCAnPG91dGZpbGUubWFlPic=

> <r_lp_tautomer_probability>
1

> <r_epik_Ionization_Penalty>
0.00231455

> <r_epik_Ionization_Penalty_Charging>
0.00230623

> <r_epik_Ionization_Penalty_Neutral>
8.31727e-06

> <r_epik_State_Penalty>
0.00159065

> <r_epik_Charging_Adjusted_Penalty>
0.00389688

> <i_epik_Tot_Q>
1

> <i_epik_Tot_abs_Q>
1

> <r_epik_Metal_State_Penalty>
-0

> <b_epik_Metal_Only>
0

> <s_lp_Force_Field>
OPLS_2005

> <r_lp_Energy>
15.6905

> <b_lp_Chiralities_Consistent>
1

> <s_lp_Variant>
AV-unprocessed.smi:3265-4

> <Gold.Version>
5.8.1

> <Gold.Id.Protein>
6NUR|6NUR_protein|mol2

> <Gold.PLP.Fitness>
47.1814

> <Gold.PLP.PLP>
-34.0595

> <Gold.PLP.part.hbond>
-2.9940

> <Gold.PLP.part.metal>
0.0000

> <Gold.PLP.part.buried>
-1.9338

> <Gold.PLP.part.nonpolar>
-29.9475

> <Gold.PLP.part.repulsive>
0.2401

> <Gold.PLP.ligand.clash>
0.0000

> <Gold.PLP.ligand.torsion>
0.5248

> <Gold.PLP.Chemscore.Hbond>
4.0000

> <Gold.PLP.Chemscore.CHOScore>
0.7162

> <Gold.PLP.Chemscore.Metal>
0.0000

> <Gold.Chemscore.Hbonds>
donor molecule, donor type, donor heavy atom, donor atom, acceptor molecule, acceptor atom, score
      L1  H     6    41       P1  7948  1.98
      L1  H     9    33       P1  7957  1.00
      P1  H  7989  7998       L1    17  0.68
      L1  C    14    36       P1  7948  0.77

> <Gold.PLP.Chemscore.Internal.Correction>
0.0229

> <Gold.Rescore>
     Score         DG    S(hbond)    S(metal)    S(lipo)     H(rot)  DE(clash)    DE(int)     intcor
     16.83     -17.74       2.66        0.00      69.08       1.84       0.14       0.77       ----

> <Gold.Chemscore.Fitness>
16.8346

> <Gold.Chemscore.DG>
-17.7407

> <Gold.Chemscore.ZeroCoef>
-5.4800

> <Gold.Chemscore.Hbond>
2.6604

> <Gold.Chemscore.Metal>
0.0000

> <Gold.Chemscore.Lipo>
69.0758

> <Gold.Chemscore.Internal_Hbond>
0.0000

> <Gold.Chemscore.DEClash>
0.1355

> <Gold.Chemscore.DEInternal>
0.7706

> <Gold.Chemscore.Rot>
1.8386

> <Gold.Chemscore.Internal.Correction>
   9.000000E+99

> <Gold.Chemscore.Hbonds>
donor molecule, donor type, donor heavy atom, donor atom, acceptor molecule, acceptor atom, score
      L1  H     6    41       P1  7948  0.94
      L1  H     9    33       P1  7957  0.97
      P1  H  7989  7998       L1    17  0.21

> <Gold.Chemscore.Hbond.Weighted>
-8.8857

> <Gold.Chemscore.Metal.Weighted>
-0.0000

> <Gold.Chemscore.Lipo.Weighted>
-8.0819

> <Gold.Chemscore.Internal_Hbond.Weighted>
0.0000

> <Gold.Chemscore.DEClash.Weighted>
0.1355

> <Gold.Chemscore.DEInternal.Weighted>
0.7706

> <Gold.Chemscore.Rot.Weighted>
4.7069

> <Gold.Chemscore.Internal.Correction.Weighted>
   9.000000E+99

> <Gold.Protein.RotatedTorsions>
[ 6907 6896 6895 6894 ] final   48.16 input  -60.11 | X-H torsion
[ 7974 7965 7964 7962 ] final  127.95 input  175.53 | X-H torsion
[ 8008 7997 7996 7995 ] final -128.70 input   59.86 | X-H torsion
[ 10167 10162 10161 10158 ] final  149.00 input  -65.29 | X-H torsion
[ 10718 10713 10712 10709 ] final    6.26 input   66.30 | X-H torsion
[ 10763 10752 10751 10750 ] final  -68.78 input  -60.55 | X-H torsion
[ 11005 11000 10999 10996 ] final   72.82 input  -57.11 | X-H torsion

> <Gold.Protein.ActiveResidues>
 VAL166  LYS551  ARG553  GLY616  TRP617  ASP618  TYR619  PRO620  LYS621  CYS622 
 ASP623  PHE694  ASN695  SER759  ASP760  ASP761  ALA762  ILE779  LEU786  VAL792 
 PHE793  MET794  SER795  GLU796  ALA797  LYS798  CYS799  TRP800  GLU811  SER814 

> <Gold.Protein.RotatedAtoms>
  152.2763  134.7878  160.0404 H   0  0  0  0  0  0  0  0  0  0  0  0  # atno 6907 bound_to 6896
  151.8473  133.3428  159.3670 H   0  0  0  0  0  0  0  0  0  0  0  0  # atno 6908 bound_to 6896
  150.7171  134.5261  159.5722 H   0  0  0  0  0  0  0  0  0  0  0  0  # atno 6909 bound_to 6896
  145.0449  139.3932  143.5083 H   0  0  0  0  0  0  0  0  0  0  0  0  # atno 7974 bound_to 7965
  155.2670  140.0438  157.3003 H   0  0  0  0  0  0  0  0  0  0  0  0  # atno 8008 bound_to 7997
  154.5676  140.2364  155.8209 H   0  0  0  0  0  0  0  0  0  0  0  0  # atno 8009 bound_to 7997
  156.2097  140.3002  155.9713 H   0  0  0  0  0  0  0  0  0  0  0  0  # atno 8010 bound_to 7997
  139.4867  144.5635  151.7187 H   0  0  0  0  0  0  0  0  0  0  0  0  # atno 10167 bound_to 10162
  156.9195  130.5786  149.5647 H   0  0  0  0  0  0  0  0  0  0  0  0  # atno 10718 bound_to 10713
  154.3940  135.6046  153.5859 H   0  0  0  0  0  0  0  0  0  0  0  0  # atno 10763 bound_to 10752
  152.9787  135.5890  154.4264 H   0  0  0  0  0  0  0  0  0  0  0  0  # atno 10764 bound_to 10752
  154.4052  135.2843  155.2049 H   0  0  0  0  0  0  0  0  0  0  0  0  # atno 10765 bound_to 10752
  139.9471  134.7293  156.0953 H   0  0  0  0  0  0  0  0  0  0  0  0  # atno 11005 bound_to 11000
  146.3513  140.0068  142.8671 LP  0  0  0  0  0  0  0  0  0  0  0  0  # atno 17320 bound_to 7965
  145.1601  140.9668  143.4382 LP  0  0  0  0  0  0  0  0  0  0  0  0  # atno 17321 bound_to 7965
  140.5209  144.0880  150.6022 LP  0  0  0  0  0  0  0  0  0  0  0  0  # atno 17342 bound_to 10162
  140.3837  143.2789  152.0140 LP  0  0  0  0  0  0  0  0  0  0  0  0  # atno 17343 bound_to 10162
  156.0497  130.5569  150.8962 LP  0  0  0  0  0  0  0  0  0  0  0  0  # atno 17370 bound_to 10713
  157.5916  131.0944  150.9108 LP  0  0  0  0  0  0  0  0  0  0  0  0  # atno 17371 bound_to 10713
  141.1124  133.6639  156.3012 LP  0  0  0  0  0  0  0  0  0  0  0  0  # atno 17394 bound_to 11000
  140.5808  134.5747  157.5479 LP  0  0  0  0  0  0  0  0  0  0  0  0  # atno 17395 bound_to 11000

$$$$
