AV-unprocessed.smi:1560|AV-procd|sdf|6278|dock4
  -GOLD-   22720 6473D 1   1.00000     0.00000
 Structure written by MMmdl.
 48 49  0  0  0  0  0  0  0  0  2 V2000
  151.2878  131.4199  155.8816 C   0  0  0  0  0  0  0  0  0  0  0  0
  151.0462  132.9297  156.0574 C   0  0  0  0  0  0  0  0  0  0  0  0
  149.6773  133.4580  155.5286 C   0  0  2  0  0  0  0  0  0  0  0  0
  148.5607  132.7486  156.3399 C   0  0  0  0  0  0  0  0  0  0  0  0
  149.5285  133.0781  154.0253 C   0  0  0  0  0  0  0  0  0  0  0  0
  148.5178  133.8746  153.3357 N   0  0  0  0  0  0  0  0  0  0  0  0
  147.2080  133.5900  153.3183 C   0  0  0  0  0  0  0  0  0  0  0  0
  146.7270  132.6132  153.8945 O   0  0  0  0  0  0  0  0  0  0  0  0
  146.3157  134.5750  152.5486 C   0  0  0  0  0  0  0  0  0  0  0  0
  145.5488  133.9405  151.4664 N   0  0  0  0  0  0  0  0  0  0  0  0
  146.1257  132.9439  150.6920 C   0  0  0  0  0  0  0  0  0  0  0  0
  145.4822  132.3230  149.6751 C   0  0  0  0  0  0  0  0  0  0  0  0
  144.1101  132.6862  149.3381 C   0  0  0  0  0  0  0  0  0  0  0  0
  143.4431  132.1809  148.4379 O   0  0  0  0  0  0  0  0  0  0  0  0
  143.5656  133.6950  150.1375 N   0  0  0  0  0  0  0  0  0  0  0  0
  144.2243  134.3409  151.1850 C   0  0  0  0  0  0  0  0  0  0  0  0
  143.6531  135.2237  151.8241 O   0  0  0  0  0  0  0  0  0  0  0  0
  149.5905  134.9532  155.7134 N   0  3  0  0  0  0  0  0  0  0  0  0
  149.6376  135.4384  157.1222 C   0  0  0  0  0  0  0  0  0  0  0  0
  149.3282  136.9426  157.1837 C   0  0  0  0  0  0  0  0  0  0  0  0
  150.2659  137.6512  156.3861 O   0  0  0  0  0  0  0  0  0  0  0  0
  150.1889  137.2689  155.0203 C   0  0  0  0  0  0  0  0  0  0  0  0
  150.5128  135.7718  154.8758 C   0  0  0  0  0  0  0  0  0  0  0  0
  142.6181  133.9820  149.9392 H   0  0  0  0  0  0  0  0  0  0  0  0
  152.2664  131.1440  156.2747 H   0  0  0  0  0  0  0  0  0  0  0  0
  151.2671  131.1252  154.8328 H   0  0  0  0  0  0  0  0  0  0  0  0
  150.5466  130.8241  156.4141 H   0  0  0  0  0  0  0  0  0  0  0  0
  151.1749  133.1875  157.1083 H   0  0  0  0  0  0  0  0  0  0  0  0
  151.8598  133.4518  155.5522 H   0  0  0  0  0  0  0  0  0  0  0  0
  148.7347  131.6747  156.4154 H   0  0  0  0  0  0  0  0  0  0  0  0
  147.5811  132.8661  155.8761 H   0  0  0  0  0  0  0  0  0  0  0  0
  148.4916  133.1340  157.3575 H   0  0  0  0  0  0  0  0  0  0  0  0
  150.4724  133.2101  153.4957 H   0  0  0  0  0  0  0  0  0  0  0  0
  149.2547  132.0277  153.9221 H   0  0  0  0  0  0  0  0  0  0  0  0
  148.8349  134.6946  152.8387 H   0  0  0  0  0  0  0  0  0  0  0  0
  145.6378  135.0471  153.2614 H   0  0  0  0  0  0  0  0  0  0  0  0
  146.9270  135.3887  152.1525 H   0  0  0  0  0  0  0  0  0  0  0  0
  147.1429  132.6452  150.9031 H   0  0  0  0  0  0  0  0  0  0  0  0
  145.9863  131.5542  149.1074 H   0  0  0  0  0  0  0  0  0  0  0  0
  148.9163  134.9199  157.7504 H   0  0  0  0  0  0  0  0  0  0  0  0
  150.6239  135.2624  157.5521 H   0  0  0  0  0  0  0  0  0  0  0  0
  148.3107  137.1469  156.8463 H   0  0  0  0  0  0  0  0  0  0  0  0
  149.4004  137.2990  158.2114 H   0  0  0  0  0  0  0  0  0  0  0  0
  149.1975  137.4927  154.6226 H   0  0  0  0  0  0  0  0  0  0  0  0
  150.9015  137.8632  154.4480 H   0  0  0  0  0  0  0  0  0  0  0  0
  151.5473  135.5928  155.1691 H   0  0  0  0  0  0  0  0  0  0  0  0
  150.4286  135.5204  153.8203 H   0  0  0  0  0  0  0  0  0  0  0  0
  148.6652  135.1905  155.3853 H   0  0  0  0  0  0  0  0  0  0  0  0
  1  2  1  0  0  0  0
  1 25  1  0  0  0  0
  1 26  1  0  0  0  0
  1 27  1  0  0  0  0
  2  3  1  0  0  0  0
  2 28  1  0  0  0  0
  2 29  1  0  0  0  0
  3  4  1  0  0  0  0
  3  5  1  0  0  0  0
  3 18  1  0  0  0  0
  4 30  1  0  0  0  0
  4 31  1  0  0  0  0
  4 32  1  0  0  0  0
  5  6  1  0  0  0  0
  5 33  1  0  0  0  0
  5 34  1  0  0  0  0
  6  7  1  0  0  0  0
  6 35  1  0  0  0  0
  7  8  2  0  0  0  0
  7  9  1  0  0  0  0
  9 10  1  0  0  0  0
  9 36  1  0  0  0  0
  9 37  1  0  0  0  0
 10 16  1  0  0  0  0
 10 11  1  0  0  0  0
 11 12  2  0  0  0  0
 11 38  1  0  0  0  0
 12 13  1  0  0  0  0
 12 39  1  0  0  0  0
 13 14  2  0  0  0  0
 13 15  1  0  0  0  0
 15 24  1  0  0  0  0
 15 16  1  0  0  0  0
 16 17  2  0  0  0  0
 18 23  1  0  0  0  0
 18 19  1  0  0  0  0
 18 48  1  0  0  0  0
 19 20  1  0  0  0  0
 19 40  1  0  0  0  0
 19 41  1  0  0  0  0
 20 21  1  0  0  0  0
 20 42  1  0  0  0  0
 20 43  1  0  0  0  0
 21 22  1  0  0  0  0
 22 23  1  0  0  0  0
 22 44  1  0  0  0  0
 22 45  1  0  0  0  0
 23 46  1  0  0  0  0
 23 47  1  0  0  0  0
M  CHG  1  18   1
M  END
> <s_m_source_file>
AV-unprocessed.smi

> <i_m_source_file_index>
1560

> <i_lp_mmshare_version>
43012

> <i_f3d_flags>
0

> <s_epik_input>
W0NIMl0xW0NIMl1PW0NIMl1bQ0gyXU4xW0NAQF0oW0NIM10pKFtDSDJdW0NIM10pW0NIMl1bTkhdQyg9TylbQ0gyXW4yW2NIXVtjSF1jKD1PKVtuSF1jMj1P

> <s_epik_cmdline>
J2VwaWtfcHl0aG9uJywgJy1waCcsICc3LjAnLCAnLXRuJywgJzgnLCAnLW1hJywgJzIwMCcsICctbWV0YWxfYmluZGluZycsICctaW1hZScsICc8aW5maWxlLm1hZT4nLCAnLW9tYWUnLCAnPG91dGZpbGUubWFlPic=

> <r_lp_tautomer_probability>
0.999537

> <r_epik_Ionization_Penalty>
0.523885

> <r_epik_Ionization_Penalty_Charging>
0.523885

> <r_epik_Ionization_Penalty_Neutral>
8.70177e-08

> <r_epik_State_Penalty>
0.572334

> <r_epik_Charging_Adjusted_Penalty>
1.09622

> <i_epik_Tot_Q>
1

> <i_epik_Tot_abs_Q>
1

> <r_epik_Metal_State_Penalty>
0.938906

> <b_epik_Metal_Only>
0

> <s_lp_Force_Field>
OPLS_2005

> <r_lp_Energy>
29.9369

> <b_lp_Chiralities_Consistent>
1

> <s_lp_Variant>
AV-unprocessed.smi:1560-4

> <Gold.Version>
5.8.1

> <Gold.Id.Protein>
6NUR|6NUR_protein|mol2

> <Gold.PLP.Fitness>
42.3537

> <Gold.PLP.PLP>
-33.8343

> <Gold.PLP.part.hbond>
-3.0000

> <Gold.PLP.part.metal>
0.0000

> <Gold.PLP.part.buried>
-7.1173

> <Gold.PLP.part.nonpolar>
-24.7036

> <Gold.PLP.part.repulsive>
0.6444

> <Gold.PLP.ligand.clash>
0.0000

> <Gold.PLP.ligand.torsion>
0.8250

> <Gold.PLP.Chemscore.Hbond>
2.5060

> <Gold.PLP.Chemscore.CHOScore>
0.8017

> <Gold.PLP.Chemscore.Metal>
0.0000

> <Gold.Chemscore.Hbonds>
donor molecule, donor type, donor heavy atom, donor atom, acceptor molecule, acceptor atom, score
      L1  H     6    35       P1  7948  0.65
      L1  H    15    24       P1 10186  1.00
      P1  H 10785 10796       L1    14  0.64
      L1  C    11    38       P1 10747  0.75

> <Gold.PLP.Chemscore.Internal.Correction>
0.2464

> <Gold.Rescore>
     Score         DG    S(hbond)    S(metal)    S(lipo)     H(rot)  DE(clash)    DE(int)     intcor
     10.30     -12.68       2.04        0.00      59.51       2.56       0.14       2.24       ----

> <Gold.Chemscore.Fitness>
10.2959

> <Gold.Chemscore.DG>
-12.6770

> <Gold.Chemscore.ZeroCoef>
-5.4800

> <Gold.Chemscore.Hbond>
2.0351

> <Gold.Chemscore.Metal>
0.0000

> <Gold.Chemscore.Lipo>
59.5060

> <Gold.Chemscore.Internal_Hbond>
0.0000

> <Gold.Chemscore.DEClash>
0.1363

> <Gold.Chemscore.DEInternal>
2.2448

> <Gold.Chemscore.Rot>
2.5634

> <Gold.Chemscore.Internal.Correction>
   9.000000E+99

> <Gold.Chemscore.Hbonds>
donor molecule, donor type, donor heavy atom, donor atom, acceptor molecule, acceptor atom, score
      L1  H     6    35       P1  7948  0.06
      L1  H    15    24       P1 10186  1.00
      P1  H 10785 10796       L1    14  0.51

> <Gold.Chemscore.Hbond.Weighted>
-6.7973

> <Gold.Chemscore.Metal.Weighted>
-0.0000

> <Gold.Chemscore.Lipo.Weighted>
-6.9622

> <Gold.Chemscore.Internal_Hbond.Weighted>
0.0000

> <Gold.Chemscore.DEClash.Weighted>
0.1363

> <Gold.Chemscore.DEInternal.Weighted>
2.2448

> <Gold.Chemscore.Rot.Weighted>
6.5624

> <Gold.Chemscore.Internal.Correction.Weighted>
   9.000000E+99

> <Gold.Protein.RotatedTorsions>
[ 6907 6896 6895 6894 ] final  100.78 input  -60.11 | X-H torsion
[ 7974 7965 7964 7962 ] final  118.31 input  175.53 | X-H torsion
[ 8008 7997 7996 7995 ] final  -28.85 input   59.86 | X-H torsion
[ 10167 10162 10161 10158 ] final   54.17 input  -65.29 | X-H torsion
[ 10718 10713 10712 10709 ] final  164.61 input   66.30 | X-H torsion
[ 10763 10752 10751 10750 ] final    0.84 input  -60.55 | X-H torsion
[ 11005 11000 10999 10996 ] final  141.10 input  -57.11 | X-H torsion

> <Gold.Protein.ActiveResidues>
 VAL166  LYS551  ARG553  GLY616  TRP617  ASP618  TYR619  PRO620  LYS621  CYS622 
 ASP623  PHE694  ASN695  SER759  ASP760  ASP761  ALA762  ILE779  LEU786  VAL792 
 PHE793  MET794  SER795  GLU796  ALA797  LYS798  CYS799  TRP800  GLU811  SER814 

> <Gold.Protein.RotatedAtoms>
  152.5364  134.0225  159.7987 H   0  0  0  0  0  0  0  0  0  0  0  0  # atno 6907 bound_to 6896
  151.0409  133.5699  159.2658 H   0  0  0  0  0  0  0  0  0  0  0  0  # atno 6908 bound_to 6896
  151.2669  135.0679  159.9173 H   0  0  0  0  0  0  0  0  0  0  0  0  # atno 6909 bound_to 6896
  145.1568  139.3178  143.4538 H   0  0  0  0  0  0  0  0  0  0  0  0  # atno 7974 bound_to 7965
  154.4314  140.1834  156.1155 H   0  0  0  0  0  0  0  0  0  0  0  0  # atno 8008 bound_to 7997
  156.0184  140.3343  155.6987 H   0  0  0  0  0  0  0  0  0  0  0  0  # atno 8009 bound_to 7997
  155.6011  140.0640  157.2723 H   0  0  0  0  0  0  0  0  0  0  0  0  # atno 8010 bound_to 7997
  140.2330  144.3666  150.6407 H   0  0  0  0  0  0  0  0  0  0  0  0  # atno 10167 bound_to 10162
  157.0919  131.0420  151.2533 H   0  0  0  0  0  0  0  0  0  0  0  0  # atno 10718 bound_to 10713
  153.3155  135.6965  153.7077 H   0  0  0  0  0  0  0  0  0  0  0  0  # atno 10763 bound_to 10752
  153.5937  135.3475  155.2921 H   0  0  0  0  0  0  0  0  0  0  0  0  # atno 10764 bound_to 10752
  154.8585  135.4324  154.2305 H   0  0  0  0  0  0  0  0  0  0  0  0  # atno 10765 bound_to 10752
  140.0376  134.9321  157.0783 H   0  0  0  0  0  0  0  0  0  0  0  0  # atno 11005 bound_to 11000
  146.3487  140.1663  142.8590 LP  0  0  0  0  0  0  0  0  0  0  0  0  # atno 17320 bound_to 7965
  145.0373  140.8918  143.5073 LP  0  0  0  0  0  0  0  0  0  0  0  0  # atno 17321 bound_to 7965
  140.6171  143.2173  151.6770 LP  0  0  0  0  0  0  0  0  0  0  0  0  # atno 17342 bound_to 10162
  139.5103  144.3546  152.0620 LP  0  0  0  0  0  0  0  0  0  0  0  0  # atno 17343 bound_to 10162
  157.4714  130.7711  149.7327 LP  0  0  0  0  0  0  0  0  0  0  0  0  # atno 17370 bound_to 10713
  155.9896  130.3951  150.3067 LP  0  0  0  0  0  0  0  0  0  0  0  0  # atno 17371 bound_to 10713
  140.4121  134.1970  155.7163 LP  0  0  0  0  0  0  0  0  0  0  0  0  # atno 17394 bound_to 11000
  141.1866  133.8299  157.1063 LP  0  0  0  0  0  0  0  0  0  0  0  0  # atno 17395 bound_to 11000

$$$$
