AV-unprocessed.smi:1902|AV-procd|sdf|7720|dock6
  -GOLD-   22720 9463D 1   1.00000     0.00000
 Structure written by MMmdl.
 44 45  0  0  0  0  0  0  0  0  2 V2000
  145.4659  133.4922  150.2763 C   0  0  0  0  0  0  0  0  0  0  0  0
  146.1011  133.4033  151.6712 C   0  0  2  0  0  0  0  0  0  0  0  0
  146.0337  134.7474  152.4150 C   0  0  0  0  0  0  0  0  0  0  0  0
  146.7039  134.6575  153.7967 C   0  0  0  0  0  0  0  0  0  0  0  0
  148.1123  134.1973  153.6837 N   0  3  1  0  0  0  0  0  0  0  0  0
  148.8183  134.2311  154.9892 C   0  0  0  0  0  0  0  0  0  0  0  0
  150.2784  134.7079  154.8590 C   0  0  0  0  0  0  0  0  0  0  0  0
  150.3504  136.0375  154.2656 N   0  0  0  0  0  0  0  0  0  0  0  0
  151.1134  137.0408  154.7246 C   0  0  0  0  0  0  0  0  0  0  0  0
  151.8166  136.9442  155.7313 O   0  0  0  0  0  0  0  0  0  0  0  0
  151.0617  138.3520  153.9279 C   0  0  0  0  0  0  0  0  0  0  0  0
  150.6301  139.5011  154.7412 N   0  0  0  0  0  0  0  0  0  0  0  0
  149.4380  140.1487  154.3602 C   0  0  0  0  0  0  0  0  0  0  0  0
  148.9552  141.2026  155.0372 C   0  0  0  0  0  0  0  0  0  0  0  0
  149.6925  141.6721  156.1862 C   0  0  0  0  0  0  0  0  0  0  0  0
  150.8329  141.0588  156.5605 C   0  0  0  0  0  0  0  0  0  0  0  0
  151.3637  139.9058  155.8244 C   0  0  0  0  0  0  0  0  0  0  0  0
  152.4023  139.3361  156.1616 O   0  0  0  0  0  0  0  0  0  0  0  0
  148.1985  132.8785  153.0020 C   0  0  0  0  0  0  0  0  0  0  0  0
  147.5643  132.9358  151.6021 C   0  0  0  0  0  0  0  0  0  0  0  0
  145.9844  134.2171  149.6480 H   0  0  0  0  0  0  0  0  0  0  0  0
  144.4203  133.7949  150.3396 H   0  0  0  0  0  0  0  0  0  0  0  0
  145.4983  132.5283  149.7679 H   0  0  0  0  0  0  0  0  0  0  0  0
  145.5366  132.6676  152.2464 H   0  0  0  0  0  0  0  0  0  0  0  0
  146.5219  135.5238  151.8240 H   0  0  0  0  0  0  0  0  0  0  0  0
  144.9947  135.0569  152.5322 H   0  0  0  0  0  0  0  0  0  0  0  0
  146.6728  135.6396  154.2702 H   0  0  0  0  0  0  0  0  0  0  0  0
  146.1475  133.9761  154.4426 H   0  0  0  0  0  0  0  0  0  0  0  0
  148.2919  134.9167  155.6548 H   0  0  0  0  0  0  0  0  0  0  0  0
  148.7714  133.2488  155.4619 H   0  0  0  0  0  0  0  0  0  0  0  0
  150.7589  134.7650  155.8349 H   0  0  0  0  0  0  0  0  0  0  0  0
  150.8618  134.0016  154.2655 H   0  0  0  0  0  0  0  0  0  0  0  0
  149.7946  136.2028  153.4385 H   0  0  0  0  0  0  0  0  0  0  0  0
  152.0410  138.5569  153.4906 H   0  0  0  0  0  0  0  0  0  0  0  0
  150.3937  138.2059  153.0780 H   0  0  0  0  0  0  0  0  0  0  0  0
  148.9434  139.7331  153.4942 H   0  0  0  0  0  0  0  0  0  0  0  0
  148.0379  141.6847  154.7323 H   0  0  0  0  0  0  0  0  0  0  0  0
  149.3272  142.5180  156.7495 H   0  0  0  0  0  0  0  0  0  0  0  0
  151.3702  141.4232  157.4237 H   0  0  0  0  0  0  0  0  0  0  0  0
  149.2373  132.5672  152.9022 H   0  0  0  0  0  0  0  0  0  0  0  0
  147.6998  132.1204  153.6085 H   0  0  0  0  0  0  0  0  0  0  0  0
  147.6205  131.9523  151.1340 H   0  0  0  0  0  0  0  0  0  0  0  0
  148.1407  133.6119  150.9691 H   0  0  0  0  0  0  0  0  0  0  0  0
  148.5785  134.8690  153.0905 H   0  0  0  0  0  0  0  0  0  0  0  0
  1  2  1  0  0  0  0
  1 21  1  0  0  0  0
  1 22  1  0  0  0  0
  1 23  1  0  0  0  0
  2 20  1  0  0  0  0
  2  3  1  0  0  0  0
  2 24  1  0  0  0  0
  3  4  1  0  0  0  0
  3 25  1  0  0  0  0
  3 26  1  0  0  0  0
  4  5  1  0  0  0  0
  4 27  1  0  0  0  0
  4 28  1  0  0  0  0
  5  6  1  0  0  0  0
  5 19  1  0  0  0  0
  5 44  1  0  0  0  0
  6  7  1  0  0  0  0
  6 29  1  0  0  0  0
  6 30  1  0  0  0  0
  7  8  1  0  0  0  0
  7 31  1  0  0  0  0
  7 32  1  0  0  0  0
  8  9  1  0  0  0  0
  8 33  1  0  0  0  0
  9 10  2  0  0  0  0
  9 11  1  0  0  0  0
 11 12  1  0  0  0  0
 11 34  1  0  0  0  0
 11 35  1  0  0  0  0
 12 17  1  0  0  0  0
 12 13  1  0  0  0  0
 13 14  2  0  0  0  0
 13 36  1  0  0  0  0
 14 15  1  0  0  0  0
 14 37  1  0  0  0  0
 15 16  2  0  0  0  0
 15 38  1  0  0  0  0
 16 17  1  0  0  0  0
 16 39  1  0  0  0  0
 17 18  2  0  0  0  0
 19 20  1  0  0  0  0
 19 40  1  0  0  0  0
 19 41  1  0  0  0  0
 20 42  1  0  0  0  0
 20 43  1  0  0  0  0
M  CHG  1   5   1
M  END
> <s_m_source_file>
AV-unprocessed.smi

> <i_m_source_file_index>
1902

> <i_lp_mmshare_version>
43012

> <i_f3d_flags>
0

> <s_epik_input>
W0NIM11bQ0hdMVtDSDJdW0NIMl1OKFtDSDJdW0NIMl0xKVtDSDJdW0NIMl1bTkhdQyg9TylbQ0gyXW4yW2NIXVtjSF1bY0hdW2NIXWMyPU8=

> <s_epik_cmdline>
J2VwaWtfcHl0aG9uJywgJy1waCcsICc3LjAnLCAnLXRuJywgJzgnLCAnLW1hJywgJzIwMCcsICctbWV0YWxfYmluZGluZycsICctaW1hZScsICc8aW5maWxlLm1hZT4nLCAnLW9tYWUnLCAnPG91dGZpbGUubWFlPic=

> <r_lp_tautomer_probability>
1

> <r_epik_Ionization_Penalty>
0.00156146

> <r_epik_Ionization_Penalty_Charging>
0.00156137

> <r_epik_Ionization_Penalty_Neutral>
8.12891e-08

> <r_epik_State_Penalty>
0.00104868

> <r_epik_Charging_Adjusted_Penalty>
0.00261006

> <i_epik_Tot_Q>
1

> <i_epik_Tot_abs_Q>
1

> <r_epik_Metal_State_Penalty>
-0

> <b_epik_Metal_Only>
0

> <s_lp_Force_Field>
OPLS_2005

> <r_lp_Energy>
24.6388

> <b_lp_Chiralities_Consistent>
1

> <s_lp_Variant>
AV-unprocessed.smi:1902-1

> <Gold.Version>
5.8.1

> <Gold.Id.Protein>
6NUR|6NUR_protein|mol2

> <Gold.PLP.Fitness>
54.7328

> <Gold.PLP.PLP>
-37.8116

> <Gold.PLP.part.hbond>
-5.0000

> <Gold.PLP.part.metal>
0.0000

> <Gold.PLP.part.buried>
-0.5584

> <Gold.PLP.part.nonpolar>
-32.1338

> <Gold.PLP.part.repulsive>
0.1121

> <Gold.PLP.ligand.clash>
0.0054

> <Gold.PLP.ligand.torsion>
0.5743

> <Gold.PLP.Chemscore.Hbond>
5.0000

> <Gold.PLP.Chemscore.CHOScore>
1.0000

> <Gold.PLP.Chemscore.Metal>
0.0000

> <Gold.Chemscore.Hbonds>
donor molecule, donor type, donor heavy atom, donor atom, acceptor molecule, acceptor atom, score
      L1  H     5    44       P1  7948  2.00
      L1  H     8    33       P1  7948  0.85
      P1  H  7997  8009       L1    18  0.71
      P1  H 10752 10764       L1    10  0.66
      L1  C    13    36       P1  7957  0.93

> <Gold.PLP.Chemscore.Internal.Correction>
0.0752

> <Gold.Rescore>
     Score         DG    S(hbond)    S(metal)    S(lipo)     H(rot)  DE(clash)    DE(int)     intcor
     17.23     -19.48       3.47        0.00      61.15       1.86       0.02       2.23       ----

> <Gold.Chemscore.Fitness>
17.2302

> <Gold.Chemscore.DG>
-19.4821

> <Gold.Chemscore.ZeroCoef>
-5.4800

> <Gold.Chemscore.Hbond>
3.4746

> <Gold.Chemscore.Metal>
0.0000

> <Gold.Chemscore.Lipo>
61.1538

> <Gold.Chemscore.Internal_Hbond>
0.0000

> <Gold.Chemscore.DEClash>
0.0179

> <Gold.Chemscore.DEInternal>
2.2341

> <Gold.Chemscore.Rot>
1.8586

> <Gold.Chemscore.Internal.Correction>
   9.000000E+99

> <Gold.Chemscore.Hbonds>
donor molecule, donor type, donor heavy atom, donor atom, acceptor molecule, acceptor atom, score
      L1  H     5    44       P1  7948  0.50
      L1  H     8    33       P1  7948  0.15
      P1  H  7997  8009       L1    18  0.70
      P1  H 10752 10764       L1    10  0.06

> <Gold.Chemscore.Hbond.Weighted>
-11.6053

> <Gold.Chemscore.Metal.Weighted>
-0.0000

> <Gold.Chemscore.Lipo.Weighted>
-7.1550

> <Gold.Chemscore.Internal_Hbond.Weighted>
0.0000

> <Gold.Chemscore.DEClash.Weighted>
0.0179

> <Gold.Chemscore.DEInternal.Weighted>
2.2341

> <Gold.Chemscore.Rot.Weighted>
4.7581

> <Gold.Chemscore.Internal.Correction.Weighted>
   9.000000E+99

> <Gold.Protein.RotatedTorsions>
[ 6907 6896 6895 6894 ] final -127.79 input  -60.11 | X-H torsion
[ 7974 7965 7964 7962 ] final  136.46 input  175.53 | X-H torsion
[ 8008 7997 7996 7995 ] final -145.79 input   59.86 | X-H torsion
[ 10167 10162 10161 10158 ] final   -4.96 input  -65.29 | X-H torsion
[ 10718 10713 10712 10709 ] final -164.93 input   66.30 | X-H torsion
[ 10763 10752 10751 10750 ] final  -38.88 input  -60.55 | X-H torsion
[ 11005 11000 10999 10996 ] final   52.96 input  -57.11 | X-H torsion

> <Gold.Protein.ActiveResidues>
 VAL166  LYS551  ARG553  GLY616  TRP617  ASP618  TYR619  PRO620  LYS621  CYS622 
 ASP623  PHE694  ASN695  SER759  ASP760  ASP761  ALA762  ILE779  LEU786  VAL792 
 PHE793  MET794  SER795  GLU796  ALA797  LYS798  CYS799  TRP800  GLU811  SER814 

> <Gold.Protein.RotatedAtoms>
  150.9110  133.6997  159.2854 H   0  0  0  0  0  0  0  0  0  0  0  0  # atno 6907 bound_to 6896
  151.4484  135.1026  159.9700 H   0  0  0  0  0  0  0  0  0  0  0  0  # atno 6908 bound_to 6896
  152.4930  133.8502  159.7253 H   0  0  0  0  0  0  0  0  0  0  0  0  # atno 6909 bound_to 6896
  144.9562  139.4761  143.5501 H   0  0  0  0  0  0  0  0  0  0  0  0  # atno 7974 bound_to 7965
  155.5490  140.0615  157.2854 H   0  0  0  0  0  0  0  0  0  0  0  0  # atno 8008 bound_to 7997
  154.4427  140.1906  156.0711 H   0  0  0  0  0  0  0  0  0  0  0  0  # atno 8009 bound_to 7997
  156.0530  140.3282  155.7377 H   0  0  0  0  0  0  0  0  0  0  0  0  # atno 8010 bound_to 7997
  140.6946  143.6363  150.8477 H   0  0  0  0  0  0  0  0  0  0  0  0  # atno 10167 bound_to 10162
  156.6460  130.8988  151.3005 H   0  0  0  0  0  0  0  0  0  0  0  0  # atno 10718 bound_to 10713
  153.9202  135.6783  153.4748 H   0  0  0  0  0  0  0  0  0  0  0  0  # atno 10763 bound_to 10752
  153.1033  135.4818  154.8903 H   0  0  0  0  0  0  0  0  0  0  0  0  # atno 10764 bound_to 10752
  154.7482  135.3178  154.8562 H   0  0  0  0  0  0  0  0  0  0  0  0  # atno 10765 bound_to 10752
  140.0806  134.5344  155.8951 H   0  0  0  0  0  0  0  0  0  0  0  0  # atno 11005 bound_to 11000
  146.3338  139.8682  142.8844 LP  0  0  0  0  0  0  0  0  0  0  0  0  # atno 17320 bound_to 7965
  145.2768  141.0126  143.3740 LP  0  0  0  0  0  0  0  0  0  0  0  0  # atno 17321 bound_to 7965
  140.0079  143.5674  152.2850 LP  0  0  0  0  0  0  0  0  0  0  0  0  # atno 17342 bound_to 10162
  139.6387  144.7652  151.2384 LP  0  0  0  0  0  0  0  0  0  0  0  0  # atno 17343 bound_to 10162
  157.7156  130.9493  150.1243 LP  0  0  0  0  0  0  0  0  0  0  0  0  # atno 17370 bound_to 10713
  156.2121  130.3667  149.8657 LP  0  0  0  0  0  0  0  0  0  0  0  0  # atno 17371 bound_to 10713
  141.2045  133.6640  156.6125 LP  0  0  0  0  0  0  0  0  0  0  0  0  # atno 17394 bound_to 11000
  140.3494  134.7782  157.4455 LP  0  0  0  0  0  0  0  0  0  0  0  0  # atno 17395 bound_to 11000

$$$$
