AV-unprocessed.smi:94|AV-procd|sdf|854|dock9
  -GOLD-   2262017303D 1   1.00000     0.00000
 Structure written by MMmdl.
 53 55  0  0  0  0  0  0  0  0  1 V2000
  154.7295  139.7979  162.3601 C   0  0  0  0  0  0  0  0  0  0  0  0
  154.0447  139.5652  161.1381 O   0  0  0  0  0  0  0  0  0  0  0  0
  153.4581  140.6378  160.4965 C   0  0  0  0  0  0  0  0  0  0  0  0
  153.4189  141.9444  161.0478 C   0  0  0  0  0  0  0  0  0  0  0  0
  152.7943  142.9987  160.3571 C   0  0  0  0  0  0  0  0  0  0  0  0
  152.1927  142.7653  159.1074 C   0  0  0  0  0  0  0  0  0  0  0  0
  151.5101  143.8944  158.3631 C   0  0  0  0  0  0  0  0  0  0  0  0
  152.2299  141.4740  158.5488 C   0  0  0  0  0  0  0  0  0  0  0  0
  152.8661  140.4081  159.2281 C   0  0  0  0  0  0  0  0  0  0  0  0
  152.8858  139.0074  158.6133 C   0  0  1  0  0  0  0  0  0  0  0  0
  152.1246  138.0102  159.5026 C   0  0  0  0  0  0  0  0  0  0  0  0
  152.3477  138.9871  157.2529 N   0  0  0  0  0  0  0  0  0  0  0  0
  152.9939  138.5558  156.1586 C   0  0  0  0  0  0  0  0  0  0  0  0
  154.1399  138.1045  156.1842 O   0  0  0  0  0  0  0  0  0  0  0  0
  152.2181  138.6698  154.8376 C   0  0  0  0  0  0  0  0  0  0  0  0
  150.8430  138.1296  154.9133 N   0  0  0  0  0  0  0  0  0  0  0  0
  150.6705  136.7734  155.2869 C   0  0  0  0  0  0  0  0  0  0  0  0
  151.6365  136.0562  155.5516 O   0  0  0  0  0  0  0  0  0  0  0  0
  149.2912  136.3006  155.3249 C   0  0  0  0  0  0  0  0  0  0  0  0
  149.0334  135.0259  155.6632 F   0  0  0  0  0  0  0  0  0  0  0  0
  148.2667  137.1233  155.0211 C   0  0  0  0  0  0  0  0  0  0  0  0
  148.4497  138.4455  154.6609 N   0  0  0  0  0  0  0  0  0  0  0  0
  147.2731  139.3267  154.3084 C   0  0  1  0  0  0  0  0  0  0  0  0
  146.4904  138.7228  153.1362 C   0  0  0  0  0  0  0  0  0  0  0  0
  145.3624  138.0041  153.8457 C   0  0  0  0  0  0  0  0  0  0  0  0
  145.1203  138.9190  155.0398 C   0  0  0  0  0  0  0  0  0  0  0  0
  146.4118  139.3929  155.4088 O   0  0  0  0  0  0  0  0  0  0  0  0
  149.7564  138.9749  154.5834 C   0  0  0  0  0  0  0  0  0  0  0  0
  149.9447  140.1399  154.2264 O   0  0  0  0  0  0  0  0  0  0  0  0
  155.1278  138.8546  162.7335 H   0  0  0  0  0  0  0  0  0  0  0  0
  154.0606  140.1973  163.1236 H   0  0  0  0  0  0  0  0  0  0  0  0
  155.5710  140.4782  162.2226 H   0  0  0  0  0  0  0  0  0  0  0  0
  153.8604  142.1673  162.0070 H   0  0  0  0  0  0  0  0  0  0  0  0
  152.7747  143.9864  160.7946 H   0  0  0  0  0  0  0  0  0  0  0  0
  150.5957  143.5418  157.8851 H   0  0  0  0  0  0  0  0  0  0  0  0
  152.1712  144.2897  157.5918 H   0  0  0  0  0  0  0  0  0  0  0  0
  151.2448  144.7080  159.0390 H   0  0  0  0  0  0  0  0  0  0  0  0
  151.7565  141.3075  157.5924 H   0  0  0  0  0  0  0  0  0  0  0  0
  153.9267  138.6864  158.5494 H   0  0  0  0  0  0  0  0  0  0  0  0
  152.5521  137.9754  160.5052 H   0  0  0  0  0  0  0  0  0  0  0  0
  152.1660  136.9996  159.0959 H   0  0  0  0  0  0  0  0  0  0  0  0
  151.0744  138.2876  159.5988 H   0  0  0  0  0  0  0  0  0  0  0  0
  151.4106  139.3435  157.1346 H   0  0  0  0  0  0  0  0  0  0  0  0
  152.2022  139.7149  154.5231 H   0  0  0  0  0  0  0  0  0  0  0  0
  152.7979  138.1703  154.0601 H   0  0  0  0  0  0  0  0  0  0  0  0
  147.2661  136.7192  155.0597 H   0  0  0  0  0  0  0  0  0  0  0  0
  147.6756  140.3199  154.1042 H   0  0  0  0  0  0  0  0  0  0  0  0
  146.0991  139.5363  152.5241 H   0  0  0  0  0  0  0  0  0  0  0  0
  147.1085  138.0760  152.5120 H   0  0  0  0  0  0  0  0  0  0  0  0
  144.4775  137.8735  153.2224 H   0  0  0  0  0  0  0  0  0  0  0  0
  145.6925  137.0204  154.1818 H   0  0  0  0  0  0  0  0  0  0  0  0
  144.5039  139.7702  154.7474 H   0  0  0  0  0  0  0  0  0  0  0  0
  144.6281  138.4100  155.8686 H   0  0  0  0  0  0  0  0  0  0  0  0
  1  2  1  0  0  0  0
  1 30  1  0  0  0  0
  1 31  1  0  0  0  0
  1 32  1  0  0  0  0
  2  3  1  0  0  0  0
  3  9  1  0  0  0  0
  3  4  2  0  0  0  0
  4  5  1  0  0  0  0
  4 33  1  0  0  0  0
  5  6  2  0  0  0  0
  5 34  1  0  0  0  0
  6  7  1  0  0  0  0
  6  8  1  0  0  0  0
  7 35  1  0  0  0  0
  7 36  1  0  0  0  0
  7 37  1  0  0  0  0
  8  9  2  0  0  0  0
  8 38  1  0  0  0  0
  9 10  1  0  0  0  0
 10 11  1  0  0  0  0
 10 12  1  0  0  0  0
 10 39  1  0  0  0  0
 11 40  1  0  0  0  0
 11 41  1  0  0  0  0
 11 42  1  0  0  0  0
 12 13  1  0  0  0  0
 12 43  1  0  0  0  0
 13 14  2  0  0  0  0
 13 15  1  0  0  0  0
 15 16  1  0  0  0  0
 15 44  1  0  0  0  0
 15 45  1  0  0  0  0
 16 28  1  0  0  0  0
 16 17  1  0  0  0  0
 17 18  2  0  0  0  0
 17 19  1  0  0  0  0
 19 20  1  0  0  0  0
 19 21  2  0  0  0  0
 21 22  1  0  0  0  0
 21 46  1  0  0  0  0
 22 23  1  0  0  0  0
 22 28  1  0  0  0  0
 23 27  1  0  0  0  0
 23 24  1  0  0  0  0
 23 47  1  0  0  0  0
 24 25  1  0  0  0  0
 24 48  1  0  0  0  0
 24 49  1  0  0  0  0
 25 26  1  0  0  0  0
 25 50  1  0  0  0  0
 25 51  1  0  0  0  0
 26 27  1  0  0  0  0
 26 52  1  0  0  0  0
 26 53  1  0  0  0  0
 28 29  2  0  0  0  0
M  END
> <s_m_source_file>
AV-unprocessed.smi

> <i_m_source_file_index>
94

> <i_lp_mmshare_version>
43012

> <i_f3d_flags>
0

> <s_epik_input>
W0NIM11PYzFbY0hdW2NIXWMoW0NIM10pW2NIXWMxW0NASF0oW0NIM10pW05IXUMoPU8pW0NIMl1uMmMoPU8pYyhGKVtjSF1uKGMyPU8pW0NAQEhdM1tDSDJdW0NIMl1bQ0gyXU8z

> <s_epik_cmdline>
J2VwaWtfcHl0aG9uJywgJy1waCcsICc3LjAnLCAnLXRuJywgJzgnLCAnLW1hJywgJzIwMCcsICctbWV0YWxfYmluZGluZycsICctaW1hZScsICc8aW5maWxlLm1hZT4nLCAnLW9tYWUnLCAnPG91dGZpbGUubWFlPic=

> <r_lp_tautomer_probability>
1

> <r_epik_Ionization_Penalty>
3.37009e-08

> <r_epik_Ionization_Penalty_Charging>
3.59856e-09

> <r_epik_Ionization_Penalty_Neutral>
3.01024e-08

> <r_epik_State_Penalty>
-0

> <r_epik_Charging_Adjusted_Penalty>
3.59856e-09

> <i_epik_Tot_Q>
0

> <i_epik_Tot_abs_Q>
0

> <r_epik_Metal_State_Penalty>
-0

> <b_epik_Metal_Only>
0

> <s_epik_Chemistry_Notes>
This compound contains an acetal/aminal-like group ( X-CH(R)-Y where X, Y are N, S, or O) that may be acid/base labile, releasing an aldehyde.

> <s_lp_Force_Field>
OPLS_2005

> <r_lp_Energy>
32.8189

> <b_lp_Chiralities_Consistent>
1

> <s_lp_Variant>
AV-unprocessed.smi:94-4

> <Gold.Version>
5.8.1

> <Gold.Id.Protein>
6NUR|6NUR_protein|mol2

> <Gold.PLP.Fitness>
53.4305

> <Gold.PLP.PLP>
-47.8122

> <Gold.PLP.part.hbond>
-3.0150

> <Gold.PLP.part.metal>
0.0000

> <Gold.PLP.part.buried>
-5.3810

> <Gold.PLP.part.nonpolar>
-40.5150

> <Gold.PLP.part.repulsive>
1.1208

> <Gold.PLP.ligand.clash>
0.0000

> <Gold.PLP.ligand.torsion>
0.2274

> <Gold.PLP.Chemscore.Hbond>
2.0028

> <Gold.PLP.Chemscore.CHOScore>
0.0000

> <Gold.PLP.Chemscore.Metal>
0.0000

> <Gold.Chemscore.Hbonds>
donor molecule, donor type, donor heavy atom, donor atom, acceptor molecule, acceptor atom, score
      P1  H  7989  7998       L1    29  0.93
      P1  H  7997  8008       L1    14  0.02
      P1  H 10752 10763       L1    18  1.00

> <Gold.PLP.Chemscore.Internal.Correction>
0.0646

> <Gold.Rescore>
     Score         DG    S(hbond)    S(metal)    S(lipo)     H(rot)  DE(clash)    DE(int)     intcor
     16.19     -19.16       1.97        0.00     111.75       2.34       0.24       2.73       ----

> <Gold.Chemscore.Fitness>
16.1870

> <Gold.Chemscore.DG>
-19.1597

> <Gold.Chemscore.ZeroCoef>
-5.4800

> <Gold.Chemscore.Hbond>
1.9724

> <Gold.Chemscore.Metal>
0.0000

> <Gold.Chemscore.Lipo>
111.7487

> <Gold.Chemscore.Internal_Hbond>
0.0000

> <Gold.Chemscore.DEClash>
0.2389

> <Gold.Chemscore.DEInternal>
2.7337

> <Gold.Chemscore.Rot>
2.3370

> <Gold.Chemscore.Internal.Correction>
   9.000000E+99

> <Gold.Chemscore.Hbonds>
donor molecule, donor type, donor heavy atom, donor atom, acceptor molecule, acceptor atom, score
      P1  H  7989  7998       L1    29  0.88
      P1  H 10752 10763       L1    18  1.00

> <Gold.Chemscore.Hbond.Weighted>
-6.5877

> <Gold.Chemscore.Metal.Weighted>
-0.0000

> <Gold.Chemscore.Lipo.Weighted>
-13.0746

> <Gold.Chemscore.Internal_Hbond.Weighted>
0.0000

> <Gold.Chemscore.DEClash.Weighted>
0.2389

> <Gold.Chemscore.DEInternal.Weighted>
2.7337

> <Gold.Chemscore.Rot.Weighted>
5.9827

> <Gold.Chemscore.Internal.Correction.Weighted>
   9.000000E+99

> <Gold.Protein.RotatedTorsions>
[ 6907 6896 6895 6894 ] final  141.47 input  -60.11 | X-H torsion
[ 7974 7965 7964 7962 ] final  172.51 input  175.53 | X-H torsion
[ 8008 7997 7996 7995 ] final -101.90 input   59.86 | X-H torsion
[ 10167 10162 10161 10158 ] final -144.54 input  -65.29 | X-H torsion
[ 10718 10713 10712 10709 ] final -116.49 input   66.30 | X-H torsion
[ 10763 10752 10751 10750 ] final   65.46 input  -60.55 | X-H torsion
[ 11005 11000 10999 10996 ] final  151.89 input  -57.11 | X-H torsion

> <Gold.Protein.ActiveResidues>
 VAL166  LYS551  ARG553  GLY616  TRP617  ASP618  TYR619  PRO620  LYS621  CYS622 
 ASP623  PHE694  ASN695  SER759  ASP760  ASP761  ALA762  ILE779  LEU786  VAL792 
 PHE793  MET794  SER795  GLU796  ALA797  LYS798  CYS799  TRP800  GLU811  SER814 

> <Gold.Protein.RotatedAtoms>
  152.2306  133.5055  159.5213 H   0  0  0  0  0  0  0  0  0  0  0  0  # atno 6907 bound_to 6896
  150.7036  134.1222  159.4048 H   0  0  0  0  0  0  0  0  0  0  0  0  # atno 6908 bound_to 6896
  151.9143  135.0325  160.0567 H   0  0  0  0  0  0  0  0  0  0  0  0  # atno 6909 bound_to 6896
  144.7266  139.9509  143.6432 H   0  0  0  0  0  0  0  0  0  0  0  0  # atno 7974 bound_to 7965
  154.8491  140.0431  157.1592 H   0  0  0  0  0  0  0  0  0  0  0  0  # atno 8008 bound_to 7997
  154.8962  140.2993  155.5322 H   0  0  0  0  0  0  0  0  0  0  0  0  # atno 8009 bound_to 7997
  156.2995  140.2384  156.3984 H   0  0  0  0  0  0  0  0  0  0  0  0  # atno 8010 bound_to 7997
  139.7890  143.7993  152.2648 H   0  0  0  0  0  0  0  0  0  0  0  0  # atno 10167 bound_to 10162
  156.0967  130.6138  150.9042 H   0  0  0  0  0  0  0  0  0  0  0  0  # atno 10718 bound_to 10713
  153.0097  135.5356  154.6671 H   0  0  0  0  0  0  0  0  0  0  0  0  # atno 10763 bound_to 10752
  154.5865  135.2855  155.0682 H   0  0  0  0  0  0  0  0  0  0  0  0  # atno 10764 bound_to 10752
  154.1791  135.6519  153.5082 H   0  0  0  0  0  0  0  0  0  0  0  0  # atno 10765 bound_to 10752
  140.1259  134.8833  157.2137 H   0  0  0  0  0  0  0  0  0  0  0  0  # atno 11005 bound_to 11000
  146.0712  139.3701  143.0522 LP  0  0  0  0  0  0  0  0  0  0  0  0  # atno 17320 bound_to 7965
  145.7965  140.9790  143.1021 LP  0  0  0  0  0  0  0  0  0  0  0  0  # atno 17321 bound_to 7965
  139.8079  144.7348  150.9737 LP  0  0  0  0  0  0  0  0  0  0  0  0  # atno 17342 bound_to 10162
  140.7820  143.4280  151.0738 LP  0  0  0  0  0  0  0  0  0  0  0  0  # atno 17343 bound_to 10162
  157.6130  131.0935  150.8762 LP  0  0  0  0  0  0  0  0  0  0  0  0  # atno 17370 bound_to 10713
  156.8898  130.5209  149.5287 LP  0  0  0  0  0  0  0  0  0  0  0  0  # atno 17371 bound_to 10713
  140.2904  134.3247  155.7317 LP  0  0  0  0  0  0  0  0  0  0  0  0  # atno 17394 bound_to 11000
  141.2161  133.7531  156.9495 LP  0  0  0  0  0  0  0  0  0  0  0  0  # atno 17395 bound_to 11000

$$$$
