AV-unprocessed.smi:2356|AV-procd|sdf|9397|dock4
  -GOLD-   2272013 33D 1   1.00000     0.00000
 Structure written by MMmdl.
 54 57  0  0  0  0  0  0  0  0  2 V2000
  148.9495  141.1898  154.2183 C   0  0  0  0  0  0  0  0  0  0  0  0
  149.7959  141.0800  155.4742 C   0  0  0  0  0  0  0  0  0  0  0  0
  150.0468  142.2188  156.1574 N   0  3  0  0  0  0  0  0  0  0  0  0
  150.7775  142.2745  157.2967 C   0  0  0  0  0  0  0  0  0  0  0  0
  150.9675  143.5255  157.9184 N   0  0  0  0  0  0  0  0  0  0  0  0
  150.3023  143.7965  159.1821 C   0  0  0  0  0  0  0  0  0  0  0  0
  150.8937  145.1163  159.6842 C   0  0  0  0  0  0  0  0  0  0  0  0
  152.1997  145.3060  158.9007 C   0  0  0  0  0  0  0  0  0  0  0  0
  152.3041  144.0911  157.9742 C   0  0  0  0  0  0  0  0  0  0  0  0
  151.3196  141.0713  157.8056 C   0  0  0  0  0  0  0  0  0  0  0  0
  151.0873  139.8564  157.1300 C   0  0  0  0  0  0  0  0  0  0  0  0
  150.3215  139.8512  155.9381 C   0  0  0  0  0  0  0  0  0  0  0  0
  150.0184  138.6714  155.2045 N   0  0  0  0  0  0  0  0  0  0  0  0
  149.7343  137.4347  155.6567 C   0  0  0  0  0  0  0  0  0  0  0  0
  149.7038  137.1121  156.8421 O   0  0  0  0  0  0  0  0  0  0  0  0
  149.4974  136.5370  154.6829 N   0  0  0  0  0  0  0  0  0  0  0  0
  149.1622  135.1175  154.8213 C   0  0  2  0  0  0  0  0  0  0  0  0
  147.9218  134.9606  155.7104 C   0  0  0  0  0  0  0  0  0  0  0  0
  147.6190  133.4751  155.9592 C   0  0  0  0  0  0  0  0  0  0  0  0
  148.7499  132.8268  156.5376 O   0  0  0  0  0  0  0  0  0  0  0  0
  149.9463  132.8750  155.7584 C   0  0  1  0  0  0  0  0  0  0  0  0
  149.8513  131.9995  154.5159 C   0  0  0  0  0  0  0  0  0  0  0  0
  148.8018  132.2720  153.4643 C   0  0  0  0  0  0  0  0  0  0  0  0
  148.6987  131.0403  154.3321 C   0  0  0  0  0  0  0  0  0  0  0  0
  150.3311  134.3347  155.4480 C   0  0  0  0  0  0  0  0  0  0  0  0
  148.0647  140.5575  154.2981 H   0  0  0  0  0  0  0  0  0  0  0  0
  149.5214  140.8721  153.3461 H   0  0  0  0  0  0  0  0  0  0  0  0
  148.6172  142.2145  154.0493 H   0  0  0  0  0  0  0  0  0  0  0  0
  149.2211  143.8675  159.0582 H   0  0  0  0  0  0  0  0  0  0  0  0
  150.5147  142.9907  159.8865 H   0  0  0  0  0  0  0  0  0  0  0  0
  150.2115  145.9407  159.4733 H   0  0  0  0  0  0  0  0  0  0  0  0
  151.0597  145.0943  160.7618 H   0  0  0  0  0  0  0  0  0  0  0  0
  152.1498  146.2249  158.3153 H   0  0  0  0  0  0  0  0  0  0  0  0
  153.0666  145.3811  159.5578 H   0  0  0  0  0  0  0  0  0  0  0  0
  152.9957  143.3539  158.3848 H   0  0  0  0  0  0  0  0  0  0  0  0
  152.6583  144.3822  156.9849 H   0  0  0  0  0  0  0  0  0  0  0  0
  151.9100  141.0603  158.7096 H   0  0  0  0  0  0  0  0  0  0  0  0
  151.4925  138.9506  157.5528 H   0  0  0  0  0  0  0  0  0  0  0  0
  150.0832  138.7618  154.2011 H   0  0  0  0  0  0  0  0  0  0  0  0
  149.5565  136.8797  153.7346 H   0  0  0  0  0  0  0  0  0  0  0  0
  148.9232  134.7030  153.8406 H   0  0  0  0  0  0  0  0  0  0  0  0
  148.0827  135.4587  156.6677 H   0  0  0  0  0  0  0  0  0  0  0  0
  147.0598  135.4427  155.2478 H   0  0  0  0  0  0  0  0  0  0  0  0
  146.7777  133.3786  156.6455 H   0  0  0  0  0  0  0  0  0  0  0  0
  147.3213  132.9787  155.0355 H   0  0  0  0  0  0  0  0  0  0  0  0
  150.7314  132.4537  156.3876 H   0  0  0  0  0  0  0  0  0  0  0  0
  150.8090  131.6484  154.1386 H   0  0  0  0  0  0  0  0  0  0  0  0
  148.0947  133.0779  153.6502 H   0  0  0  0  0  0  0  0  0  0  0  0
  149.0874  132.1335  152.4236 H   0  0  0  0  0  0  0  0  0  0  0  0
  148.9137  130.0798  153.8683 H   0  0  0  0  0  0  0  0  0  0  0  0
  147.9226  131.0264  155.0947 H   0  0  0  0  0  0  0  0  0  0  0  0
  151.2081  134.3585  154.8006 H   0  0  0  0  0  0  0  0  0  0  0  0
  150.6276  134.8214  156.3782 H   0  0  0  0  0  0  0  0  0  0  0  0
  149.6590  143.0893  155.7940 H   0  0  0  0  0  0  0  0  0  0  0  0
  1  2  1  0  0  0  0
  1 26  1  0  0  0  0
  1 27  1  0  0  0  0
  1 28  1  0  0  0  0
  2 12  1  0  0  0  0
  2  3  2  0  0  0  0
  3  4  1  0  0  0  0
  3 54  1  0  0  0  0
  4  5  1  0  0  0  0
  4 10  2  0  0  0  0
  5  9  1  0  0  0  0
  5  6  1  0  0  0  0
  6  7  1  0  0  0  0
  6 29  1  0  0  0  0
  6 30  1  0  0  0  0
  7  8  1  0  0  0  0
  7 31  1  0  0  0  0
  7 32  1  0  0  0  0
  8  9  1  0  0  0  0
  8 33  1  0  0  0  0
  8 34  1  0  0  0  0
  9 35  1  0  0  0  0
  9 36  1  0  0  0  0
 10 11  1  0  0  0  0
 10 37  1  0  0  0  0
 11 12  2  0  0  0  0
 11 38  1  0  0  0  0
 12 13  1  0  0  0  0
 13 14  1  0  0  0  0
 13 39  1  0  0  0  0
 14 15  2  0  0  0  0
 14 16  1  0  0  0  0
 16 17  1  0  0  0  0
 16 40  1  0  0  0  0
 17 25  1  0  0  0  0
 17 18  1  0  0  0  0
 17 41  1  0  0  0  0
 18 19  1  0  0  0  0
 18 42  1  0  0  0  0
 18 43  1  0  0  0  0
 19 20  1  0  0  0  0
 19 44  1  0  0  0  0
 19 45  1  0  0  0  0
 20 21  1  0  0  0  0
 21 22  1  0  0  0  0
 21 25  1  0  0  0  0
 21 46  1  0  0  0  0
 22 24  1  0  0  0  0
 22 23  1  0  0  0  0
 22 47  1  0  0  0  0
 23 24  1  0  0  0  0
 23 48  1  0  0  0  0
 23 49  1  0  0  0  0
 24 50  1  0  0  0  0
 24 51  1  0  0  0  0
 25 52  1  0  0  0  0
 25 53  1  0  0  0  0
M  CHG  1   3   1
M  END
> <s_m_source_file>
AV-unprocessed.smi

> <i_m_source_file_index>
2356

> <i_lp_mmshare_version>
43012

> <i_f3d_flags>
0

> <s_epik_input>
W0NIMl0xW0NIMl1bQ0gyXVtDSDJdTjFjKG5jMltDSDNdKVtjSF1bY0hdYzJbTkhdQyg9TylbTkhdW0NAQEhdM1tDSDJdW0NIMl1PW0NASF0oW0NIMl0zKVtDSF00W0NIMl1bQ0gyXTQ=

> <s_epik_cmdline>
J2VwaWtfcHl0aG9uJywgJy1waCcsICc3LjAnLCAnLXRuJywgJzgnLCAnLW1hJywgJzIwMCcsICctbWV0YWxfYmluZGluZycsICctaW1hZScsICc8aW5maWxlLm1hZT4nLCAnLW9tYWUnLCAnPG91dGZpbGUubWFlPic=

> <r_lp_tautomer_probability>
0.999994

> <r_epik_Ionization_Penalty>
0.534681

> <r_epik_Ionization_Penalty_Charging>
0.534661

> <r_epik_Ionization_Penalty_Neutral>
1.99132e-05

> <r_epik_State_Penalty>
0.543738

> <r_epik_Charging_Adjusted_Penalty>
1.0784

> <i_epik_Tot_Q>
1

> <i_epik_Tot_abs_Q>
1

> <r_epik_Metal_State_Penalty>
0.74699

> <b_epik_Metal_Only>
0

> <s_lp_Force_Field>
OPLS_2005

> <r_lp_Energy>
60.0457

> <b_lp_Chiralities_Consistent>
1

> <s_lp_Variant>
AV-unprocessed.smi:2356-5

> <Gold.Version>
5.8.1

> <Gold.Id.Protein>
6NUR|6NUR_protein|mol2

> <Gold.PLP.Fitness>
49.9157

> <Gold.PLP.PLP>
-42.6051

> <Gold.PLP.part.hbond>
-2.0000

> <Gold.PLP.part.metal>
0.0000

> <Gold.PLP.part.buried>
-5.9574

> <Gold.PLP.part.nonpolar>
-36.0020

> <Gold.PLP.part.repulsive>
0.3088

> <Gold.PLP.ligand.clash>
0.0000

> <Gold.PLP.ligand.torsion>
1.1157

> <Gold.PLP.Chemscore.Hbond>
2.7332

> <Gold.PLP.Chemscore.CHOScore>
0.0000

> <Gold.PLP.Chemscore.Metal>
0.0000

> <Gold.Chemscore.Hbonds>
donor molecule, donor type, donor heavy atom, donor atom, acceptor molecule, acceptor atom, score
      L1  H     3    54       P1  8028  2.00
      L1  H    16    40       P1  7948  0.72

> <Gold.PLP.Chemscore.Internal.Correction>
1.3423

> <Gold.Rescore>
     Score         DG    S(hbond)    S(metal)    S(lipo)     H(rot)  DE(clash)    DE(int)     intcor
     17.73     -21.11       1.83        0.00     109.80       1.31       0.22       3.15       ----

> <Gold.Chemscore.Fitness>
17.7333

> <Gold.Chemscore.DG>
-21.1075

> <Gold.Chemscore.ZeroCoef>
-5.4800

> <Gold.Chemscore.Hbond>
1.8335

> <Gold.Chemscore.Metal>
0.0000

> <Gold.Chemscore.Lipo>
109.8031

> <Gold.Chemscore.Internal_Hbond>
0.0000

> <Gold.Chemscore.DEClash>
0.2197

> <Gold.Chemscore.DEInternal>
3.1545

> <Gold.Chemscore.Rot>
1.3060

> <Gold.Chemscore.Internal.Correction>
   9.000000E+99

> <Gold.Chemscore.Hbonds>
donor molecule, donor type, donor heavy atom, donor atom, acceptor molecule, acceptor atom, score
      L1  H     3    54       P1  8028  1.00
      L1  H    16    40       P1  7948  0.55

> <Gold.Chemscore.Hbond.Weighted>
-6.1239

> <Gold.Chemscore.Metal.Weighted>
-0.0000

> <Gold.Chemscore.Lipo.Weighted>
-12.8470

> <Gold.Chemscore.Internal_Hbond.Weighted>
0.0000

> <Gold.Chemscore.DEClash.Weighted>
0.2197

> <Gold.Chemscore.DEInternal.Weighted>
3.1545

> <Gold.Chemscore.Rot.Weighted>
3.3433

> <Gold.Chemscore.Internal.Correction.Weighted>
   9.000000E+99

> <Gold.Protein.RotatedTorsions>
[ 6907 6896 6895 6894 ] final  -80.05 input  -60.11 | X-H torsion
[ 7974 7965 7964 7962 ] final   19.72 input  175.53 | X-H torsion
[ 8008 7997 7996 7995 ] final   81.12 input   59.86 | X-H torsion
[ 10167 10162 10161 10158 ] final  -10.31 input  -65.29 | X-H torsion
[ 10718 10713 10712 10709 ] final   -9.71 input   66.30 | X-H torsion
[ 10763 10752 10751 10750 ] final   -1.41 input  -60.55 | X-H torsion
[ 11005 11000 10999 10996 ] final  124.48 input  -57.11 | X-H torsion

> <Gold.Protein.ActiveResidues>
 VAL166  LYS551  ARG553  GLY616  TRP617  ASP618  TYR619  PRO620  LYS621  CYS622 
 ASP623  PHE694  ASN695  SER759  ASP760  ASP761  ALA762  ILE779  LEU786  VAL792 
 PHE793  MET794  SER795  GLU796  ALA797  LYS798  CYS799  TRP800  GLU811  SER814 

> <Gold.Protein.RotatedAtoms>
  150.6937  134.4029  159.5126 H   0  0  0  0  0  0  0  0  0  0  0  0  # atno 6907 bound_to 6896
  152.1799  134.8760  160.0536 H   0  0  0  0  0  0  0  0  0  0  0  0  # atno 6908 bound_to 6896
  151.9754  133.3705  159.4124 H   0  0  0  0  0  0  0  0  0  0  0  0  # atno 6909 bound_to 6896
  146.2139  139.8272  142.8667 H   0  0  0  0  0  0  0  0  0  0  0  0  # atno 7974 bound_to 7965
  155.8928  140.3438  155.5968 H   0  0  0  0  0  0  0  0  0  0  0  0  # atno 8008 bound_to 7997
  155.7591  140.0830  157.2183 H   0  0  0  0  0  0  0  0  0  0  0  0  # atno 8009 bound_to 7997
  154.4035  140.1539  156.2799 H   0  0  0  0  0  0  0  0  0  0  0  0  # atno 8010 bound_to 7997
  140.7110  143.5762  150.9040 H   0  0  0  0  0  0  0  0  0  0  0  0  # atno 10167 bound_to 10162
  156.6841  130.5045  149.5962 H   0  0  0  0  0  0  0  0  0  0  0  0  # atno 10718 bound_to 10713
  153.3445  135.6982  153.6839 H   0  0  0  0  0  0  0  0  0  0  0  0  # atno 10763 bound_to 10752
  153.5591  135.3538  155.2792 H   0  0  0  0  0  0  0  0  0  0  0  0  # atno 10764 bound_to 10752
  154.8642  135.4245  154.2665 H   0  0  0  0  0  0  0  0  0  0  0  0  # atno 10765 bound_to 10752
  139.9361  134.9639  156.8416 H   0  0  0  0  0  0  0  0  0  0  0  0  # atno 11005 bound_to 11000
  145.3034  141.0200  143.3595 LP  0  0  0  0  0  0  0  0  0  0  0  0  # atno 17320 bound_to 7965
  144.8989  139.4676  143.6642 LP  0  0  0  0  0  0  0  0  0  0  0  0  # atno 17321 bound_to 7965
  139.9488  143.6297  152.3034 LP  0  0  0  0  0  0  0  0  0  0  0  0  # atno 17342 bound_to 10162
  139.6808  144.7655  151.1613 LP  0  0  0  0  0  0  0  0  0  0  0  0  # atno 17343 bound_to 10162
  156.1846  130.6521  151.0991 LP  0  0  0  0  0  0  0  0  0  0  0  0  # atno 17370 bound_to 10713
  157.7033  131.0767  150.6750 LP  0  0  0  0  0  0  0  0  0  0  0  0  # atno 17371 bound_to 10713
  140.6073  134.0116  155.7562 LP  0  0  0  0  0  0  0  0  0  0  0  0  # atno 17394 bound_to 11000
  141.0975  133.9821  157.3136 LP  0  0  0  0  0  0  0  0  0  0  0  0  # atno 17395 bound_to 11000

$$$$
