AV-unprocessed.smi:2299|AV-procd|sdf|9231|dock8
  -GOLD-   2272012453D 1   1.00000     0.00000
 Structure written by MMmdl.
 42 43  0  0  0  0  0  0  0  0  1 V2000
  153.2265  143.7706  161.7240 C   0  0  0  0  0  0  0  0  0  0  0  0
  152.7988  142.7735  160.6374 C   0  0  0  0  0  0  0  0  0  0  0  0
  153.7865  141.6048  160.5074 C   0  0  0  0  0  0  0  0  0  0  0  0
  152.5744  143.4605  159.3168 C   0  0  0  0  0  0  0  0  0  0  0  0
  152.8586  144.7446  159.1115 N   0  0  0  0  0  0  0  0  0  0  0  0
  152.4911  144.9923  157.7950 C   0  0  0  0  0  0  0  0  0  0  0  0
  151.9880  143.8411  157.2418 C   0  0  0  0  0  0  0  0  0  0  0  0
  152.0419  142.8623  158.2271 N   0  0  0  0  0  0  0  0  0  0  0  0
  151.5880  141.4892  158.0599 C   0  0  0  0  0  0  0  0  0  0  0  0
  150.2496  141.4397  157.3208 C   0  0  0  0  0  0  0  0  0  0  0  0
  149.2556  141.9742  157.8119 O   0  0  0  0  0  0  0  0  0  0  0  0
  150.2365  140.7872  156.1483 N   0  0  0  0  0  0  0  0  0  0  0  0
  149.0603  140.5553  155.3099 C   0  0  1  0  0  0  0  0  0  0  0  0
  148.8260  141.7591  154.3705 C   0  0  0  0  0  0  0  0  0  0  0  0
  147.3780  141.8846  153.8690 C   0  0  0  0  0  0  0  0  0  0  0  0
  146.8866  140.7090  153.0110 C   0  0  0  0  0  0  0  0  0  0  0  0
  146.8000  139.3766  153.7760 C   0  0  0  0  0  0  0  0  0  0  0  0
  148.0982  138.7301  153.9232 N   0  0  0  0  0  0  0  0  0  0  0  0
  149.1657  139.1992  154.5869 C   0  0  0  0  0  0  0  0  0  0  0  0
  150.2170  138.5594  154.6123 O   0  0  0  0  0  0  0  0  0  0  0  0
  152.4795  144.5550  161.8494 H   0  0  0  0  0  0  0  0  0  0  0  0
  154.1746  144.2488  161.4759 H   0  0  0  0  0  0  0  0  0  0  0  0
  153.3462  143.2748  162.6877 H   0  0  0  0  0  0  0  0  0  0  0  0
  151.8604  142.3369  160.9718 H   0  0  0  0  0  0  0  0  0  0  0  0
  153.4358  140.8761  159.7758 H   0  0  0  0  0  0  0  0  0  0  0  0
  153.9070  141.0854  161.4583 H   0  0  0  0  0  0  0  0  0  0  0  0
  154.7716  141.9484  160.1901 H   0  0  0  0  0  0  0  0  0  0  0  0
  152.6127  145.9702  157.3532 H   0  0  0  0  0  0  0  0  0  0  0  0
  151.5987  143.6433  156.2540 H   0  0  0  0  0  0  0  0  0  0  0  0
  152.3325  140.9406  157.4817 H   0  0  0  0  0  0  0  0  0  0  0  0
  151.5298  140.9975  159.0314 H   0  0  0  0  0  0  0  0  0  0  0  0
  151.1015  140.3781  155.8250 H   0  0  0  0  0  0  0  0  0  0  0  0
  148.2060  140.4730  155.9846 H   0  0  0  0  0  0  0  0  0  0  0  0
  149.0674  142.6844  154.8954 H   0  0  0  0  0  0  0  0  0  0  0  0
  149.5131  141.7137  153.5243 H   0  0  0  0  0  0  0  0  0  0  0  0
  146.7093  142.0178  154.7203 H   0  0  0  0  0  0  0  0  0  0  0  0
  147.2950  142.7996  153.2817 H   0  0  0  0  0  0  0  0  0  0  0  0
  145.8903  140.9567  152.6429 H   0  0  0  0  0  0  0  0  0  0  0  0
  147.5125  140.5981  152.1244 H   0  0  0  0  0  0  0  0  0  0  0  0
  146.3278  139.5105  154.7502 H   0  0  0  0  0  0  0  0  0  0  0  0
  146.1631  138.6874  153.2208 H   0  0  0  0  0  0  0  0  0  0  0  0
  148.2028  137.8368  153.4639 H   0  0  0  0  0  0  0  0  0  0  0  0
  1  2  1  0  0  0  0
  1 21  1  0  0  0  0
  1 22  1  0  0  0  0
  1 23  1  0  0  0  0
  2  3  1  0  0  0  0
  2  4  1  0  0  0  0
  2 24  1  0  0  0  0
  3 25  1  0  0  0  0
  3 26  1  0  0  0  0
  3 27  1  0  0  0  0
  4  8  1  0  0  0  0
  4  5  2  0  0  0  0
  5  6  1  0  0  0  0
  6  7  2  0  0  0  0
  6 28  1  0  0  0  0
  7  8  1  0  0  0  0
  7 29  1  0  0  0  0
  8  9  1  0  0  0  0
  9 10  1  0  0  0  0
  9 30  1  0  0  0  0
  9 31  1  0  0  0  0
 10 11  2  0  0  0  0
 10 12  1  0  0  0  0
 12 13  1  0  0  0  0
 12 32  1  0  0  0  0
 13 19  1  0  0  0  0
 13 14  1  0  0  0  0
 13 33  1  0  0  0  0
 14 15  1  0  0  0  0
 14 34  1  0  0  0  0
 14 35  1  0  0  0  0
 15 16  1  0  0  0  0
 15 36  1  0  0  0  0
 15 37  1  0  0  0  0
 16 17  1  0  0  0  0
 16 38  1  0  0  0  0
 16 39  1  0  0  0  0
 17 18  1  0  0  0  0
 17 40  1  0  0  0  0
 17 41  1  0  0  0  0
 18 19  1  0  0  0  0
 18 42  1  0  0  0  0
 19 20  2  0  0  0  0
M  END
> <s_m_source_file>
AV-unprocessed.smi

> <i_m_source_file_index>
2299

> <i_lp_mmshare_version>
43012

> <i_f3d_flags>
0

> <s_epik_input>
W0NIM11bQ0hdKFtDSDNdKWMxbltjSF1bY0hdbjFbQ0gyXUMoPU8pW05IXVtDQEBIXTJbQ0gyXVtDSDJdW0NIMl1bQ0gyXVtOSF1DMj1P

> <s_epik_cmdline>
J2VwaWtfcHl0aG9uJywgJy1waCcsICc3LjAnLCAnLXRuJywgJzgnLCAnLW1hJywgJzIwMCcsICctbWV0YWxfYmluZGluZycsICctaW1hZScsICc8aW5maWxlLm1hZT4nLCAnLW9tYWUnLCAnPG91dGZpbGUubWFlPic=

> <r_lp_tautomer_probability>
1

> <r_epik_Ionization_Penalty>
0.557868

> <r_epik_Ionization_Penalty_Charging>
0.557868

> <r_epik_Ionization_Penalty_Neutral>
1.99744e-07

> <r_epik_State_Penalty>
0.568774

> <r_epik_Charging_Adjusted_Penalty>
1.12664

> <i_epik_Tot_Q>
0

> <i_epik_Tot_abs_Q>
0

> <r_epik_Metal_State_Penalty>
0.289303

> <b_epik_Metal_Only>
0

> <s_lp_Force_Field>
OPLS_2005

> <r_lp_Energy>
10.2382

> <b_lp_Chiralities_Consistent>
1

> <s_lp_Variant>
AV-unprocessed.smi:2299-4

> <Gold.Version>
5.8.1

> <Gold.Id.Protein>
6NUR|6NUR_protein|mol2

> <Gold.PLP.Fitness>
54.2957

> <Gold.PLP.PLP>
-47.0523

> <Gold.PLP.part.hbond>
-3.0000

> <Gold.PLP.part.metal>
0.0000

> <Gold.PLP.part.buried>
-2.5633

> <Gold.PLP.part.nonpolar>
-41.3617

> <Gold.PLP.part.repulsive>
0.4505

> <Gold.PLP.ligand.clash>
0.0000

> <Gold.PLP.ligand.torsion>
0.6371

> <Gold.PLP.Chemscore.Hbond>
1.8426

> <Gold.PLP.Chemscore.CHOScore>
0.9726

> <Gold.PLP.Chemscore.Metal>
0.0000

> <Gold.Chemscore.Hbonds>
donor molecule, donor type, donor heavy atom, donor atom, acceptor molecule, acceptor atom, score
      L1  H    18    42       P1  7948  0.13

> <Gold.PLP.Chemscore.Internal.Correction>
0.0721

> <Gold.Rescore>
     Score         DG    S(hbond)    S(metal)    S(lipo)     H(rot)  DE(clash)    DE(int)     intcor
     16.08     -16.99       1.32        0.00      97.97       1.70       0.22       0.70       ----

> <Gold.Chemscore.Fitness>
16.0754

> <Gold.Chemscore.DG>
-16.9885

> <Gold.Chemscore.ZeroCoef>
-5.4800

> <Gold.Chemscore.Hbond>
1.3170

> <Gold.Chemscore.Metal>
0.0000

> <Gold.Chemscore.Lipo>
97.9718

> <Gold.Chemscore.Internal_Hbond>
0.0000

> <Gold.Chemscore.DEClash>
0.2162

> <Gold.Chemscore.DEInternal>
0.6969

> <Gold.Chemscore.Rot>
1.7004

> <Gold.Chemscore.Internal.Correction>
   9.000000E+99

> <Gold.Chemscore.Hbonds>
donor molecule, donor type, donor heavy atom, donor atom, acceptor molecule, acceptor atom, score
      L1  H    18    42       P1  7948  0.16

> <Gold.Chemscore.Hbond.Weighted>
-4.3988

> <Gold.Chemscore.Metal.Weighted>
-0.0000

> <Gold.Chemscore.Lipo.Weighted>
-11.4627

> <Gold.Chemscore.Internal_Hbond.Weighted>
0.0000

> <Gold.Chemscore.DEClash.Weighted>
0.2162

> <Gold.Chemscore.DEInternal.Weighted>
0.6969

> <Gold.Chemscore.Rot.Weighted>
4.3530

> <Gold.Chemscore.Internal.Correction.Weighted>
   9.000000E+99

> <Gold.Protein.RotatedTorsions>
[ 6907 6896 6895 6894 ] final   60.34 input  -60.11 | X-H torsion
[ 7974 7965 7964 7962 ] final   95.74 input  175.53 | X-H torsion
[ 8008 7997 7996 7995 ] final   12.86 input   59.86 | X-H torsion
[ 10167 10162 10161 10158 ] final  -42.69 input  -65.29 | X-H torsion
[ 10718 10713 10712 10709 ] final  162.31 input   66.30 | X-H torsion
[ 10763 10752 10751 10750 ] final -165.34 input  -60.55 | X-H torsion
[ 11005 11000 10999 10996 ] final   21.26 input  -57.11 | X-H torsion

> <Gold.Protein.ActiveResidues>
 VAL166  LYS551  ARG553  GLY616  TRP617  ASP618  TYR619  PRO620  LYS621  CYS622 
 ASP623  PHE694  ASN695  SER759  ASP760  ASP761  ALA762  ILE779  LEU786  VAL792 
 PHE793  MET794  SER795  GLU796  ALA797  LYS798  CYS799  TRP800  GLU811  SER814 

> <Gold.Protein.RotatedAtoms>
  152.3994  134.6311  160.0075 H   0  0  0  0  0  0  0  0  0  0  0  0  # atno 6907 bound_to 6896
  151.6521  133.3315  159.3162 H   0  0  0  0  0  0  0  0  0  0  0  0  # atno 6908 bound_to 6896
  150.7897  134.6953  159.6564 H   0  0  0  0  0  0  0  0  0  0  0  0  # atno 6909 bound_to 6896
  145.4482  139.2295  143.3054 H   0  0  0  0  0  0  0  0  0  0  0  0  # atno 7974 bound_to 7965
  154.8265  140.2892  155.5751 H   0  0  0  0  0  0  0  0  0  0  0  0  # atno 8008 bound_to 7997
  156.3002  140.2540  156.3112 H   0  0  0  0  0  0  0  0  0  0  0  0  # atno 8009 bound_to 7997
  154.9280  140.0384  157.2022 H   0  0  0  0  0  0  0  0  0  0  0  0  # atno 8010 bound_to 7997
  140.6960  143.3023  151.3245 H   0  0  0  0  0  0  0  0  0  0  0  0  # atno 10167 bound_to 10162
  157.1243  131.0500  151.2401 H   0  0  0  0  0  0  0  0  0  0  0  0  # atno 10718 bound_to 10713
  154.6941  135.2976  154.9436 H   0  0  0  0  0  0  0  0  0  0  0  0  # atno 10763 bound_to 10752
  154.0390  135.6660  153.4792 H   0  0  0  0  0  0  0  0  0  0  0  0  # atno 10764 bound_to 10752
  153.0633  135.5102  154.8050 H   0  0  0  0  0  0  0  0  0  0  0  0  # atno 10765 bound_to 10752
  140.3935  134.1794  155.7663 H   0  0  0  0  0  0  0  0  0  0  0  0  # atno 11005 bound_to 11000
  146.2519  140.5238  142.8890 LP  0  0  0  0  0  0  0  0  0  0  0  0  # atno 17320 bound_to 7965
  144.8078  140.6331  143.6435 LP  0  0  0  0  0  0  0  0  0  0  0  0  # atno 17321 bound_to 7965
  139.6416  144.0528  152.2559 LP  0  0  0  0  0  0  0  0  0  0  0  0  # atno 17342 bound_to 10162
  140.0035  144.6276  150.7709 LP  0  0  0  0  0  0  0  0  0  0  0  0  # atno 17343 bound_to 10162
  157.4448  130.7565  149.7100 LP  0  0  0  0  0  0  0  0  0  0  0  0  # atno 17370 bound_to 10713
  155.9821  130.4012  150.3432 LP  0  0  0  0  0  0  0  0  0  0  0  0  # atno 17371 bound_to 10713
  141.1882  133.8264  157.1002 LP  0  0  0  0  0  0  0  0  0  0  0  0  # atno 17394 bound_to 11000
  140.0389  134.9864  157.0924 LP  0  0  0  0  0  0  0  0  0  0  0  0  # atno 17395 bound_to 11000

$$$$
