AV-unprocessed.smi:648|AV-procd|sdf|3176|dock3
  -GOLD-   22720 0103D 1   1.00000     0.00000
 Structure written by MMmdl.
 45 46  0  0  0  0  0  0  0  0  1 V2000
  152.6148  138.5758  154.7760 C   0  0  0  0  0  0  0  0  0  0  0  0
  151.1525  138.8967  155.1187 C   0  0  2  0  0  0  0  0  0  0  0  0
  150.6814  138.0872  156.3418 C   0  0  0  0  0  0  0  0  0  0  0  0
  149.2197  138.3788  156.7554 C   0  0  0  0  0  0  0  0  0  0  0  0
  148.7727  137.2912  157.7571 C   0  0  0  0  0  0  0  0  0  0  0  0
  149.1211  139.7264  157.5072 C   0  0  0  0  0  0  0  0  0  0  0  0
  148.2772  138.2979  155.5149 C   0  0  0  0  0  0  0  0  0  0  0  0
  148.7407  138.9810  154.1887 C   0  0  2  0  0  0  0  0  0  0  0  0
  148.5360  140.5195  154.2572 C   0  0  0  0  0  0  0  0  0  0  0  0
  149.2009  141.1946  153.2053 O   0  0  0  0  0  0  0  0  0  0  0  0
  147.8733  138.5344  153.0745 N   0  0  0  0  0  0  0  0  0  0  0  0
  146.4492  138.2597  153.3130 C   0  0  0  0  0  0  0  0  0  0  0  0
  145.8946  137.2904  152.2577 C   0  0  0  0  0  0  0  0  0  0  0  0
  144.6608  136.6577  152.6862 N   0  0  0  0  0  0  0  0  0  0  0  0
  143.4208  137.1422  152.7716 C   0  0  0  0  0  0  0  0  0  0  0  0
  142.5304  136.2607  153.2050 N   0  0  0  0  0  0  0  0  0  0  0  0
  143.3473  135.1794  153.3808 C   0  0  0  0  0  0  0  0  0  0  0  0
  144.6340  135.3647  153.0855 N   0  0  0  0  0  0  0  0  0  0  0  0
  150.2279  138.6157  153.9202 C   0  0  0  0  0  0  0  0  0  0  0  0
  152.7423  137.5235  154.5198 H   0  0  0  0  0  0  0  0  0  0  0  0
  153.2724  138.7954  155.6177 H   0  0  0  0  0  0  0  0  0  0  0  0
  152.9581  139.1689  153.9282 H   0  0  0  0  0  0  0  0  0  0  0  0
  151.1147  139.9589  155.3559 H   0  0  0  0  0  0  0  0  0  0  0  0
  150.7850  137.0261  156.1090 H   0  0  0  0  0  0  0  0  0  0  0  0
  151.3469  138.2705  157.1867 H   0  0  0  0  0  0  0  0  0  0  0  0
  147.7440  137.4513  158.0828 H   0  0  0  0  0  0  0  0  0  0  0  0
  149.4014  137.2840  158.6483 H   0  0  0  0  0  0  0  0  0  0  0  0
  148.8248  136.2924  157.3218 H   0  0  0  0  0  0  0  0  0  0  0  0
  148.0839  140.0359  157.6389 H   0  0  0  0  0  0  0  0  0  0  0  0
  149.6556  140.5357  157.0191 H   0  0  0  0  0  0  0  0  0  0  0  0
  149.5613  139.6508  158.5022 H   0  0  0  0  0  0  0  0  0  0  0  0
  148.1497  137.2358  155.3174 H   0  0  0  0  0  0  0  0  0  0  0  0
  147.2803  138.6509  155.7831 H   0  0  0  0  0  0  0  0  0  0  0  0
  147.4749  140.7692  154.2140 H   0  0  0  0  0  0  0  0  0  0  0  0
  148.9145  140.9506  155.1759 H   0  0  0  0  0  0  0  0  0  0  0  0
  149.5259  140.5514  152.5941 H   0  0  0  0  0  0  0  0  0  0  0  0
  148.3010  137.7276  152.6305 H   0  0  0  0  0  0  0  0  0  0  0  0
  146.2917  137.8201  154.2968 H   0  0  0  0  0  0  0  0  0  0  0  0
  145.8615  139.1748  153.2760 H   0  0  0  0  0  0  0  0  0  0  0  0
  145.6991  137.8262  151.3279 H   0  0  0  0  0  0  0  0  0  0  0  0
  146.6267  136.5158  152.0247 H   0  0  0  0  0  0  0  0  0  0  0  0
  143.1640  138.1577  152.5075 H   0  0  0  0  0  0  0  0  0  0  0  0
  142.9832  134.2275  153.7382 H   0  0  0  0  0  0  0  0  0  0  0  0
  150.5950  139.1348  153.0342 H   0  0  0  0  0  0  0  0  0  0  0  0
  150.3230  137.5540  153.6975 H   0  0  0  0  0  0  0  0  0  0  0  0
  1  2  1  0  0  0  0
  1 20  1  0  0  0  0
  1 21  1  0  0  0  0
  1 22  1  0  0  0  0
  2 19  1  0  0  0  0
  2  3  1  0  0  0  0
  2 23  1  0  0  0  0
  3  4  1  0  0  0  0
  3 24  1  0  0  0  0
  3 25  1  0  0  0  0
  4  5  1  0  0  0  0
  4  6  1  0  0  0  0
  4  7  1  0  0  0  0
  5 26  1  0  0  0  0
  5 27  1  0  0  0  0
  5 28  1  0  0  0  0
  6 29  1  0  0  0  0
  6 30  1  0  0  0  0
  6 31  1  0  0  0  0
  7  8  1  0  0  0  0
  7 32  1  0  0  0  0
  7 33  1  0  0  0  0
  8  9  1  0  0  0  0
  8 11  1  0  0  0  0
  8 19  1  0  0  0  0
  9 10  1  0  0  0  0
  9 34  1  0  0  0  0
  9 35  1  0  0  0  0
 10 36  1  0  0  0  0
 11 12  1  0  0  0  0
 11 37  1  0  0  0  0
 12 13  1  0  0  0  0
 12 38  1  0  0  0  0
 12 39  1  0  0  0  0
 13 14  1  0  0  0  0
 13 40  1  0  0  0  0
 13 41  1  0  0  0  0
 14 18  1  0  0  0  0
 14 15  1  0  0  0  0
 15 16  2  0  0  0  0
 15 42  1  0  0  0  0
 16 17  1  0  0  0  0
 17 18  2  0  0  0  0
 17 43  1  0  0  0  0
 19 44  1  0  0  0  0
 19 45  1  0  0  0  0
M  END
> <s_m_source_file>
AV-unprocessed.smi

> <i_m_source_file_index>
648

> <i_lp_mmshare_version>
43012

> <i_f3d_flags>
0

> <s_epik_input>
W0NIM11DMShbQ0gzXSlbQ0gyXVtDQEBIXShbQ0gzXSlbQ0gyXVtDQF0oW0NIMl0xKShbQ0gyXVtPSF0pW05IXVtDSDJdW0NIMl1uMltjSF1uW2NIXW4y

> <s_epik_cmdline>
J2VwaWtfcHl0aG9uJywgJy1waCcsICc3LjAnLCAnLXRuJywgJzgnLCAnLW1hJywgJzIwMCcsICctbWV0YWxfYmluZGluZycsICctaW1hZScsICc8aW5maWxlLm1hZT4nLCAnLW9tYWUnLCAnPG91dGZpbGUubWFlPic=

> <r_lp_tautomer_probability>
1

> <r_epik_Ionization_Penalty>
2.45849

> <r_epik_Ionization_Penalty_Charging>
0

> <r_epik_Ionization_Penalty_Neutral>
2.45849

> <r_epik_State_Penalty>
2.62037

> <r_epik_Charging_Adjusted_Penalty>
2.62037

> <i_epik_Tot_Q>
0

> <i_epik_Tot_abs_Q>
0

> <r_epik_Metal_State_Penalty>
2.62024

> <b_epik_Metal_Only>
0

> <s_lp_Force_Field>
OPLS_2005

> <r_lp_Energy>
36.1132

> <b_lp_Chiralities_Consistent>
1

> <s_lp_Variant>
AV-unprocessed.smi:648-7

> <Gold.Version>
5.8.1

> <Gold.Id.Protein>
6NUR|6NUR_protein|mol2

> <Gold.PLP.Fitness>
39.6615

> <Gold.PLP.PLP>
-28.4041

> <Gold.PLP.part.hbond>
-4.4973

> <Gold.PLP.part.metal>
0.0000

> <Gold.PLP.part.buried>
-4.0964

> <Gold.PLP.part.nonpolar>
-21.2942

> <Gold.PLP.part.repulsive>
0.2144

> <Gold.PLP.ligand.clash>
0.0000

> <Gold.PLP.ligand.torsion>
0.9592

> <Gold.PLP.Chemscore.Hbond>
2.5675

> <Gold.PLP.Chemscore.CHOScore>
1.7948

> <Gold.PLP.Chemscore.Metal>
0.0000

> <Gold.Chemscore.Hbonds>
donor molecule, donor type, donor heavy atom, donor atom, acceptor molecule, acceptor atom, score
      L1  H    10    36       P1  7957  0.94
      L1  H    11    37       P1  7948  1.00
      P1  H  8011  8017       L1    10  0.60
      L1  C    15    42       P1 10171  0.20
      L1  C    15    42       P1 10175  1.00
      L1  C    17    43       P1 10957  0.60

> <Gold.PLP.Chemscore.Internal.Correction>
0.0890

> <Gold.Rescore>
     Score         DG    S(hbond)    S(metal)    S(lipo)     H(rot)  DE(clash)    DE(int)     intcor
     10.64     -11.32       2.00        0.00      61.11       3.12       0.02       0.66       ----

> <Gold.Chemscore.Fitness>
10.6427

> <Gold.Chemscore.DG>
-11.3165

> <Gold.Chemscore.ZeroCoef>
-5.4800

> <Gold.Chemscore.Hbond>
1.9970

> <Gold.Chemscore.Metal>
0.0000

> <Gold.Chemscore.Lipo>
61.1076

> <Gold.Chemscore.Internal_Hbond>
0.0000

> <Gold.Chemscore.DEClash>
0.0173

> <Gold.Chemscore.DEInternal>
0.6565

> <Gold.Chemscore.Rot>
3.1183

> <Gold.Chemscore.Internal.Correction>
   9.000000E+99

> <Gold.Chemscore.Hbonds>
donor molecule, donor type, donor heavy atom, donor atom, acceptor molecule, acceptor atom, score
      L1  H    10    36       P1  7957  0.84
      L1  H    11    37       P1  7948  1.00
      P1  H  8011  8017       L1    10  0.04

> <Gold.Chemscore.Hbond.Weighted>
-6.6698

> <Gold.Chemscore.Metal.Weighted>
-0.0000

> <Gold.Chemscore.Lipo.Weighted>
-7.1496

> <Gold.Chemscore.Internal_Hbond.Weighted>
0.0000

> <Gold.Chemscore.DEClash.Weighted>
0.0173

> <Gold.Chemscore.DEInternal.Weighted>
0.6565

> <Gold.Chemscore.Rot.Weighted>
7.9829

> <Gold.Chemscore.Internal.Correction.Weighted>
   9.000000E+99

> <Gold.Protein.RotatedTorsions>
[ 6907 6896 6895 6894 ] final  126.43 input  -60.11 | X-H torsion
[ 7974 7965 7964 7962 ] final   -6.20 input  175.53 | X-H torsion
[ 8008 7997 7996 7995 ] final  115.85 input   59.86 | X-H torsion
[ 10167 10162 10161 10158 ] final   -6.87 input  -65.29 | X-H torsion
[ 10718 10713 10712 10709 ] final  140.73 input   66.30 | X-H torsion
[ 10763 10752 10751 10750 ] final   73.25 input  -60.55 | X-H torsion
[ 11005 11000 10999 10996 ] final  143.02 input  -57.11 | X-H torsion

> <Gold.Protein.ActiveResidues>
 VAL166  LYS551  ARG553  GLY616  TRP617  ASP618  TYR619  PRO620  LYS621  CYS622 
 ASP623  PHE694  ASN695  SER759  ASP760  ASP761  ALA762  ILE779  LEU786  VAL792 
 PHE793  MET794  SER795  GLU796  ALA797  LYS798  CYS799  TRP800  GLU811  SER814 

> <Gold.Protein.RotatedAtoms>
  152.3904  133.6670  159.6232 H   0  0  0  0  0  0  0  0  0  0  0  0  # atno 6907 bound_to 6896
  150.7813  133.8964  159.3337 H   0  0  0  0  0  0  0  0  0  0  0  0  # atno 6908 bound_to 6896
  151.6752  135.0971  160.0257 H   0  0  0  0  0  0  0  0  0  0  0  0  # atno 6909 bound_to 6896
  146.2336  140.2134  142.8336 H   0  0  0  0  0  0  0  0  0  0  0  0  # atno 7974 bound_to 7965
  156.2405  140.2930  156.0432 H   0  0  0  0  0  0  0  0  0  0  0  0  # atno 8008 bound_to 7997
  155.1964  140.0408  157.2927 H   0  0  0  0  0  0  0  0  0  0  0  0  # atno 8009 bound_to 7997
  154.6160  140.2464  155.7616 H   0  0  0  0  0  0  0  0  0  0  0  0  # atno 8010 bound_to 7997
  140.7011  143.6145  150.8671 H   0  0  0  0  0  0  0  0  0  0  0  0  # atno 10167 bound_to 10162
  157.4000  131.1015  151.0561 H   0  0  0  0  0  0  0  0  0  0  0  0  # atno 10718 bound_to 10713
  153.0510  135.5070  154.7866 H   0  0  0  0  0  0  0  0  0  0  0  0  # atno 10763 bound_to 10752
  154.6728  135.2956  154.9721 H   0  0  0  0  0  0  0  0  0  0  0  0  # atno 10764 bound_to 10752
  154.0533  135.6701  153.4855 H   0  0  0  0  0  0  0  0  0  0  0  0  # atno 10765 bound_to 10752
  140.0522  134.9250  157.1036 H   0  0  0  0  0  0  0  0  0  0  0  0  # atno 11005 bound_to 11000
  144.9688  140.8348  143.5468 LP  0  0  0  0  0  0  0  0  0  0  0  0  # atno 17320 bound_to 7965
  145.2113  139.2203  143.5141 LP  0  0  0  0  0  0  0  0  0  0  0  0  # atno 17321 bound_to 7965
  139.9868  143.5891  152.2924 LP  0  0  0  0  0  0  0  0  0  0  0  0  # atno 17342 bound_to 10162
  139.6532  144.7661  151.2107 LP  0  0  0  0  0  0  0  0  0  0  0  0  # atno 17343 bound_to 10162
  157.1563  130.6206  149.5597 LP  0  0  0  0  0  0  0  0  0  0  0  0  # atno 17370 bound_to 10713
  155.9821  130.4832  150.6861 LP  0  0  0  0  0  0  0  0  0  0  0  0  # atno 17371 bound_to 10713
  140.3900  134.2195  155.7166 LP  0  0  0  0  0  0  0  0  0  0  0  0  # atno 17394 bound_to 11000
  141.1935  133.8148  157.0794 LP  0  0  0  0  0  0  0  0  0  0  0  0  # atno 17395 bound_to 11000

$$$$
