AV-unprocessed.smi:2950|AV-procd|sdf|11289|dock2
  -GOLD-   2272016183D 1   1.00000     0.00000
 Structure written by MMmdl.
 30 31  0  0  0  0  0  0  0  0  2 V2000
  153.6995  138.0658  157.7178 C   0  0  0  0  0  0  0  0  0  0  0  0
  153.4342  138.8864  156.5940 O   0  0  0  0  0  0  0  0  0  0  0  0
  152.0557  138.9232  156.2605 C   0  0  0  0  0  0  0  0  0  0  0  0
  151.2668  139.5801  157.4023 C   0  0  0  0  0  0  0  0  0  0  0  0
  151.0963  141.0257  157.1993 N   0  0  0  0  0  0  0  0  0  0  0  0
  150.4378  141.7105  156.2199 C   0  0  0  0  0  0  0  0  0  0  0  0
  149.7027  141.1319  155.0567 C   0  0  0  0  0  0  0  0  0  0  0  0
  149.1465  142.1273  154.2270 O   0  0  0  0  0  0  0  0  0  0  0  0
  150.5772  143.0384  156.4933 N   0  3  0  0  0  0  0  0  0  0  0  0
  151.3259  143.2050  157.6590 C   0  0  0  0  0  0  0  0  0  0  0  0
  151.7256  144.3569  158.3295 C   0  0  0  0  0  0  0  0  0  0  0  0
  152.4848  144.1738  159.5042 C   0  0  0  0  0  0  0  0  0  0  0  0
  152.8187  142.8851  159.9696 C   0  0  0  0  0  0  0  0  0  0  0  0
  152.4101  141.7247  159.2795 C   0  0  0  0  0  0  0  0  0  0  0  0
  151.6606  141.9151  158.1193 C   0  0  0  0  0  0  0  0  0  0  0  0
  154.7670  138.0780  157.9375 H   0  0  0  0  0  0  0  0  0  0  0  0
  153.4074  137.0321  157.5287 H   0  0  0  0  0  0  0  0  0  0  0  0
  153.1698  138.4239  158.6015 H   0  0  0  0  0  0  0  0  0  0  0  0
  151.9119  139.4841  155.3359 H   0  0  0  0  0  0  0  0  0  0  0  0
  151.6843  137.9119  156.0883 H   0  0  0  0  0  0  0  0  0  0  0  0
  150.2847  139.1203  157.5162 H   0  0  0  0  0  0  0  0  0  0  0  0
  151.7861  139.4350  158.3500 H   0  0  0  0  0  0  0  0  0  0  0  0
  150.3764  140.5091  154.4682 H   0  0  0  0  0  0  0  0  0  0  0  0
  148.9042  140.4841  155.4194 H   0  0  0  0  0  0  0  0  0  0  0  0
  149.0179  142.9100  154.7410 H   0  0  0  0  0  0  0  0  0  0  0  0
  151.4705  145.3446  157.9745 H   0  0  0  0  0  0  0  0  0  0  0  0
  152.8169  145.0389  160.0598 H   0  0  0  0  0  0  0  0  0  0  0  0
  153.4002  142.7837  160.8746 H   0  0  0  0  0  0  0  0  0  0  0  0
  152.6700  140.7417  159.6435 H   0  0  0  0  0  0  0  0  0  0  0  0
  150.1866  143.7752  155.9201 H   0  0  0  0  0  0  0  0  0  0  0  0
  1  2  1  0  0  0  0
  1 16  1  0  0  0  0
  1 17  1  0  0  0  0
  1 18  1  0  0  0  0
  2  3  1  0  0  0  0
  3  4  1  0  0  0  0
  3 19  1  0  0  0  0
  3 20  1  0  0  0  0
  4  5  1  0  0  0  0
  4 21  1  0  0  0  0
  4 22  1  0  0  0  0
  5 15  1  0  0  0  0
  5  6  1  0  0  0  0
  6  7  1  0  0  0  0
  6  9  2  0  0  0  0
  7  8  1  0  0  0  0
  7 23  1  0  0  0  0
  7 24  1  0  0  0  0
  8 25  1  0  0  0  0
  9 10  1  0  0  0  0
  9 30  1  0  0  0  0
 10 15  2  0  0  0  0
 10 11  1  0  0  0  0
 11 12  2  0  0  0  0
 11 26  1  0  0  0  0
 12 13  1  0  0  0  0
 12 27  1  0  0  0  0
 13 14  2  0  0  0  0
 13 28  1  0  0  0  0
 14 15  1  0  0  0  0
 14 29  1  0  0  0  0
M  CHG  1   9   1
M  END
> <s_m_source_file>
AV-unprocessed.smi

> <i_m_source_file_index>
2950

> <i_lp_mmshare_version>
43012

> <i_f3d_flags>
0

> <s_epik_input>
W0NIM11PW0NIMl1bQ0gyXW4oYyhuMSlbQ0gyXVtPSF0pYyhjMTIpW2NIXVtjSF1bY0hdW2NIXTI=

> <s_epik_cmdline>
J2VwaWtfcHl0aG9uJywgJy1waCcsICc3LjAnLCAnLXRuJywgJzgnLCAnLW1hJywgJzIwMCcsICctbWV0YWxfYmluZGluZycsICctaW1hZScsICc8aW5maWxlLm1hZT4nLCAnLW9tYWUnLCAnPG91dGZpbGUubWFlPic=

> <r_epik_Ionization_Penalty>
1.35411

> <r_epik_Ionization_Penalty_Charging>
1.35325

> <r_epik_Ionization_Penalty_Neutral>
0.000855784

> <r_epik_State_Penalty>
1.4315

> <r_epik_Charging_Adjusted_Penalty>
2.78475

> <i_epik_Tot_Q>
1

> <i_epik_Tot_abs_Q>
1

> <r_epik_Metal_State_Penalty>
5.4689

> <b_epik_Metal_Only>
0

> <s_lp_Force_Field>
OPLS_2005

> <r_lp_Energy>
9.95832

> <b_lp_Chiralities_Consistent>
1

> <s_lp_Variant>
AV-unprocessed.smi:2950-2

> <Gold.Version>
5.8.1

> <Gold.Id.Protein>
6NUR|6NUR_protein|mol2

> <Gold.PLP.Fitness>
47.9507

> <Gold.PLP.PLP>
-35.8226

> <Gold.PLP.part.hbond>
-3.9600

> <Gold.PLP.part.metal>
0.0000

> <Gold.PLP.part.buried>
-3.2287

> <Gold.PLP.part.nonpolar>
-28.9097

> <Gold.PLP.part.repulsive>
0.0766

> <Gold.PLP.ligand.clash>
0.0000

> <Gold.PLP.ligand.torsion>
0.2310

> <Gold.PLP.Chemscore.Hbond>
4.1948

> <Gold.PLP.Chemscore.CHOScore>
0.0000

> <Gold.PLP.Chemscore.Metal>
0.0000

> <Gold.Chemscore.Hbonds>
donor molecule, donor type, donor heavy atom, donor atom, acceptor molecule, acceptor atom, score
      L1  H     8    25       P1  8028  1.00
      L1  H     9    30       P1  8028  1.86
      P1  H  7997  8008       L1     2  0.96
      P1  H  8011  8017       L1     8  0.32

> <Gold.PLP.Chemscore.Internal.Correction>
0.0056

> <Gold.Rescore>
     Score         DG    S(hbond)    S(metal)    S(lipo)     H(rot)  DE(clash)    DE(int)     intcor
     19.99     -20.30       3.06        0.00      87.51       2.21       0.03       0.29       ----

> <Gold.Chemscore.Fitness>
19.9851

> <Gold.Chemscore.DG>
-20.2973

> <Gold.Chemscore.ZeroCoef>
-5.4800

> <Gold.Chemscore.Hbond>
3.0641

> <Gold.Chemscore.Metal>
0.0000

> <Gold.Chemscore.Lipo>
87.5119

> <Gold.Chemscore.Internal_Hbond>
0.0000

> <Gold.Chemscore.DEClash>
0.0263

> <Gold.Chemscore.DEInternal>
0.2859

> <Gold.Chemscore.Rot>
2.2092

> <Gold.Chemscore.Internal.Correction>
   9.000000E+99

> <Gold.Chemscore.Hbonds>
donor molecule, donor type, donor heavy atom, donor atom, acceptor molecule, acceptor atom, score
      L1  H     8    25       P1  8028  0.94
      L1  H     9    30       P1  8028  0.89
      P1  H  7997  8008       L1     2  0.76
      P1  H  8011  8017       L1     8  0.27

> <Gold.Chemscore.Hbond.Weighted>
-10.2339

> <Gold.Chemscore.Metal.Weighted>
-0.0000

> <Gold.Chemscore.Lipo.Weighted>
-10.2389

> <Gold.Chemscore.Internal_Hbond.Weighted>
0.0000

> <Gold.Chemscore.DEClash.Weighted>
0.0263

> <Gold.Chemscore.DEInternal.Weighted>
0.2859

> <Gold.Chemscore.Rot.Weighted>
5.6555

> <Gold.Chemscore.Internal.Correction.Weighted>
   9.000000E+99

> <Gold.Protein.RotatedTorsions>
[ 6907 6896 6895 6894 ] final   91.72 input  -60.11 | X-H torsion
[ 7974 7965 7964 7962 ] final   -3.19 input  175.53 | X-H torsion
[ 8008 7997 7996 7995 ] final  -49.86 input   59.86 | X-H torsion
[ 10167 10162 10161 10158 ] final  -76.89 input  -65.29 | X-H torsion
[ 10718 10713 10712 10709 ] final -108.38 input   66.30 | X-H torsion
[ 10763 10752 10751 10750 ] final -152.97 input  -60.55 | X-H torsion
[ 11005 11000 10999 10996 ] final  -57.73 input  -57.11 | X-H torsion

> <Gold.Protein.ActiveResidues>
 VAL166  LYS551  ARG553  GLY616  TRP617  ASP618  TYR619  PRO620  LYS621  CYS622 
 ASP623  PHE694  ASN695  SER759  ASP760  ASP761  ALA762  ILE779  LEU786  VAL792 
 PHE793  MET794  SER795  GLU796  ALA797  LYS798  CYS799  TRP800  GLU811  SER814 

> <Gold.Protein.RotatedAtoms>
  152.5451  134.1613  159.8558 H   0  0  0  0  0  0  0  0  0  0  0  0  # atno 6907 bound_to 6896
  151.1631  133.4825  159.2601 H   0  0  0  0  0  0  0  0  0  0  0  0  # atno 6908 bound_to 6896
  151.1352  135.0162  159.8655 H   0  0  0  0  0  0  0  0  0  0  0  0  # atno 6909 bound_to 6896
  146.2393  140.1683  142.8332 H   0  0  0  0  0  0  0  0  0  0  0  0  # atno 7974 bound_to 7965
  154.4051  140.1286  156.4572 H   0  0  0  0  0  0  0  0  0  0  0  0  # atno 8008 bound_to 7997
  155.7309  140.3491  155.5039 H   0  0  0  0  0  0  0  0  0  0  0  0  # atno 8009 bound_to 7997
  155.9128  140.1039  157.1256 H   0  0  0  0  0  0  0  0  0  0  0  0  # atno 8010 bound_to 7997
  140.4818  143.2400  151.8047 H   0  0  0  0  0  0  0  0  0  0  0  0  # atno 10167 bound_to 10162
  156.0483  130.5710  150.7953 H   0  0  0  0  0  0  0  0  0  0  0  0  # atno 10718 bound_to 10713
  154.7959  135.3223  154.7668 H   0  0  0  0  0  0  0  0  0  0  0  0  # atno 10763 bound_to 10752
  153.8347  135.6876  153.4814 H   0  0  0  0  0  0  0  0  0  0  0  0  # atno 10764 bound_to 10752
  153.1650  135.4646  154.9766 H   0  0  0  0  0  0  0  0  0  0  0  0  # atno 10765 bound_to 10752
  141.1177  133.6611  156.4814 H   0  0  0  0  0  0  0  0  0  0  0  0  # atno 11005 bound_to 11000
  145.0032  140.8650  143.5269 LP  0  0  0  0  0  0  0  0  0  0  0  0  # atno 17320 bound_to 7965
  145.1706  139.2406  143.5344 LP  0  0  0  0  0  0  0  0  0  0  0  0  # atno 17321 bound_to 7965
  139.4835  144.4763  151.9362 LP  0  0  0  0  0  0  0  0  0  0  0  0  # atno 17342 bound_to 10162
  140.3849  144.2690  150.5905 LP  0  0  0  0  0  0  0  0  0  0  0  0  # atno 17343 bound_to 10162
  157.5382  131.0939  150.9863 LP  0  0  0  0  0  0  0  0  0  0  0  0  # atno 17370 bound_to 10713
  157.0153  130.5652  149.5325 LP  0  0  0  0  0  0  0  0  0  0  0  0  # atno 17371 bound_to 10713
  140.4598  134.6852  157.5080 LP  0  0  0  0  0  0  0  0  0  0  0  0  # atno 17394 bound_to 11000
  140.0111  134.6689  155.9379 LP  0  0  0  0  0  0  0  0  0  0  0  0  # atno 17395 bound_to 11000

$$$$
