AV-unprocessed.smi:181|AV-procd|sdf|1454|dock5
  -GOLD-   2262019253D 1   1.00000     0.00000
 Structure written by MMmdl.
 50 53  0  0  0  0  0  0  0  0  1 V2000
  145.9955  135.4371  157.9191 C   0  0  0  0  0  0  0  0  0  0  0  0
  146.5436  136.6218  158.7237 C   0  0  0  0  0  0  0  0  0  0  0  0
  147.8546  136.3516  159.3188 N   0  0  0  0  0  0  0  0  0  0  0  0
  148.8593  137.2180  159.0218 C   0  0  0  0  0  0  0  0  0  0  0  0
  150.1374  136.9096  159.3618 N   0  0  0  0  0  0  0  0  0  0  0  0
  151.1351  137.7512  159.0777 C   0  0  0  0  0  0  0  0  0  0  0  0
  151.0791  138.9336  158.4625 N   0  0  0  0  0  0  0  0  0  0  0  0
  149.8005  139.2444  158.1054 C   0  0  0  0  0  0  0  0  0  0  0  0
  148.6421  138.4527  158.3471 C   0  0  0  0  0  0  0  0  0  0  0  0
  147.5190  139.0897  157.8322 N   0  0  0  0  0  0  0  0  0  0  0  0
  147.9849  140.1992  157.3278 C   0  0  0  0  0  0  0  0  0  0  0  0
  149.3466  140.3685  157.4377 N   0  0  0  0  0  0  0  0  0  0  0  0
  150.1244  141.5008  156.9579 C   0  0  0  0  0  0  0  0  0  0  0  0
  150.7600  142.3551  158.0837 C   0  0  0  0  0  0  0  0  0  0  0  0
  149.7197  142.7761  158.9489 O   0  0  0  0  0  0  0  0  0  0  0  0
  151.7966  141.5697  158.9173 C   0  0  0  0  0  0  0  0  0  0  0  0
  152.5712  142.4804  159.8868 C   0  0  0  0  0  0  0  0  0  0  0  0
  153.1766  143.5527  159.1749 O   0  0  0  0  0  0  0  0  0  0  0  0
  152.2242  144.4004  158.5447 C   0  0  0  0  0  0  0  0  0  0  0  0
  151.4333  143.6083  157.4886 C   0  0  0  0  0  0  0  0  0  0  0  0
  147.9954  135.3239  160.3654 C   0  0  1  0  0  0  0  0  0  0  0  0
  147.1678  135.6180  161.6324 C   0  0  0  0  0  0  0  0  0  0  0  0
  146.8112  134.2329  162.1919 C   0  0  0  0  0  0  0  0  0  0  0  0
  146.9442  133.3407  161.0551 N   0  0  0  0  0  0  0  0  0  0  0  0
  147.5650  133.8993  160.0163 C   0  0  0  0  0  0  0  0  0  0  0  0
  147.7786  133.3545  158.9354 O   0  0  0  0  0  0  0  0  0  0  0  0
  144.9914  135.6517  157.5533 H   0  0  0  0  0  0  0  0  0  0  0  0
  145.9411  134.5363  158.5309 H   0  0  0  0  0  0  0  0  0  0  0  0
  146.6179  135.2225  157.0509 H   0  0  0  0  0  0  0  0  0  0  0  0
  146.6265  137.4966  158.0781 H   0  0  0  0  0  0  0  0  0  0  0  0
  145.8089  136.8859  159.4839 H   0  0  0  0  0  0  0  0  0  0  0  0
  152.1189  137.4306  159.3867 H   0  0  0  0  0  0  0  0  0  0  0  0
  147.3445  140.9253  156.8487 H   0  0  0  0  0  0  0  0  0  0  0  0
  150.9042  141.1135  156.3008 H   0  0  0  0  0  0  0  0  0  0  0  0
  149.4804  142.1181  156.3299 H   0  0  0  0  0  0  0  0  0  0  0  0
  149.0719  142.0899  158.9973 H   0  0  0  0  0  0  0  0  0  0  0  0
  151.3179  140.7663  159.4783 H   0  0  0  0  0  0  0  0  0  0  0  0
  152.5107  141.0922  158.2451 H   0  0  0  0  0  0  0  0  0  0  0  0
  151.9163  142.8712  160.6670 H   0  0  0  0  0  0  0  0  0  0  0  0
  153.3517  141.9091  160.3894 H   0  0  0  0  0  0  0  0  0  0  0  0
  151.5583  144.8378  159.2903 H   0  0  0  0  0  0  0  0  0  0  0  0
  152.7521  145.2279  158.0706 H   0  0  0  0  0  0  0  0  0  0  0  0
  152.1230  143.3065  156.6989 H   0  0  0  0  0  0  0  0  0  0  0  0
  150.6916  144.2532  157.0150 H   0  0  0  0  0  0  0  0  0  0  0  0
  149.0473  135.2613  160.6486 H   0  0  0  0  0  0  0  0  0  0  0  0
  147.7197  136.2222  162.3530 H   0  0  0  0  0  0  0  0  0  0  0  0
  146.2450  136.1525  161.4051 H   0  0  0  0  0  0  0  0  0  0  0  0
  147.5138  133.9288  162.9688 H   0  0  0  0  0  0  0  0  0  0  0  0
  145.8032  134.2034  162.6063 H   0  0  0  0  0  0  0  0  0  0  0  0
  146.5714  132.4024  161.0525 H   0  0  0  0  0  0  0  0  0  0  0  0
  1  2  1  0  0  0  0
  1 27  1  0  0  0  0
  1 28  1  0  0  0  0
  1 29  1  0  0  0  0
  2  3  1  0  0  0  0
  2 30  1  0  0  0  0
  2 31  1  0  0  0  0
  3  4  1  0  0  0  0
  3 21  1  0  0  0  0
  4  9  1  0  0  0  0
  4  5  2  0  0  0  0
  5  6  1  0  0  0  0
  6  7  2  0  0  0  0
  6 32  1  0  0  0  0
  7  8  1  0  0  0  0
  8 12  1  0  0  0  0
  8  9  2  0  0  0  0
  9 10  1  0  0  0  0
 10 11  2  0  0  0  0
 11 12  1  0  0  0  0
 11 33  1  0  0  0  0
 12 13  1  0  0  0  0
 13 14  1  0  0  0  0
 13 34  1  0  0  0  0
 13 35  1  0  0  0  0
 14 20  1  0  0  0  0
 14 15  1  0  0  0  0
 14 16  1  0  0  0  0
 15 36  1  0  0  0  0
 16 17  1  0  0  0  0
 16 37  1  0  0  0  0
 16 38  1  0  0  0  0
 17 18  1  0  0  0  0
 17 39  1  0  0  0  0
 17 40  1  0  0  0  0
 18 19  1  0  0  0  0
 19 20  1  0  0  0  0
 19 41  1  0  0  0  0
 19 42  1  0  0  0  0
 20 43  1  0  0  0  0
 20 44  1  0  0  0  0
 21 25  1  0  0  0  0
 21 22  1  0  0  0  0
 21 45  1  0  0  0  0
 22 23  1  0  0  0  0
 22 46  1  0  0  0  0
 22 47  1  0  0  0  0
 23 24  1  0  0  0  0
 23 48  1  0  0  0  0
 23 49  1  0  0  0  0
 24 25  1  0  0  0  0
 24 50  1  0  0  0  0
 25 26  2  0  0  0  0
M  END
> <s_m_source_file>
AV-unprocessed.smi

> <i_m_source_file_index>
181

> <i_lp_mmshare_version>
43012

> <i_f3d_flags>
0

> <s_epik_input>
Tz1DMVtOSF1bQ0gyXVtDSDJdW0NASF0xTihbQ0gyXVtDSDNdKWMobltjSF1uMiljKGMyMyluW2NIXW4zW0NIMl1DNChbT0hdKVtDSDJdW0NIMl1PW0NIMl1bQ0gyXTQ=

> <s_epik_cmdline>
J2VwaWtfcHl0aG9uJywgJy1waCcsICc3LjAnLCAnLXRuJywgJzgnLCAnLW1hJywgJzIwMCcsICctbWV0YWxfYmluZGluZycsICctaW1hZScsICc8aW5maWxlLm1hZT4nLCAnLW9tYWUnLCAnPG91dGZpbGUubWFlPic=

> <r_lp_tautomer_probability>
1

> <r_epik_Ionization_Penalty>
0.000985257

> <r_epik_Ionization_Penalty_Charging>
0

> <r_epik_Ionization_Penalty_Neutral>
0.000985257

> <r_epik_State_Penalty>
0.000517047

> <r_epik_Charging_Adjusted_Penalty>
0.000517047

> <i_epik_Tot_Q>
0

> <i_epik_Tot_abs_Q>
0

> <r_epik_Metal_State_Penalty>
-0

> <b_epik_Metal_Only>
0

> <s_lp_Force_Field>
OPLS_2005

> <r_lp_Energy>
36.1044

> <b_lp_Chiralities_Consistent>
1

> <s_lp_Variant>
AV-unprocessed.smi:181-2

> <Gold.Version>
5.8.1

> <Gold.Id.Protein>
6NUR|6NUR_protein|mol2

> <Gold.PLP.Fitness>
43.8317

> <Gold.PLP.PLP>
-41.2329

> <Gold.PLP.part.hbond>
-2.4620

> <Gold.PLP.part.metal>
0.0000

> <Gold.PLP.part.buried>
-6.7916

> <Gold.PLP.part.nonpolar>
-32.6311

> <Gold.PLP.part.repulsive>
0.0364

> <Gold.PLP.ligand.clash>
0.0000

> <Gold.PLP.ligand.torsion>
0.3384

> <Gold.PLP.Chemscore.Hbond>
1.0000

> <Gold.PLP.Chemscore.CHOScore>
0.0000

> <Gold.PLP.Chemscore.Metal>
0.0000

> <Gold.Chemscore.Hbonds>
donor molecule, donor type, donor heavy atom, donor atom, acceptor molecule, acceptor atom, score
      P1  H  6896  6909       L1     5  0.75

> <Gold.PLP.Chemscore.Internal.Correction>
0.2757

> <Gold.Rescore>
     Score         DG    S(hbond)    S(metal)    S(lipo)     H(rot)  DE(clash)    DE(int)     intcor
     10.22     -12.23       0.84        0.00      88.16       2.49       0.00       2.01       ----

> <Gold.Chemscore.Fitness>
10.2151

> <Gold.Chemscore.DG>
-12.2264

> <Gold.Chemscore.ZeroCoef>
-5.4800

> <Gold.Chemscore.Hbond>
0.8399

> <Gold.Chemscore.Metal>
0.0000

> <Gold.Chemscore.Lipo>
88.1581

> <Gold.Chemscore.Internal_Hbond>
0.0000

> <Gold.Chemscore.DEClash>
0.0033

> <Gold.Chemscore.DEInternal>
2.0079

> <Gold.Chemscore.Rot>
2.4897

> <Gold.Chemscore.Internal.Correction>
   9.000000E+99

> <Gold.Chemscore.Hbonds>
donor molecule, donor type, donor heavy atom, donor atom, acceptor molecule, acceptor atom, score
      P1  H  6896  6909       L1     5  0.49

> <Gold.Chemscore.Hbond.Weighted>
-2.8054

> <Gold.Chemscore.Metal.Weighted>
-0.0000

> <Gold.Chemscore.Lipo.Weighted>
-10.3145

> <Gold.Chemscore.Internal_Hbond.Weighted>
0.0000

> <Gold.Chemscore.DEClash.Weighted>
0.0033

> <Gold.Chemscore.DEInternal.Weighted>
2.0079

> <Gold.Chemscore.Rot.Weighted>
6.3735

> <Gold.Chemscore.Internal.Correction.Weighted>
   9.000000E+99

> <Gold.Protein.RotatedTorsions>
[ 6907 6896 6895 6894 ] final   82.14 input  -60.11 | X-H torsion
[ 7974 7965 7964 7962 ] final   47.81 input  175.53 | X-H torsion
[ 8008 7997 7996 7995 ] final  -32.61 input   59.86 | X-H torsion
[ 10167 10162 10161 10158 ] final  120.81 input  -65.29 | X-H torsion
[ 10718 10713 10712 10709 ] final   19.67 input   66.30 | X-H torsion
[ 10763 10752 10751 10750 ] final  -34.20 input  -60.55 | X-H torsion
[ 11005 11000 10999 10996 ] final  -97.53 input  -57.11 | X-H torsion

> <Gold.Protein.ActiveResidues>
 VAL166  LYS551  ARG553  GLY616  TRP617  ASP618  TYR619  PRO620  LYS621  CYS622 
 ASP623  PHE694  ASN695  SER759  ASP760  ASP761  ALA762  ILE779  LEU786  VAL792 
 PHE793  MET794  SER795  GLU796  ALA797  LYS798  CYS799  TRP800  GLU811  SER814 

> <Gold.Protein.RotatedAtoms>
  152.5290  134.3096  159.9108 H   0  0  0  0  0  0  0  0  0  0  0  0  # atno 6907 bound_to 6896
  151.3046  133.4101  159.2650 H   0  0  0  0  0  0  0  0  0  0  0  0  # atno 6908 bound_to 6896
  151.0090  134.9398  159.8054 H   0  0  0  0  0  0  0  0  0  0  0  0  # atno 6909 bound_to 6896
  146.0263  139.4710  142.9866 H   0  0  0  0  0  0  0  0  0  0  0  0  # atno 7974 bound_to 7965
  154.4174  140.1733  156.1755 H   0  0  0  0  0  0  0  0  0  0  0  0  # atno 8008 bound_to 7997
  155.9725  140.3384  155.6565 H   0  0  0  0  0  0  0  0  0  0  0  0  # atno 8009 bound_to 7997
  155.6606  140.0700  157.2546 H   0  0  0  0  0  0  0  0  0  0  0  0  # atno 8010 bound_to 7997
  139.5958  144.7041  151.3179 H   0  0  0  0  0  0  0  0  0  0  0  0  # atno 10167 bound_to 10162
  157.1137  130.6520  149.5904 H   0  0  0  0  0  0  0  0  0  0  0  0  # atno 10718 bound_to 10713
  153.8427  135.6856  153.4801 H   0  0  0  0  0  0  0  0  0  0  0  0  # atno 10763 bound_to 10752
  153.1444  135.4644  154.9542 H   0  0  0  0  0  0  0  0  0  0  0  0  # atno 10764 bound_to 10752
  154.7837  135.3277  154.7879 H   0  0  0  0  0  0  0  0  0  0  0  0  # atno 10765 bound_to 10752
  141.1376  133.8178  157.0719 H   0  0  0  0  0  0  0  0  0  0  0  0  # atno 11005 bound_to 11000
  145.7113  141.0105  143.1452 LP  0  0  0  0  0  0  0  0  0  0  0  0  # atno 17320 bound_to 7965
  144.7011  139.8760  143.7444 LP  0  0  0  0  0  0  0  0  0  0  0  0  # atno 17321 bound_to 7965
  140.7211  143.7133  150.7752 LP  0  0  0  0  0  0  0  0  0  0  0  0  # atno 17342 bound_to 10162
  140.0699  143.5071  152.2585 LP  0  0  0  0  0  0  0  0  0  0  0  0  # atno 17343 bound_to 10162
  155.9844  130.4869  150.6983 LP  0  0  0  0  0  0  0  0  0  0  0  0  # atno 17370 bound_to 10713
  157.4537  131.0875  151.0819 LP  0  0  0  0  0  0  0  0  0  0  0  0  # atno 17371 bound_to 10713
  140.0506  134.9807  157.1129 LP  0  0  0  0  0  0  0  0  0  0  0  0  # atno 17394 bound_to 11000
  140.3996  134.2097  155.7164 LP  0  0  0  0  0  0  0  0  0  0  0  0  # atno 17395 bound_to 11000

$$$$
