#       Name:                AV-unprocessed.smi:3062
#       Creating user name   scv26
#       Creation time:       Fri Mar 27 17:08:52 2020


#       File generated by GOLD software.
#

@<TRIPOS>MOLECULE
AV-unprocessed.smi:3062
    47    48     1
SMALL
NO_CHARGES


@<TRIPOS>ATOM
      1 ****        -1.4495   3.9108  -2.5639 C.3            1 S1                 0.0000
      2 ****        -1.2763   3.1584  -1.2721 C.2            1 S1                 0.0000
      3 ****        -0.7551   1.9784  -1.3527 N.2            1 S1                 0.0000
      4 ****        -0.5521   1.2036  -0.2283 N.am           1 S1                 0.0000
      5 ****         0.0544  -0.1031  -0.5086 C.3            1 S1                 0.0000
      6 ****         1.5770  -0.1036  -0.2518 C.3            1 S1                 0.0000
      7 ****         2.2618   0.4857  -1.3390 O.3            1 S1                 0.0000
      8 ****         2.1491  -1.5147  -0.0399 C.3            1 S1                 0.0000
      9 ****         1.6507  -2.3989  -1.0370 O.3            1 S1                 0.0000
     10 ****         2.0481  -3.7522  -0.8622 C.3            1 S1                 0.0000
     11 ****         1.1873  -4.3773   0.1925 C.2            1 S1                 0.0000
     12 ****         1.5638  -5.3120   1.1231 C.2            1 S1                 0.0000
     13 ****         0.4965  -5.7169   1.9779 C.2            1 S1                 0.0000
     14 ****        -0.6857  -5.0914   1.6842 C.2            1 S1                 0.0000
     15 ****        -0.5118  -3.9930   0.3433 S.3            1 S1                 0.0000
     16 ****        -0.8632   1.5835   1.0440 C.2            1 S1                 0.0000
     17 ****        -0.6548   0.8622   2.0207 O.2            1 S1                 0.0000
     18 ****        -1.4558   2.9204   1.1285 C.2            1 S1                 0.0000
     19 ****        -1.7991   3.3578   2.4432 C.1            1 S1                 0.0000
     20 ****        -2.0822   3.7314   3.5017 N.1            1 S1                 0.0000
     21 ****        -1.6620   3.6906   0.0309 C.2            1 S1                 0.0000
     22 ****        -2.2714   5.0855   0.0641 C.3            1 S1                 0.0000
     23 ****        -0.9328   4.8702  -2.5273 H              1 S1                 0.0000
     24 ****        -2.5047   4.1013  -2.7615 H              1 S1                 0.0000
     25 ****        -1.0499   3.3559  -3.4143 H              1 S1                 0.0000
     26 ****        -0.4235  -0.8541   0.1233 H              1 S1                 0.0000
     27 ****        -0.1598  -0.4212  -1.5309 H              1 S1                 0.0000
     28 ****         1.8103   0.4858   0.6354 H              1 S1                 0.0000
     29 ****         1.9298   1.3618  -1.4618 H              1 S1                 0.0000
     30 ****         3.2402  -1.4987  -0.0483 H              1 S1                 0.0000
     31 ****         1.8446  -1.8682   0.9463 H              1 S1                 0.0000
     32 ****         1.9026  -4.2784  -1.8055 H              1 S1                 0.0000
     33 ****         3.1077  -3.8275  -0.6131 H              1 S1                 0.0000
     34 ****         2.5613  -5.7144   1.2204 H              1 S1                 0.0000
     35 ****         0.6310  -6.4436   2.7655 H              1 S1                 0.0000
     36 ****        -1.6441  -5.2115   2.1676 H              1 S1                 0.0000
     37 ****        -2.5570   5.3881   1.0711 H              1 S1                 0.0000
     38 ****        -3.1673   5.1280  -0.5562 H              1 S1                 0.0000
     39 ****        -1.5590   5.8216  -0.3097 H              1 S1                 0.0000
     40 ****        -0.4933   1.6191  -2.2485 LP             1 S1                 0.0000
     41 ****         2.1074  -0.0530  -2.1672 LP             1 S1                 0.0000
     42 ****         3.2416   0.5205  -1.1419 LP             1 S1                 0.0000
     43 ****         1.9816  -2.0868  -1.9275 LP             1 S1                 0.0000
     44 ****         0.6516  -2.3602  -1.0203 LP             1 S1                 0.0000
     45 ****        -0.2423  -0.0403   1.8968 LP             1 S1                 0.0000
     46 ****        -0.8980   1.1792   2.9374 LP             1 S1                 0.0000
     47 ****        -2.3267   4.0541   4.4161 LP             1 S1                 0.0000
@<TRIPOS>BOND
    1    1    2 1     
    2    1   23 1     
    3    1   24 1     
    4    1   25 1     
    5    2   21 1     
    6    2    3 2     
    7    3    4 1     
    8    4    5 1     
    9    4   16 am    
   10    5    6 1     
   11    5   26 1     
   12    5   27 1     
   13    6    7 1     
   14    6    8 1     
   15    6   28 1     
   16    7   29 1     
   17    8    9 1     
   18    8   30 1     
   19    8   31 1     
   20    9   10 1     
   21   10   11 1     
   22   10   32 1     
   23   10   33 1     
   24   11   15 1     
   25   11   12 2     
   26   12   13 1     
   27   12   34 1     
   28   13   14 2     
   29   13   35 1     
   30   14   15 1     
   31   14   36 1     
   32   16   17 2     
   33   16   18 1     
   34   18   19 1     
   35   18   21 2     
   36   19   20 3     
   37   21   22 1     
   38   22   37 1     
   39   22   38 1     
   40   22   39 1     
   41    3   40 1     
   42    7   41 1     
   43    7   42 1     
   44    9   43 1     
   45    9   44 1     
   46   17   45 1     
   47   17   46 1     
   48   20   47 1     
@<TRIPOS>SUBSTRUCTURE
      1 S1             1
@<TRIPOS>SET
LONE_PAIRS      STATIC     ATOMS    <user>   **** ""
8 40 41 42 43 44 45 46 47
DONOR_HYDROGENS      STATIC     ATOMS    <user>   **** ""
1 29
ATOM$BLUE        STATIC     ATOMS    COLORGROUP SYSTEM
8 40 41 42 43 44 45 46 47
ATOM$RED        STATIC     ATOMS    COLORGROUP SYSTEM
1 29
