#       Name:                AV-unprocessed.smi:1213
#       Creating user name   scv26
#       Creation time:       Fri Mar 27 04:13:45 2020


#       File generated by GOLD software.
#

@<TRIPOS>MOLECULE
AV-unprocessed.smi:1213
    42    43     1
SMALL
NO_CHARGES


@<TRIPOS>ATOM
      1 ****        -4.4897   3.0855  -1.6055 N.am           1 S1                 0.0000
      2 ****        -3.2714   2.7071  -1.9989 C.2            1 S1                 0.0000
      3 ****        -2.5023   3.4728  -2.5774 O.2            1 S1                 0.0000
      4 ****        -2.8738   1.2545  -1.7141 C.3            1 S1                 0.0000
      5 ****        -1.4087   1.0223  -1.8011 N.4            1 S1                 1.0000
      6 ****        -1.0765  -0.3930  -2.1048 C.3            1 S1                 0.0000
      7 ****         0.4352  -0.5756  -2.3351 C.3            1 S1                 0.0000
      8 ****         1.2697  -0.0594  -1.1499 C.3            1 S1                 0.0000
      9 ****         1.1324  -0.9511   0.0017 N.am           1 S1                 0.0000
     10 ****         1.9861  -1.0173   1.0342 C.2            1 S1                 0.0000
     11 ****         2.9942  -0.3165   1.1249 O.2            1 S1                 0.0000
     12 ****         1.5913  -1.9333   1.9359 N.am           1 S1                 0.0000
     13 ****         2.2136  -2.2788   3.1644 C.2            1 S1                 0.0000
     14 ****         3.3423  -1.7236   3.6207 N.2            1 S1                 0.0000
     15 ****         3.7253  -2.2532   4.8555 C.2            1 S1                 0.0000
     16 ****         2.8696  -3.2165   5.3289 C.2            1 S1                 0.0000
     17 ****         1.5420  -3.4999   4.2352 S.3            1 S1                 0.0000
     18 ****         0.8521   1.3858  -0.8111 C.3            1 S1                 0.0000
     19 ****        -0.6676   1.5134  -0.6087 C.3            1 S1                 0.0000
     20 ****        -4.7994   4.0322  -1.7763 H              1 S1                 0.0000
     21 ****        -5.1028   2.4288  -1.1442 H              1 S1                 0.0000
     22 ****        -3.2459   0.9401  -0.7375 H              1 S1                 0.0000
     23 ****        -3.3867   0.6417  -2.4566 H              1 S1                 0.0000
     24 ****        -1.4182  -1.0314  -1.2888 H              1 S1                 0.0000
     25 ****        -1.6116  -0.7118  -3.0001 H              1 S1                 0.0000
     26 ****         0.6618  -1.6247  -2.5302 H              1 S1                 0.0000
     27 ****         0.7234  -0.0324  -3.2363 H              1 S1                 0.0000
     28 ****         2.3191  -0.0608  -1.4506 H              1 S1                 0.0000
     29 ****         0.3354  -1.5707   0.0075 H              1 S1                 0.0000
     30 ****         0.7435  -2.4381   1.7245 H              1 S1                 0.0000
     31 ****         4.6236  -1.8852   5.3286 H              1 S1                 0.0000
     32 ****         2.9400  -3.7741   6.2510 H              1 S1                 0.0000
     33 ****         1.3786   1.7428   0.0747 H              1 S1                 0.0000
     34 ****         1.1573   2.0448  -1.6251 H              1 S1                 0.0000
     35 ****        -0.9130   2.5582  -0.4170 H              1 S1                 0.0000
     36 ****        -0.9798   0.9528   0.2739 H              1 S1                 0.0000
     37 ****        -1.0875   1.5650  -2.5906 H              1 S1                 0.0000
     38 ****        -2.7826   4.4137  -2.7676 LP             1 S1                 0.0000
     39 ****        -1.5967   3.1545  -2.8577 LP             1 S1                 0.0000
     40 ****         3.2105   0.3437   0.4056 LP             1 S1                 0.0000
     41 ****         3.5967  -0.4075   1.9177 LP             1 S1                 0.0000
     42 ****         3.8517  -1.0132   3.1350 LP             1 S1                 0.0000
@<TRIPOS>BOND
    1    1    2 am    
    2    1   20 1     
    3    1   21 1     
    4    2    3 2     
    5    2    4 1     
    6    4    5 1     
    7    4   22 1     
    8    4   23 1     
    9    5   19 1     
   10    5    6 1     
   11    5   37 1     
   12    6    7 1     
   13    6   24 1     
   14    6   25 1     
   15    7    8 1     
   16    7   26 1     
   17    7   27 1     
   18    8    9 1     
   19    8   18 1     
   20    8   28 1     
   21    9   10 am    
   22    9   29 1     
   23   10   11 2     
   24   10   12 am    
   25   12   13 1     
   26   12   30 1     
   27   13   17 1     
   28   13   14 2     
   29   14   15 1     
   30   15   16 2     
   31   15   31 1     
   32   16   17 1     
   33   16   32 1     
   34   18   19 1     
   35   18   33 1     
   36   18   34 1     
   37   19   35 1     
   38   19   36 1     
   39    3   38 1     
   40    3   39 1     
   41   11   40 1     
   42   11   41 1     
   43   14   42 1     
@<TRIPOS>SUBSTRUCTURE
      1 S1             1
@<TRIPOS>SET
LONE_PAIRS      STATIC     ATOMS    <user>   **** ""
5 38 39 40 41 42
DONOR_HYDROGENS      STATIC     ATOMS    <user>   **** ""
5 20 21 37 29 30
ATOM$BLUE        STATIC     ATOMS    COLORGROUP SYSTEM
5 38 39 40 41 42
ATOM$RED        STATIC     ATOMS    COLORGROUP SYSTEM
5 20 21 37 29 30
