AV-unprocessed.smi:2837|AV-procd|sdf|10924|dock6
  -GOLD-   2272015373D 1   1.00000     0.00000
 Structure written by MMmdl.
 33 35  0  0  0  0  0  0  0  0  2 V2000
  136.0036  137.8857  154.4579 F   0  0  0  0  0  0  0  0  0  0  0  0
  137.2063  138.2927  153.9861 C   0  0  0  0  0  0  0  0  0  0  0  0
  137.2466  139.6443  154.0836 F   0  0  0  0  0  0  0  0  0  0  0  0
  138.2016  137.7334  154.7243 O   0  0  0  0  0  0  0  0  0  0  0  0
  139.4788  137.6848  154.2127 C   0  0  0  0  0  0  0  0  0  0  0  0
  140.1483  136.4434  154.2047 C   0  0  0  0  0  0  0  0  0  0  0  0
  141.4636  136.3559  153.7041 C   0  0  0  0  0  0  0  0  0  0  0  0
  142.1018  137.5224  153.2203 C   0  0  0  0  0  0  0  0  0  0  0  0
  143.4042  137.5590  152.7032 N   0  0  0  0  0  0  0  0  0  0  0  0
  144.2236  136.3561  152.6237 C   0  0  2  0  0  0  0  0  0  0  0  0
  145.5731  136.5888  151.9304 C   0  0  0  0  0  0  0  0  0  0  0  0
  145.5310  135.5555  150.7978 C   0  0  1  0  0  0  0  0  0  0  0  0
  145.6214  134.1152  151.3199 C   0  0  0  0  0  0  0  0  0  0  0  0
  144.2362  133.9184  151.9351 C   0  0  0  0  0  0  0  0  0  0  0  0
  143.5917  135.2928  151.7093 C   0  0  2  0  0  0  0  0  0  0  0  0
  144.1593  135.6256  150.4527 O   0  0  0  0  0  0  0  0  0  0  0  0
  141.4305  138.6945  153.2525 N   0  3  0  0  0  0  0  0  0  0  0  0
  140.1706  138.8194  153.7236 C   0  0  0  0  0  0  0  0  0  0  0  0
  137.2689  138.0002  152.9376 H   0  0  0  0  0  0  0  0  0  0  0  0
  139.6538  135.5595  154.5802 H   0  0  0  0  0  0  0  0  0  0  0  0
  141.9611  135.3978  153.7015 H   0  0  0  0  0  0  0  0  0  0  0  0
  143.8355  138.4478  152.4927 H   0  0  0  0  0  0  0  0  0  0  0  0
  144.3508  135.9459  153.6262 H   0  0  0  0  0  0  0  0  0  0  0  0
  145.6459  137.5952  151.5149 H   0  0  0  0  0  0  0  0  0  0  0  0
  146.4215  136.4374  152.5986 H   0  0  0  0  0  0  0  0  0  0  0  0
  146.2126  135.7728  149.9749 H   0  0  0  0  0  0  0  0  0  0  0  0
  145.7785  133.4125  150.5007 H   0  0  0  0  0  0  0  0  0  0  0  0
  146.4290  133.9862  152.0414 H   0  0  0  0  0  0  0  0  0  0  0  0
  143.6882  133.1428  151.3987 H   0  0  0  0  0  0  0  0  0  0  0  0
  144.2745  133.6412  152.9891 H   0  0  0  0  0  0  0  0  0  0  0  0
  142.5013  135.2700  151.7246 H   0  0  0  0  0  0  0  0  0  0  0  0
  139.7672  139.8213  153.6976 H   0  0  0  0  0  0  0  0  0  0  0  0
  141.8998  139.5320  152.9066 H   0  0  0  0  0  0  0  0  0  0  0  0
  1  2  1  0  0  0  0
  2  3  1  0  0  0  0
  2  4  1  0  0  0  0
  2 19  1  0  0  0  0
  4  5  1  0  0  0  0
  5 18  1  0  0  0  0
  5  6  2  0  0  0  0
  6  7  1  0  0  0  0
  6 20  1  0  0  0  0
  7  8  2  0  0  0  0
  7 21  1  0  0  0  0
  8  9  1  0  0  0  0
  8 17  1  0  0  0  0
  9 10  1  0  0  0  0
  9 22  1  0  0  0  0
 10 15  1  0  0  0  0
 10 11  1  0  0  0  0
 10 23  1  0  0  0  0
 11 12  1  0  0  0  0
 11 24  1  0  0  0  0
 11 25  1  0  0  0  0
 12 16  1  0  0  0  0
 12 13  1  0  0  0  0
 12 26  1  0  0  0  0
 13 14  1  0  0  0  0
 13 27  1  0  0  0  0
 13 28  1  0  0  0  0
 14 15  1  0  0  0  0
 14 29  1  0  0  0  0
 14 30  1  0  0  0  0
 15 16  1  0  0  0  0
 15 31  1  0  0  0  0
 17 18  2  0  0  0  0
 17 33  1  0  0  0  0
 18 32  1  0  0  0  0
M  CHG  1  17   1
M  END
> <s_m_source_file>
AV-unprocessed.smi

> <i_m_source_file_index>
2837

> <i_lp_mmshare_version>
43012

> <i_f3d_flags>
0

> <s_epik_input>
RltDSF0oRilPYzFbY0hdW2NIXWMobltjSF0xKVtOSF1bQ0BIXShbQ0gyXVtDQEBIXTIzKVtDQEBIXShPMylbQ0gyXVtDSDJdMg==

> <s_epik_cmdline>
J2VwaWtfcHl0aG9uJywgJy1waCcsICc3LjAnLCAnLXRuJywgJzgnLCAnLW1hJywgJzIwMCcsICctbWV0YWxfYmluZGluZycsICctaW1hZScsICc8aW5maWxlLm1hZT4nLCAnLW9tYWUnLCAnPG91dGZpbGUubWFlPic=

> <r_lp_tautomer_probability>
0.999429

> <r_epik_Ionization_Penalty>
2.29716

> <r_epik_Ionization_Penalty_Charging>
2.29716

> <r_epik_Ionization_Penalty_Neutral>
1.42285e-06

> <r_epik_State_Penalty>
2.44762

> <r_epik_Charging_Adjusted_Penalty>
4.74478

> <i_epik_Tot_Q>
1

> <i_epik_Tot_abs_Q>
1

> <r_epik_Metal_State_Penalty>
6.53078

> <b_epik_Metal_Only>
0

> <s_lp_Force_Field>
OPLS_2005

> <r_lp_Energy>
46.2914

> <b_lp_Chiralities_Consistent>
1

> <s_lp_Variant>
AV-unprocessed.smi:2837-5

> <Gold.Version>
5.8.1

> <Gold.Id.Protein>
6NUR|6NUR_protein|mol2

> <Gold.PLP.Fitness>
43.6851

> <Gold.PLP.PLP>
-32.6260

> <Gold.PLP.part.hbond>
-3.4477

> <Gold.PLP.part.metal>
0.0000

> <Gold.PLP.part.buried>
-7.1671

> <Gold.PLP.part.nonpolar>
-24.7746

> <Gold.PLP.part.repulsive>
1.1093

> <Gold.PLP.ligand.clash>
0.0000

> <Gold.PLP.ligand.torsion>
0.2424

> <Gold.PLP.Chemscore.Hbond>
3.8400

> <Gold.PLP.Chemscore.CHOScore>
0.0000

> <Gold.PLP.Chemscore.Metal>
0.0000

> <Gold.Chemscore.Hbonds>
donor molecule, donor type, donor heavy atom, donor atom, acceptor molecule, acceptor atom, score
      L1  H     9    22       P1 10175  1.86
      L1  H    17    33       P1 10175  1.98

> <Gold.PLP.Chemscore.Internal.Correction>
0.0240

> <Gold.Rescore>
     Score         DG    S(hbond)    S(metal)    S(lipo)     H(rot)  DE(clash)    DE(int)     intcor
     13.95     -14.44       1.58        0.00      60.75       1.34       0.25       0.24       ----

> <Gold.Chemscore.Fitness>
13.9451

> <Gold.Chemscore.DG>
-14.4381

> <Gold.Chemscore.ZeroCoef>
-5.4800

> <Gold.Chemscore.Hbond>
1.5785

> <Gold.Chemscore.Metal>
0.0000

> <Gold.Chemscore.Lipo>
60.7545

> <Gold.Chemscore.Internal_Hbond>
0.0000

> <Gold.Chemscore.DEClash>
0.2540

> <Gold.Chemscore.DEInternal>
0.2389

> <Gold.Chemscore.Rot>
1.3368

> <Gold.Chemscore.Internal.Correction>
   9.000000E+99

> <Gold.Chemscore.Hbonds>
donor molecule, donor type, donor heavy atom, donor atom, acceptor molecule, acceptor atom, score
      L1  H     9    22       P1 10175  0.88
      L1  H    17    33       P1 10175  0.56

> <Gold.Chemscore.Hbond.Weighted>
-5.2721

> <Gold.Chemscore.Metal.Weighted>
-0.0000

> <Gold.Chemscore.Lipo.Weighted>
-7.1083

> <Gold.Chemscore.Internal_Hbond.Weighted>
0.0000

> <Gold.Chemscore.DEClash.Weighted>
0.2540

> <Gold.Chemscore.DEInternal.Weighted>
0.2389

> <Gold.Chemscore.Rot.Weighted>
3.4223

> <Gold.Chemscore.Internal.Correction.Weighted>
   9.000000E+99

> <Gold.Protein.RotatedTorsions>
[ 6907 6896 6895 6894 ] final  -95.50 input  -60.11 | X-H torsion
[ 7974 7965 7964 7962 ] final   87.66 input  175.53 | X-H torsion
[ 8008 7997 7996 7995 ] final -156.79 input   59.86 | X-H torsion
[ 10167 10162 10161 10158 ] final  -44.41 input  -65.29 | X-H torsion
[ 10718 10713 10712 10709 ] final   15.41 input   66.30 | X-H torsion
[ 10763 10752 10751 10750 ] final  -55.20 input  -60.55 | X-H torsion
[ 11005 11000 10999 10996 ] final  154.73 input  -57.11 | X-H torsion

> <Gold.Protein.ActiveResidues>
 VAL166  LYS551  ARG553  GLY616  TRP617  ASP618  TYR619  PRO620  LYS621  CYS622 
 ASP623  PHE694  ASN695  SER759  ASP760  ASP761  ALA762  ILE779  LEU786  VAL792 
 PHE793  MET794  SER795  GLU796  ALA797  LYS798  CYS799  TRP800  GLU811  SER814 

> <Gold.Protein.RotatedAtoms>
  150.6965  134.1648  159.4189 H   0  0  0  0  0  0  0  0  0  0  0  0  # atno 6907 bound_to 6896
  151.9627  135.0113  160.0558 H   0  0  0  0  0  0  0  0  0  0  0  0  # atno 6908 bound_to 6896
  152.1912  133.4739  159.5046 H   0  0  0  0  0  0  0  0  0  0  0  0  # atno 6909 bound_to 6896
  145.5560  139.2299  143.2486 H   0  0  0  0  0  0  0  0  0  0  0  0  # atno 7974 bound_to 7965
  155.7226  140.0792  157.2324 H   0  0  0  0  0  0  0  0  0  0  0  0  # atno 8008 bound_to 7997
  154.4043  140.1610  156.2473 H   0  0  0  0  0  0  0  0  0  0  0  0  # atno 8009 bound_to 7997
  155.9183  140.3399  155.6155 H   0  0  0  0  0  0  0  0  0  0  0  0  # atno 8010 bound_to 7997
  140.6898  143.2931  151.3492 H   0  0  0  0  0  0  0  0  0  0  0  0  # atno 10167 bound_to 10162
  157.0531  130.6278  149.5771 H   0  0  0  0  0  0  0  0  0  0  0  0  # atno 10718 bound_to 10713
  154.1870  135.6434  153.5049 H   0  0  0  0  0  0  0  0  0  0  0  0  # atno 10763 bound_to 10752
  153.0044  135.5419  154.6455 H   0  0  0  0  0  0  0  0  0  0  0  0  # atno 10764 bound_to 10752
  154.5834  135.2927  155.0682 H   0  0  0  0  0  0  0  0  0  0  0  0  # atno 10765 bound_to 10752
  140.1516  134.8671  157.2462 H   0  0  0  0  0  0  0  0  0  0  0  0  # atno 11005 bound_to 11000
  146.1884  140.6384  142.9157 LP  0  0  0  0  0  0  0  0  0  0  0  0  # atno 17320 bound_to 7965
  144.7506  140.5181  143.6804 LP  0  0  0  0  0  0  0  0  0  0  0  0  # atno 17321 bound_to 7965
  139.6289  144.0759  152.2459 LP  0  0  0  0  0  0  0  0  0  0  0  0  # atno 17342 bound_to 10162
  140.0228  144.6140  150.7552 LP  0  0  0  0  0  0  0  0  0  0  0  0  # atno 17343 bound_to 10162
  156.0001  130.5079  150.7632 LP  0  0  0  0  0  0  0  0  0  0  0  0  # atno 17370 bound_to 10713
  157.5014  131.0919  151.0309 LP  0  0  0  0  0  0  0  0  0  0  0  0  # atno 17371 bound_to 10713
  140.2597  134.3585  155.7411 LP  0  0  0  0  0  0  0  0  0  0  0  0  # atno 17394 bound_to 11000
  141.2199  133.7363  156.9062 LP  0  0  0  0  0  0  0  0  0  0  0  0  # atno 17395 bound_to 11000

$$$$
