AV-unprocessed.smi:1203|AV-procd|sdf|5033|dock8
  -GOLD-   22720 4 53D 1   1.00000     0.00000
 Structure written by MMmdl.
 39 40  0  0  0  0  0  0  0  0  1 V2000
  146.4267  135.7147  159.7809 C   0  0  0  0  0  0  0  0  0  0  0  0
  148.1534  136.3464  159.7872 S   0  0  0  0  0  0  0  0  0  0  0  0
  148.5072  136.7038  161.1692 O   0  0  0  0  0  0  0  0  0  0  0  0
  149.0094  135.4231  159.0268 O   0  0  0  0  0  0  0  0  0  0  0  0
  148.0266  137.8173  158.8835 N   0  0  0  0  0  0  0  0  0  0  0  0
  146.6857  138.3293  158.5599 C   0  0  0  0  0  0  0  0  0  0  0  0
  146.8359  139.1003  157.2498 C   0  0  0  0  0  0  0  0  0  0  0  0
  148.0006  138.3950  156.5693 C   0  0  0  0  0  0  0  0  0  0  0  0
  148.9289  138.0153  157.7363 C   0  0  1  0  0  0  0  0  0  0  0  0
  150.0283  139.0507  158.0247 C   0  0  0  0  0  0  0  0  0  0  0  0
  150.8214  138.8983  158.9547 O   0  0  0  0  0  0  0  0  0  0  0  0
  150.0659  140.1085  157.2026 N   0  0  0  0  0  0  0  0  0  0  0  0
  151.0273  141.1999  157.2957 C   0  0  0  0  0  0  0  0  0  0  0  0
  150.3242  142.5566  157.4693 C   0  0  0  0  0  0  0  0  0  0  0  0
  150.9093  143.3995  158.5894 C   0  0  0  0  0  0  0  0  0  0  0  0
  151.8392  142.8495  159.4954 C   0  0  0  0  0  0  0  0  0  0  0  0
  152.3465  143.6642  160.5257 C   0  0  0  0  0  0  0  0  0  0  0  0
  151.9024  144.9993  160.6049 C   0  0  0  0  0  0  0  0  0  0  0  0
  151.0159  145.5383  159.7405 N   0  0  0  0  0  0  0  0  0  0  0  0
  150.5346  144.7503  158.7553 C   0  0  0  0  0  0  0  0  0  0  0  0
  146.3777  134.7925  160.3594 H   0  0  0  0  0  0  0  0  0  0  0  0
  146.1118  135.5147  158.7572 H   0  0  0  0  0  0  0  0  0  0  0  0
  145.7659  136.4578  160.2267 H   0  0  0  0  0  0  0  0  0  0  0  0
  145.9985  137.4936  158.4231 H   0  0  0  0  0  0  0  0  0  0  0  0
  146.3040  138.9537  159.3681 H   0  0  0  0  0  0  0  0  0  0  0  0
  145.9265  139.0929  156.6485 H   0  0  0  0  0  0  0  0  0  0  0  0
  147.0962  140.1393  157.4553 H   0  0  0  0  0  0  0  0  0  0  0  0
  147.6452  137.4885  156.0772 H   0  0  0  0  0  0  0  0  0  0  0  0
  148.4723  139.0109  155.8026 H   0  0  0  0  0  0  0  0  0  0  0  0
  149.4220  137.0731  157.4914 H   0  0  0  0  0  0  0  0  0  0  0  0
  149.3816  140.1604  156.4612 H   0  0  0  0  0  0  0  0  0  0  0  0
  151.6854  141.0114  158.1451 H   0  0  0  0  0  0  0  0  0  0  0  0
  151.6563  141.2226  156.4044 H   0  0  0  0  0  0  0  0  0  0  0  0
  150.3808  143.1219  156.5385 H   0  0  0  0  0  0  0  0  0  0  0  0
  149.2627  142.3945  157.6617 H   0  0  0  0  0  0  0  0  0  0  0  0
  152.1553  141.8204  159.4057 H   0  0  0  0  0  0  0  0  0  0  0  0
  153.0581  143.2756  161.2390 H   0  0  0  0  0  0  0  0  0  0  0  0
  152.2699  145.6519  161.3829 H   0  0  0  0  0  0  0  0  0  0  0  0
  149.8252  145.2112  158.0836 H   0  0  0  0  0  0  0  0  0  0  0  0
  1  2  1  0  0  0  0
  1 21  1  0  0  0  0
  1 22  1  0  0  0  0
  1 23  1  0  0  0  0
  2  3  2  0  0  0  0
  2  4  2  0  0  0  0
  2  5  1  0  0  0  0
  5  9  1  0  0  0  0
  5  6  1  0  0  0  0
  6  7  1  0  0  0  0
  6 24  1  0  0  0  0
  6 25  1  0  0  0  0
  7  8  1  0  0  0  0
  7 26  1  0  0  0  0
  7 27  1  0  0  0  0
  8  9  1  0  0  0  0
  8 28  1  0  0  0  0
  8 29  1  0  0  0  0
  9 10  1  0  0  0  0
  9 30  1  0  0  0  0
 10 11  2  0  0  0  0
 10 12  1  0  0  0  0
 12 13  1  0  0  0  0
 12 31  1  0  0  0  0
 13 14  1  0  0  0  0
 13 32  1  0  0  0  0
 13 33  1  0  0  0  0
 14 15  1  0  0  0  0
 14 34  1  0  0  0  0
 14 35  1  0  0  0  0
 15 20  1  0  0  0  0
 15 16  2  0  0  0  0
 16 17  1  0  0  0  0
 16 36  1  0  0  0  0
 17 18  2  0  0  0  0
 17 37  1  0  0  0  0
 18 19  1  0  0  0  0
 18 38  1  0  0  0  0
 19 20  2  0  0  0  0
 20 39  1  0  0  0  0
M  END
> <s_m_source_file>
AV-unprocessed.smi

> <i_m_source_file_index>
1203

> <i_lp_mmshare_version>
43012

> <i_f3d_flags>
0

> <s_epik_input>
W0NIM11TKD1PKSg9TylOMVtDSDJdW0NIMl1bQ0gyXVtDQEhdMUMoPU8pW05IXVtDSDJdW0NIMl1jMltjSF1bY0hdW2NIXW5bY0hdMg==

> <s_epik_cmdline>
J2VwaWtfcHl0aG9uJywgJy1waCcsICc3LjAnLCAnLXRuJywgJzgnLCAnLW1hJywgJzIwMCcsICctbWV0YWxfYmluZGluZycsICctaW1hZScsICc8aW5maWxlLm1hZT4nLCAnLW9tYWUnLCAnPG91dGZpbGUubWFlPic=

> <r_epik_Ionization_Penalty>
0.0126915

> <r_epik_Ionization_Penalty_Charging>
0

> <r_epik_Ionization_Penalty_Neutral>
0.0126915

> <r_epik_State_Penalty>
0.0098379

> <r_epik_Charging_Adjusted_Penalty>
0.0098379

> <i_epik_Tot_Q>
0

> <i_epik_Tot_abs_Q>
0

> <r_epik_Metal_State_Penalty>
0.00962905

> <b_epik_Metal_Only>
0

> <s_lp_Force_Field>
OPLS_2005

> <r_lp_Energy>
6.50252

> <b_lp_Chiralities_Consistent>
1

> <s_lp_Variant>
AV-unprocessed.smi:1203-1

> <Gold.Version>
5.8.1

> <Gold.Id.Protein>
6NUR|6NUR_protein|mol2

> <Gold.PLP.Fitness>
41.4833

> <Gold.PLP.PLP>
-31.3096

> <Gold.PLP.part.hbond>
-5.1349

> <Gold.PLP.part.metal>
0.0000

> <Gold.PLP.part.buried>
-4.8253

> <Gold.PLP.part.nonpolar>
-21.3600

> <Gold.PLP.part.repulsive>
0.1604

> <Gold.PLP.ligand.clash>
0.0000

> <Gold.PLP.ligand.torsion>
0.7059

> <Gold.PLP.Chemscore.Hbond>
2.6880

> <Gold.PLP.Chemscore.CHOScore>
1.0000

> <Gold.PLP.Chemscore.Metal>
0.0000

> <Gold.Chemscore.Hbonds>
donor molecule, donor type, donor heavy atom, donor atom, acceptor molecule, acceptor atom, score
      P1  H  6896  6907       L1     4  1.00
      P1  H  6931  6943       L1     3  1.00
      L1  C    20    39       P1  8028  0.02
      L1  C    20    39       P1  8029  0.92

> <Gold.PLP.Chemscore.Internal.Correction>
0.5215

> <Gold.Rescore>
     Score         DG    S(hbond)    S(metal)    S(lipo)     H(rot)  DE(clash)    DE(int)     intcor
     15.60     -16.33       1.98        0.00      77.75       1.90       0.00       0.73       ----

> <Gold.Chemscore.Fitness>
15.5988

> <Gold.Chemscore.DG>
-16.3337

> <Gold.Chemscore.ZeroCoef>
-5.4800

> <Gold.Chemscore.Hbond>
1.9816

> <Gold.Chemscore.Metal>
0.0000

> <Gold.Chemscore.Lipo>
77.7476

> <Gold.Chemscore.Internal_Hbond>
0.0000

> <Gold.Chemscore.DEClash>
0.0000

> <Gold.Chemscore.DEInternal>
0.7349

> <Gold.Chemscore.Rot>
1.8990

> <Gold.Chemscore.Internal.Correction>
   9.000000E+99

> <Gold.Chemscore.Hbonds>
donor molecule, donor type, donor heavy atom, donor atom, acceptor molecule, acceptor atom, score
      P1  H  6896  6907       L1     4  0.99
      P1  H  6931  6943       L1     3  1.00

> <Gold.Chemscore.Hbond.Weighted>
-6.6186

> <Gold.Chemscore.Metal.Weighted>
-0.0000

> <Gold.Chemscore.Lipo.Weighted>
-9.0965

> <Gold.Chemscore.Internal_Hbond.Weighted>
0.0000

> <Gold.Chemscore.DEClash.Weighted>
0.0000

> <Gold.Chemscore.DEInternal.Weighted>
0.7349

> <Gold.Chemscore.Rot.Weighted>
4.8613

> <Gold.Chemscore.Internal.Correction.Weighted>
   9.000000E+99

> <Gold.Protein.RotatedTorsions>
[ 6907 6896 6895 6894 ] final  -67.74 input  -60.11 | X-H torsion
[ 7974 7965 7964 7962 ] final  141.56 input  175.53 | X-H torsion
[ 8008 7997 7996 7995 ] final   -1.55 input   59.86 | X-H torsion
[ 10167 10162 10161 10158 ] final   13.31 input  -65.29 | X-H torsion
[ 10718 10713 10712 10709 ] final  -69.86 input   66.30 | X-H torsion
[ 10763 10752 10751 10750 ] final  113.20 input  -60.55 | X-H torsion
[ 11005 11000 10999 10996 ] final  -52.16 input  -57.11 | X-H torsion

> <Gold.Protein.ActiveResidues>
 VAL166  LYS551  ARG553  GLY616  TRP617  ASP618  TYR619  PRO620  LYS621  CYS622 
 ASP623  PHE694  ASN695  SER759  ASP760  ASP761  ALA762  ILE779  LEU786  VAL792 
 PHE793  MET794  SER795  GLU796  ALA797  LYS798  CYS799  TRP800  GLU811  SER814 

> <Gold.Protein.RotatedAtoms>
  150.7393  134.5839  159.5952 H   0  0  0  0  0  0  0  0  0  0  0  0  # atno 6907 bound_to 6896
  152.3245  134.7335  160.0314 H   0  0  0  0  0  0  0  0  0  0  0  0  # atno 6908 bound_to 6896
  151.7840  133.3317  159.3516 H   0  0  0  0  0  0  0  0  0  0  0  0  # atno 6909 bound_to 6896
  144.9085  139.5325  143.5720 H   0  0  0  0  0  0  0  0  0  0  0  0  # atno 7974 bound_to 7965
  154.6456  140.2556  155.7272 H   0  0  0  0  0  0  0  0  0  0  0  0  # atno 8008 bound_to 7997
  156.2550  140.2878  156.0788 H   0  0  0  0  0  0  0  0  0  0  0  0  # atno 8009 bound_to 7997
  155.1530  140.0382  157.2815 H   0  0  0  0  0  0  0  0  0  0  0  0  # atno 8010 bound_to 7997
  140.6011  143.8602  150.6966 H   0  0  0  0  0  0  0  0  0  0  0  0  # atno 10167 bound_to 10162
  156.0435  130.4320  150.2210 H   0  0  0  0  0  0  0  0  0  0  0  0  # atno 10718 bound_to 10713
  153.4890  135.3663  155.2482 H   0  0  0  0  0  0  0  0  0  0  0  0  # atno 10763 bound_to 10752
  154.8753  135.3972  154.3611 H   0  0  0  0  0  0  0  0  0  0  0  0  # atno 10764 bound_to 10752
  153.4228  135.7080  153.6348 H   0  0  0  0  0  0  0  0  0  0  0  0  # atno 10765 bound_to 10752
  141.0909  133.6633  156.3983 H   0  0  0  0  0  0  0  0  0  0  0  0  # atno 11005 bound_to 11000
  146.3146  139.7873  142.8993 LP  0  0  0  0  0  0  0  0  0  0  0  0  # atno 17320 bound_to 7965
  145.3494  141.0304  143.3347 LP  0  0  0  0  0  0  0  0  0  0  0  0  # atno 17321 bound_to 7965
  140.2149  143.3854  152.1689 LP  0  0  0  0  0  0  0  0  0  0  0  0  # atno 17342 bound_to 10162
  139.5292  144.7139  151.5118 LP  0  0  0  0  0  0  0  0  0  0  0  0  # atno 17343 bound_to 10162
  157.0303  131.0005  151.3314 LP  0  0  0  0  0  0  0  0  0  0  0  0  # atno 17370 bound_to 10713
  157.5282  130.8041  149.7886 LP  0  0  0  0  0  0  0  0  0  0  0  0  # atno 17371 bound_to 10713
  140.5253  134.6265  157.5332 LP  0  0  0  0  0  0  0  0  0  0  0  0  # atno 17394 bound_to 11000
  139.9735  134.7253  155.9994 LP  0  0  0  0  0  0  0  0  0  0  0  0  # atno 17395 bound_to 11000

$$$$
