AV-unprocessed.smi:2126|AV-procd|sdf|8676|dock7
  -GOLD-   2272011433D 1   1.00000     0.00000
 Structure written by MMmdl.
 40 42  0  0  0  0  0  0  0  0  1 V2000
  142.3009  146.4042  154.5458 C   0  0  0  0  0  0  0  0  0  0  0  0
  143.2964  145.9522  153.6394 O   0  0  0  0  0  0  0  0  0  0  0  0
  144.0702  144.8738  154.0114 C   0  0  0  0  0  0  0  0  0  0  0  0
  143.8936  144.1416  155.2111 C   0  0  0  0  0  0  0  0  0  0  0  0
  144.7335  143.0515  155.5106 C   0  0  0  0  0  0  0  0  0  0  0  0
  145.7620  142.6648  154.6290 C   0  0  0  0  0  0  0  0  0  0  0  0
  146.5358  141.5870  155.0023 O   0  0  0  0  0  0  0  0  0  0  0  0
  147.8853  141.5406  154.5572 C   0  0  0  0  0  0  0  0  0  0  0  0
  148.7804  141.1131  155.7293 C   0  0  1  0  0  0  0  0  0  0  0  0
  148.9505  139.7101  155.6789 O   0  0  0  0  0  0  0  0  0  0  0  0
  150.1564  141.8067  155.7015 C   0  0  0  0  0  0  0  0  0  0  0  0
  150.8918  141.6297  156.9405 N   0  0  0  0  0  0  0  0  0  0  0  0
  151.2604  140.4660  157.5103 C   0  0  0  0  0  0  0  0  0  0  0  0
  151.9316  140.5350  158.6566 N   0  0  0  0  0  0  0  0  0  0  0  0
  152.0140  141.9033  158.8503 C   0  0  0  0  0  0  0  0  0  0  0  0
  152.6103  142.6488  159.8926 C   0  0  0  0  0  0  0  0  0  0  0  0
  152.5699  144.0586  159.8761 C   0  0  0  0  0  0  0  0  0  0  0  0
  151.9336  144.7438  158.8205 C   0  0  0  0  0  0  0  0  0  0  0  0
  151.3314  144.0229  157.7715 C   0  0  0  0  0  0  0  0  0  0  0  0
  151.3743  142.6168  157.7920 C   0  0  0  0  0  0  0  0  0  0  0  0
  145.9376  143.3961  153.4287 C   0  0  0  0  0  0  0  0  0  0  0  0
  145.0988  144.4869  153.1300 C   0  0  0  0  0  0  0  0  0  0  0  0
  141.7755  147.2530  154.1084 H   0  0  0  0  0  0  0  0  0  0  0  0
  142.7405  146.7376  155.4869 H   0  0  0  0  0  0  0  0  0  0  0  0
  141.5619  145.6274  154.7475 H   0  0  0  0  0  0  0  0  0  0  0  0
  143.1203  144.3957  155.9197 H   0  0  0  0  0  0  0  0  0  0  0  0
  144.5850  142.5044  156.4301 H   0  0  0  0  0  0  0  0  0  0  0  0
  147.9716  140.8158  153.7456 H   0  0  0  0  0  0  0  0  0  0  0  0
  148.2047  142.5129  154.1781 H   0  0  0  0  0  0  0  0  0  0  0  0
  148.2708  141.3454  156.6652 H   0  0  0  0  0  0  0  0  0  0  0  0
  149.8234  139.5259  155.3668 H   0  0  0  0  0  0  0  0  0  0  0  0
  150.7606  141.4236  154.8776 H   0  0  0  0  0  0  0  0  0  0  0  0
  150.0384  142.8771  155.5295 H   0  0  0  0  0  0  0  0  0  0  0  0
  151.0183  139.5142  157.0599 H   0  0  0  0  0  0  0  0  0  0  0  0
  153.1002  142.1347  160.7062 H   0  0  0  0  0  0  0  0  0  0  0  0
  153.0299  144.6175  160.6778 H   0  0  0  0  0  0  0  0  0  0  0  0
  151.9079  145.8237  158.8167 H   0  0  0  0  0  0  0  0  0  0  0  0
  150.8424  144.5437  156.9614 H   0  0  0  0  0  0  0  0  0  0  0  0
  146.7092  143.1412  152.7185 H   0  0  0  0  0  0  0  0  0  0  0  0
  145.2479  145.0336  152.2104 H   0  0  0  0  0  0  0  0  0  0  0  0
  1  2  1  0  0  0  0
  1 23  1  0  0  0  0
  1 24  1  0  0  0  0
  1 25  1  0  0  0  0
  2  3  1  0  0  0  0
  3 22  1  0  0  0  0
  3  4  2  0  0  0  0
  4  5  1  0  0  0  0
  4 26  1  0  0  0  0
  5  6  2  0  0  0  0
  5 27  1  0  0  0  0
  6  7  1  0  0  0  0
  6 21  1  0  0  0  0
  7  8  1  0  0  0  0
  8  9  1  0  0  0  0
  8 28  1  0  0  0  0
  8 29  1  0  0  0  0
  9 10  1  0  0  0  0
  9 11  1  0  0  0  0
  9 30  1  0  0  0  0
 10 31  1  0  0  0  0
 11 12  1  0  0  0  0
 11 32  1  0  0  0  0
 11 33  1  0  0  0  0
 12 20  1  0  0  0  0
 12 13  1  0  0  0  0
 13 14  2  0  0  0  0
 13 34  1  0  0  0  0
 14 15  1  0  0  0  0
 15 20  2  0  0  0  0
 15 16  1  0  0  0  0
 16 17  2  0  0  0  0
 16 35  1  0  0  0  0
 17 18  1  0  0  0  0
 17 36  1  0  0  0  0
 18 19  2  0  0  0  0
 18 37  1  0  0  0  0
 19 20  1  0  0  0  0
 19 38  1  0  0  0  0
 21 22  2  0  0  0  0
 21 39  1  0  0  0  0
 22 40  1  0  0  0  0
M  END
> <s_m_source_file>
AV-unprocessed.smi

> <i_m_source_file_index>
2126

> <i_lp_mmshare_version>
43012

> <i_f3d_flags>
0

> <s_epik_input>
W0NIM11PYzFbY0hdW2NIXWMoW2NIXVtjSF0xKU9bQ0gyXVtDQEhdKFtPSF0pW0NIMl1uKFtjSF1uMiljKGMyMylbY0hdW2NIXVtjSF1bY0hdMw==

> <s_epik_cmdline>
J2VwaWtfcHl0aG9uJywgJy1waCcsICc3LjAnLCAnLXRuJywgJzgnLCAnLW1hJywgJzIwMCcsICctbWV0YWxfYmluZGluZycsICctaW1hZScsICc8aW5maWxlLm1hZT4nLCAnLW9tYWUnLCAnPG91dGZpbGUubWFlPic=

> <r_lp_tautomer_probability>
1

> <r_epik_Ionization_Penalty>
0.0608933

> <r_epik_Ionization_Penalty_Charging>
0

> <r_epik_Ionization_Penalty_Neutral>
0.0608933

> <r_epik_State_Penalty>
0.0528196

> <r_epik_Charging_Adjusted_Penalty>
0.0528196

> <i_epik_Tot_Q>
0

> <i_epik_Tot_abs_Q>
0

> <r_epik_Metal_State_Penalty>
5.52429e-05

> <b_epik_Metal_Only>
0

> <s_lp_Force_Field>
OPLS_2005

> <r_lp_Energy>
17.4847

> <b_lp_Chiralities_Consistent>
1

> <s_lp_Variant>
AV-unprocessed.smi:2126-2

> <Gold.Version>
5.8.1

> <Gold.Id.Protein>
6NUR|6NUR_protein|mol2

> <Gold.PLP.Fitness>
49.0504

> <Gold.PLP.PLP>
-51.3791

> <Gold.PLP.part.hbond>
-2.0000

> <Gold.PLP.part.metal>
0.0000

> <Gold.PLP.part.buried>
-6.4369

> <Gold.PLP.part.nonpolar>
-42.1321

> <Gold.PLP.part.repulsive>
0.1964

> <Gold.PLP.ligand.clash>
0.0000

> <Gold.PLP.ligand.torsion>
1.2303

> <Gold.PLP.Chemscore.Hbond>
0.0000

> <Gold.PLP.Chemscore.CHOScore>
0.0000

> <Gold.PLP.Chemscore.Metal>
0.0000

> <Gold.PLP.Chemscore.Internal.Correction>
0.1320

> <Gold.Rescore>
     Score         DG    S(hbond)    S(metal)    S(lipo)     H(rot)  DE(clash)    DE(int)     intcor
     13.04     -14.31       0.00        0.00     130.38       2.51       0.05       1.22       ----

> <Gold.Chemscore.Fitness>
13.0416

> <Gold.Chemscore.DG>
-14.3132

> <Gold.Chemscore.ZeroCoef>
-5.4800

> <Gold.Chemscore.Hbond>
0.0000

> <Gold.Chemscore.Metal>
0.0000

> <Gold.Chemscore.Lipo>
130.3791

> <Gold.Chemscore.Internal_Hbond>
0.0000

> <Gold.Chemscore.DEClash>
0.0500

> <Gold.Chemscore.DEInternal>
1.2216

> <Gold.Chemscore.Rot>
2.5083

> <Gold.Chemscore.Internal.Correction>
   9.000000E+99

> <Gold.Chemscore.Hbond.Weighted>
-0.0000

> <Gold.Chemscore.Metal.Weighted>
-0.0000

> <Gold.Chemscore.Lipo.Weighted>
-15.2544

> <Gold.Chemscore.Internal_Hbond.Weighted>
0.0000

> <Gold.Chemscore.DEClash.Weighted>
0.0500

> <Gold.Chemscore.DEInternal.Weighted>
1.2216

> <Gold.Chemscore.Rot.Weighted>
6.4212

> <Gold.Chemscore.Internal.Correction.Weighted>
   9.000000E+99

> <Gold.Protein.RotatedTorsions>
[ 6907 6896 6895 6894 ] final  -45.46 input  -60.11 | X-H torsion
[ 7974 7965 7964 7962 ] final   15.26 input  175.53 | X-H torsion
[ 8008 7997 7996 7995 ] final  -16.14 input   59.86 | X-H torsion
[ 10167 10162 10161 10158 ] final   60.47 input  -65.29 | X-H torsion
[ 10718 10713 10712 10709 ] final  106.22 input   66.30 | X-H torsion
[ 10763 10752 10751 10750 ] final   57.71 input  -60.55 | X-H torsion
[ 11005 11000 10999 10996 ] final  108.58 input  -57.11 | X-H torsion

> <Gold.Protein.ActiveResidues>
 VAL166  LYS551  ARG553  GLY616  TRP617  ASP618  TYR619  PRO620  LYS621  CYS622 
 ASP623  PHE694  ASN695  SER759  ASP760  ASP761  ALA762  ILE779  LEU786  VAL792 
 PHE793  MET794  SER795  GLU796  ALA797  LYS798  CYS799  TRP800  GLU811  SER814 

> <Gold.Protein.RotatedAtoms>
  150.9216  134.8634  159.7492 H   0  0  0  0  0  0  0  0  0  0  0  0  # atno 6907 bound_to 6896
  152.4995  134.4209  159.9490 H   0  0  0  0  0  0  0  0  0  0  0  0  # atno 6908 bound_to 6896
  151.4243  133.3649  159.2795 H   0  0  0  0  0  0  0  0  0  0  0  0  # atno 6909 bound_to 6896
  146.2283  139.8920  142.8553 H   0  0  0  0  0  0  0  0  0  0  0  0  # atno 7974 bound_to 7965
  154.5076  140.2177  155.9220 H   0  0  0  0  0  0  0  0  0  0  0  0  # atno 8008 bound_to 7997
  156.1513  140.3161  155.8619 H   0  0  0  0  0  0  0  0  0  0  0  0  # atno 8009 bound_to 7997
  155.3933  140.0479  157.3030 H   0  0  0  0  0  0  0  0  0  0  0  0  # atno 8010 bound_to 7997
  140.1652  144.4331  150.6689 H   0  0  0  0  0  0  0  0  0  0  0  0  # atno 10167 bound_to 10162
  157.6676  131.0846  150.5975 H   0  0  0  0  0  0  0  0  0  0  0  0  # atno 10718 bound_to 10713
  152.9855  135.5632  154.5434 H   0  0  0  0  0  0  0  0  0  0  0  0  # atno 10763 bound_to 10752
  154.4885  135.2791  155.1518 H   0  0  0  0  0  0  0  0  0  0  0  0  # atno 10764 bound_to 10752
  154.2997  135.6310  153.5472 H   0  0  0  0  0  0  0  0  0  0  0  0  # atno 10765 bound_to 10752
  139.8846  134.9434  156.5994 H   0  0  0  0  0  0  0  0  0  0  0  0  # atno 11005 bound_to 11000
  145.2408  141.0008  143.3937 LP  0  0  0  0  0  0  0  0  0  0  0  0  # atno 17320 bound_to 7965
  144.9453  139.4142  143.6429 LP  0  0  0  0  0  0  0  0  0  0  0  0  # atno 17321 bound_to 7965
  140.6617  143.2254  151.5839 LP  0  0  0  0  0  0  0  0  0  0  0  0  # atno 17342 bound_to 10162
  139.5363  144.2773  152.1257 LP  0  0  0  0  0  0  0  0  0  0  0  0  # atno 17343 bound_to 10162
  156.6275  130.4423  149.5799 LP  0  0  0  0  0  0  0  0  0  0  0  0  # atno 17370 bound_to 10713
  156.2307  130.6793  151.1461 LP  0  0  0  0  0  0  0  0  0  0  0  0  # atno 17371 bound_to 10713
  140.7895  133.8594  155.8634 LP  0  0  0  0  0  0  0  0  0  0  0  0  # atno 17394 bound_to 11000
  140.9690  134.1556  157.4592 LP  0  0  0  0  0  0  0  0  0  0  0  0  # atno 17395 bound_to 11000

$$$$
