AV-unprocessed.smi:84|AV-procd|sdf|809|dock3
  -GOLD-   2262017203D 1   1.00000     0.00000
 Structure written by MMmdl.
 51 55  0  0  0  0  0  0  0  0  1 V2000
  156.0532  131.7646  153.4790 O   0  0  0  0  0  0  0  0  0  0  0  0
  155.4421  131.1014  154.3136 C   0  0  0  0  0  0  0  0  0  0  0  0
  154.1475  130.3604  154.0204 C   0  0  0  0  0  0  0  0  0  0  0  0
  153.6042  130.0542  155.4328 C   0  0  2  0  0  0  0  0  0  0  0  0
  152.7869  128.7578  155.5082 C   0  0  0  0  0  0  0  0  0  0  0  0
  151.3871  129.1987  155.0843 C   0  0  0  0  0  0  0  0  0  0  0  0
  151.2661  130.5649  155.5716 N   0  0  0  0  0  0  0  0  0  0  0  0
  150.2101  131.3548  155.2468 C   0  0  0  0  0  0  0  0  0  0  0  0
  150.1232  132.5900  155.8083 N   0  0  0  0  0  0  0  0  0  0  0  0
  149.1016  133.3992  155.5154 C   0  0  0  0  0  0  0  0  0  0  0  0
  148.0725  133.1797  154.6962 N   0  0  0  0  0  0  0  0  0  0  0  0
  148.1546  131.9466  154.1202 C   0  0  0  0  0  0  0  0  0  0  0  0
  149.1823  130.9821  154.3303 C   0  0  0  0  0  0  0  0  0  0  0  0
  148.9359  129.8617  153.5435 N   0  0  0  0  0  0  0  0  0  0  0  0
  147.8294  130.1449  152.9130 C   0  0  0  0  0  0  0  0  0  0  0  0
  147.2772  131.3671  153.2206 N   0  0  0  0  0  0  0  0  0  0  0  0
  146.0954  131.9482  152.6547 C   0  0  0  0  0  0  0  0  0  0  0  0
  146.1315  132.6139  151.2761 C   0  0  0  0  0  0  0  0  0  0  0  0
  145.0430  133.6089  151.7424 C   0  0  0  0  0  0  0  0  0  0  0  0
  145.1858  135.0770  151.2941 C   0  0  0  0  0  0  0  0  0  0  0  0
  146.0169  135.8300  152.1547 O   0  0  0  0  0  0  0  0  0  0  0  0
  143.5913  133.1839  151.4509 C   0  0  0  0  0  0  0  0  0  0  0  0
  143.3170  133.1918  150.0646 O   0  0  0  0  0  0  0  0  0  0  0  0
  145.5253  133.2734  153.1727 C   0  0  0  0  0  0  0  0  0  0  0  0
  152.5786  131.1230  155.8684 C   0  0  0  0  0  0  0  0  0  0  0  0
  154.8738  130.0709  156.3098 C   0  0  0  0  0  0  0  0  0  0  0  0
  155.7992  130.9203  155.5842 N   0  0  0  0  0  0  0  0  0  0  0  0
  153.4636  130.9558  153.4142 H   0  0  0  0  0  0  0  0  0  0  0  0
  154.3866  129.4490  153.4711 H   0  0  0  0  0  0  0  0  0  0  0  0
  153.1838  127.9530  154.8889 H   0  0  0  0  0  0  0  0  0  0  0  0
  152.7567  128.3990  156.5381 H   0  0  0  0  0  0  0  0  0  0  0  0
  151.2963  129.1845  153.9970 H   0  0  0  0  0  0  0  0  0  0  0  0
  150.6161  128.5520  155.5046 H   0  0  0  0  0  0  0  0  0  0  0  0
  149.1099  134.3598  156.0090 H   0  0  0  0  0  0  0  0  0  0  0  0
  147.3835  129.4618  152.2049 H   0  0  0  0  0  0  0  0  0  0  0  0
  145.3360  131.1652  152.6818 H   0  0  0  0  0  0  0  0  0  0  0  0
  147.0950  133.0831  151.0707 H   0  0  0  0  0  0  0  0  0  0  0  0
  145.8399  131.9579  150.4557 H   0  0  0  0  0  0  0  0  0  0  0  0
  145.6089  135.1424  150.2914 H   0  0  0  0  0  0  0  0  0  0  0  0
  144.2123  135.5668  151.2571 H   0  0  0  0  0  0  0  0  0  0  0  0
  146.9079  135.7630  151.8464 H   0  0  0  0  0  0  0  0  0  0  0  0
  143.3876  132.1801  151.8243 H   0  0  0  0  0  0  0  0  0  0  0  0
  142.8815  133.8436  151.9514 H   0  0  0  0  0  0  0  0  0  0  0  0
  142.4048  133.4058  149.9408 H   0  0  0  0  0  0  0  0  0  0  0  0
  144.7300  133.1624  153.9104 H   0  0  0  0  0  0  0  0  0  0  0  0
  146.3030  133.9437  153.5418 H   0  0  0  0  0  0  0  0  0  0  0  0
  152.6287  131.3065  156.9420 H   0  0  0  0  0  0  0  0  0  0  0  0
  152.7500  132.0722  155.3594 H   0  0  0  0  0  0  0  0  0  0  0  0
  154.6947  130.4436  157.3187 H   0  0  0  0  0  0  0  0  0  0  0  0
  155.3094  129.0741  156.3918 H   0  0  0  0  0  0  0  0  0  0  0  0
  156.6262  131.3172  156.0066 H   0  0  0  0  0  0  0  0  0  0  0  0
  1  2  2  0  0  0  0
  2 27  1  0  0  0  0
  2  3  1  0  0  0  0
  3  4  1  0  0  0  0
  3 28  1  0  0  0  0
  3 29  1  0  0  0  0
  4 25  1  0  0  0  0
  4  5  1  0  0  0  0
  4 26  1  0  0  0  0
  5  6  1  0  0  0  0
  5 30  1  0  0  0  0
  5 31  1  0  0  0  0
  6  7  1  0  0  0  0
  6 32  1  0  0  0  0
  6 33  1  0  0  0  0
  7  8  1  0  0  0  0
  7 25  1  0  0  0  0
  8 13  1  0  0  0  0
  8  9  2  0  0  0  0
  9 10  1  0  0  0  0
 10 11  2  0  0  0  0
 10 34  1  0  0  0  0
 11 12  1  0  0  0  0
 12 16  1  0  0  0  0
 12 13  2  0  0  0  0
 13 14  1  0  0  0  0
 14 15  2  0  0  0  0
 15 16  1  0  0  0  0
 15 35  1  0  0  0  0
 16 17  1  0  0  0  0
 17 24  1  0  0  0  0
 17 18  1  0  0  0  0
 17 36  1  0  0  0  0
 18 19  1  0  0  0  0
 18 37  1  0  0  0  0
 18 38  1  0  0  0  0
 19 20  1  0  0  0  0
 19 22  1  0  0  0  0
 19 24  1  0  0  0  0
 20 21  1  0  0  0  0
 20 39  1  0  0  0  0
 20 40  1  0  0  0  0
 21 41  1  0  0  0  0
 22 23  1  0  0  0  0
 22 42  1  0  0  0  0
 22 43  1  0  0  0  0
 23 44  1  0  0  0  0
 24 45  1  0  0  0  0
 24 46  1  0  0  0  0
 25 47  1  0  0  0  0
 25 48  1  0  0  0  0
 26 27  1  0  0  0  0
 26 49  1  0  0  0  0
 26 50  1  0  0  0  0
 27 51  1  0  0  0  0
M  END
> <s_m_source_file>
AV-unprocessed.smi

> <i_m_source_file_index>
84

> <i_lp_mmshare_version>
43012

> <i_f3d_flags>
0

> <s_epik_input>
W0NIMl0xW05IXUMoPU8pW0NIMl1bQ0BdMTJbQ0gyXVtDSDJdTihbQ0gyXTIpYyhuW2NIXW4zKWMoYzM0KW5bY0hdbjRbQ0hdKFtDSDJdNSlbQ0gyXUM1KFtDSDJdW09IXSlbQ0gyXVtPSF0=

> <s_epik_cmdline>
J2VwaWtfcHl0aG9uJywgJy1waCcsICc3LjAnLCAnLXRuJywgJzgnLCAnLW1hJywgJzIwMCcsICctbWV0YWxfYmluZGluZycsICctaW1hZScsICc8aW5maWxlLm1hZT4nLCAnLW9tYWUnLCAnPG91dGZpbGUubWFlPic=

> <r_lp_tautomer_probability>
1

> <r_epik_Ionization_Penalty>
0.00201507

> <r_epik_Ionization_Penalty_Charging>
0

> <r_epik_Ionization_Penalty_Neutral>
0.00201507

> <r_epik_State_Penalty>
0.00133787

> <r_epik_Charging_Adjusted_Penalty>
0.00133787

> <i_epik_Tot_Q>
0

> <i_epik_Tot_abs_Q>
0

> <r_epik_Metal_State_Penalty>
-0

> <b_epik_Metal_Only>
0

> <s_lp_Force_Field>
OPLS_2005

> <r_lp_Energy>
68.8544

> <b_lp_Chiralities_Consistent>
1

> <s_lp_Variant>
AV-unprocessed.smi:84-2

> <Gold.Version>
5.8.1

> <Gold.Id.Protein>
6NUR|6NUR_protein|mol2

> <Gold.PLP.Fitness>
47.0619

> <Gold.PLP.PLP>
-40.4745

> <Gold.PLP.part.hbond>
-3.0000

> <Gold.PLP.part.metal>
0.0000

> <Gold.PLP.part.buried>
-5.4547

> <Gold.PLP.part.nonpolar>
-32.6451

> <Gold.PLP.part.repulsive>
0.1803

> <Gold.PLP.ligand.clash>
0.0000

> <Gold.PLP.ligand.torsion>
1.3959

> <Gold.PLP.Chemscore.Hbond>
2.9120

> <Gold.PLP.Chemscore.CHOScore>
0.0002

> <Gold.PLP.Chemscore.Metal>
0.0000

> <Gold.Chemscore.Hbonds>
donor molecule, donor type, donor heavy atom, donor atom, acceptor molecule, acceptor atom, score
      L1  H    21    41       P1  7948  0.91
      L1  H    23    44       P1 10186  1.00
      P1  H 10713 10718       L1     1  0.21
      L1  C    15    35       P1 10747  0.02

> <Gold.PLP.Chemscore.Internal.Correction>
0.6425

> <Gold.Rescore>
     Score         DG    S(hbond)    S(metal)    S(lipo)     H(rot)  DE(clash)    DE(int)     intcor
     11.24     -14.96       2.87        0.00      63.79       2.96       0.36       3.36       ----

> <Gold.Chemscore.Fitness>
11.2379

> <Gold.Chemscore.DG>
-14.9557

> <Gold.Chemscore.ZeroCoef>
-5.4800

> <Gold.Chemscore.Hbond>
2.8749

> <Gold.Chemscore.Metal>
0.0000

> <Gold.Chemscore.Lipo>
63.7934

> <Gold.Chemscore.Internal_Hbond>
0.0000

> <Gold.Chemscore.DEClash>
0.3596

> <Gold.Chemscore.DEInternal>
3.3581

> <Gold.Chemscore.Rot>
2.9649

> <Gold.Chemscore.Internal.Correction>
   9.000000E+99

> <Gold.Chemscore.Hbonds>
donor molecule, donor type, donor heavy atom, donor atom, acceptor molecule, acceptor atom, score
      L1  H    21    41       P1  7948  0.86
      L1  H    23    44       P1 10186  0.99
      P1  H 10713 10718       L1     1  0.20

> <Gold.Chemscore.Hbond.Weighted>
-9.6020

> <Gold.Chemscore.Metal.Weighted>
-0.0000

> <Gold.Chemscore.Lipo.Weighted>
-7.4638

> <Gold.Chemscore.Internal_Hbond.Weighted>
0.0000

> <Gold.Chemscore.DEClash.Weighted>
0.3596

> <Gold.Chemscore.DEInternal.Weighted>
3.3581

> <Gold.Chemscore.Rot.Weighted>
7.5902

> <Gold.Chemscore.Internal.Correction.Weighted>
   9.000000E+99

> <Gold.Protein.RotatedTorsions>
[ 6907 6896 6895 6894 ] final  101.14 input  -60.11 | X-H torsion
[ 7974 7965 7964 7962 ] final -150.33 input  175.53 | X-H torsion
[ 8008 7997 7996 7995 ] final  173.16 input   59.86 | X-H torsion
[ 10167 10162 10161 10158 ] final  -40.16 input  -65.29 | X-H torsion
[ 10718 10713 10712 10709 ] final -166.54 input   66.30 | X-H torsion
[ 10763 10752 10751 10750 ] final  -31.24 input  -60.55 | X-H torsion
[ 11005 11000 10999 10996 ] final   21.50 input  -57.11 | X-H torsion

> <Gold.Protein.ActiveResidues>
 VAL166  LYS551  ARG553  GLY616  TRP617  ASP618  TYR619  PRO620  LYS621  CYS622 
 ASP623  PHE694  ASN695  SER759  ASP760  ASP761  ALA762  ILE779  LEU786  VAL792 
 PHE793  MET794  SER795  GLU796  ALA797  LYS798  CYS799  TRP800  GLU811  SER814 

> <Gold.Protein.RotatedAtoms>
  152.5356  134.0171  159.7964 H   0  0  0  0  0  0  0  0  0  0  0  0  # atno 6907 bound_to 6896
  151.0364  133.5737  159.2662 H   0  0  0  0  0  0  0  0  0  0  0  0  # atno 6908 bound_to 6896
  151.2723  135.0695  159.9192 H   0  0  0  0  0  0  0  0  0  0  0  0  # atno 6909 bound_to 6896
  144.7914  140.4946  143.5770 H   0  0  0  0  0  0  0  0  0  0  0  0  # atno 7974 bound_to 7965
  156.1102  140.1467  156.9348 H   0  0  0  0  0  0  0  0  0  0  0  0  # atno 8008 bound_to 7997
  154.4762  140.0894  156.7311 H   0  0  0  0  0  0  0  0  0  0  0  0  # atno 8009 bound_to 7997
  155.4609  140.3438  155.4315 H   0  0  0  0  0  0  0  0  0  0  0  0  # atno 8010 bound_to 7997
  140.7043  143.3170  151.2884 H   0  0  0  0  0  0  0  0  0  0  0  0  # atno 10167 bound_to 10162
  156.6693  130.9077  151.3041 H   0  0  0  0  0  0  0  0  0  0  0  0  # atno 10718 bound_to 10713
  153.7940  135.6895  153.4866 H   0  0  0  0  0  0  0  0  0  0  0  0  # atno 10763 bound_to 10752
  153.1731  135.4535  154.9927 H   0  0  0  0  0  0  0  0  0  0  0  0  # atno 10764 bound_to 10752
  154.8033  135.3346  154.7434 H   0  0  0  0  0  0  0  0  0  0  0  0  # atno 10765 bound_to 10752
  140.3909  134.1820  155.7662 H   0  0  0  0  0  0  0  0  0  0  0  0  # atno 11005 bound_to 11000
  145.5784  139.1487  143.3249 LP  0  0  0  0  0  0  0  0  0  0  0  0  # atno 17320 bound_to 7965
  146.2167  140.5915  142.9035 LP  0  0  0  0  0  0  0  0  0  0  0  0  # atno 17321 bound_to 7965
  139.6612  144.0186  152.2693 LP  0  0  0  0  0  0  0  0  0  0  0  0  # atno 17342 bound_to 10162
  139.9753  144.6465  150.7950 LP  0  0  0  0  0  0  0  0  0  0  0  0  # atno 17343 bound_to 10162
  157.7083  130.9410  150.1002 LP  0  0  0  0  0  0  0  0  0  0  0  0  # atno 17370 bound_to 10713
  156.1951  130.3657  149.8860 LP  0  0  0  0  0  0  0  0  0  0  0  0  # atno 17371 bound_to 10713
  141.1891  133.8245  157.0969 LP  0  0  0  0  0  0  0  0  0  0  0  0  # atno 17394 bound_to 11000
  140.0407  134.9855  157.0957 LP  0  0  0  0  0  0  0  0  0  0  0  0  # atno 17395 bound_to 11000

$$$$
