#       Name:                AV-unprocessed.smi:72
#       Creating user name   scv26
#       Creation time:       Thu Mar 26 17:08:20 2020


#       File generated by GOLD software.
#

@<TRIPOS>MOLECULE
AV-unprocessed.smi:72
    41    42     1
SMALL
NO_CHARGES


@<TRIPOS>ATOM
      1 ****        -5.1289  -0.1476  -0.3985 N.pl3          1 S1                 0.0000
      2 ****        -3.7604  -0.3153  -0.4376 C.2            1 S1                 0.0000
      3 ****        -2.9866   0.8493  -0.3408 N.2            1 S1                 0.0000
      4 ****        -1.7005   0.6973  -0.3793 C.2            1 S1                 0.0000
      5 ****        -1.0999  -0.6194  -0.5142 N.am           1 S1                 0.0000
      6 ****         0.4042  -0.8304  -0.5651 C.3            1 S1                 0.0000
      7 ****         1.0449   0.3604  -0.9233 O.3            1 S1                 0.0000
      8 ****         1.7318   0.9072   0.1986 C.3            1 S1                 0.0000
      9 ****         2.8580   1.8564  -0.2461 C.3            1 S1                 0.0000
     10 ****         2.3333   3.1387  -0.5170 O.3            1 S1                 0.0000
     11 ****         2.1827  -0.3420   0.9661 C.3            1 S1                 0.0000
     12 ****         3.3578  -0.8950   0.4002 O.3            1 S1                 0.0000
     13 ****         1.0065  -1.2926   0.7849 C.3            1 S1                 0.0000
     14 ****         0.1201  -1.1657   1.8837 O.3            1 S1                 0.0000
     15 ****        -1.9472  -1.7578  -0.6043 C.2            1 S1                 0.0000
     16 ****        -1.4589  -2.8832  -0.7082 O.2            1 S1                 0.0000
     17 ****        -3.3288  -1.5376  -0.5601 N.2            1 S1                 0.0000
     18 ****         0.5709  -1.5425  -1.3747 H              1 S1                 0.0000
     19 ****         1.0184   1.4449   0.8258 H              1 S1                 0.0000
     20 ****         2.3878  -0.1227   2.0150 H              1 S1                 0.0000
     21 ****         1.3185  -2.3355   0.7126 H              1 S1                 0.0000
     22 ****        -5.7835  -0.9140  -0.4595 H              1 S1                 0.0000
     23 ****        -5.5773   0.7520  -0.3032 H              1 S1                 0.0000
     24 ****        -1.0055   1.5342  -0.3139 H              1 S1                 0.0000
     25 ****         3.5923   1.9677   0.5523 H              1 S1                 0.0000
     26 ****         3.3822   1.4705  -1.1208 H              1 S1                 0.0000
     27 ****         3.0407   3.7017  -0.7922 H              1 S1                 0.0000
     28 ****         4.0620  -0.2733   0.5023 H              1 S1                 0.0000
     29 ****        -0.6359  -1.7091   1.7215 H              1 S1                 0.0000
     30 ****        -3.4060   1.7522  -0.2467 LP             1 S1                 0.0000
     31 ****         0.3638   1.0177  -1.2459 LP             1 S1                 0.0000
     32 ****         1.7017   0.1750  -1.6543 LP             1 S1                 0.0000
     33 ****         1.9086   3.5103   0.3086 LP             1 S1                 0.0000
     34 ****         1.6499   3.0763  -1.2443 LP             1 S1                 0.0000
     35 ****         3.2094  -1.0797  -0.5713 LP             1 S1                 0.0000
     36 ****         3.5895  -1.7469   0.8699 LP             1 S1                 0.0000
     37 ****        -0.1640  -0.2118   1.9800 LP             1 S1                 0.0000
     38 ****         0.5766  -1.4637   2.7221 LP             1 S1                 0.0000
     39 ****        -0.4656  -2.9973  -0.7292 LP             1 S1                 0.0000
     40 ****        -2.0555  -3.6832  -0.7715 LP             1 S1                 0.0000
     41 ****        -3.9703  -2.3023  -0.6212 LP             1 S1                 0.0000
@<TRIPOS>BOND
    1    1    2 1     
    2    1   22 1     
    3    1   23 1     
    4    2   17 2     
    5    2    3 1     
    6    3    4 2     
    7    4    5 1     
    8    4   24 1     
    9    5    6 1     
   10    5   15 am    
   11    6   18 1     
   12    6   13 1     
   13    6    7 1     
   14    7    8 1     
   15    8   19 1     
   16    8    9 1     
   17    8   11 1     
   18    9   10 1     
   19    9   25 1     
   20    9   26 1     
   21   10   27 1     
   22   11   20 1     
   23   11   12 1     
   24   11   13 1     
   25   12   28 1     
   26   13   21 1     
   27   13   14 1     
   28   14   29 1     
   29   15   16 2     
   30   15   17 1     
   31    3   30 1     
   32    7   31 1     
   33    7   32 1     
   34   10   33 1     
   35   10   34 1     
   36   12   35 1     
   37   12   36 1     
   38   14   37 1     
   39   14   38 1     
   40   16   39 1     
   41   16   40 1     
   42   17   41 1     
@<TRIPOS>SUBSTRUCTURE
      1 S1             1
@<TRIPOS>SET
LONE_PAIRS      STATIC     ATOMS    <user>   **** ""
12 30 31 32 33 34 35 36 37 38 39 40 41
DONOR_HYDROGENS      STATIC     ATOMS    <user>   **** ""
5 22 23 27 28 29
ATOM$BLUE        STATIC     ATOMS    COLORGROUP SYSTEM
12 30 31 32 33 34 35 36 37 38 39 40 41
ATOM$RED        STATIC     ATOMS    COLORGROUP SYSTEM
5 22 23 27 28 29
