AV-unprocessed.smi:3056|AV-procd|sdf|11660|dock5
  -GOLD-   2272017 63D 1   1.00000     0.00000
 Structure written by MMmdl.
 47 48  0  0  0  0  0  0  0  0  1 V2000
  151.7008  145.5581  159.8971 C   0  0  0  0  0  0  0  0  0  0  0  0
  151.7203  144.2162  159.2246 C   0  0  0  0  0  0  0  0  0  0  0  0
  152.3447  143.0215  159.6804 C   0  0  0  0  0  0  0  0  0  0  0  0
  152.1597  142.0005  158.8607 N   0  0  0  0  0  0  0  0  0  0  0  0
  151.4252  142.5059  157.8432 N   0  0  0  0  0  0  0  0  0  0  0  0
  150.9648  141.6516  156.7518 C   0  0  1  0  0  0  0  0  0  0  0  0
  151.5115  140.2114  156.8635 C   0  0  0  0  0  0  0  0  0  0  0  0
  149.4253  141.7453  156.5826 C   0  0  1  0  0  0  0  0  0  0  0  0
  148.8697  140.7240  155.5729 C   0  0  0  0  0  0  0  0  0  0  0  0
  148.7612  141.5775  157.8772 N   0  0  0  0  0  0  0  0  0  0  0  0
  147.3725  142.0700  157.9241 C   0  0  0  0  0  0  0  0  0  0  0  0
  146.9973  142.8380  159.2084 C   0  0  0  0  0  0  0  0  0  0  0  0
  147.8382  142.9550  160.1017 O   0  0  0  0  0  0  0  0  0  0  0  0
  145.7529  143.3597  159.3247 N   0  0  0  0  0  0  0  0  0  0  0  0
  145.3435  144.2184  160.4382 C   0  0  0  0  0  0  0  0  0  0  0  0
  145.0742  145.6257  159.8747 C   0  0  0  0  0  0  0  0  0  0  0  0
  144.0825  145.5566  158.8507 O   0  0  0  0  0  0  0  0  0  0  0  0
  144.4327  144.6885  157.7723 C   0  0  2  0  0  0  0  0  0  0  0  0
  143.2966  144.7167  156.7444 C   0  0  0  0  0  0  0  0  0  0  0  0
  144.6790  143.2735  158.3319 C   0  0  0  0  0  0  0  0  0  0  0  0
  151.1382  143.8398  158.0475 C   0  0  0  0  0  0  0  0  0  0  0  0
  152.6674  145.8018  160.3378 H   0  0  0  0  0  0  0  0  0  0  0  0
  150.9631  145.5924  160.6989 H   0  0  0  0  0  0  0  0  0  0  0  0
  151.4553  146.3587  159.1991 H   0  0  0  0  0  0  0  0  0  0  0  0
  152.9169  142.8646  160.5826 H   0  0  0  0  0  0  0  0  0  0  0  0
  151.4068  142.0715  155.8471 H   0  0  0  0  0  0  0  0  0  0  0  0
  151.2964  139.6330  155.9657 H   0  0  0  0  0  0  0  0  0  0  0  0
  151.0851  139.6753  157.7117 H   0  0  0  0  0  0  0  0  0  0  0  0
  152.5948  140.2167  156.9875 H   0  0  0  0  0  0  0  0  0  0  0  0
  149.2179  142.7389  156.1840 H   0  0  0  0  0  0  0  0  0  0  0  0
  149.4006  140.7882  154.6231 H   0  0  0  0  0  0  0  0  0  0  0  0
  147.8152  140.8999  155.3621 H   0  0  0  0  0  0  0  0  0  0  0  0
  148.9637  139.7009  155.9375 H   0  0  0  0  0  0  0  0  0  0  0  0
  149.3216  142.0131  158.5973 H   0  0  0  0  0  0  0  0  0  0  0  0
  147.1950  142.6936  157.0487 H   0  0  0  0  0  0  0  0  0  0  0  0
  146.7048  141.2124  157.8418 H   0  0  0  0  0  0  0  0  0  0  0  0
  144.4407  143.8156  160.8995 H   0  0  0  0  0  0  0  0  0  0  0  0
  146.0897  144.2746  161.2316 H   0  0  0  0  0  0  0  0  0  0  0  0
  144.7208  146.2883  160.6646 H   0  0  0  0  0  0  0  0  0  0  0  0
  145.9899  146.0641  159.4748 H   0  0  0  0  0  0  0  0  0  0  0  0
  145.3428  145.0594  157.2970 H   0  0  0  0  0  0  0  0  0  0  0  0
  143.5200  144.0700  155.8956 H   0  0  0  0  0  0  0  0  0  0  0  0
  143.1427  145.7256  156.3612 H   0  0  0  0  0  0  0  0  0  0  0  0
  142.3576  144.3801  157.1843 H   0  0  0  0  0  0  0  0  0  0  0  0
  144.8833  142.5724  157.5246 H   0  0  0  0  0  0  0  0  0  0  0  0
  143.7750  142.9001  158.8155 H   0  0  0  0  0  0  0  0  0  0  0  0
  150.5401  144.4045  157.3476 H   0  0  0  0  0  0  0  0  0  0  0  0
  1  2  1  0  0  0  0
  1 22  1  0  0  0  0
  1 23  1  0  0  0  0
  1 24  1  0  0  0  0
  2 21  2  0  0  0  0
  2  3  1  0  0  0  0
  3  4  2  0  0  0  0
  3 25  1  0  0  0  0
  4  5  1  0  0  0  0
  5  6  1  0  0  0  0
  5 21  1  0  0  0  0
  6  7  1  0  0  0  0
  6  8  1  0  0  0  0
  6 26  1  0  0  0  0
  7 27  1  0  0  0  0
  7 28  1  0  0  0  0
  7 29  1  0  0  0  0
  8  9  1  0  0  0  0
  8 10  1  0  0  0  0
  8 30  1  0  0  0  0
  9 31  1  0  0  0  0
  9 32  1  0  0  0  0
  9 33  1  0  0  0  0
 10 11  1  0  0  0  0
 10 34  1  0  0  0  0
 11 12  1  0  0  0  0
 11 35  1  0  0  0  0
 11 36  1  0  0  0  0
 12 13  2  0  0  0  0
 12 14  1  0  0  0  0
 14 20  1  0  0  0  0
 14 15  1  0  0  0  0
 15 16  1  0  0  0  0
 15 37  1  0  0  0  0
 15 38  1  0  0  0  0
 16 17  1  0  0  0  0
 16 39  1  0  0  0  0
 16 40  1  0  0  0  0
 17 18  1  0  0  0  0
 18 19  1  0  0  0  0
 18 20  1  0  0  0  0
 18 41  1  0  0  0  0
 19 42  1  0  0  0  0
 19 43  1  0  0  0  0
 19 44  1  0  0  0  0
 20 45  1  0  0  0  0
 20 46  1  0  0  0  0
 21 47  1  0  0  0  0
M  END
> <s_m_source_file>
AV-unprocessed.smi

> <i_m_source_file_index>
3056

> <i_lp_mmshare_version>
43012

> <i_f3d_flags>
0

> <s_epik_input>
W0NIM11jMVtjSF1ubihbY0hdMSlbQ0BIXShbQ0gzXSlbQ0BIXShbQ0gzXSlbTkhdW0NIMl1DKD1PKU4yW0NIMl1bQ0gyXU9bQ0BASF0oW0NIM10pW0NIMl0y

> <s_epik_cmdline>
J2VwaWtfcHl0aG9uJywgJy1waCcsICc3LjAnLCAnLXRuJywgJzgnLCAnLW1hJywgJzIwMCcsICctbWV0YWxfYmluZGluZycsICctaW1hZScsICc8aW5maWxlLm1hZT4nLCAnLW9tYWUnLCAnPG91dGZpbGUubWFlPic=

> <r_lp_tautomer_probability>
1

> <r_epik_Ionization_Penalty>
0.667689

> <r_epik_Ionization_Penalty_Charging>
0

> <r_epik_Ionization_Penalty_Neutral>
0.667689

> <r_epik_State_Penalty>
0.684601

> <r_epik_Charging_Adjusted_Penalty>
0.684601

> <i_epik_Tot_Q>
0

> <i_epik_Tot_abs_Q>
0

> <r_epik_Metal_State_Penalty>
0.681448

> <b_epik_Metal_Only>
0

> <s_lp_Force_Field>
OPLS_2005

> <r_lp_Energy>
31.287

> <b_lp_Chiralities_Consistent>
1

> <s_lp_Variant>
AV-unprocessed.smi:3056-16

> <Gold.Version>
5.8.1

> <Gold.Id.Protein>
6NUR|6NUR_protein|mol2

> <Gold.PLP.Fitness>
40.3561

> <Gold.PLP.PLP>
-35.8717

> <Gold.PLP.part.hbond>
-1.0000

> <Gold.PLP.part.metal>
0.0000

> <Gold.PLP.part.buried>
-3.9309

> <Gold.PLP.part.nonpolar>
-31.0343

> <Gold.PLP.part.repulsive>
0.1826

> <Gold.PLP.ligand.clash>
0.0000

> <Gold.PLP.ligand.torsion>
0.7059

> <Gold.PLP.Chemscore.Hbond>
0.8960

> <Gold.PLP.Chemscore.CHOScore>
1.0000

> <Gold.PLP.Chemscore.Metal>
0.0000

> <Gold.Chemscore.Hbonds>
donor molecule, donor type, donor heavy atom, donor atom, acceptor molecule, acceptor atom, score
      P1  H  6933  6944       L1    13  0.85
      P1  H  6934  6946       L1    13  0.01
      L1  C    21    47       P1  8028  1.00

> <Gold.PLP.Chemscore.Internal.Correction>
0.2083

> <Gold.Rescore>
     Score         DG    S(hbond)    S(metal)    S(lipo)     H(rot)  DE(clash)    DE(int)     intcor
     14.07     -14.92       0.92        0.00      91.08       1.68       0.08       0.76       ----

> <Gold.Chemscore.Fitness>
14.0662

> <Gold.Chemscore.DG>
-14.9156

> <Gold.Chemscore.ZeroCoef>
-5.4800

> <Gold.Chemscore.Hbond>
0.9218

> <Gold.Chemscore.Metal>
0.0000

> <Gold.Chemscore.Lipo>
91.0752

> <Gold.Chemscore.Internal_Hbond>
0.0000

> <Gold.Chemscore.DEClash>
0.0848

> <Gold.Chemscore.DEInternal>
0.7646

> <Gold.Chemscore.Rot>
1.6793

> <Gold.Chemscore.Internal.Correction>
   9.000000E+99

> <Gold.Chemscore.Hbonds>
donor molecule, donor type, donor heavy atom, donor atom, acceptor molecule, acceptor atom, score
      P1  H  6933  6944       L1    13  0.82

> <Gold.Chemscore.Hbond.Weighted>
-3.0788

> <Gold.Chemscore.Metal.Weighted>
-0.0000

> <Gold.Chemscore.Lipo.Weighted>
-10.6558

> <Gold.Chemscore.Internal_Hbond.Weighted>
0.0000

> <Gold.Chemscore.DEClash.Weighted>
0.0848

> <Gold.Chemscore.DEInternal.Weighted>
0.7646

> <Gold.Chemscore.Rot.Weighted>
4.2990

> <Gold.Chemscore.Internal.Correction.Weighted>
   9.000000E+99

> <Gold.Protein.RotatedTorsions>
[ 6907 6896 6895 6894 ] final  -50.11 input  -60.11 | X-H torsion
[ 7974 7965 7964 7962 ] final   -6.64 input  175.53 | X-H torsion
[ 8008 7997 7996 7995 ] final   -8.96 input   59.86 | X-H torsion
[ 10167 10162 10161 10158 ] final   14.51 input  -65.29 | X-H torsion
[ 10718 10713 10712 10709 ] final  -29.12 input   66.30 | X-H torsion
[ 10763 10752 10751 10750 ] final  -47.84 input  -60.55 | X-H torsion
[ 11005 11000 10999 10996 ] final -165.35 input  -57.11 | X-H torsion

> <Gold.Protein.ActiveResidues>
 VAL166  LYS551  ARG553  GLY616  TRP617  ASP618  TYR619  PRO620  LYS621  CYS622 
 ASP623  PHE694  ASN695  SER759  ASP760  ASP761  ALA762  ILE779  LEU786  VAL792 
 PHE793  MET794  SER795  GLU796  ALA797  LYS798  CYS799  TRP800  GLU811  SER814 

> <Gold.Protein.RotatedAtoms>
  150.8739  134.8119  159.7175 H   0  0  0  0  0  0  0  0  0  0  0  0  # atno 6907 bound_to 6896
  152.4733  134.4902  159.9703 H   0  0  0  0  0  0  0  0  0  0  0  0  # atno 6908 bound_to 6896
  151.4986  133.3470  159.2901 H   0  0  0  0  0  0  0  0  0  0  0  0  # atno 6909 bound_to 6896
  146.2326  140.2200  142.8337 H   0  0  0  0  0  0  0  0  0  0  0  0  # atno 7974 bound_to 7965
  154.5692  140.2367  155.8217 H   0  0  0  0  0  0  0  0  0  0  0  0  # atno 8008 bound_to 7997
  156.2093  140.3030  155.9654 H   0  0  0  0  0  0  0  0  0  0  0  0  # atno 8009 bound_to 7997
  155.2744  140.0420  157.3000 H   0  0  0  0  0  0  0  0  0  0  0  0  # atno 8010 bound_to 7997
  140.5931  143.8756  150.6892 H   0  0  0  0  0  0  0  0  0  0  0  0  # atno 10167 bound_to 10162
  156.4165  130.4418  149.7214 H   0  0  0  0  0  0  0  0  0  0  0  0  # atno 10718 bound_to 10713
  154.0680  135.6608  153.4820 H   0  0  0  0  0  0  0  0  0  0  0  0  # atno 10763 bound_to 10752
  153.0401  135.5150  154.7595 H   0  0  0  0  0  0  0  0  0  0  0  0  # atno 10764 bound_to 10752
  154.6652  135.3021  154.9782 H   0  0  0  0  0  0  0  0  0  0  0  0  # atno 10765 bound_to 10752
  140.5767  134.5183  157.5171 H   0  0  0  0  0  0  0  0  0  0  0  0  # atno 11005 bound_to 11000
  144.9639  140.8303  143.5496 LP  0  0  0  0  0  0  0  0  0  0  0  0  # atno 17320 bound_to 7965
  145.2174  139.2175  143.5111 LP  0  0  0  0  0  0  0  0  0  0  0  0  # atno 17321 bound_to 7965
  140.2284  143.3755  152.1586 LP  0  0  0  0  0  0  0  0  0  0  0  0  # atno 17342 bound_to 10162
  139.5240  144.7079  151.5299 LP  0  0  0  0  0  0  0  0  0  0  0  0  # atno 17343 bound_to 10162
  156.4172  130.7751  151.2767 LP  0  0  0  0  0  0  0  0  0  0  0  0  # atno 17370 bound_to 10713
  157.7508  131.0194  150.3664 LP  0  0  0  0  0  0  0  0  0  0  0  0  # atno 17371 bound_to 10713
  139.9336  134.7917  156.0863 LP  0  0  0  0  0  0  0  0  0  0  0  0  # atno 17394 bound_to 11000
  141.1022  133.6673  156.2780 LP  0  0  0  0  0  0  0  0  0  0  0  0  # atno 17395 bound_to 11000

$$$$
