#       Name:                AV-unprocessed.smi:1367
#       Creating user name   scv26
#       Creation time:       Fri Mar 27 05:16:45 2020


#       File generated by GOLD software.
#

@<TRIPOS>MOLECULE
AV-unprocessed.smi:1367
    35    35     1
SMALL
NO_CHARGES


@<TRIPOS>ATOM
      1 ****        -4.0502  -0.7633   1.3634 C.3            1 S1                 0.0000
      2 ****        -2.5399  -0.7871   1.2720 C.2            1 S1                 0.0000
      3 ****        -1.9537   0.4582   1.4268 N.pl3          1 S1                 0.0000
      4 ****        -0.5737   0.5366   1.3633 C.2            1 S1                 0.0000
      5 ****        -0.0133   1.9365   1.5444 C.3            1 S1                 0.0000
      6 ****         0.1842  -0.5693   1.1517 C.2            1 S1                 0.0000
      7 ****         1.7105  -0.5232   1.0743 C.3            1 S1                 0.0000
      8 ****         2.2940  -0.0275  -0.2502 C.2            1 S1                 0.0000
      9 ****         3.1282   0.8771  -0.2538 O.2            1 S1                 0.0000
     10 ****         1.8474  -0.6259  -1.3647 N.am           1 S1                 0.0000
     11 ****         2.2325  -0.2671  -2.7250 C.3            1 S1                 0.0000
     12 ****         1.3436   0.8501  -3.2980 C.3            1 S1                 0.0000
     13 ****         1.6945   1.0816  -4.5622 F              1 S1                 0.0000
     14 ****         0.0629   0.4805  -3.2712 F              1 S1                 0.0000
     15 ****         1.4878   1.9790  -2.6040 F              1 S1                 0.0000
     16 ****        -0.5015  -1.8729   0.9845 C.2            1 S1                 0.0000
     17 ****         0.1273  -2.9089   0.7724 O.2            1 S1                 0.0000
     18 ****        -1.9031  -1.8993   1.0645 N.2            1 S1                 0.0000
     19 ****        -2.4789   1.3062   1.5847 H              1 S1                 0.0000
     20 ****        -4.4599  -1.7732   1.3174 H              1 S1                 0.0000
     21 ****        -4.4709  -0.1864   0.5393 H              1 S1                 0.0000
     22 ****        -4.3689  -0.3099   2.3026 H              1 S1                 0.0000
     23 ****         0.6519   1.9734   2.4073 H              1 S1                 0.0000
     24 ****        -0.8061   2.6687   1.7025 H              1 S1                 0.0000
     25 ****         0.5491   2.2394   0.6610 H              1 S1                 0.0000
     26 ****         2.1430  -1.4994   1.2949 H              1 S1                 0.0000
     27 ****         2.0740   0.1245   1.8729 H              1 S1                 0.0000
     28 ****         1.1645  -1.3629  -1.2650 H              1 S1                 0.0000
     29 ****         3.2836   0.0240  -2.7620 H              1 S1                 0.0000
     30 ****         2.1402  -1.1608  -3.3428 H              1 S1                 0.0000
     31 ****         3.4243   1.2877   0.6086 LP             1 S1                 0.0000
     32 ****         3.5101   1.2017  -1.1192 LP             1 S1                 0.0000
     33 ****         1.1250  -2.8841   0.7091 LP             1 S1                 0.0000
     34 ****        -0.3593  -3.7756   0.6633 LP             1 S1                 0.0000
     35 ****        -2.4022  -2.7599   0.9634 LP             1 S1                 0.0000
@<TRIPOS>BOND
    1    1   20 1     
    2    1   21 1     
    3    1   22 1     
    4    1    2 1     
    5    2    3 1     
    6    2   18 2     
    7    3    4 1     
    8    3   19 1     
    9    4    6 2     
   10    4    5 1     
   11    5   23 1     
   12    5   24 1     
   13    5   25 1     
   14    6   16 1     
   15    6    7 1     
   16    7    8 1     
   17    7   26 1     
   18    7   27 1     
   19    8    9 2     
   20    8   10 am    
   21   10   11 1     
   22   10   28 1     
   23   11   12 1     
   24   11   29 1     
   25   11   30 1     
   26   12   13 1     
   27   12   14 1     
   28   12   15 1     
   29   16   17 2     
   30   16   18 1     
   31    9   31 1     
   32    9   32 1     
   33   17   33 1     
   34   17   34 1     
   35   18   35 1     
@<TRIPOS>SUBSTRUCTURE
      1 S1             1
@<TRIPOS>SET
LONE_PAIRS      STATIC     ATOMS    <user>   **** ""
5 31 32 33 34 35
DONOR_HYDROGENS      STATIC     ATOMS    <user>   **** ""
2 19 28
ATOM$BLUE        STATIC     ATOMS    COLORGROUP SYSTEM
5 31 32 33 34 35
ATOM$RED        STATIC     ATOMS    COLORGROUP SYSTEM
2 19 28
