#       Name:                AV-unprocessed.smi:704
#       Creating user name   scv26
#       Creation time:       Fri Mar 27 00:43:02 2020


#       File generated by GOLD software.
#

@<TRIPOS>MOLECULE
AV-unprocessed.smi:704
    45    46     1
SMALL
NO_CHARGES


@<TRIPOS>ATOM
      1 ****        -2.9677  -3.9236  -1.6866 C.3            1 S1                 0.0000
      2 ****        -2.3881  -2.6615  -1.3742 O.3            1 S1                 0.0000
      3 ****        -3.1955  -1.6813  -0.8291 C.ar           1 S1                 0.0000
      4 ****        -4.5063  -1.9654  -0.6241 N.ar           1 S1                 0.0000
      5 ****        -5.2968  -1.0088  -0.0957 C.ar           1 S1                 0.0000
      6 ****        -4.8300   0.2731   0.2479 C.ar           1 S1                 0.0000
      7 ****        -3.4707   0.5703   0.0371 C.ar           1 S1                 0.0000
      8 ****        -2.6250  -0.4287  -0.5030 C.ar           1 S1                 0.0000
      9 ****        -1.2432  -0.2282  -0.7722 N.am           1 S1                 0.0000
     10 ****        -0.3972   0.6410  -0.1944 C.2            1 S1                 0.0000
     11 ****        -0.6942   1.4422   0.6915 O.2            1 S1                 0.0000
     12 ****         0.8415   0.5122  -0.6903 N.am           1 S1                 0.0000
     13 ****         2.0042   1.2854  -0.2600 C.3            1 S1                 0.0000
     14 ****         3.1351   1.2092  -1.2968 C.3            1 S1                 0.0000
     15 ****         4.4238   1.2298  -0.4807 C.3            1 S1                 0.0000
     16 ****         4.0764   0.4366   0.7764 C.3            1 S1                 0.0000
     17 ****         2.5972   0.7512   1.0737 C.3            1 S1                 0.0000
     18 ****         2.4359   1.7606   2.2226 C.2            1 S1                 0.0000
     19 ****         1.6426   1.4059   3.2366 N.am           1 S1                 0.0000
     20 ****         3.0196   2.8428   2.1975 O.2            1 S1                 0.0000
     21 ****        -2.2018  -4.5790  -2.1013 H              1 S1                 0.0000
     22 ****        -3.7585  -3.8267  -2.4318 H              1 S1                 0.0000
     23 ****        -3.3711  -4.4084  -0.7965 H              1 S1                 0.0000
     24 ****        -6.3340  -1.2709   0.0519 H              1 S1                 0.0000
     25 ****        -5.5003   1.0135   0.6590 H              1 S1                 0.0000
     26 ****        -3.1098   1.5578   0.2790 H              1 S1                 0.0000
     27 ****        -0.8332  -0.8800  -1.4253 H              1 S1                 0.0000
     28 ****         0.9958  -0.1758  -1.4129 H              1 S1                 0.0000
     29 ****         1.7124   2.3339  -0.1643 H              1 S1                 0.0000
     30 ****         3.0828   0.2699  -1.8499 H              1 S1                 0.0000
     31 ****         3.0900   2.0208  -2.0237 H              1 S1                 0.0000
     32 ****         5.2719   0.8099  -1.0222 H              1 S1                 0.0000
     33 ****         4.6735   2.2572  -0.2122 H              1 S1                 0.0000
     34 ****         4.1849  -0.6299   0.5747 H              1 S1                 0.0000
     35 ****         4.7485   0.6736   1.6027 H              1 S1                 0.0000
     36 ****         2.1088  -0.1805   1.3668 H              1 S1                 0.0000
     37 ****         1.5170   2.0295   4.0208 H              1 S1                 0.0000
     38 ****         1.1821   0.5076   3.2217 H              1 S1                 0.0000
     39 ****        -2.0084  -2.2930  -2.2228 LP             1 S1                 0.0000
     40 ****        -1.6478  -2.8298  -0.7233 LP             1 S1                 0.0000
     41 ****        -4.8778  -2.8635  -0.8594 LP             1 S1                 0.0000
     42 ****        -1.6318   1.4807   1.0370 LP             1 S1                 0.0000
     43 ****         0.0022   2.0546   1.0657 LP             1 S1                 0.0000
     44 ****         3.6081   3.0756   1.4232 LP             1 S1                 0.0000
     45 ****         2.9058   3.4899   2.9513 LP             1 S1                 0.0000
@<TRIPOS>BOND
    1    1    2 1     
    2    1   21 1     
    3    1   22 1     
    4    1   23 1     
    5    2    3 1     
    6    3    8 ar    
    7    3    4 ar    
    8    4    5 ar    
    9    5    6 ar    
   10    5   24 1     
   11    6    7 ar    
   12    6   25 1     
   13    7    8 ar    
   14    7   26 1     
   15    8    9 1     
   16    9   10 am    
   17    9   27 1     
   18   10   11 2     
   19   10   12 am    
   20   12   13 1     
   21   12   28 1     
   22   13   17 1     
   23   13   14 1     
   24   13   29 1     
   25   14   15 1     
   26   14   30 1     
   27   14   31 1     
   28   15   16 1     
   29   15   32 1     
   30   15   33 1     
   31   16   17 1     
   32   16   34 1     
   33   16   35 1     
   34   17   18 1     
   35   17   36 1     
   36   18   19 am    
   37   18   20 2     
   38   19   37 1     
   39   19   38 1     
   40    2   39 1     
   41    2   40 1     
   42    4   41 1     
   43   11   42 1     
   44   11   43 1     
   45   20   44 1     
   46   20   45 1     
@<TRIPOS>SUBSTRUCTURE
      1 S1             1
@<TRIPOS>SET
LONE_PAIRS      STATIC     ATOMS    <user>   **** ""
7 39 40 41 42 43 44 45
DONOR_HYDROGENS      STATIC     ATOMS    <user>   **** ""
4 27 28 37 38
ATOM$BLUE        STATIC     ATOMS    COLORGROUP SYSTEM
7 39 40 41 42 43 44 45
ATOM$RED        STATIC     ATOMS    COLORGROUP SYSTEM
4 27 28 37 38
