AV-unprocessed.smi:820|AV-procd|sdf|3836|dock4
  -GOLD-   22720 1283D 1   1.00000     0.00000
 Structure written by MMmdl.
 32 33  0  0  0  0  0  0  0  0  1 V2000
  150.2264  144.9743  159.7852 C   0  0  0  0  0  0  0  0  0  0  0  0
  151.7538  145.0237  159.6906 C   0  0  0  0  0  0  0  0  0  0  0  0
  152.3706  143.9638  158.3528 S   0  0  0  0  0  0  0  0  0  0  0  0
  152.6564  142.3509  159.0197 C   0  0  0  0  0  0  0  0  0  0  0  0
  152.1256  141.1822  158.4345 C   0  0  0  0  0  0  0  0  0  0  0  0
  152.4105  139.9447  159.0435 C   0  0  0  0  0  0  0  0  0  0  0  0
  153.2194  139.9217  160.2058 C   0  0  0  0  0  0  0  0  0  0  0  0
  153.5606  138.7432  160.9233 N   0  0  0  0  0  0  0  0  0  0  0  0
  153.1372  137.4792  160.7293 C   0  0  0  0  0  0  0  0  0  0  0  0
  152.3644  137.1426  159.8314 O   0  0  0  0  0  0  0  0  0  0  0  0
  153.7287  136.5658  161.7000 C   0  0  0  0  0  0  0  0  0  0  0  0
  153.8326  136.9459  162.9946 C   0  0  0  0  0  0  0  0  0  0  0  0
  154.3369  136.1430  163.9869 O   0  0  0  0  0  0  0  0  0  0  0  0
  154.5101  134.7806  163.6163 C   0  0  0  0  0  0  0  0  0  0  0  0
  155.0748  134.6824  162.1919 C   0  0  0  0  0  0  0  0  0  0  0  0
  154.2138  135.3482  161.2741 O   0  0  0  0  0  0  0  0  0  0  0  0
  153.6839  141.1557  160.7087 C   0  0  0  0  0  0  0  0  0  0  0  0
  153.4179  142.3473  160.1330 N   0  0  0  0  0  0  0  0  0  0  0  0
  149.8654  145.6167  160.5888 H   0  0  0  0  0  0  0  0  0  0  0  0
  149.8781  143.9610  159.9861 H   0  0  0  0  0  0  0  0  0  0  0  0
  149.7640  145.3099  158.8565 H   0  0  0  0  0  0  0  0  0  0  0  0
  152.0814  146.0481  159.5112 H   0  0  0  0  0  0  0  0  0  0  0  0
  152.1938  144.6999  160.6342 H   0  0  0  0  0  0  0  0  0  0  0  0
  151.5118  141.2144  157.5478 H   0  0  0  0  0  0  0  0  0  0  0  0
  151.9923  139.0470  158.6162 H   0  0  0  0  0  0  0  0  0  0  0  0
  154.2565  138.8623  161.6456 H   0  0  0  0  0  0  0  0  0  0  0  0
  153.4957  137.8948  163.3873 H   0  0  0  0  0  0  0  0  0  0  0  0
  155.1814  134.2991  164.3276 H   0  0  0  0  0  0  0  0  0  0  0  0
  153.5504  134.2661  163.6811 H   0  0  0  0  0  0  0  0  0  0  0  0
  156.0686  135.1299  162.1426 H   0  0  0  0  0  0  0  0  0  0  0  0
  155.1769  133.6393  161.8925 H   0  0  0  0  0  0  0  0  0  0  0  0
  154.2924  141.1895  161.6007 H   0  0  0  0  0  0  0  0  0  0  0  0
  1  2  1  0  0  0  0
  1 19  1  0  0  0  0
  1 20  1  0  0  0  0
  1 21  1  0  0  0  0
  2  3  1  0  0  0  0
  2 22  1  0  0  0  0
  2 23  1  0  0  0  0
  3  4  1  0  0  0  0
  4 18  1  0  0  0  0
  4  5  2  0  0  0  0
  5  6  1  0  0  0  0
  5 24  1  0  0  0  0
  6  7  2  0  0  0  0
  6 25  1  0  0  0  0
  7  8  1  0  0  0  0
  7 17  1  0  0  0  0
  8  9  1  0  0  0  0
  8 26  1  0  0  0  0
  9 10  2  0  0  0  0
  9 11  1  0  0  0  0
 11 16  1  0  0  0  0
 11 12  2  0  0  0  0
 12 13  1  0  0  0  0
 12 27  1  0  0  0  0
 13 14  1  0  0  0  0
 14 15  1  0  0  0  0
 14 28  1  0  0  0  0
 14 29  1  0  0  0  0
 15 16  1  0  0  0  0
 15 30  1  0  0  0  0
 15 31  1  0  0  0  0
 17 18  2  0  0  0  0
 17 32  1  0  0  0  0
M  END
> <s_m_source_file>
AV-unprocessed.smi

> <i_m_source_file_index>
820

> <i_lp_mmshare_version>
43012

> <i_f3d_flags>
0

> <s_epik_input>
W0NIM11bQ0gyXVNjMVtjSF1bY0hdYyhbY0hdbjEpW05IXUMoPU8pQzI9W0NIXU9bQ0gyXVtDSDJdTzI=

> <s_epik_cmdline>
J2VwaWtfcHl0aG9uJywgJy1waCcsICc3LjAnLCAnLXRuJywgJzgnLCAnLW1hJywgJzIwMCcsICctbWV0YWxfYmluZGluZycsICctaW1hZScsICc8aW5maWxlLm1hZT4nLCAnLW9tYWUnLCAnPG91dGZpbGUubWFlPic=

> <r_lp_tautomer_probability>
1

> <r_epik_Ionization_Penalty>
8.32294e-05

> <r_epik_Ionization_Penalty_Charging>
0

> <r_epik_Ionization_Penalty_Neutral>
8.32294e-05

> <r_epik_State_Penalty>
-0

> <r_epik_Charging_Adjusted_Penalty>
0

> <i_epik_Tot_Q>
0

> <i_epik_Tot_abs_Q>
0

> <r_epik_Metal_State_Penalty>
0.0397586

> <b_epik_Metal_Only>
0

> <s_lp_Force_Field>
OPLS_2005

> <r_lp_Energy>
6.19244

> <b_lp_Chiralities_Consistent>
1

> <s_lp_Variant>
AV-unprocessed.smi:820-1

> <Gold.Version>
5.8.1

> <Gold.Id.Protein>
6NUR|6NUR_protein|mol2

> <Gold.PLP.Fitness>
38.4827

> <Gold.PLP.PLP>
-38.1987

> <Gold.PLP.part.hbond>
-0.6354

> <Gold.PLP.part.metal>
0.0000

> <Gold.PLP.part.buried>
-6.3515

> <Gold.PLP.part.nonpolar>
-31.3539

> <Gold.PLP.part.repulsive>
0.0861

> <Gold.PLP.ligand.clash>
0.0000

> <Gold.PLP.ligand.torsion>
0.9389

> <Gold.PLP.Chemscore.Hbond>
0.7150

> <Gold.PLP.Chemscore.CHOScore>
0.0000

> <Gold.PLP.Chemscore.Metal>
0.0000

> <Gold.Chemscore.Hbonds>
donor molecule, donor type, donor heavy atom, donor atom, acceptor molecule, acceptor atom, score
      P1  H  6896  6909       L1    10  0.86

> <Gold.PLP.Chemscore.Internal.Correction>
0.0168

> <Gold.Rescore>
     Score         DG    S(hbond)    S(metal)    S(lipo)     H(rot)  DE(clash)    DE(int)     intcor
     15.89     -18.11       0.96        0.00     105.63       1.14       0.07       2.15       ----

> <Gold.Chemscore.Fitness>
15.8945

> <Gold.Chemscore.DG>
-18.1133

> <Gold.Chemscore.ZeroCoef>
-5.4800

> <Gold.Chemscore.Hbond>
0.9581

> <Gold.Chemscore.Metal>
0.0000

> <Gold.Chemscore.Lipo>
105.6344

> <Gold.Chemscore.Internal_Hbond>
0.0000

> <Gold.Chemscore.DEClash>
0.0650

> <Gold.Chemscore.DEInternal>
2.1538

> <Gold.Chemscore.Rot>
1.1429

> <Gold.Chemscore.Internal.Correction>
   9.000000E+99

> <Gold.Chemscore.Hbonds>
donor molecule, donor type, donor heavy atom, donor atom, acceptor molecule, acceptor atom, score
      P1  H  6896  6909       L1    10  0.62

> <Gold.Chemscore.Hbond.Weighted>
-3.2000

> <Gold.Chemscore.Metal.Weighted>
-0.0000

> <Gold.Chemscore.Lipo.Weighted>
-12.3592

> <Gold.Chemscore.Internal_Hbond.Weighted>
0.0000

> <Gold.Chemscore.DEClash.Weighted>
0.0650

> <Gold.Chemscore.DEInternal.Weighted>
2.1538

> <Gold.Chemscore.Rot.Weighted>
2.9259

> <Gold.Chemscore.Internal.Correction.Weighted>
   9.000000E+99

> <Gold.Protein.RotatedTorsions>
[ 6907 6896 6895 6894 ] final  135.75 input  -60.11 | X-H torsion
[ 7974 7965 7964 7962 ] final  -91.55 input  175.53 | X-H torsion
[ 8008 7997 7996 7995 ] final   17.79 input   59.86 | X-H torsion
[ 10167 10162 10161 10158 ] final  134.19 input  -65.29 | X-H torsion
[ 10718 10713 10712 10709 ] final -104.13 input   66.30 | X-H torsion
[ 10763 10752 10751 10750 ] final  108.06 input  -60.55 | X-H torsion
[ 11005 11000 10999 10996 ] final    9.50 input  -57.11 | X-H torsion

> <Gold.Protein.ActiveResidues>
 VAL166  LYS551  ARG553  GLY616  TRP617  ASP618  TYR619  PRO620  LYS621  CYS622 
 ASP623  PHE694  ASN695  SER759  ASP760  ASP761  ALA762  ILE779  LEU786  VAL792 
 PHE793  MET794  SER795  GLU796  ALA797  LYS798  CYS799  TRP800  GLU811  SER814 

> <Gold.Protein.RotatedAtoms>
  152.2970  133.5617  159.5593 H   0  0  0  0  0  0  0  0  0  0  0  0  # atno 6907 bound_to 6896
  150.7260  134.0346  159.3754 H   0  0  0  0  0  0  0  0  0  0  0  0  # atno 6908 bound_to 6896
  151.8249  135.0640  160.0480 H   0  0  0  0  0  0  0  0  0  0  0  0  # atno 6909 bound_to 6896
  145.4116  140.9545  143.2231 H   0  0  0  0  0  0  0  0  0  0  0  0  # atno 7974 bound_to 7965
  154.8965  140.2994  155.5341 H   0  0  0  0  0  0  0  0  0  0  0  0  # atno 8008 bound_to 7997
  156.3020  140.2415  156.3922 H   0  0  0  0  0  0  0  0  0  0  0  0  # atno 8009 bound_to 7997
  154.8564  140.0407  157.1626 H   0  0  0  0  0  0  0  0  0  0  0  0  # atno 8010 bound_to 7997
  139.5266  144.6579  151.5104 H   0  0  0  0  0  0  0  0  0  0  0  0  # atno 10167 bound_to 10162
  156.0292  130.5500  150.7352 H   0  0  0  0  0  0  0  0  0  0  0  0  # atno 10718 bound_to 10713
  153.4154  135.3824  155.2077 H   0  0  0  0  0  0  0  0  0  0  0  0  # atno 10763 bound_to 10752
  154.8741  135.3804  154.4449 H   0  0  0  0  0  0  0  0  0  0  0  0  # atno 10764 bound_to 10752
  153.4963  135.7088  153.5919 H   0  0  0  0  0  0  0  0  0  0  0  0  # atno 10765 bound_to 10752
  140.5250  134.0522  155.7856 H   0  0  0  0  0  0  0  0  0  0  0  0  # atno 11005 bound_to 11000
  144.8305  139.5637  143.6946 LP  0  0  0  0  0  0  0  0  0  0  0  0  # atno 17320 bound_to 7965
  146.2702  139.6616  142.9301 LP  0  0  0  0  0  0  0  0  0  0  0  0  # atno 17321 bound_to 7965
  140.6413  143.8882  150.6695 LP  0  0  0  0  0  0  0  0  0  0  0  0  # atno 17342 bound_to 10162
  140.2218  143.3803  152.1637 LP  0  0  0  0  0  0  0  0  0  0  0  0  # atno 17343 bound_to 10162
  157.4935  131.0913  151.0399 LP  0  0  0  0  0  0  0  0  0  0  0  0  # atno 17370 bound_to 10713
  157.0800  130.5899  149.5418 LP  0  0  0  0  0  0  0  0  0  0  0  0  # atno 17371 bound_to 10713
  141.1313  133.9297  157.2529 LP  0  0  0  0  0  0  0  0  0  0  0  0  # atno 17394 bound_to 11000
  139.9585  135.0160  156.9195 LP  0  0  0  0  0  0  0  0  0  0  0  0  # atno 17395 bound_to 11000

$$$$
