AV-unprocessed.smi:3303|AV-procd|sdf|12696|dock5
  -GOLD-   2272019 33D 1   1.00000     0.00000
 Structure written by MMmdl.
 44 45  0  0  0  0  0  0  0  0  2 V2000
  151.1516  137.8374  155.2128 C   0  0  0  0  0  0  0  0  0  0  0  0
  150.4288  139.0904  154.6877 C   0  0  1  0  0  0  0  0  0  0  0  0
  149.0608  138.6992  154.0938 C   0  0  0  0  0  0  0  0  0  0  0  0
  148.3193  139.8724  153.5631 N   0  3  1  0  0  0  0  0  0  0  0  0
  147.0878  139.4459  152.8551 C   0  0  0  0  0  0  0  0  0  0  0  0
  148.0899  140.9054  154.6161 C   0  0  2  0  0  0  0  0  0  0  0  0
  147.3306  142.1386  154.0877 C   0  0  0  0  0  0  0  0  0  0  0  0
  149.4365  141.3486  155.2201 C   0  0  0  0  0  0  0  0  0  0  0  0
  150.2420  140.1655  155.7808 C   0  0  2  0  0  0  0  0  0  0  0  0
  151.5374  140.6852  156.2039 N   0  0  0  0  0  0  0  0  0  0  0  0
  151.3874  141.6998  157.2357 C   0  0  0  0  0  0  0  0  0  0  0  0
  152.4926  141.5331  158.2874 C   0  0  0  0  0  0  0  0  0  0  0  0
  152.3687  142.5418  159.4132 C   0  0  0  0  0  0  0  0  0  0  0  0
  152.0425  143.8882  159.1428 C   0  0  0  0  0  0  0  0  0  0  0  0
  151.9412  144.7839  160.2249 C   0  0  0  0  0  0  0  0  0  0  0  0
  152.1699  144.3022  161.5283 C   0  0  0  0  0  0  0  0  0  0  0  0
  152.4920  142.9402  161.6924 C   0  0  0  0  0  0  0  0  0  0  0  0
  152.5914  142.0728  160.6618 N   0  0  0  0  0  0  0  0  0  0  0  0
  150.6131  137.3883  156.0480 H   0  0  0  0  0  0  0  0  0  0  0  0
  152.1605  138.0705  155.5541 H   0  0  0  0  0  0  0  0  0  0  0  0
  151.2444  137.0817  154.4322 H   0  0  0  0  0  0  0  0  0  0  0  0
  151.0333  139.5123  153.8826 H   0  0  0  0  0  0  0  0  0  0  0  0
  149.2153  137.9795  153.2885 H   0  0  0  0  0  0  0  0  0  0  0  0
  148.4508  138.1989  154.8480 H   0  0  0  0  0  0  0  0  0  0  0  0
  146.3396  139.0777  153.5582 H   0  0  0  0  0  0  0  0  0  0  0  0
  147.3054  138.6483  152.1439 H   0  0  0  0  0  0  0  0  0  0  0  0
  146.6525  140.2630  152.2806 H   0  0  0  0  0  0  0  0  0  0  0  0
  147.4890  140.4540  155.4076 H   0  0  0  0  0  0  0  0  0  0  0  0
  147.2674  142.9127  154.8530 H   0  0  0  0  0  0  0  0  0  0  0  0
  146.3054  141.8995  153.8058 H   0  0  0  0  0  0  0  0  0  0  0  0
  147.8292  142.5737  153.2210 H   0  0  0  0  0  0  0  0  0  0  0  0
  150.0198  141.8644  154.4550 H   0  0  0  0  0  0  0  0  0  0  0  0
  149.2610  142.0758  156.0144 H   0  0  0  0  0  0  0  0  0  0  0  0
  149.6952  139.7380  156.6236 H   0  0  0  0  0  0  0  0  0  0  0  0
  152.0171  141.0900  155.4125 H   0  0  0  0  0  0  0  0  0  0  0  0
  151.4483  142.6904  156.7827 H   0  0  0  0  0  0  0  0  0  0  0  0
  150.4067  141.6112  157.7045 H   0  0  0  0  0  0  0  0  0  0  0  0
  152.4624  140.5254  158.7045 H   0  0  0  0  0  0  0  0  0  0  0  0
  153.4740  141.6447  157.8234 H   0  0  0  0  0  0  0  0  0  0  0  0
  151.8732  144.2283  158.1316 H   0  0  0  0  0  0  0  0  0  0  0  0
  151.6929  145.8217  160.0583 H   0  0  0  0  0  0  0  0  0  0  0  0
  152.1012  144.9604  162.3817 H   0  0  0  0  0  0  0  0  0  0  0  0
  152.6754  142.5368  162.6773 H   0  0  0  0  0  0  0  0  0  0  0  0
  148.9163  140.2953  152.8666 H   0  0  0  0  0  0  0  0  0  0  0  0
  1  2  1  0  0  0  0
  1 19  1  0  0  0  0
  1 20  1  0  0  0  0
  1 21  1  0  0  0  0
  2  9  1  0  0  0  0
  2  3  1  0  0  0  0
  2 22  1  0  0  0  0
  3  4  1  0  0  0  0
  3 23  1  0  0  0  0
  3 24  1  0  0  0  0
  4  5  1  0  0  0  0
  4  6  1  0  0  0  0
  4 44  1  0  0  0  0
  5 25  1  0  0  0  0
  5 26  1  0  0  0  0
  5 27  1  0  0  0  0
  6  7  1  0  0  0  0
  6  8  1  0  0  0  0
  6 28  1  0  0  0  0
  7 29  1  0  0  0  0
  7 30  1  0  0  0  0
  7 31  1  0  0  0  0
  8  9  1  0  0  0  0
  8 32  1  0  0  0  0
  8 33  1  0  0  0  0
  9 10  1  0  0  0  0
  9 34  1  0  0  0  0
 10 11  1  0  0  0  0
 10 35  1  0  0  0  0
 11 12  1  0  0  0  0
 11 36  1  0  0  0  0
 11 37  1  0  0  0  0
 12 13  1  0  0  0  0
 12 38  1  0  0  0  0
 12 39  1  0  0  0  0
 13 18  1  0  0  0  0
 13 14  2  0  0  0  0
 14 15  1  0  0  0  0
 14 40  1  0  0  0  0
 15 16  2  0  0  0  0
 15 41  1  0  0  0  0
 16 17  1  0  0  0  0
 16 42  1  0  0  0  0
 17 18  2  0  0  0  0
 17 43  1  0  0  0  0
M  CHG  1   4   1
M  END
> <s_m_source_file>
AV-unprocessed.smi

> <i_m_source_file_index>
3303

> <i_lp_mmshare_version>
43012

> <i_f3d_flags>
0

> <s_epik_input>
W0NIM11bQ0BASF0xW0NIMl1OKFtDSDNdKVtDQEBIXShbQ0gzXSlbQ0gyXVtDQEhdMVtOSF1bQ0gyXVtDSDJdYzJbY0hdW2NIXVtjSF1bY0hdbjI=

> <s_epik_cmdline>
J2VwaWtfcHl0aG9uJywgJy1waCcsICc3LjAnLCAnLXRuJywgJzgnLCAnLW1hJywgJzIwMCcsICctbWV0YWxfYmluZGluZycsICctaW1hZScsICc8aW5maWxlLm1hZT4nLCAnLW9tYWUnLCAnPG91dGZpbGUubWFlPic=

> <r_epik_Ionization_Penalty>
2.31085

> <r_epik_Ionization_Penalty_Charging>
0.000313057

> <r_epik_Ionization_Penalty_Neutral>
2.31054

> <r_epik_State_Penalty>
2.4087

> <r_epik_Charging_Adjusted_Penalty>
2.40902

> <i_epik_Tot_Q>
1

> <i_epik_Tot_abs_Q>
1

> <r_epik_Metal_State_Penalty>
2.30979

> <b_epik_Metal_Only>
0

> <s_lp_Force_Field>
OPLS_2005

> <r_lp_Energy>
23.6085

> <b_lp_Chiralities_Consistent>
1

> <s_lp_Variant>
AV-unprocessed.smi:3303-40

> <Gold.Version>
5.8.1

> <Gold.Id.Protein>
6NUR|6NUR_protein|mol2

> <Gold.PLP.Fitness>
45.0012

> <Gold.PLP.PLP>
-43.5460

> <Gold.PLP.part.hbond>
-1.0000

> <Gold.PLP.part.metal>
0.0000

> <Gold.PLP.part.buried>
-5.5024

> <Gold.PLP.part.nonpolar>
-36.6008

> <Gold.PLP.part.repulsive>
0.1074

> <Gold.PLP.ligand.clash>
0.0000

> <Gold.PLP.ligand.torsion>
0.5288

> <Gold.PLP.Chemscore.Hbond>
0.8320

> <Gold.PLP.Chemscore.CHOScore>
0.0000

> <Gold.PLP.Chemscore.Metal>
0.0000

> <Gold.Chemscore.Hbonds>
donor molecule, donor type, donor heavy atom, donor atom, acceptor molecule, acceptor atom, score
      L1  H     4    44       P1  7957  0.85

> <Gold.PLP.Chemscore.Internal.Correction>
0.0168

> <Gold.Rescore>
     Score         DG    S(hbond)    S(metal)    S(lipo)     H(rot)  DE(clash)    DE(int)     intcor
     19.72     -20.31       0.96        0.00     128.31       1.33       0.13       0.46       ----

> <Gold.Chemscore.Fitness>
19.7171

> <Gold.Chemscore.DG>
-20.3067

> <Gold.Chemscore.ZeroCoef>
-5.4800

> <Gold.Chemscore.Hbond>
0.9616

> <Gold.Chemscore.Metal>
0.0000

> <Gold.Chemscore.Lipo>
128.3130

> <Gold.Chemscore.Internal_Hbond>
0.0000

> <Gold.Chemscore.DEClash>
0.1270

> <Gold.Chemscore.DEInternal>
0.4626

> <Gold.Chemscore.Rot>
1.3272

> <Gold.Chemscore.Internal.Correction>
   9.000000E+99

> <Gold.Chemscore.Hbonds>
donor molecule, donor type, donor heavy atom, donor atom, acceptor molecule, acceptor atom, score
      L1  H     4    44       P1  7957  0.85

> <Gold.Chemscore.Hbond.Weighted>
-3.2117

> <Gold.Chemscore.Metal.Weighted>
-0.0000

> <Gold.Chemscore.Lipo.Weighted>
-15.0126

> <Gold.Chemscore.Internal_Hbond.Weighted>
0.0000

> <Gold.Chemscore.DEClash.Weighted>
0.1270

> <Gold.Chemscore.DEInternal.Weighted>
0.4626

> <Gold.Chemscore.Rot.Weighted>
3.3976

> <Gold.Chemscore.Internal.Correction.Weighted>
   9.000000E+99

> <Gold.Protein.RotatedTorsions>
[ 6907 6896 6895 6894 ] final  106.64 input  -60.11 | X-H torsion
[ 7974 7965 7964 7962 ] final  146.89 input  175.53 | X-H torsion
[ 8008 7997 7996 7995 ] final  169.17 input   59.86 | X-H torsion
[ 10167 10162 10161 10158 ] final -154.85 input  -65.29 | X-H torsion
[ 10718 10713 10712 10709 ] final  -19.30 input   66.30 | X-H torsion
[ 10763 10752 10751 10750 ] final   44.93 input  -60.55 | X-H torsion
[ 11005 11000 10999 10996 ] final  124.53 input  -57.11 | X-H torsion

> <Gold.Protein.ActiveResidues>
 VAL166  LYS551  ARG553  GLY616  TRP617  ASP618  TYR619  PRO620  LYS621  CYS622 
 ASP623  PHE694  ASN695  SER759  ASP760  ASP761  ALA762  ILE779  LEU786  VAL792 
 PHE793  MET794  SER795  GLU796  ALA797  LYS798  CYS799  TRP800  GLU811  SER814 

> <Gold.Protein.RotatedAtoms>
  152.5186  133.9352  159.7599 H   0  0  0  0  0  0  0  0  0  0  0  0  # atno 6907 bound_to 6896
  150.9694  133.6352  159.2747 H   0  0  0  0  0  0  0  0  0  0  0  0  # atno 6908 bound_to 6896
  151.3569  135.0901  159.9474 H   0  0  0  0  0  0  0  0  0  0  0  0  # atno 6909 bound_to 6896
  144.8635  139.5960  143.5919 H   0  0  0  0  0  0  0  0  0  0  0  0  # atno 7974 bound_to 7965
  156.1481  140.1571  156.8814 H   0  0  0  0  0  0  0  0  0  0  0  0  # atno 8008 bound_to 7997
  154.5046  140.0816  156.7906 H   0  0  0  0  0  0  0  0  0  0  0  0  # atno 8009 bound_to 7997
  155.3949  140.3411  155.4255 H   0  0  0  0  0  0  0  0  0  0  0  0  # atno 8010 bound_to 7997
  139.6979  143.9311  152.2415 H   0  0  0  0  0  0  0  0  0  0  0  0  # atno 10167 bound_to 10162
  156.5475  130.4693  149.6468 H   0  0  0  0  0  0  0  0  0  0  0  0  # atno 10718 bound_to 10713
  152.9833  135.6055  154.3354 H   0  0  0  0  0  0  0  0  0  0  0  0  # atno 10763 bound_to 10752
  154.3054  135.2772  155.2593 H   0  0  0  0  0  0  0  0  0  0  0  0  # atno 10764 bound_to 10752
  154.4826  135.5913  153.6457 H   0  0  0  0  0  0  0  0  0  0  0  0  # atno 10765 bound_to 10752
  139.9363  134.9639  156.8422 H   0  0  0  0  0  0  0  0  0  0  0  0  # atno 11005 bound_to 11000
  146.2878  139.7054  142.9183 LP  0  0  0  0  0  0  0  0  0  0  0  0  # atno 17320 bound_to 7965
  145.4266  141.0411  143.2934 LP  0  0  0  0  0  0  0  0  0  0  0  0  # atno 17321 bound_to 7965
  139.9145  144.6836  150.8526 LP  0  0  0  0  0  0  0  0  0  0  0  0  # atno 17342 bound_to 10162
  140.7701  143.3419  151.2191 LP  0  0  0  0  0  0  0  0  0  0  0  0  # atno 17343 bound_to 10162
  156.2915  130.7126  151.1976 LP  0  0  0  0  0  0  0  0  0  0  0  0  # atno 17370 bound_to 10713
  157.7394  131.0530  150.5236 LP  0  0  0  0  0  0  0  0  0  0  0  0  # atno 17371 bound_to 10713
  140.6068  134.0120  155.7560 LP  0  0  0  0  0  0  0  0  0  0  0  0  # atno 17394 bound_to 11000
  141.0978  133.9816  157.3131 LP  0  0  0  0  0  0  0  0  0  0  0  0  # atno 17395 bound_to 11000

$$$$
