AV-unprocessed.smi:1644|AV-procd|sdf|6592|dock6
  -GOLD-   22720 7293D 1   1.00000     0.00000
 Structure written by MMmdl.
 48 50  0  0  0  0  0  0  0  0  2 V2000
  153.7006  142.7507  160.8186 C   0  0  0  0  0  0  0  0  0  0  0  0
  152.5187  142.4590  159.8877 C   0  0  0  0  0  0  0  0  0  0  0  0
  152.8117  141.2984  158.9123 C   0  0  0  0  0  0  0  0  0  0  0  0
  151.5787  140.6298  158.2565 C   0  0  2  0  0  0  0  0  0  0  0  0
  151.9601  139.7129  157.2027 N   0  5  0  0  0  0  0  0  0  0  0  0
  151.3371  140.0905  156.0615 C   0  0  0  0  0  0  0  0  0  0  0  0
  151.4334  139.5520  154.9590 O   0  0  0  0  0  0  0  0  0  0  0  0
  150.5722  141.1817  156.2634 N   0  0  0  0  0  0  0  0  0  0  0  0
  149.7970  141.8720  155.2278 C   0  0  0  0  0  0  0  0  0  0  0  0
  148.9039  140.8914  154.4405 C   0  0  2  0  0  0  0  0  0  0  0  0
  149.6547  140.3547  153.3680 O   0  0  0  0  0  0  0  0  0  0  0  0
  147.6606  141.5919  153.8605 C   0  0  0  0  0  0  0  0  0  0  0  0
  147.0579  142.5195  154.8009 N   0  0  0  0  0  0  0  0  0  0  0  0
  146.9833  142.3910  156.1395 C   0  0  0  0  0  0  0  0  0  0  0  0
  146.3766  143.3656  156.8117 N   0  0  0  0  0  0  0  0  0  0  0  0
  146.0194  144.2283  155.7892 C   0  0  0  0  0  0  0  0  0  0  0  0
  145.3416  145.4666  155.8290 C   0  0  0  0  0  0  0  0  0  0  0  0
  145.0833  146.1898  154.6425 C   0  0  0  0  0  0  0  0  0  0  0  0
  144.3570  147.5205  154.7316 C   0  0  0  0  0  0  0  0  0  0  0  0
  145.5022  145.6733  153.3898 C   0  0  0  0  0  0  0  0  0  0  0  0
  145.2415  146.4346  152.1022 C   0  0  0  0  0  0  0  0  0  0  0  0
  146.1750  144.4349  153.3318 C   0  0  0  0  0  0  0  0  0  0  0  0
  146.4299  143.7272  154.5196 C   0  0  0  0  0  0  0  0  0  0  0  0
  150.6598  141.5919  157.5320 C   0  0  0  0  0  0  0  0  0  0  0  0
  150.1224  142.5720  158.0487 O   0  0  0  0  0  0  0  0  0  0  0  0
  153.4666  143.5715  161.4969 H   0  0  0  0  0  0  0  0  0  0  0  0
  154.5885  143.0308  160.2511 H   0  0  0  0  0  0  0  0  0  0  0  0
  153.9497  141.8785  161.4235 H   0  0  0  0  0  0  0  0  0  0  0  0
  151.6429  142.2314  160.4955 H   0  0  0  0  0  0  0  0  0  0  0  0
  152.2781  143.3634  159.3284 H   0  0  0  0  0  0  0  0  0  0  0  0
  153.4740  141.6574  158.1233 H   0  0  0  0  0  0  0  0  0  0  0  0
  153.3797  140.5324  159.4416 H   0  0  0  0  0  0  0  0  0  0  0  0
  150.9966  140.1272  159.0300 H   0  0  0  0  0  0  0  0  0  0  0  0
  149.1758  142.6228  155.7189 H   0  0  0  0  0  0  0  0  0  0  0  0
  150.4453  142.4383  154.5564 H   0  0  0  0  0  0  0  0  0  0  0  0
  148.5805  140.0733  155.0859 H   0  0  0  0  0  0  0  0  0  0  0  0
  150.0034  139.5185  153.6380 H   0  0  0  0  0  0  0  0  0  0  0  0
  147.9295  142.1529  152.9646 H   0  0  0  0  0  0  0  0  0  0  0  0
  146.9126  140.8576  153.5573 H   0  0  0  0  0  0  0  0  0  0  0  0
  147.3989  141.5338  156.6491 H   0  0  0  0  0  0  0  0  0  0  0  0
  145.0225  145.8592  156.7834 H   0  0  0  0  0  0  0  0  0  0  0  0
  143.4376  147.4945  154.1464 H   0  0  0  0  0  0  0  0  0  0  0  0
  144.9873  148.3249  154.3521 H   0  0  0  0  0  0  0  0  0  0  0  0
  144.0907  147.7610  155.7615 H   0  0  0  0  0  0  0  0  0  0  0  0
  145.6202  145.8918  151.2356 H   0  0  0  0  0  0  0  0  0  0  0  0
  145.7331  147.4073  152.1282 H   0  0  0  0  0  0  0  0  0  0  0  0
  144.1722  146.5898  151.9581 H   0  0  0  0  0  0  0  0  0  0  0  0
  146.5003  144.0288  152.3851 H   0  0  0  0  0  0  0  0  0  0  0  0
  1  2  1  0  0  0  0
  1 26  1  0  0  0  0
  1 27  1  0  0  0  0
  1 28  1  0  0  0  0
  2  3  1  0  0  0  0
  2 29  1  0  0  0  0
  2 30  1  0  0  0  0
  3  4  1  0  0  0  0
  3 31  1  0  0  0  0
  3 32  1  0  0  0  0
  4 24  1  0  0  0  0
  4  5  1  0  0  0  0
  4 33  1  0  0  0  0
  5  6  1  0  0  0  0
  6  7  2  0  0  0  0
  6  8  1  0  0  0  0
  8  9  1  0  0  0  0
  8 24  1  0  0  0  0
  9 10  1  0  0  0  0
  9 34  1  0  0  0  0
  9 35  1  0  0  0  0
 10 11  1  0  0  0  0
 10 12  1  0  0  0  0
 10 36  1  0  0  0  0
 11 37  1  0  0  0  0
 12 13  1  0  0  0  0
 12 38  1  0  0  0  0
 12 39  1  0  0  0  0
 13 23  1  0  0  0  0
 13 14  1  0  0  0  0
 14 15  2  0  0  0  0
 14 40  1  0  0  0  0
 15 16  1  0  0  0  0
 16 23  2  0  0  0  0
 16 17  1  0  0  0  0
 17 18  2  0  0  0  0
 17 41  1  0  0  0  0
 18 19  1  0  0  0  0
 18 20  1  0  0  0  0
 19 42  1  0  0  0  0
 19 43  1  0  0  0  0
 19 44  1  0  0  0  0
 20 21  1  0  0  0  0
 20 22  2  0  0  0  0
 21 45  1  0  0  0  0
 21 46  1  0  0  0  0
 21 47  1  0  0  0  0
 22 23  1  0  0  0  0
 22 48  1  0  0  0  0
 24 25  2  0  0  0  0
M  CHG  1   5  -1
M  END
> <s_m_source_file>
AV-unprocessed.smi

> <i_m_source_file_index>
1644

> <i_lp_mmshare_version>
43012

> <i_f3d_flags>
0

> <s_epik_input>
W0NIM11bQ0gyXVtDSDJdW0NAQEhdMVtOSF1DKD1PKU4oQzE9TylbQ0gyXVtDQEhdKFtPSF0pW0NIMl1uKFtjSF1uMiljKGMyMylbY0hdYyhbQ0gzXSljKFtjSF0zKVtDSDNd

> <s_epik_cmdline>
J2VwaWtfcHl0aG9uJywgJy1waCcsICc3LjAnLCAnLXRuJywgJzgnLCAnLW1hJywgJzIwMCcsICctbWV0YWxfYmluZGluZycsICctaW1hZScsICc8aW5maWxlLm1hZT4nLCAnLW9tYWUnLCAnPG91dGZpbGUubWFlPic=

> <r_lp_tautomer_probability>
1

> <r_epik_Ionization_Penalty>
5.95212

> <r_epik_Ionization_Penalty_Charging>
5.84419

> <r_epik_Ionization_Penalty_Neutral>
0.107924

> <r_epik_State_Penalty>
5.94088

> <r_epik_Charging_Adjusted_Penalty>
11.7851

> <i_epik_Tot_Q>
-1

> <i_epik_Tot_abs_Q>
1

> <r_epik_Metal_State_Penalty>
1.99095

> <b_epik_Metal_Only>
1

> <s_lp_Force_Field>
OPLS_2005

> <r_lp_Energy>
19.2974

> <b_lp_Chiralities_Consistent>
1

> <s_lp_Variant>
AV-unprocessed.smi:1644-9

> <Gold.Version>
5.8.1

> <Gold.Id.Protein>
6NUR|6NUR_protein|mol2

> <Gold.PLP.Fitness>
51.4577

> <Gold.PLP.PLP>
-47.5569

> <Gold.PLP.part.hbond>
-2.4017

> <Gold.PLP.part.metal>
0.0000

> <Gold.PLP.part.buried>
-1.3312

> <Gold.PLP.part.nonpolar>
-42.9945

> <Gold.PLP.part.repulsive>
0.2599

> <Gold.PLP.ligand.clash>
0.0000

> <Gold.PLP.ligand.torsion>
1.0325

> <Gold.PLP.Chemscore.Hbond>
1.9588

> <Gold.PLP.Chemscore.CHOScore>
0.0000

> <Gold.PLP.Chemscore.Metal>
0.0000

> <Gold.Chemscore.Hbonds>
donor molecule, donor type, donor heavy atom, donor atom, acceptor molecule, acceptor atom, score
      P1  H  7989  7998       L1     7  1.00
      P1  H  8011  8017       L1    11  0.21

> <Gold.PLP.Chemscore.Internal.Correction>
0.0895

> <Gold.Rescore>
     Score         DG    S(hbond)    S(metal)    S(lipo)     H(rot)  DE(clash)    DE(int)     intcor
     11.16     -15.61       1.92        0.00      89.72       2.65       1.35       3.10       ----

> <Gold.Chemscore.Fitness>
11.1621

> <Gold.Chemscore.DG>
-15.6107

> <Gold.Chemscore.ZeroCoef>
-5.4800

> <Gold.Chemscore.Hbond>
1.9202

> <Gold.Chemscore.Metal>
0.0000

> <Gold.Chemscore.Lipo>
89.7230

> <Gold.Chemscore.Internal_Hbond>
0.0000

> <Gold.Chemscore.DEClash>
1.3455

> <Gold.Chemscore.DEInternal>
3.1031

> <Gold.Chemscore.Rot>
2.6486

> <Gold.Chemscore.Internal.Correction>
   9.000000E+99

> <Gold.Chemscore.Hbonds>
donor molecule, donor type, donor heavy atom, donor atom, acceptor molecule, acceptor atom, score
      P1  H  7989  7998       L1     7  0.80
      P1  H  8011  8017       L1    11  0.02

> <Gold.Chemscore.Hbond.Weighted>
-6.4136

> <Gold.Chemscore.Metal.Weighted>
-0.0000

> <Gold.Chemscore.Lipo.Weighted>
-10.4976

> <Gold.Chemscore.Internal_Hbond.Weighted>
0.0000

> <Gold.Chemscore.DEClash.Weighted>
1.3455

> <Gold.Chemscore.DEInternal.Weighted>
3.1031

> <Gold.Chemscore.Rot.Weighted>
6.7804

> <Gold.Chemscore.Internal.Correction.Weighted>
   9.000000E+99

> <Gold.Protein.RotatedTorsions>
[ 6907 6896 6895 6894 ] final  171.85 input  -60.11 | X-H torsion
[ 7974 7965 7964 7962 ] final   52.77 input  175.53 | X-H torsion
[ 8008 7997 7996 7995 ] final   20.14 input   59.86 | X-H torsion
[ 10167 10162 10161 10158 ] final   27.00 input  -65.29 | X-H torsion
[ 10718 10713 10712 10709 ] final  -24.53 input   66.30 | X-H torsion
[ 10763 10752 10751 10750 ] final -141.48 input  -60.55 | X-H torsion
[ 11005 11000 10999 10996 ] final -179.35 input  -57.11 | X-H torsion

> <Gold.Protein.ActiveResidues>
 VAL166  LYS551  ARG553  GLY616  TRP617  ASP618  TYR619  PRO620  LYS621  CYS622 
 ASP623  PHE694  ASN695  SER759  ASP760  ASP761  ALA762  ILE779  LEU786  VAL792 
 PHE793  MET794  SER795  GLU796  ALA797  LYS798  CYS799  TRP800  GLU811  SER814 

> <Gold.Protein.RotatedAtoms>
  151.7937  133.3362  159.3506 H   0  0  0  0  0  0  0  0  0  0  0  0  # atno 6907 bound_to 6896
  150.7383  134.5818  159.5952 H   0  0  0  0  0  0  0  0  0  0  0  0  # atno 6908 bound_to 6896
  152.3192  134.7403  160.0369 H   0  0  0  0  0  0  0  0  0  0  0  0  # atno 6909 bound_to 6896
  145.9780  139.4214  143.0149 H   0  0  0  0  0  0  0  0  0  0  0  0  # atno 7974 bound_to 7965
  154.9311  140.3040  155.5167 H   0  0  0  0  0  0  0  0  0  0  0  0  # atno 8008 bound_to 7997
  156.3003  140.2353  156.4308 H   0  0  0  0  0  0  0  0  0  0  0  0  # atno 8009 bound_to 7997
  154.8236  140.0422  157.1417 H   0  0  0  0  0  0  0  0  0  0  0  0  # atno 8010 bound_to 7997
  140.4976  144.0367  150.6320 H   0  0  0  0  0  0  0  0  0  0  0  0  # atno 10167 bound_to 10162
  156.4764  130.4535  149.6838 H   0  0  0  0  0  0  0  0  0  0  0  0  # atno 10718 bound_to 10713
  154.8544  135.3523  154.5874 H   0  0  0  0  0  0  0  0  0  0  0  0  # atno 10763 bound_to 10752
  153.6484  135.6995  153.5222 H   0  0  0  0  0  0  0  0  0  0  0  0  # atno 10764 bound_to 10752
  153.2914  135.4233  155.1128 H   0  0  0  0  0  0  0  0  0  0  0  0  # atno 10765 bound_to 10752
  140.4196  134.6618  157.4657 H   0  0  0  0  0  0  0  0  0  0  0  0  # atno 11005 bound_to 11000
  145.7811  140.9856  143.1099 LP  0  0  0  0  0  0  0  0  0  0  0  0  # atno 17320 bound_to 7965
  144.6854  139.9565  143.7479 LP  0  0  0  0  0  0  0  0  0  0  0  0  # atno 17321 bound_to 7965
  140.3654  143.2884  152.0337 LP  0  0  0  0  0  0  0  0  0  0  0  0  # atno 17342 bound_to 10162
  139.4864  144.6271  151.7143 LP  0  0  0  0  0  0  0  0  0  0  0  0  # atno 17343 bound_to 10162
  156.3566  130.7460  151.2426 LP  0  0  0  0  0  0  0  0  0  0  0  0  # atno 17370 bound_to 10713
  157.7487  131.0362  150.4398 LP  0  0  0  0  0  0  0  0  0  0  0  0  # atno 17371 bound_to 10713
  140.0209  134.6548  155.9240 LP  0  0  0  0  0  0  0  0  0  0  0  0  # atno 17394 bound_to 11000
  141.1789  133.6543  156.4940 LP  0  0  0  0  0  0  0  0  0  0  0  0  # atno 17395 bound_to 11000

$$$$
