AV-unprocessed.smi:3306|AV-procd|sdf|12702|dock7
  -GOLD-   2272019 33D 1   1.00000     0.00000
 Structure written by MMmdl.
 45 46  0  0  0  0  0  0  0  0  3 V2000
  146.7872  138.8449  152.0251 C   0  0  0  0  0  0  0  0  0  0  0  0
  146.8417  138.3458  153.4824 C   0  0  0  0  0  0  0  0  0  0  0  0
  146.1457  139.3246  154.4427 C   0  0  0  0  0  0  0  0  0  0  0  0
  148.2207  138.0174  153.9495 N   0  3  2  0  0  0  0  0  0  0  0  0
  148.2933  137.1408  155.1498 C   0  0  0  0  0  0  0  0  0  0  0  0
  149.7381  136.6727  155.3984 C   0  0  0  0  0  0  0  0  0  0  0  0
  150.7181  137.8566  155.5401 C   0  0  2  0  0  0  0  0  0  0  0  0
  150.5432  138.6012  156.8108 N   0  3  0  0  0  0  0  0  0  0  0  0
  151.3038  139.8644  156.9166 C   0  0  0  0  0  0  0  0  0  0  0  0
  151.1231  140.4986  158.3025 C   0  0  0  0  0  0  0  0  0  0  0  0
  151.6112  141.9344  158.3441 C   0  0  0  0  0  0  0  0  0  0  0  0
  152.5720  142.3441  159.2930 C   0  0  0  0  0  0  0  0  0  0  0  0
  152.9917  143.6886  159.2840 C   0  0  0  0  0  0  0  0  0  0  0  0
  152.4387  144.5658  158.3309 C   0  0  0  0  0  0  0  0  0  0  0  0
  151.4858  144.0577  157.4256 C   0  0  0  0  0  0  0  0  0  0  0  0
  151.0768  142.7700  157.4256 N   0  0  0  0  0  0  0  0  0  0  0  0
  150.5621  138.7968  154.3304 C   0  0  0  0  0  0  0  0  0  0  0  0
  149.0974  139.2097  154.0901 C   0  0  0  0  0  0  0  0  0  0  0  0
  145.7529  138.9657  151.7011 H   0  0  0  0  0  0  0  0  0  0  0  0
  147.2588  138.1427  151.3379 H   0  0  0  0  0  0  0  0  0  0  0  0
  147.2741  139.8130  151.9064 H   0  0  0  0  0  0  0  0  0  0  0  0
  146.2618  137.4230  153.5303 H   0  0  0  0  0  0  0  0  0  0  0  0
  145.0963  139.4490  154.1735 H   0  0  0  0  0  0  0  0  0  0  0  0
  146.6021  140.3140  154.4241 H   0  0  0  0  0  0  0  0  0  0  0  0
  146.1773  138.9597  155.4698 H   0  0  0  0  0  0  0  0  0  0  0  0
  147.9242  137.6732  156.0273 H   0  0  0  0  0  0  0  0  0  0  0  0
  147.6562  136.2665  155.0196 H   0  0  0  0  0  0  0  0  0  0  0  0
  149.7773  136.0187  156.2689 H   0  0  0  0  0  0  0  0  0  0  0  0
  150.0535  136.0553  154.5559 H   0  0  0  0  0  0  0  0  0  0  0  0
  151.7393  137.4721  155.5314 H   0  0  0  0  0  0  0  0  0  0  0  0
  149.5648  138.8413  156.8887 H   0  0  0  0  0  0  0  0  0  0  0  0
  152.3626  139.6780  156.7367 H   0  0  0  0  0  0  0  0  0  0  0  0
  150.9609  140.5563  156.1460 H   0  0  0  0  0  0  0  0  0  0  0  0
  150.0708  140.4771  158.5905 H   0  0  0  0  0  0  0  0  0  0  0  0
  151.6588  139.9155  159.0530 H   0  0  0  0  0  0  0  0  0  0  0  0
  152.9791  141.6495  160.0130 H   0  0  0  0  0  0  0  0  0  0  0  0
  153.7242  144.0410  159.9953 H   0  0  0  0  0  0  0  0  0  0  0  0
  152.7370  145.6031  158.2949 H   0  0  0  0  0  0  0  0  0  0  0  0
  151.0417  144.7018  156.6810 H   0  0  0  0  0  0  0  0  0  0  0  0
  151.1862  139.6828  154.4554 H   0  0  0  0  0  0  0  0  0  0  0  0
  150.9347  138.2917  153.4380 H   0  0  0  0  0  0  0  0  0  0  0  0
  149.0460  139.8167  153.1855 H   0  0  0  0  0  0  0  0  0  0  0  0
  148.7443  139.8365  154.9099 H   0  0  0  0  0  0  0  0  0  0  0  0
  148.6248  137.4826  153.1935 H   0  0  0  0  0  0  0  0  0  0  0  0
  150.7866  138.0024  157.5868 H   0  0  0  0  0  0  0  0  0  0  0  0
  1  2  1  0  0  0  0
  1 19  1  0  0  0  0
  1 20  1  0  0  0  0
  1 21  1  0  0  0  0
  2  3  1  0  0  0  0
  2  4  1  0  0  0  0
  2 22  1  0  0  0  0
  3 23  1  0  0  0  0
  3 24  1  0  0  0  0
  3 25  1  0  0  0  0
  4 18  1  0  0  0  0
  4  5  1  0  0  0  0
  4 44  1  0  0  0  0
  5  6  1  0  0  0  0
  5 26  1  0  0  0  0
  5 27  1  0  0  0  0
  6  7  1  0  0  0  0
  6 28  1  0  0  0  0
  6 29  1  0  0  0  0
  7  8  1  0  0  0  0
  7 17  1  0  0  0  0
  7 30  1  0  0  0  0
  8  9  1  0  0  0  0
  8 31  1  0  0  0  0
  8 45  1  0  0  0  0
  9 10  1  0  0  0  0
  9 32  1  0  0  0  0
  9 33  1  0  0  0  0
 10 11  1  0  0  0  0
 10 34  1  0  0  0  0
 10 35  1  0  0  0  0
 11 16  1  0  0  0  0
 11 12  2  0  0  0  0
 12 13  1  0  0  0  0
 12 36  1  0  0  0  0
 13 14  2  0  0  0  0
 13 37  1  0  0  0  0
 14 15  1  0  0  0  0
 14 38  1  0  0  0  0
 15 16  2  0  0  0  0
 15 39  1  0  0  0  0
 17 18  1  0  0  0  0
 17 40  1  0  0  0  0
 17 41  1  0  0  0  0
 18 42  1  0  0  0  0
 18 43  1  0  0  0  0
M  CHG  1   4   1
M  CHG  1   8   1
M  END
> <s_m_source_file>
AV-unprocessed.smi

> <i_m_source_file_index>
3306

> <i_lp_mmshare_version>
43012

> <i_f3d_flags>
0

> <s_epik_input>
W0NIM11bQ0hdKFtDSDNdKU4xW0NIMl1bQ0gyXVtDSF0oW0NIMl1bQ0gyXTEpW05IXVtDSDJdW0NIMl1jMltjSF1bY0hdW2NIXVtjSF1uMg==

> <s_epik_cmdline>
J2VwaWtfcHl0aG9uJywgJy1waCcsICc3LjAnLCAnLXRuJywgJzgnLCAnLW1hJywgJzIwMCcsICctbWV0YWxfYmluZGluZycsICctaW1hZScsICc8aW5maWxlLm1hZT4nLCAnLW9tYWUnLCAnPG91dGZpbGUubWFlPic=

> <r_epik_Ionization_Penalty>
0.0800465

> <r_epik_Ionization_Penalty_Charging>
0.0790817

> <r_epik_Ionization_Penalty_Neutral>
0.000964829

> <r_epik_State_Penalty>
0.0665964

> <r_epik_Charging_Adjusted_Penalty>
0.145678

> <i_epik_Tot_Q>
2

> <i_epik_Tot_abs_Q>
2

> <r_epik_Metal_State_Penalty>
0.0683331

> <b_epik_Metal_Only>
0

> <s_lp_Force_Field>
OPLS_2005

> <r_lp_Energy>
31.8931

> <b_lp_Chiralities_Consistent>
1

> <s_lp_Variant>
AV-unprocessed.smi:3306-2

> <Gold.Version>
5.8.1

> <Gold.Id.Protein>
6NUR|6NUR_protein|mol2

> <Gold.PLP.Fitness>
44.1384

> <Gold.PLP.PLP>
-35.5672

> <Gold.PLP.part.hbond>
-1.0000

> <Gold.PLP.part.metal>
0.0000

> <Gold.PLP.part.buried>
-2.5710

> <Gold.PLP.part.nonpolar>
-32.9135

> <Gold.PLP.part.repulsive>
0.1027

> <Gold.PLP.ligand.clash>
0.0000

> <Gold.PLP.ligand.torsion>
0.2688

> <Gold.PLP.Chemscore.Hbond>
2.0000

> <Gold.PLP.Chemscore.CHOScore>
1.0000

> <Gold.PLP.Chemscore.Metal>
0.0000

> <Gold.Chemscore.Hbonds>
donor molecule, donor type, donor heavy atom, donor atom, acceptor molecule, acceptor atom, score
      L1  H     4    44       P1  7948  2.00
      L1  C    15    39       P1  8028  1.00

> <Gold.PLP.Chemscore.Internal.Correction>
0.1089

> <Gold.Rescore>
     Score         DG    S(hbond)    S(metal)    S(lipo)     H(rot)  DE(clash)    DE(int)     intcor
     17.64     -17.92       1.00        0.00     109.89       1.47       0.09       0.18       ----

> <Gold.Chemscore.Fitness>
17.6449

> <Gold.Chemscore.DG>
-17.9157

> <Gold.Chemscore.ZeroCoef>
-5.4800

> <Gold.Chemscore.Hbond>
0.9991

> <Gold.Chemscore.Metal>
0.0000

> <Gold.Chemscore.Lipo>
109.8862

> <Gold.Chemscore.Internal_Hbond>
0.0000

> <Gold.Chemscore.DEClash>
0.0875

> <Gold.Chemscore.DEInternal>
0.1834

> <Gold.Chemscore.Rot>
1.4679

> <Gold.Chemscore.Internal.Correction>
   9.000000E+99

> <Gold.Chemscore.Hbonds>
donor molecule, donor type, donor heavy atom, donor atom, acceptor molecule, acceptor atom, score
      L1  H     4    44       P1  7948  1.00

> <Gold.Chemscore.Hbond.Weighted>
-3.3369

> <Gold.Chemscore.Metal.Weighted>
-0.0000

> <Gold.Chemscore.Lipo.Weighted>
-12.8567

> <Gold.Chemscore.Internal_Hbond.Weighted>
0.0000

> <Gold.Chemscore.DEClash.Weighted>
0.0875

> <Gold.Chemscore.DEInternal.Weighted>
0.1834

> <Gold.Chemscore.Rot.Weighted>
3.7579

> <Gold.Chemscore.Internal.Correction.Weighted>
   9.000000E+99

> <Gold.Protein.RotatedTorsions>
[ 6907 6896 6895 6894 ] final   -7.85 input  -60.11 | X-H torsion
[ 7974 7965 7964 7962 ] final   81.81 input  175.53 | X-H torsion
[ 8008 7997 7996 7995 ] final -116.03 input   59.86 | X-H torsion
[ 10167 10162 10161 10158 ] final   30.29 input  -65.29 | X-H torsion
[ 10718 10713 10712 10709 ] final   18.89 input   66.30 | X-H torsion
[ 10763 10752 10751 10750 ] final -159.42 input  -60.55 | X-H torsion
[ 11005 11000 10999 10996 ] final  -68.65 input  -57.11 | X-H torsion

> <Gold.Protein.ActiveResidues>
 VAL166  LYS551  ARG553  GLY616  TRP617  ASP618  TYR619  PRO620  LYS621  CYS622 
 ASP623  PHE694  ASN695  SER759  ASP760  ASP761  ALA762  ILE779  LEU786  VAL792 
 PHE793  MET794  SER795  GLU796  ALA797  LYS798  CYS799  TRP800  GLU811  SER814 

> <Gold.Protein.RotatedAtoms>
  151.4430  135.1022  159.9675 H   0  0  0  0  0  0  0  0  0  0  0  0  # atno 6907 bound_to 6896
  152.4916  133.8511  159.7212 H   0  0  0  0  0  0  0  0  0  0  0  0  # atno 6908 bound_to 6896
  150.9075  133.6980  159.2890 H   0  0  0  0  0  0  0  0  0  0  0  0  # atno 6909 bound_to 6896
  145.6333  139.2409  143.2072 H   0  0  0  0  0  0  0  0  0  0  0  0  # atno 7974 bound_to 7965
  155.0614  140.0393  157.2578 H   0  0  0  0  0  0  0  0  0  0  0  0  # atno 8008 bound_to 7997
  154.7057  140.2682  155.6653 H   0  0  0  0  0  0  0  0  0  0  0  0  # atno 8009 bound_to 7997
  156.2774  140.2731  156.1682 H   0  0  0  0  0  0  0  0  0  0  0  0  # atno 8010 bound_to 7997
  140.4691  144.0790  150.6232 H   0  0  0  0  0  0  0  0  0  0  0  0  # atno 10167 bound_to 10162
  157.1027  130.6475  149.5876 H   0  0  0  0  0  0  0  0  0  0  0  0  # atno 10718 bound_to 10713
  154.7476  135.3084  154.8616 H   0  0  0  0  0  0  0  0  0  0  0  0  # atno 10763 bound_to 10752
  153.9412  135.6774  153.4748 H   0  0  0  0  0  0  0  0  0  0  0  0  # atno 10764 bound_to 10752
  153.1072  135.4883  154.8899 H   0  0  0  0  0  0  0  0  0  0  0  0  # atno 10765 bound_to 10752
  141.1537  133.6745  156.6478 H   0  0  0  0  0  0  0  0  0  0  0  0  # atno 11005 bound_to 11000
  146.1339  140.7148  142.9399 LP  0  0  0  0  0  0  0  0  0  0  0  0  # atno 17320 bound_to 7965
  144.7185  140.4293  143.7026 LP  0  0  0  0  0  0  0  0  0  0  0  0  # atno 17321 bound_to 7965
  140.4000  143.2709  151.9959 LP  0  0  0  0  0  0  0  0  0  0  0  0  # atno 17342 bound_to 10162
  139.4816  144.6006  151.7613 LP  0  0  0  0  0  0  0  0  0  0  0  0  # atno 17343 bound_to 10162
  155.9870  130.4907  150.7103 LP  0  0  0  0  0  0  0  0  0  0  0  0  # atno 17370 bound_to 10713
  157.4627  131.0885  151.0728 LP  0  0  0  0  0  0  0  0  0  0  0  0  # atno 17371 bound_to 10713
  140.3343  134.7902  157.4350 LP  0  0  0  0  0  0  0  0  0  0  0  0  # atno 17394 bound_to 11000
  140.0990  134.5498  155.8371 LP  0  0  0  0  0  0  0  0  0  0  0  0  # atno 17395 bound_to 11000

$$$$
