AV-unprocessed.smi:417|AV-procd|sdf|2527|dock1
  -GOLD-   2262022483D 1   1.00000     0.00000
 Structure written by MMmdl.
 37 38  0  0  0  0  0  0  0  0  1 V2000
  146.5777  142.6165  154.6623 C   0  0  0  0  0  0  0  0  0  0  0  0
  147.6826  141.7773  153.9993 C   0  0  0  0  0  0  0  0  0  0  0  0
  147.0861  140.6866  153.0939 C   0  0  0  0  0  0  0  0  0  0  0  0
  148.6063  141.1586  155.0581 C   0  0  0  0  0  0  0  0  0  0  0  0
  148.7139  139.9337  155.1300 O   0  0  0  0  0  0  0  0  0  0  0  0
  149.2509  142.0301  155.8570 N   0  0  0  0  0  0  0  0  0  0  0  0
  150.1767  141.7527  156.8978 C   0  0  0  0  0  0  0  0  0  0  0  0
  150.5142  142.8562  157.7096 C   0  0  0  0  0  0  0  0  0  0  0  0
  151.4340  142.6886  158.7621 C   0  0  0  0  0  0  0  0  0  0  0  0
  152.0105  141.4161  158.9894 C   0  0  0  0  0  0  0  0  0  0  0  0
  152.9435  141.1722  160.0207 N   0  0  0  0  0  0  0  0  0  0  0  0
  153.1772  142.2272  161.0028 C   0  0  0  0  0  0  0  0  0  0  0  0
  153.9818  141.6820  162.1953 C   0  0  0  0  0  0  0  0  0  0  0  0
  155.1885  141.0888  161.7284 O   0  0  0  0  0  0  0  0  0  0  0  0
  154.9347  139.9881  160.8616 C   0  0  0  0  0  0  0  0  0  0  0  0
  154.1599  140.4679  159.6217 C   0  0  0  0  0  0  0  0  0  0  0  0
  151.6011  140.3731  158.1269 C   0  0  0  0  0  0  0  0  0  0  0  0
  150.7186  140.5313  157.1186 N   0  0  0  0  0  0  0  0  0  0  0  0
  146.9975  143.3778  155.3209 H   0  0  0  0  0  0  0  0  0  0  0  0
  145.9037  141.9970  155.2552 H   0  0  0  0  0  0  0  0  0  0  0  0
  145.9776  143.1307  153.9113 H   0  0  0  0  0  0  0  0  0  0  0  0
  148.2762  142.4443  153.3719 H   0  0  0  0  0  0  0  0  0  0  0  0
  147.8686  140.0924  152.6204 H   0  0  0  0  0  0  0  0  0  0  0  0
  146.4844  141.1268  152.2983 H   0  0  0  0  0  0  0  0  0  0  0  0
  146.4436  140.0060  153.6541 H   0  0  0  0  0  0  0  0  0  0  0  0
  149.0622  143.0080  155.6926 H   0  0  0  0  0  0  0  0  0  0  0  0
  150.0782  143.8281  157.5290 H   0  0  0  0  0  0  0  0  0  0  0  0
  151.6884  143.5455  159.3675 H   0  0  0  0  0  0  0  0  0  0  0  0
  153.7223  143.0462  160.5315 H   0  0  0  0  0  0  0  0  0  0  0  0
  152.2276  142.6255  161.3620 H   0  0  0  0  0  0  0  0  0  0  0  0
  154.2269  142.4912  162.8834 H   0  0  0  0  0  0  0  0  0  0  0  0
  153.3980  140.9514  162.7577 H   0  0  0  0  0  0  0  0  0  0  0  0
  155.8850  139.5463  160.5618 H   0  0  0  0  0  0  0  0  0  0  0  0
  154.3777  139.2142  161.3922 H   0  0  0  0  0  0  0  0  0  0  0  0
  153.9415  139.6097  158.9875 H   0  0  0  0  0  0  0  0  0  0  0  0
  154.7813  141.1455  159.0346 H   0  0  0  0  0  0  0  0  0  0  0  0
  151.9763  139.3681  158.2499 H   0  0  0  0  0  0  0  0  0  0  0  0
  1  2  1  0  0  0  0
  1 19  1  0  0  0  0
  1 20  1  0  0  0  0
  1 21  1  0  0  0  0
  2  3  1  0  0  0  0
  2  4  1  0  0  0  0
  2 22  1  0  0  0  0
  3 23  1  0  0  0  0
  3 24  1  0  0  0  0
  3 25  1  0  0  0  0
  4  5  2  0  0  0  0
  4  6  1  0  0  0  0
  6  7  1  0  0  0  0
  6 26  1  0  0  0  0
  7 18  1  0  0  0  0
  7  8  2  0  0  0  0
  8  9  1  0  0  0  0
  8 27  1  0  0  0  0
  9 10  2  0  0  0  0
  9 28  1  0  0  0  0
 10 11  1  0  0  0  0
 10 17  1  0  0  0  0
 11 16  1  0  0  0  0
 11 12  1  0  0  0  0
 12 13  1  0  0  0  0
 12 29  1  0  0  0  0
 12 30  1  0  0  0  0
 13 14  1  0  0  0  0
 13 31  1  0  0  0  0
 13 32  1  0  0  0  0
 14 15  1  0  0  0  0
 15 16  1  0  0  0  0
 15 33  1  0  0  0  0
 15 34  1  0  0  0  0
 16 35  1  0  0  0  0
 16 36  1  0  0  0  0
 17 18  2  0  0  0  0
 17 37  1  0  0  0  0
M  END
> <s_m_source_file>
AV-unprocessed.smi

> <i_m_source_file_index>
417

> <i_lp_mmshare_version>
43012

> <i_f3d_flags>
0

> <s_epik_input>
W0NIM11bQ0hdKFtDSDNdKUMoPU8pW05IXWMxW2NIXVtjSF1jKFtjSF1uMSlOMltDSDJdW0NIMl1PW0NIMl1bQ0gyXTI=

> <s_epik_cmdline>
J2VwaWtfcHl0aG9uJywgJy1waCcsICc3LjAnLCAnLXRuJywgJzgnLCAnLW1hJywgJzIwMCcsICctbWV0YWxfYmluZGluZycsICctaW1hZScsICc8aW5maWxlLm1hZT4nLCAnLW9tYWUnLCAnPG91dGZpbGUubWFlPic=

> <r_lp_tautomer_probability>
1

> <r_epik_Ionization_Penalty>
0.00384847

> <r_epik_Ionization_Penalty_Charging>
0

> <r_epik_Ionization_Penalty_Neutral>
0.00384847

> <r_epik_State_Penalty>
0.00343319

> <r_epik_Charging_Adjusted_Penalty>
0.00343319

> <i_epik_Tot_Q>
0

> <i_epik_Tot_abs_Q>
0

> <r_epik_Metal_State_Penalty>
-0

> <b_epik_Metal_Only>
0

> <s_lp_Force_Field>
OPLS_2005

> <r_lp_Energy>
26.2331

> <b_lp_Chiralities_Consistent>
1

> <s_lp_Variant>
AV-unprocessed.smi:417-1

> <Gold.Version>
5.8.1

> <Gold.Id.Protein>
6NUR|6NUR_protein|mol2

> <Gold.PLP.Fitness>
38.1223

> <Gold.PLP.PLP>
-35.1851

> <Gold.PLP.part.hbond>
-2.0000

> <Gold.PLP.part.metal>
0.0000

> <Gold.PLP.part.buried>
-2.6829

> <Gold.PLP.part.nonpolar>
-29.7049

> <Gold.PLP.part.repulsive>
0.1759

> <Gold.PLP.ligand.clash>
0.0000

> <Gold.PLP.ligand.torsion>
0.2198

> <Gold.PLP.Chemscore.Hbond>
1.0000

> <Gold.PLP.Chemscore.CHOScore>
0.0000

> <Gold.PLP.Chemscore.Metal>
0.0000

> <Gold.Chemscore.Hbonds>
donor molecule, donor type, donor heavy atom, donor atom, acceptor molecule, acceptor atom, score
      L1  H     6    26       P1  8028  1.00

> <Gold.PLP.Chemscore.Internal.Correction>
0.3769

> <Gold.Rescore>
     Score         DG    S(hbond)    S(metal)    S(lipo)     H(rot)  DE(clash)    DE(int)     intcor
     13.18     -15.88       1.00        0.00      86.09       1.18       1.15       1.55       ----

> <Gold.Chemscore.Fitness>
13.1757

> <Gold.Chemscore.DG>
-15.8838

> <Gold.Chemscore.ZeroCoef>
-5.4800

> <Gold.Chemscore.Hbond>
0.9999

> <Gold.Chemscore.Metal>
0.0000

> <Gold.Chemscore.Lipo>
86.0853

> <Gold.Chemscore.Internal_Hbond>
0.0000

> <Gold.Chemscore.DEClash>
1.1534

> <Gold.Chemscore.DEInternal>
1.5546

> <Gold.Chemscore.Rot>
1.1750

> <Gold.Chemscore.Internal.Correction>
   9.000000E+99

> <Gold.Chemscore.Hbonds>
donor molecule, donor type, donor heavy atom, donor atom, acceptor molecule, acceptor atom, score
      L1  H     6    26       P1  8028  1.00

> <Gold.Chemscore.Hbond.Weighted>
-3.3398

> <Gold.Chemscore.Metal.Weighted>
-0.0000

> <Gold.Chemscore.Lipo.Weighted>
-10.0720

> <Gold.Chemscore.Internal_Hbond.Weighted>
0.0000

> <Gold.Chemscore.DEClash.Weighted>
1.1534

> <Gold.Chemscore.DEInternal.Weighted>
1.5546

> <Gold.Chemscore.Rot.Weighted>
3.0080

> <Gold.Chemscore.Internal.Correction.Weighted>
   9.000000E+99

> <Gold.Protein.RotatedTorsions>
[ 6907 6896 6895 6894 ] final   -5.65 input  -60.11 | X-H torsion
[ 7974 7965 7964 7962 ] final  156.60 input  175.53 | X-H torsion
[ 8008 7997 7996 7995 ] final -116.54 input   59.86 | X-H torsion
[ 10167 10162 10161 10158 ] final  161.71 input  -65.29 | X-H torsion
[ 10718 10713 10712 10709 ] final   47.53 input   66.30 | X-H torsion
[ 10763 10752 10751 10750 ] final -108.97 input  -60.55 | X-H torsion
[ 11005 11000 10999 10996 ] final    1.11 input  -57.11 | X-H torsion

> <Gold.Protein.ActiveResidues>
 VAL166  LYS551  ARG553  GLY616  TRP617  ASP618  TYR619  PRO620  LYS621  CYS622 
 ASP623  PHE694  ASN695  SER759  ASP760  ASP761  ALA762  ILE779  LEU786  VAL792 
 PHE793  MET794  SER795  GLU796  ALA797  LYS798  CYS799  TRP800  GLU811  SER814 

> <Gold.Protein.RotatedAtoms>
  151.4781  135.1050  159.9769 H   0  0  0  0  0  0  0  0  0  0  0  0  # atno 6907 bound_to 6896
  152.4790  133.8204  159.7061 H   0  0  0  0  0  0  0  0  0  0  0  0  # atno 6908 bound_to 6896
  150.8848  133.7261  159.2948 H   0  0  0  0  0  0  0  0  0  0  0  0  # atno 6909 bound_to 6896
  144.7953  139.7225  143.6204 H   0  0  0  0  0  0  0  0  0  0  0  0  # atno 7974 bound_to 7965
  155.0695  140.0393  157.2603 H   0  0  0  0  0  0  0  0  0  0  0  0  # atno 8008 bound_to 7997
  154.6994  140.2670  155.6709 H   0  0  0  0  0  0  0  0  0  0  0  0  # atno 8009 bound_to 7997
  156.2755  140.2743  156.1600 H   0  0  0  0  0  0  0  0  0  0  0  0  # atno 8010 bound_to 7997
  139.4852  144.4509  151.8831 H   0  0  0  0  0  0  0  0  0  0  0  0  # atno 10167 bound_to 10162
  157.4594  130.8187  149.7871 H   0  0  0  0  0  0  0  0  0  0  0  0  # atno 10718 bound_to 10713
  154.8166  135.4618  154.0661 H   0  0  0  0  0  0  0  0  0  0  0  0  # atno 10763 bound_to 10752
  153.2048  135.6874  153.8192 H   0  0  0  0  0  0  0  0  0  0  0  0  # atno 10764 bound_to 10752
  153.7664  135.3276  155.3322 H   0  0  0  0  0  0  0  0  0  0  0  0  # atno 10765 bound_to 10752
  140.6191  133.9678  155.8215 H   0  0  0  0  0  0  0  0  0  0  0  0  # atno 11005 bound_to 11000
  146.2220  139.5652  142.9612 LP  0  0  0  0  0  0  0  0  0  0  0  0  # atno 17320 bound_to 7965
  145.5688  141.0396  143.2185 LP  0  0  0  0  0  0  0  0  0  0  0  0  # atno 17321 bound_to 7965
  140.3966  144.2547  150.5896 LP  0  0  0  0  0  0  0  0  0  0  0  0  # atno 17342 bound_to 10162
  140.5096  143.2294  151.8555 LP  0  0  0  0  0  0  0  0  0  0  0  0  # atno 17343 bound_to 10162
  156.0022  130.3874  150.2564 LP  0  0  0  0  0  0  0  0  0  0  0  0  # atno 17370 bound_to 10713
  157.0740  131.0125  151.3180 LP  0  0  0  0  0  0  0  0  0  0  0  0  # atno 17371 bound_to 10713
  141.0755  134.0141  157.3464 LP  0  0  0  0  0  0  0  0  0  0  0  0  # atno 17394 bound_to 11000
  139.9161  135.0197  156.7885 LP  0  0  0  0  0  0  0  0  0  0  0  0  # atno 17395 bound_to 11000

$$$$
