AV-unprocessed.smi:198|AV-procd|sdf|1555|dock4
  -GOLD-   2262019423D 1   1.00000     0.00000
 Structure written by MMmdl.
 59 63  0  0  0  0  0  0  0  0  2 V2000
  143.8063  132.3589  149.4004 C   0  0  0  0  0  0  0  0  0  0  0  0
  143.6964  133.4653  150.3750 N   0  3  2  0  0  0  0  0  0  0  0  0
  144.6548  134.5619  150.0942 C   0  0  0  0  0  0  0  0  0  0  0  0
  144.4096  135.7564  151.0275 C   0  0  0  0  0  0  0  0  0  0  0  0
  144.4932  135.3258  152.5077 C   0  0  2  0  0  0  0  0  0  0  0  0
  143.5470  134.1341  152.7878 C   0  0  1  0  0  0  0  0  0  0  0  0
  142.0698  134.5754  152.8476 C   0  0  0  0  0  0  0  0  0  0  0  0
  141.8950  135.7212  153.8541 C   0  0  0  0  0  0  0  0  0  0  0  0
  142.8372  136.8909  153.5310 C   0  0  0  0  0  0  0  0  0  0  0  0
  144.2260  136.4327  153.4351 N   0  0  0  0  0  0  0  0  0  0  0  0
  145.2037  137.3725  153.5222 C   0  0  0  0  0  0  0  0  0  0  0  0
  145.6808  137.9553  152.3897 N   0  0  0  0  0  0  0  0  0  0  0  0
  146.6556  138.8666  152.4572 C   0  0  0  0  0  0  0  0  0  0  0  0
  147.2890  139.3315  153.5351 N   0  0  0  0  0  0  0  0  0  0  0  0
  146.8145  138.7544  154.6759 C   0  0  0  0  0  0  0  0  0  0  0  0
  145.7790  137.7805  154.7593 C   0  0  0  0  0  0  0  0  0  0  0  0
  145.5484  137.4510  156.0899 N   0  0  0  0  0  0  0  0  0  0  0  0
  146.4000  138.1844  156.7531 C   0  0  0  0  0  0  0  0  0  0  0  0
  147.2220  138.9733  155.9805 N   0  0  0  0  0  0  0  0  0  0  0  0
  148.2128  139.8980  156.4490 C   0  0  0  0  0  0  0  0  0  0  0  0
  149.2583  140.4859  155.4943 C   0  0  0  0  0  0  0  0  0  0  0  0
  150.3263  140.4213  156.6102 C   0  0  0  0  0  0  0  0  0  0  0  0
  151.7075  139.8743  156.2036 C   0  0  0  0  0  0  0  0  0  0  0  0
  151.6772  139.1591  154.9842 O   0  0  0  0  0  0  0  0  0  0  0  0
  150.6201  141.7427  157.3512 C   0  0  0  0  0  0  0  0  0  0  0  0
  149.4561  142.4673  157.6937 O   0  0  0  0  0  0  0  0  0  0  0  0
  149.3802  139.4314  157.3274 C   0  0  0  0  0  0  0  0  0  0  0  0
  143.7855  132.9912  151.7795 C   0  0  0  0  0  0  0  0  0  0  0  0
  144.7867  131.8837  149.4565 H   0  0  0  0  0  0  0  0  0  0  0  0
  143.6609  132.7253  148.3837 H   0  0  0  0  0  0  0  0  0  0  0  0
  143.0466  131.6002  149.5914 H   0  0  0  0  0  0  0  0  0  0  0  0
  145.6762  134.1959  150.2101 H   0  0  0  0  0  0  0  0  0  0  0  0
  144.5488  134.8847  149.0577 H   0  0  0  0  0  0  0  0  0  0  0  0
  145.1463  136.5333  150.8202 H   0  0  0  0  0  0  0  0  0  0  0  0
  143.4361  136.1933  150.8050 H   0  0  0  0  0  0  0  0  0  0  0  0
  145.5054  134.9616  152.6776 H   0  0  0  0  0  0  0  0  0  0  0  0
  143.7971  133.7449  153.7763 H   0  0  0  0  0  0  0  0  0  0  0  0
  141.7251  134.8978  151.8648 H   0  0  0  0  0  0  0  0  0  0  0  0
  141.4373  133.7347  153.1350 H   0  0  0  0  0  0  0  0  0  0  0  0
  140.8603  136.0651  153.8554 H   0  0  0  0  0  0  0  0  0  0  0  0
  142.1016  135.3564  154.8611 H   0  0  0  0  0  0  0  0  0  0  0  0
  142.5400  137.3657  152.5955 H   0  0  0  0  0  0  0  0  0  0  0  0
  142.7470  137.6459  154.3135 H   0  0  0  0  0  0  0  0  0  0  0  0
  146.9767  139.2798  151.5125 H   0  0  0  0  0  0  0  0  0  0  0  0
  146.4544  138.1646  157.8320 H   0  0  0  0  0  0  0  0  0  0  0  0
  147.6578  140.6957  156.9442 H   0  0  0  0  0  0  0  0  0  0  0  0
  149.4634  139.8233  154.6524 H   0  0  0  0  0  0  0  0  0  0  0  0
  149.0248  141.4911  155.1424 H   0  0  0  0  0  0  0  0  0  0  0  0
  152.4285  140.6851  156.0948 H   0  0  0  0  0  0  0  0  0  0  0  0
  152.1001  139.2055  156.9703 H   0  0  0  0  0  0  0  0  0  0  0  0
  152.5299  138.7795  154.8370 H   0  0  0  0  0  0  0  0  0  0  0  0
  151.1716  141.5532  158.2728 H   0  0  0  0  0  0  0  0  0  0  0  0
  151.2462  142.3956  156.7419 H   0  0  0  0  0  0  0  0  0  0  0  0
  149.1205  142.8836  156.9143 H   0  0  0  0  0  0  0  0  0  0  0  0
  149.2409  139.6225  158.3919 H   0  0  0  0  0  0  0  0  0  0  0  0
  149.6358  138.3849  157.1559 H   0  0  0  0  0  0  0  0  0  0  0  0
  143.0613  132.1927  151.9472 H   0  0  0  0  0  0  0  0  0  0  0  0
  144.7726  132.5557  151.9445 H   0  0  0  0  0  0  0  0  0  0  0  0
  142.7715  133.8553  150.2616 H   0  0  0  0  0  0  0  0  0  0  0  0
  1  2  1  0  0  0  0
  1 29  1  0  0  0  0
  1 30  1  0  0  0  0
  1 31  1  0  0  0  0
  2 28  1  0  0  0  0
  2  3  1  0  0  0  0
  2 59  1  0  0  0  0
  3  4  1  0  0  0  0
  3 32  1  0  0  0  0
  3 33  1  0  0  0  0
  4  5  1  0  0  0  0
  4 34  1  0  0  0  0
  4 35  1  0  0  0  0
  5 10  1  0  0  0  0
  5  6  1  0  0  0  0
  5 36  1  0  0  0  0
  6  7  1  0  0  0  0
  6 28  1  0  0  0  0
  6 37  1  0  0  0  0
  7  8  1  0  0  0  0
  7 38  1  0  0  0  0
  7 39  1  0  0  0  0
  8  9  1  0  0  0  0
  8 40  1  0  0  0  0
  8 41  1  0  0  0  0
  9 10  1  0  0  0  0
  9 42  1  0  0  0  0
  9 43  1  0  0  0  0
 10 11  1  0  0  0  0
 11 16  1  0  0  0  0
 11 12  2  0  0  0  0
 12 13  1  0  0  0  0
 13 14  2  0  0  0  0
 13 44  1  0  0  0  0
 14 15  1  0  0  0  0
 15 19  1  0  0  0  0
 15 16  2  0  0  0  0
 16 17  1  0  0  0  0
 17 18  2  0  0  0  0
 18 19  1  0  0  0  0
 18 45  1  0  0  0  0
 19 20  1  0  0  0  0
 20 27  1  0  0  0  0
 20 21  1  0  0  0  0
 20 46  1  0  0  0  0
 21 22  1  0  0  0  0
 21 47  1  0  0  0  0
 21 48  1  0  0  0  0
 22 23  1  0  0  0  0
 22 25  1  0  0  0  0
 22 27  1  0  0  0  0
 23 24  1  0  0  0  0
 23 49  1  0  0  0  0
 23 50  1  0  0  0  0
 24 51  1  0  0  0  0
 25 26  1  0  0  0  0
 25 52  1  0  0  0  0
 25 53  1  0  0  0  0
 26 54  1  0  0  0  0
 27 55  1  0  0  0  0
 27 56  1  0  0  0  0
 28 57  1  0  0  0  0
 28 58  1  0  0  0  0
M  CHG  1   2   1
M  END
> <s_m_source_file>
AV-unprocessed.smi

> <i_m_source_file_index>
198

> <i_lp_mmshare_version>
43012

> <i_f3d_flags>
0

> <s_epik_input>
W0NIMl0xW0NIMl1OKFtDSDNdKVtDSDJdW0NAQEhdKFtDQEhdMTIpW0NIMl1bQ0gyXVtDSDJdTjJjKG5bY0hdbjMpYyhjMzQpbltjSF1uNFtDSF0oW0NIMl01KVtDSDJdQzUoW0NIMl1bT0hdKVtDSDJdW09IXQ==

> <s_epik_cmdline>
J2VwaWtfcHl0aG9uJywgJy1waCcsICc3LjAnLCAnLXRuJywgJzgnLCAnLW1hJywgJzIwMCcsICctbWV0YWxfYmluZGluZycsICctaW1hZScsICc8aW5maWxlLm1hZT4nLCAnLW9tYWUnLCAnPG91dGZpbGUubWFlPic=

> <r_lp_tautomer_probability>
1

> <r_epik_Ionization_Penalty>
0.00239938

> <r_epik_Ionization_Penalty_Charging>
0.00138697

> <r_epik_Ionization_Penalty_Neutral>
0.00101241

> <r_epik_State_Penalty>
-0

> <r_epik_Charging_Adjusted_Penalty>
0.00138697

> <i_epik_Tot_Q>
1

> <i_epik_Tot_abs_Q>
1

> <r_epik_Metal_State_Penalty>
-0

> <b_epik_Metal_Only>
0

> <s_lp_Force_Field>
OPLS_2005

> <r_lp_Energy>
59.0053

> <b_lp_Chiralities_Consistent>
1

> <s_lp_Variant>
AV-unprocessed.smi:198-4

> <Gold.Version>
5.8.1

> <Gold.Id.Protein>
6NUR|6NUR_protein|mol2

> <Gold.PLP.Fitness>
48.7054

> <Gold.PLP.PLP>
-36.4066

> <Gold.PLP.part.hbond>
-3.0000

> <Gold.PLP.part.metal>
0.0000

> <Gold.PLP.part.buried>
-3.1869

> <Gold.PLP.part.nonpolar>
-31.3398

> <Gold.PLP.part.repulsive>
1.0393

> <Gold.PLP.ligand.clash>
0.0000

> <Gold.PLP.ligand.torsion>
1.3583

> <Gold.PLP.Chemscore.Hbond>
3.9920

> <Gold.PLP.Chemscore.CHOScore>
0.7090

> <Gold.PLP.Chemscore.Metal>
0.0000

> <Gold.Chemscore.Hbonds>
donor molecule, donor type, donor heavy atom, donor atom, acceptor molecule, acceptor atom, score
      L1  H     2    59       P1 10186  2.00
      L1  H    26    54       P1  8028  0.50
      P1  H  7989  7998       L1    24  0.44
      L1  C    13    44       P1  7957  0.44

> <Gold.PLP.Chemscore.Internal.Correction>
0.9125

> <Gold.Rescore>
     Score         DG    S(hbond)    S(metal)    S(lipo)     H(rot)  DE(clash)    DE(int)     intcor
      8.00     -11.96       1.42        0.00      82.29       3.08       0.27       3.69       ----

> <Gold.Chemscore.Fitness>
7.9984

> <Gold.Chemscore.DG>
-11.9568

> <Gold.Chemscore.ZeroCoef>
-5.4800

> <Gold.Chemscore.Hbond>
1.4158

> <Gold.Chemscore.Metal>
0.0000

> <Gold.Chemscore.Lipo>
82.2914

> <Gold.Chemscore.Internal_Hbond>
0.0000

> <Gold.Chemscore.DEClash>
0.2670

> <Gold.Chemscore.DEInternal>
3.6914

> <Gold.Chemscore.Rot>
3.0781

> <Gold.Chemscore.Internal.Correction>
   9.000000E+99

> <Gold.Chemscore.Hbonds>
donor molecule, donor type, donor heavy atom, donor atom, acceptor molecule, acceptor atom, score
      L1  H     2    59       P1 10186  0.96
      L1  H    26    54       P1  8028  0.45
      P1  H  7989  7998       L1    24  0.04

> <Gold.Chemscore.Hbond.Weighted>
-4.7287

> <Gold.Chemscore.Metal.Weighted>
-0.0000

> <Gold.Chemscore.Lipo.Weighted>
-9.6281

> <Gold.Chemscore.Internal_Hbond.Weighted>
0.0000

> <Gold.Chemscore.DEClash.Weighted>
0.2670

> <Gold.Chemscore.DEInternal.Weighted>
3.6914

> <Gold.Chemscore.Rot.Weighted>
7.8800

> <Gold.Chemscore.Internal.Correction.Weighted>
   9.000000E+99

> <Gold.Protein.RotatedTorsions>
[ 6907 6896 6895 6894 ] final  118.22 input  -60.11 | X-H torsion
[ 7974 7965 7964 7962 ] final   22.36 input  175.53 | X-H torsion
[ 8008 7997 7996 7995 ] final   34.96 input   59.86 | X-H torsion
[ 10167 10162 10161 10158 ] final  -61.77 input  -65.29 | X-H torsion
[ 10718 10713 10712 10709 ] final -122.88 input   66.30 | X-H torsion
[ 10763 10752 10751 10750 ] final   69.81 input  -60.55 | X-H torsion
[ 11005 11000 10999 10996 ] final   65.95 input  -57.11 | X-H torsion

> <Gold.Protein.ActiveResidues>
 VAL166  LYS551  ARG553  GLY616  TRP617  ASP618  TYR619  PRO620  LYS621  CYS622 
 ASP623  PHE694  ASN695  SER759  ASP760  ASP761  ALA762  ILE779  LEU786  VAL792 
 PHE793  MET794  SER795  GLU796  ALA797  LYS798  CYS799  TRP800  GLU811  SER814 

> <Gold.Protein.RotatedAtoms>
  152.4558  133.7721  159.6804 H   0  0  0  0  0  0  0  0  0  0  0  0  # atno 6907 bound_to 6896
  150.8484  133.7815  159.3040 H   0  0  0  0  0  0  0  0  0  0  0  0  # atno 6908 bound_to 6896
  151.5418  135.1071  159.9980 H   0  0  0  0  0  0  0  0  0  0  0  0  # atno 6909 bound_to 6896
  146.2032  139.7897  142.8745 H   0  0  0  0  0  0  0  0  0  0  0  0  # atno 7974 bound_to 7965
  155.1634  140.3285  155.4407 H   0  0  0  0  0  0  0  0  0  0  0  0  # atno 8008 bound_to 7997
  156.2535  140.1956  156.6690 H   0  0  0  0  0  0  0  0  0  0  0  0  # atno 8009 bound_to 7997
  154.6389  140.0573  156.9808 H   0  0  0  0  0  0  0  0  0  0  0  0  # atno 8010 bound_to 7997
  140.5984  143.2356  151.5985 H   0  0  0  0  0  0  0  0  0  0  0  0  # atno 10167 bound_to 10162
  156.1455  130.6497  150.9836 H   0  0  0  0  0  0  0  0  0  0  0  0  # atno 10718 bound_to 10713
  153.0307  135.5197  154.7345 H   0  0  0  0  0  0  0  0  0  0  0  0  # atno 10763 bound_to 10752
  154.6363  135.2906  155.0159 H   0  0  0  0  0  0  0  0  0  0  0  0  # atno 10764 bound_to 10752
  154.1093  135.6624  153.4934 H   0  0  0  0  0  0  0  0  0  0  0  0  # atno 10765 bound_to 10752
  139.9862  134.6664  156.0172 H   0  0  0  0  0  0  0  0  0  0  0  0  # atno 11005 bound_to 11000
  145.3411  141.0288  143.3392 LP  0  0  0  0  0  0  0  0  0  0  0  0  # atno 17320 bound_to 7965
  144.8731  139.5009  143.6758 LP  0  0  0  0  0  0  0  0  0  0  0  0  # atno 17321 bound_to 7965
  139.5274  144.3019  152.1066 LP  0  0  0  0  0  0  0  0  0  0  0  0  # atno 17342 bound_to 10162
  140.2195  144.4480  150.6348 LP  0  0  0  0  0  0  0  0  0  0  0  0  # atno 17343 bound_to 10162
  157.6613  131.0880  150.7831 LP  0  0  0  0  0  0  0  0  0  0  0  0  # atno 17370 bound_to 10713
  156.7903  130.4888  149.5386 LP  0  0  0  0  0  0  0  0  0  0  0  0  # atno 17371 bound_to 10713
  141.1527  133.6546  156.4063 LP  0  0  0  0  0  0  0  0  0  0  0  0  # atno 17394 bound_to 11000
  140.4997  134.6497  157.5244 LP  0  0  0  0  0  0  0  0  0  0  0  0  # atno 17395 bound_to 11000

$$$$
