AV-unprocessed.smi:81|AV-procd|sdf|786|dock10
  -GOLD-   2262017153D 1   1.00000     0.00000
 Structure written by MMmdl.
 64 67  0  0  0  0  0  0  0  0  2 V2000
  147.9241  140.6242  153.6009 C   0  0  0  0  0  0  0  0  0  0  0  0
  149.2185  140.3587  154.3871 C   0  0  0  0  0  0  0  0  0  0  0  0
  149.9852  139.1770  153.7771 C   0  0  0  0  0  0  0  0  0  0  0  0
  148.9401  140.1027  155.8861 C   0  0  0  0  0  0  0  0  0  0  0  0
  150.1471  140.0229  156.7145 N   0  0  0  0  0  0  0  0  0  0  0  0
  150.2910  138.8582  157.3941 C   0  0  0  0  0  0  0  0  0  0  0  0
  151.5186  138.2864  157.5117 N   0  0  0  0  0  0  0  0  0  0  0  0
  151.6633  137.1492  158.1985 C   0  0  0  0  0  0  0  0  0  0  0  0
  150.7335  136.4369  158.8385 N   0  0  0  0  0  0  0  0  0  0  0  0
  149.5032  137.0162  158.7317 C   0  0  0  0  0  0  0  0  0  0  0  0
  149.1961  138.2136  158.0286 C   0  0  0  0  0  0  0  0  0  0  0  0
  147.8401  138.4947  158.1333 N   0  0  0  0  0  0  0  0  0  0  0  0
  147.3716  137.5203  158.8643 C   0  0  0  0  0  0  0  0  0  0  0  0
  148.3037  136.5947  159.2779 N   0  0  0  0  0  0  0  0  0  0  0  0
  148.0628  135.4274  160.1123 C   0  0  0  0  0  0  0  0  0  0  0  0
  147.2473  135.7479  161.3929 C   0  0  1  0  0  0  0  0  0  0  0  0
  147.8681  136.8437  162.0444 O   0  0  0  0  0  0  0  0  0  0  0  0
  145.7979  136.1351  161.1138 C   0  0  0  0  0  0  0  0  0  0  0  0
  145.0839  135.7226  162.3916 C   0  0  0  0  0  0  0  0  0  0  0  0
  145.7160  134.4965  162.7142 O   0  0  0  0  0  0  0  0  0  0  0  0
  147.1100  134.6000  162.4325 C   0  0  1  0  0  0  0  0  0  0  0  0
  147.5946  133.2094  161.9941 C   0  0  0  0  0  0  0  0  0  0  0  0
  150.5281  141.2465  157.4349 C   0  0  2  0  0  0  0  0  0  0  0  0
  149.3435  141.9642  158.1155 C   0  0  0  0  0  0  0  0  0  0  0  0
  149.8281  143.1818  158.9192 C   0  0  0  0  0  0  0  0  0  0  0  0
  150.5815  144.1243  158.0553 N   0  3  1  0  0  0  0  0  0  0  0  0
  150.9566  145.3636  158.7694 C   0  0  0  0  0  0  0  0  0  0  0  0
  151.7458  143.4739  157.4040 C   0  0  0  0  0  0  0  0  0  0  0  0
  151.3072  142.2600  156.5686 C   0  0  0  0  0  0  0  0  0  0  0  0
  147.2411  139.7766  153.6643 H   0  0  0  0  0  0  0  0  0  0  0  0
  148.1354  140.8028  152.5463 H   0  0  0  0  0  0  0  0  0  0  0  0
  147.3999  141.5018  153.9790 H   0  0  0  0  0  0  0  0  0  0  0  0
  149.8597  141.2351  154.2852 H   0  0  0  0  0  0  0  0  0  0  0  0
  149.4063  138.2548  153.8368 H   0  0  0  0  0  0  0  0  0  0  0  0
  150.9294  139.0119  154.2967 H   0  0  0  0  0  0  0  0  0  0  0  0
  150.2168  139.3578  152.7271 H   0  0  0  0  0  0  0  0  0  0  0  0
  148.3011  140.8987  156.2700 H   0  0  0  0  0  0  0  0  0  0  0  0
  148.3688  139.1802  155.9985 H   0  0  0  0  0  0  0  0  0  0  0  0
  152.6680  136.7557  158.2463 H   0  0  0  0  0  0  0  0  0  0  0  0
  146.3271  137.4549  159.1323 H   0  0  0  0  0  0  0  0  0  0  0  0
  147.5417  134.6904  159.5009 H   0  0  0  0  0  0  0  0  0  0  0  0
  149.0266  134.9883  160.3736 H   0  0  0  0  0  0  0  0  0  0  0  0
  147.8681  136.6795  162.9750 H   0  0  0  0  0  0  0  0  0  0  0  0
  145.6613  137.1886  160.8650 H   0  0  0  0  0  0  0  0  0  0  0  0
  145.4046  135.5444  160.2855 H   0  0  0  0  0  0  0  0  0  0  0  0
  145.2522  136.4476  163.1894 H   0  0  0  0  0  0  0  0  0  0  0  0
  144.0095  135.5988  162.2553 H   0  0  0  0  0  0  0  0  0  0  0  0
  147.6195  134.8638  163.3613 H   0  0  0  0  0  0  0  0  0  0  0  0
  148.6615  133.2107  161.7711 H   0  0  0  0  0  0  0  0  0  0  0  0
  147.0605  132.8591  161.1107 H   0  0  0  0  0  0  0  0  0  0  0  0
  147.4288  132.4787  162.7860 H   0  0  0  0  0  0  0  0  0  0  0  0
  151.1964  140.9205  158.2331 H   0  0  0  0  0  0  0  0  0  0  0  0
  148.6166  142.2986  157.3742 H   0  0  0  0  0  0  0  0  0  0  0  0
  148.8207  141.2751  158.7796 H   0  0  0  0  0  0  0  0  0  0  0  0
  148.9700  143.6930  159.3570 H   0  0  0  0  0  0  0  0  0  0  0  0
  150.4610  142.8579  159.7470 H   0  0  0  0  0  0  0  0  0  0  0  0
  151.6391  145.1497  159.5930 H   0  0  0  0  0  0  0  0  0  0  0  0
  150.0733  145.8566  159.1765 H   0  0  0  0  0  0  0  0  0  0  0  0
  151.4458  146.0651  158.0929 H   0  0  0  0  0  0  0  0  0  0  0  0
  152.2524  144.1935  156.7596 H   0  0  0  0  0  0  0  0  0  0  0  0
  152.4664  143.1662  158.1636 H   0  0  0  0  0  0  0  0  0  0  0  0
  152.1867  141.7911  156.1269 H   0  0  0  0  0  0  0  0  0  0  0  0
  150.6902  142.6066  155.7392 H   0  0  0  0  0  0  0  0  0  0  0  0
  149.9533  144.4000  157.3137 H   0  0  0  0  0  0  0  0  0  0  0  0
  1  2  1  0  0  0  0
  1 30  1  0  0  0  0
  1 31  1  0  0  0  0
  1 32  1  0  0  0  0
  2  3  1  0  0  0  0
  2  4  1  0  0  0  0
  2 33  1  0  0  0  0
  3 34  1  0  0  0  0
  3 35  1  0  0  0  0
  3 36  1  0  0  0  0
  4  5  1  0  0  0  0
  4 37  1  0  0  0  0
  4 38  1  0  0  0  0
  5  6  1  0  0  0  0
  5 23  1  0  0  0  0
  6 11  1  0  0  0  0
  6  7  2  0  0  0  0
  7  8  1  0  0  0  0
  8  9  2  0  0  0  0
  8 39  1  0  0  0  0
  9 10  1  0  0  0  0
 10 14  1  0  0  0  0
 10 11  2  0  0  0  0
 11 12  1  0  0  0  0
 12 13  2  0  0  0  0
 13 14  1  0  0  0  0
 13 40  1  0  0  0  0
 14 15  1  0  0  0  0
 15 16  1  0  0  0  0
 15 41  1  0  0  0  0
 15 42  1  0  0  0  0
 16 21  1  0  0  0  0
 16 17  1  0  0  0  0
 16 18  1  0  0  0  0
 17 43  1  0  0  0  0
 18 19  1  0  0  0  0
 18 44  1  0  0  0  0
 18 45  1  0  0  0  0
 19 20  1  0  0  0  0
 19 46  1  0  0  0  0
 19 47  1  0  0  0  0
 20 21  1  0  0  0  0
 21 22  1  0  0  0  0
 21 48  1  0  0  0  0
 22 49  1  0  0  0  0
 22 50  1  0  0  0  0
 22 51  1  0  0  0  0
 23 29  1  0  0  0  0
 23 24  1  0  0  0  0
 23 52  1  0  0  0  0
 24 25  1  0  0  0  0
 24 53  1  0  0  0  0
 24 54  1  0  0  0  0
 25 26  1  0  0  0  0
 25 55  1  0  0  0  0
 25 56  1  0  0  0  0
 26 27  1  0  0  0  0
 26 28  1  0  0  0  0
 26 64  1  0  0  0  0
 27 57  1  0  0  0  0
 27 58  1  0  0  0  0
 27 59  1  0  0  0  0
 28 29  1  0  0  0  0
 28 60  1  0  0  0  0
 28 61  1  0  0  0  0
 29 62  1  0  0  0  0
 29 63  1  0  0  0  0
M  CHG  1  26   1
M  END
> <s_m_source_file>
AV-unprocessed.smi

> <i_m_source_file_index>
81

> <i_lp_mmshare_version>
43012

> <i_f3d_flags>
0

> <s_epik_input>
W0NIMl0xW0NIMl1OKFtDSDNdKVtDSDJdW0NIMl1bQ0hdMU4oW0NIMl1bQ0hdKFtDSDNdKVtDSDNdKWMobltjSF1uMiljKGMyMyluW2NIXW4zW0NIMl1bQ0BAXTQoW09IXSlbQ0gyXVtDSDJdT1tDQEhdNFtDSDNd

> <s_epik_cmdline>
J2VwaWtfcHl0aG9uJywgJy1waCcsICc3LjAnLCAnLXRuJywgJzgnLCAnLW1hJywgJzIwMCcsICctbWV0YWxfYmluZGluZycsICctaW1hZScsICc8aW5maWxlLm1hZT4nLCAnLW9tYWUnLCAnPG91dGZpbGUubWFlPic=

> <r_lp_tautomer_probability>
1

> <r_epik_Ionization_Penalty>
0.00272708

> <r_epik_Ionization_Penalty_Charging>
0.00158983

> <r_epik_Ionization_Penalty_Neutral>
0.00113725

> <r_epik_State_Penalty>
-0

> <r_epik_Charging_Adjusted_Penalty>
0.00158983

> <i_epik_Tot_Q>
1

> <i_epik_Tot_abs_Q>
1

> <r_epik_Metal_State_Penalty>
-0

> <b_epik_Metal_Only>
0

> <s_lp_Force_Field>
OPLS_2005

> <r_lp_Energy>
44.8479

> <b_lp_Chiralities_Consistent>
1

> <s_lp_Variant>
AV-unprocessed.smi:81-1

> <Gold.Version>
5.8.1

> <Gold.Id.Protein>
6NUR|6NUR_protein|mol2

> <Gold.PLP.Fitness>
51.2014

> <Gold.PLP.PLP>
-42.4511

> <Gold.PLP.part.hbond>
-4.0212

> <Gold.PLP.part.metal>
0.0000

> <Gold.PLP.part.buried>
-4.6171

> <Gold.PLP.part.nonpolar>
-34.3367

> <Gold.PLP.part.repulsive>
0.0728

> <Gold.PLP.ligand.clash>
0.0000

> <Gold.PLP.ligand.torsion>
2.0829

> <Gold.PLP.Chemscore.Hbond>
3.9920

> <Gold.PLP.Chemscore.CHOScore>
0.0000

> <Gold.PLP.Chemscore.Metal>
0.0000

> <Gold.Chemscore.Hbonds>
donor molecule, donor type, donor heavy atom, donor atom, acceptor molecule, acceptor atom, score
      L1  H    26    64       P1  8028  2.00
      P1  H  6896  6907       L1     9  1.00
      P1  H  6931  6943       L1    17  1.00

> <Gold.PLP.Chemscore.Internal.Correction>
0.9401

> <Gold.Rescore>
     Score         DG    S(hbond)    S(metal)    S(lipo)     H(rot)  DE(clash)    DE(int)     intcor
     14.20     -20.22       2.35        0.00     115.15       2.58       1.70       4.33       ----

> <Gold.Chemscore.Fitness>
14.1954

> <Gold.Chemscore.DG>
-20.2179

> <Gold.Chemscore.ZeroCoef>
-5.4800

> <Gold.Chemscore.Hbond>
2.3544

> <Gold.Chemscore.Metal>
0.0000

> <Gold.Chemscore.Lipo>
115.1502

> <Gold.Chemscore.Internal_Hbond>
0.0000

> <Gold.Chemscore.DEClash>
1.6954

> <Gold.Chemscore.DEInternal>
4.3270

> <Gold.Chemscore.Rot>
2.5774

> <Gold.Chemscore.Internal.Correction>
   9.000000E+99

> <Gold.Chemscore.Hbonds>
donor molecule, donor type, donor heavy atom, donor atom, acceptor molecule, acceptor atom, score
      L1  H    26    64       P1  8028  0.39
      P1  H  6896  6907       L1     9  0.95
      P1  H  6931  6943       L1    17  0.30

> <Gold.Chemscore.Hbond.Weighted>
-7.8635

> <Gold.Chemscore.Metal.Weighted>
-0.0000

> <Gold.Chemscore.Lipo.Weighted>
-13.4726

> <Gold.Chemscore.Internal_Hbond.Weighted>
0.0000

> <Gold.Chemscore.DEClash.Weighted>
1.6954

> <Gold.Chemscore.DEInternal.Weighted>
4.3270

> <Gold.Chemscore.Rot.Weighted>
6.5982

> <Gold.Chemscore.Internal.Correction.Weighted>
   9.000000E+99

> <Gold.Protein.RotatedTorsions>
[ 6907 6896 6895 6894 ] final  -33.93 input  -60.11 | X-H torsion
[ 7974 7965 7964 7962 ] final -174.47 input  175.53 | X-H torsion
[ 8008 7997 7996 7995 ] final  -31.58 input   59.86 | X-H torsion
[ 10167 10162 10161 10158 ] final   76.89 input  -65.29 | X-H torsion
[ 10718 10713 10712 10709 ] final  -76.67 input   66.30 | X-H torsion
[ 10763 10752 10751 10750 ] final -168.63 input  -60.55 | X-H torsion
[ 11005 11000 10999 10996 ] final   75.60 input  -57.11 | X-H torsion

> <Gold.Protein.ActiveResidues>
 VAL166  LYS551  ARG553  GLY616  TRP617  ASP618  TYR619  PRO620  LYS621  CYS622 
 ASP623  PHE694  ASN695  SER759  ASP760  ASP761  ALA762  ILE779  LEU786  VAL792 
 PHE793  MET794  SER795  GLU796  ALA797  LYS798  CYS799  TRP800  GLU811  SER814 

> <Gold.Protein.RotatedAtoms>
  151.0592  134.9725  159.8251 H   0  0  0  0  0  0  0  0  0  0  0  0  # atno 6907 bound_to 6896
  152.5393  134.2439  159.8883 H   0  0  0  0  0  0  0  0  0  0  0  0  # atno 6908 bound_to 6896
  151.2458  133.4332  159.2643 H   0  0  0  0  0  0  0  0  0  0  0  0  # atno 6909 bound_to 6896
  144.7132  140.1466  143.6387 H   0  0  0  0  0  0  0  0  0  0  0  0  # atno 7974 bound_to 7965
  154.4209  140.1760  156.1589 H   0  0  0  0  0  0  0  0  0  0  0  0  # atno 8008 bound_to 7997
  155.9854  140.3374  155.6678 H   0  0  0  0  0  0  0  0  0  0  0  0  # atno 8009 bound_to 7997
  155.6444  140.0683  157.2598 H   0  0  0  0  0  0  0  0  0  0  0  0  # atno 8010 bound_to 7997
  139.9874  144.5782  150.7847 H   0  0  0  0  0  0  0  0  0  0  0  0  # atno 10167 bound_to 10162
  156.0168  130.4471  150.3228 H   0  0  0  0  0  0  0  0  0  0  0  0  # atno 10718 bound_to 10713
  154.6608  135.2924  154.9869 H   0  0  0  0  0  0  0  0  0  0  0  0  # atno 10763 bound_to 10752
  154.0930  135.6588  153.4859 H   0  0  0  0  0  0  0  0  0  0  0  0  # atno 10764 bound_to 10752
  153.0428  135.5224  154.7558 H   0  0  0  0  0  0  0  0  0  0  0  0  # atno 10765 bound_to 10752
  139.9336  134.7531  156.1292 H   0  0  0  0  0  0  0  0  0  0  0  0  # atno 11005 bound_to 11000
  145.9154  139.2512  143.1413 LP  0  0  0  0  0  0  0  0  0  0  0  0  # atno 17320 bound_to 7965
  145.9674  140.8787  143.0180 LP  0  0  0  0  0  0  0  0  0  0  0  0  # atno 17321 bound_to 7965
  140.7467  143.2895  151.3371 LP  0  0  0  0  0  0  0  0  0  0  0  0  # atno 17342 bound_to 10162
  139.6365  144.0621  152.2519 LP  0  0  0  0  0  0  0  0  0  0  0  0  # atno 17343 bound_to 10162
  157.1328  131.0276  151.2962 LP  0  0  0  0  0  0  0  0  0  0  0  0  # atno 17370 bound_to 10713
  157.4536  130.7613  149.7173 LP  0  0  0  0  0  0  0  0  0  0  0  0  # atno 17371 bound_to 10713
  141.0938  133.6703  156.2600 LP  0  0  0  0  0  0  0  0  0  0  0  0  # atno 17394 bound_to 11000
  140.6135  134.5434  157.5537 LP  0  0  0  0  0  0  0  0  0  0  0  0  # atno 17395 bound_to 11000

$$$$
