AV-unprocessed.smi:2748|AV-procd|sdf|10581|dock9
  -GOLD-   2272015 33D 1   1.00000     0.00000
 Structure written by MMmdl.
 30 32  0  0  0  0  0  0  0  0  1 V2000
  146.8157  139.4304  152.4388 O   0  0  0  0  0  0  0  0  0  0  0  0
  147.7132  139.7527  153.2148 C   0  0  0  0  0  0  0  0  0  0  0  0
  148.7729  138.8733  153.4567 N   0  0  0  0  0  0  0  0  0  0  0  0
  149.8491  139.1138  154.3113 C   0  0  0  0  0  0  0  0  0  0  0  0
  150.7337  138.2671  154.4384 O   0  0  0  0  0  0  0  0  0  0  0  0
  149.8557  140.3523  154.9931 N   0  0  0  0  0  0  0  0  0  0  0  0
  150.9663  140.6361  155.8682 C   0  0  0  0  0  0  0  0  0  0  0  0
  150.5362  140.8676  157.3298 C   0  0  2  0  0  0  0  0  0  0  0  0
  150.2900  142.3667  157.6479 C   0  0  0  0  0  0  0  0  0  0  0  0
  151.2785  142.6148  158.7326 C   0  0  0  0  0  0  0  0  0  0  0  0
  151.5280  143.8093  159.4297 C   0  0  0  0  0  0  0  0  0  0  0  0
  152.5324  143.7954  160.4228 C   0  0  0  0  0  0  0  0  0  0  0  0
  153.2550  142.6087  160.6951 C   0  0  0  0  0  0  0  0  0  0  0  0
  152.9829  141.4217  159.9779 C   0  0  0  0  0  0  0  0  0  0  0  0
  151.9804  141.4514  158.9925 C   0  0  0  0  0  0  0  0  0  0  0  0
  151.5815  140.4064  158.2085 O   0  0  0  0  0  0  0  0  0  0  0  0
  148.8305  141.2599  154.7760 C   0  0  0  0  0  0  0  0  0  0  0  0
  147.7906  141.0194  153.9414 C   0  0  0  0  0  0  0  0  0  0  0  0
  146.5506  142.2017  153.7215 Cl  0  0  0  0  0  0  0  0  0  0  0  0
  148.7603  137.9902  152.9675 H   0  0  0  0  0  0  0  0  0  0  0  0
  151.6448  139.7848  155.7904 H   0  0  0  0  0  0  0  0  0  0  0  0
  151.5025  141.4906  155.4499 H   0  0  0  0  0  0  0  0  0  0  0  0
  149.6311  140.3021  157.5549 H   0  0  0  0  0  0  0  0  0  0  0  0
  150.4880  143.0193  156.7969 H   0  0  0  0  0  0  0  0  0  0  0  0
  149.2754  142.5463  158.0049 H   0  0  0  0  0  0  0  0  0  0  0  0
  150.9709  144.7087  159.2127 H   0  0  0  0  0  0  0  0  0  0  0  0
  152.7507  144.6960  160.9777 H   0  0  0  0  0  0  0  0  0  0  0  0
  154.0201  142.6106  161.4576 H   0  0  0  0  0  0  0  0  0  0  0  0
  153.5310  140.5139  160.1823 H   0  0  0  0  0  0  0  0  0  0  0  0
  148.8605  142.2088  155.2927 H   0  0  0  0  0  0  0  0  0  0  0  0
  1  2  2  0  0  0  0
  2 18  1  0  0  0  0
  2  3  1  0  0  0  0
  3 20  1  0  0  0  0
  3  4  1  0  0  0  0
  4  5  2  0  0  0  0
  4  6  1  0  0  0  0
  6  7  1  0  0  0  0
  6 17  1  0  0  0  0
  7  8  1  0  0  0  0
  7 21  1  0  0  0  0
  7 22  1  0  0  0  0
  8 16  1  0  0  0  0
  8  9  1  0  0  0  0
  8 23  1  0  0  0  0
  9 10  1  0  0  0  0
  9 24  1  0  0  0  0
  9 25  1  0  0  0  0
 10 15  2  0  0  0  0
 10 11  1  0  0  0  0
 11 12  2  0  0  0  0
 11 26  1  0  0  0  0
 12 13  1  0  0  0  0
 12 27  1  0  0  0  0
 13 14  2  0  0  0  0
 13 28  1  0  0  0  0
 14 15  1  0  0  0  0
 14 29  1  0  0  0  0
 15 16  1  0  0  0  0
 17 18  2  0  0  0  0
 17 30  1  0  0  0  0
 18 19  1  0  0  0  0
M  END
> <s_m_source_file>
AV-unprocessed.smi

> <i_m_source_file_index>
2748

> <i_lp_mmshare_version>
43012

> <i_f3d_flags>
0

> <s_epik_input>
Tz1jMVtuSF1jKD1PKW4oW2NIXWMxQ2wpW0NIMl1bQ0BIXShbQ0gyXTIpT2MoYzIzKVtjSF1bY0hdW2NIXVtjSF0z

> <s_epik_cmdline>
J2VwaWtfcHl0aG9uJywgJy1waCcsICc3LjAnLCAnLXRuJywgJzgnLCAnLW1hJywgJzIwMCcsICctbWV0YWxfYmluZGluZycsICctaW1hZScsICc8aW5maWxlLm1hZT4nLCAnLW9tYWUnLCAnPG91dGZpbGUubWFlPic=

> <r_lp_tautomer_probability>
0.999537

> <r_epik_Ionization_Penalty>
0.0203523

> <r_epik_Ionization_Penalty_Charging>
0.0203523

> <r_epik_Ionization_Penalty_Neutral>
0

> <r_epik_State_Penalty>
0.0163078

> <r_epik_Charging_Adjusted_Penalty>
0.0366602

> <i_epik_Tot_Q>
0

> <i_epik_Tot_abs_Q>
0

> <r_epik_Metal_State_Penalty>
1.99317

> <b_epik_Metal_Only>
0

> <s_lp_Force_Field>
OPLS_2005

> <r_lp_Energy>
20.6728

> <b_lp_Chiralities_Consistent>
1

> <s_lp_Variant>
AV-unprocessed.smi:2748-1

> <Gold.Version>
5.8.1

> <Gold.Id.Protein>
6NUR|6NUR_protein|mol2

> <Gold.PLP.Fitness>
46.7378

> <Gold.PLP.PLP>
-41.8106

> <Gold.PLP.part.hbond>
-1.8796

> <Gold.PLP.part.metal>
0.0000

> <Gold.PLP.part.buried>
-4.6373

> <Gold.PLP.part.nonpolar>
-36.7146

> <Gold.PLP.part.repulsive>
0.7503

> <Gold.PLP.ligand.clash>
0.0000

> <Gold.PLP.ligand.torsion>
0.4267

> <Gold.PLP.Chemscore.Hbond>
0.9263

> <Gold.PLP.Chemscore.CHOScore>
1.0000

> <Gold.PLP.Chemscore.Metal>
0.0000

> <Gold.Chemscore.Hbonds>
donor molecule, donor type, donor heavy atom, donor atom, acceptor molecule, acceptor atom, score
      L1  H     3    20       P1  7948  0.93
      L1  C    17    30       P1  8028  1.00

> <Gold.PLP.Chemscore.Internal.Correction>
0.0020

> <Gold.Rescore>
     Score         DG    S(hbond)    S(metal)    S(lipo)     H(rot)  DE(clash)    DE(int)     intcor
     17.02     -17.53       0.98        0.00     103.79       1.31       0.13       0.38       ----

> <Gold.Chemscore.Fitness>
17.0220

> <Gold.Chemscore.DG>
-17.5322

> <Gold.Chemscore.ZeroCoef>
-5.4800

> <Gold.Chemscore.Hbond>
0.9789

> <Gold.Chemscore.Metal>
0.0000

> <Gold.Chemscore.Lipo>
103.7919

> <Gold.Chemscore.Internal_Hbond>
0.0000

> <Gold.Chemscore.DEClash>
0.1318

> <Gold.Chemscore.DEInternal>
0.3784

> <Gold.Chemscore.Rot>
1.3129

> <Gold.Chemscore.Internal.Correction>
   9.000000E+99

> <Gold.Chemscore.Hbonds>
donor molecule, donor type, donor heavy atom, donor atom, acceptor molecule, acceptor atom, score
      L1  H     3    20       P1  7948  0.89

> <Gold.Chemscore.Hbond.Weighted>
-3.2695

> <Gold.Chemscore.Metal.Weighted>
-0.0000

> <Gold.Chemscore.Lipo.Weighted>
-12.1436

> <Gold.Chemscore.Internal_Hbond.Weighted>
0.0000

> <Gold.Chemscore.DEClash.Weighted>
0.1318

> <Gold.Chemscore.DEInternal.Weighted>
0.3784

> <Gold.Chemscore.Rot.Weighted>
3.3610

> <Gold.Chemscore.Internal.Correction.Weighted>
   9.000000E+99

> <Gold.Protein.RotatedTorsions>
[ 6907 6896 6895 6894 ] final  -54.65 input  -60.11 | X-H torsion
[ 7974 7965 7964 7962 ] final   58.62 input  175.53 | X-H torsion
[ 8008 7997 7996 7995 ] final  -11.49 input   59.86 | X-H torsion
[ 10167 10162 10161 10158 ] final  100.46 input  -65.29 | X-H torsion
[ 10718 10713 10712 10709 ] final  -22.42 input   66.30 | X-H torsion
[ 10763 10752 10751 10750 ] final  121.60 input  -60.55 | X-H torsion
[ 11005 11000 10999 10996 ] final  127.90 input  -57.11 | X-H torsion

> <Gold.Protein.ActiveResidues>
 VAL166  LYS551  ARG553  GLY616  TRP617  ASP618  TYR619  PRO620  LYS621  CYS622 
 ASP623  PHE694  ASN695  SER759  ASP760  ASP761  ALA762  ILE779  LEU786  VAL792 
 PHE793  MET794  SER795  GLU796  ALA797  LYS798  CYS799  TRP800  GLU811  SER814 

> <Gold.Protein.RotatedAtoms>
  150.8319  134.7576  159.6860 H   0  0  0  0  0  0  0  0  0  0  0  0  # atno 6907 bound_to 6896
  152.4422  134.5563  159.9891 H   0  0  0  0  0  0  0  0  0  0  0  0  # atno 6908 bound_to 6896
  151.5722  133.3351  159.3027 H   0  0  0  0  0  0  0  0  0  0  0  0  # atno 6909 bound_to 6896
  145.9162  139.3693  143.0506 H   0  0  0  0  0  0  0  0  0  0  0  0  # atno 7974 bound_to 7965
  154.5460  140.2301  155.8562 H   0  0  0  0  0  0  0  0  0  0  0  0  # atno 8008 bound_to 7997
  156.1903  140.3078  155.9281 H   0  0  0  0  0  0  0  0  0  0  0  0  # atno 8009 bound_to 7997
  155.3163  140.0438  157.3028 H   0  0  0  0  0  0  0  0  0  0  0  0  # atno 8010 bound_to 7997
  139.7525  144.6979  151.0411 H   0  0  0  0  0  0  0  0  0  0  0  0  # atno 10167 bound_to 10162
  156.5047  130.4596  149.6681 H   0  0  0  0  0  0  0  0  0  0  0  0  # atno 10718 bound_to 10713
  153.6167  135.3420  155.2997 H   0  0  0  0  0  0  0  0  0  0  0  0  # atno 10763 bound_to 10752
  154.8608  135.4263  154.2251 H   0  0  0  0  0  0  0  0  0  0  0  0  # atno 10764 bound_to 10752
  153.3114  135.7032  153.7184 H   0  0  0  0  0  0  0  0  0  0  0  0  # atno 10765 bound_to 10752
  139.9532  134.9618  156.8923 H   0  0  0  0  0  0  0  0  0  0  0  0  # atno 11005 bound_to 11000
  145.8608  140.9476  143.0701 LP  0  0  0  0  0  0  0  0  0  0  0  0  # atno 17320 bound_to 7965
  144.6748  140.0528  143.7478 LP  0  0  0  0  0  0  0  0  0  0  0  0  # atno 17321 bound_to 7965
  140.7799  143.4792  151.0041 LP  0  0  0  0  0  0  0  0  0  0  0  0  # atno 17342 bound_to 10162
  139.8479  143.7477  152.3179 LP  0  0  0  0  0  0  0  0  0  0  0  0  # atno 17343 bound_to 10162
  156.3298  130.7325  151.2253 LP  0  0  0  0  0  0  0  0  0  0  0  0  # atno 17370 bound_to 10713
  157.7458  131.0433  150.4736 LP  0  0  0  0  0  0  0  0  0  0  0  0  # atno 17371 bound_to 10713
  140.5670  134.0480  155.7417 LP  0  0  0  0  0  0  0  0  0  0  0  0  # atno 17394 bound_to 11000
  141.1199  133.9479  157.2750 LP  0  0  0  0  0  0  0  0  0  0  0  0  # atno 17395 bound_to 11000

$$$$
