AV-unprocessed.smi:2729|AV-procd|sdf|10526|dock9
  -GOLD-   2272014573D 1   1.00000     0.00000
 Structure written by MMmdl.
 33 34  0  0  0  0  0  0  0  0  1 V2000
  144.4188  135.6886  150.8203 C   0  0  0  0  0  0  0  0  0  0  0  0
  145.4954  135.0779  151.7418 C   0  0  1  0  0  0  0  0  0  0  0  0
  146.4913  136.0918  152.1157 N   0  0  0  0  0  0  0  0  0  0  0  0
  146.2996  137.2477  152.7718 C   0  0  0  0  0  0  0  0  0  0  0  0
  145.2017  137.6451  153.1595 O   0  0  0  0  0  0  0  0  0  0  0  0
  147.4662  137.8865  152.9629 N   0  0  0  0  0  0  0  0  0  0  0  0
  147.6973  139.1364  153.5975 C   0  0  0  0  0  0  0  0  0  0  0  0
  148.9297  139.5182  154.1810 C   0  0  0  0  0  0  0  0  0  0  0  0
  149.0266  140.7796  154.7992 C   0  0  0  0  0  0  0  0  0  0  0  0
  147.8884  141.6088  154.8186 C   0  0  0  0  0  0  0  0  0  0  0  0
  146.7039  141.2524  154.2786 N   0  0  0  0  0  0  0  0  0  0  0  0
  146.6184  140.0413  153.6881 C   0  0  0  0  0  0  0  0  0  0  0  0
  144.8675  134.4244  153.0017 C   0  0  0  0  0  0  0  0  0  0  0  0
  145.9013  133.5123  153.6727 C   0  0  0  0  0  0  0  0  0  0  0  0
  146.9186  132.8382  152.3091 S   0  0  0  0  0  0  0  0  0  0  0  0
  148.3294  133.1726  152.5571 O   0  0  0  0  0  0  0  0  0  0  0  0
  146.5065  131.4564  152.0198 O   0  0  0  0  0  0  0  0  0  0  0  0
  146.2479  133.9477  151.0107 C   0  0  0  0  0  0  0  0  0  0  0  0
  143.7216  134.9275  150.4686 H   0  0  0  0  0  0  0  0  0  0  0  0
  144.8678  136.1523  149.9414 H   0  0  0  0  0  0  0  0  0  0  0  0
  143.8276  136.4488  151.3305 H   0  0  0  0  0  0  0  0  0  0  0  0
  147.4433  135.8745  151.8590 H   0  0  0  0  0  0  0  0  0  0  0  0
  148.2957  137.3930  152.6667 H   0  0  0  0  0  0  0  0  0  0  0  0
  149.7916  138.8697  154.1810 H   0  0  0  0  0  0  0  0  0  0  0  0
  149.9520  141.1018  155.2533 H   0  0  0  0  0  0  0  0  0  0  0  0
  147.9289  142.5816  155.2861 H   0  0  0  0  0  0  0  0  0  0  0  0
  145.6550  139.7887  153.2696 H   0  0  0  0  0  0  0  0  0  0  0  0
  144.4605  135.1496  153.7059 H   0  0  0  0  0  0  0  0  0  0  0  0
  144.0257  133.8049  152.6893 H   0  0  0  0  0  0  0  0  0  0  0  0
  146.5535  134.0851  154.3323 H   0  0  0  0  0  0  0  0  0  0  0  0
  145.4489  132.7024  154.2446 H   0  0  0  0  0  0  0  0  0  0  0  0
  145.5638  133.3538  150.4033 H   0  0  0  0  0  0  0  0  0  0  0  0
  147.0509  134.2993  150.3620 H   0  0  0  0  0  0  0  0  0  0  0  0
  1  2  1  0  0  0  0
  1 19  1  0  0  0  0
  1 20  1  0  0  0  0
  1 21  1  0  0  0  0
  2 18  1  0  0  0  0
  2  3  1  0  0  0  0
  2 13  1  0  0  0  0
  3  4  1  0  0  0  0
  3 22  1  0  0  0  0
  4  5  2  0  0  0  0
  4  6  1  0  0  0  0
  6  7  1  0  0  0  0
  6 23  1  0  0  0  0
  7 12  1  0  0  0  0
  7  8  2  0  0  0  0
  8  9  1  0  0  0  0
  8 24  1  0  0  0  0
  9 10  2  0  0  0  0
  9 25  1  0  0  0  0
 10 11  1  0  0  0  0
 10 26  1  0  0  0  0
 11 12  2  0  0  0  0
 12 27  1  0  0  0  0
 13 14  1  0  0  0  0
 13 28  1  0  0  0  0
 13 29  1  0  0  0  0
 14 15  1  0  0  0  0
 14 30  1  0  0  0  0
 14 31  1  0  0  0  0
 15 16  2  0  0  0  0
 15 17  2  0  0  0  0
 15 18  1  0  0  0  0
 18 32  1  0  0  0  0
 18 33  1  0  0  0  0
M  END
> <s_m_source_file>
AV-unprocessed.smi

> <i_m_source_file_index>
2729

> <i_lp_mmshare_version>
43012

> <i_f3d_flags>
0

> <s_epik_input>
Tz1TKD1PKShbQ0gyXTEpW0NIMl1bQ0gyXVtDQEBdMShbQ0gzXSlbTkhdQyg9TylbTkhdYzJbY0hdW2NIXVtjSF1uW2NIXTI=

> <s_epik_cmdline>
J2VwaWtfcHl0aG9uJywgJy1waCcsICc3LjAnLCAnLXRuJywgJzgnLCAnLW1hJywgJzIwMCcsICctbWV0YWxfYmluZGluZycsICctaW1hZScsICc8aW5maWxlLm1hZT4nLCAnLW9tYWUnLCAnPG91dGZpbGUubWFlPic=

> <r_epik_Ionization_Penalty>
0.00438887

> <r_epik_Ionization_Penalty_Charging>
0

> <r_epik_Ionization_Penalty_Neutral>
0.00438887

> <r_epik_State_Penalty>
0.00314315

> <r_epik_Charging_Adjusted_Penalty>
0.00314315

> <i_epik_Tot_Q>
0

> <i_epik_Tot_abs_Q>
0

> <r_epik_Metal_State_Penalty>
-0

> <b_epik_Metal_Only>
0

> <s_lp_Force_Field>
OPLS_2005

> <r_lp_Energy>
5.02931

> <b_lp_Chiralities_Consistent>
1

> <s_lp_Variant>
AV-unprocessed.smi:2729-1

> <Gold.Version>
5.8.1

> <Gold.Id.Protein>
6NUR|6NUR_protein|mol2

> <Gold.PLP.Fitness>
34.4162

> <Gold.PLP.PLP>
-22.6470

> <Gold.PLP.part.hbond>
-1.6229

> <Gold.PLP.part.metal>
0.0000

> <Gold.PLP.part.buried>
-0.3531

> <Gold.PLP.part.nonpolar>
-20.9597

> <Gold.PLP.part.repulsive>
0.8216

> <Gold.PLP.ligand.clash>
0.0000

> <Gold.PLP.ligand.torsion>
0.1231

> <Gold.PLP.Chemscore.Hbond>
2.0000

> <Gold.PLP.Chemscore.CHOScore>
2.0000

> <Gold.PLP.Chemscore.Metal>
0.0000

> <Gold.Chemscore.Hbonds>
donor molecule, donor type, donor heavy atom, donor atom, acceptor molecule, acceptor atom, score
      L1  H     3    22       P1  7948  0.98
      L1  H     6    23       P1  7948  1.00
      L1  C    10    26       P1  8028  1.00
      L1  C    12    27       P1 10175  1.00

> <Gold.PLP.Chemscore.Internal.Correction>
0.0153

> <Gold.Rescore>
     Score         DG    S(hbond)    S(metal)    S(lipo)     H(rot)  DE(clash)    DE(int)     intcor
     13.67     -15.24       1.94        0.00      49.89       1.00       0.10       1.47       ----

> <Gold.Chemscore.Fitness>
13.6676

> <Gold.Chemscore.DG>
-15.2382

> <Gold.Chemscore.ZeroCoef>
-5.4800

> <Gold.Chemscore.Hbond>
1.9403

> <Gold.Chemscore.Metal>
0.0000

> <Gold.Chemscore.Lipo>
49.8942

> <Gold.Chemscore.Internal_Hbond>
0.0000

> <Gold.Chemscore.DEClash>
0.1033

> <Gold.Chemscore.DEInternal>
1.4674

> <Gold.Chemscore.Rot>
1.0000

> <Gold.Chemscore.Internal.Correction>
   9.000000E+99

> <Gold.Chemscore.Hbonds>
donor molecule, donor type, donor heavy atom, donor atom, acceptor molecule, acceptor atom, score
      L1  H     3    22       P1  7948  0.88
      L1  H     6    23       P1  7948  0.89

> <Gold.Chemscore.Hbond.Weighted>
-6.4806

> <Gold.Chemscore.Metal.Weighted>
-0.0000

> <Gold.Chemscore.Lipo.Weighted>
-5.8376

> <Gold.Chemscore.Internal_Hbond.Weighted>
0.0000

> <Gold.Chemscore.DEClash.Weighted>
0.1033

> <Gold.Chemscore.DEInternal.Weighted>
1.4674

> <Gold.Chemscore.Rot.Weighted>
2.5600

> <Gold.Chemscore.Internal.Correction.Weighted>
   9.000000E+99

> <Gold.Protein.RotatedTorsions>
[ 6907 6896 6895 6894 ] final -133.29 input  -60.11 | X-H torsion
[ 7974 7965 7964 7962 ] final  -18.98 input  175.53 | X-H torsion
[ 8008 7997 7996 7995 ] final -131.07 input   59.86 | X-H torsion
[ 10167 10162 10161 10158 ] final    3.50 input  -65.29 | X-H torsion
[ 10718 10713 10712 10709 ] final   59.54 input   66.30 | X-H torsion
[ 10763 10752 10751 10750 ] final   47.58 input  -60.55 | X-H torsion
[ 11005 11000 10999 10996 ] final    1.78 input  -57.11 | X-H torsion

> <Gold.Protein.ActiveResidues>
 VAL166  LYS551  ARG553  GLY616  TRP617  ASP618  TYR619  PRO620  LYS621  CYS622 
 ASP623  PHE694  ASN695  SER759  ASP760  ASP761  ALA762  ILE779  LEU786  VAL792 
 PHE793  MET794  SER795  GLU796  ALA797  LYS798  CYS799  TRP800  GLU811  SER814 

> <Gold.Protein.RotatedAtoms>
  150.9723  133.6331  159.2735 H   0  0  0  0  0  0  0  0  0  0  0  0  # atno 6907 bound_to 6896
  151.3616  135.0904  159.9446 H   0  0  0  0  0  0  0  0  0  0  0  0  # atno 6908 bound_to 6896
  152.5187  133.9295  159.7628 H   0  0  0  0  0  0  0  0  0  0  0  0  # atno 6909 bound_to 6896
  146.1865  140.3998  142.8474 H   0  0  0  0  0  0  0  0  0  0  0  0  # atno 7974 bound_to 7965
  155.3062  140.0455  157.3032 H   0  0  0  0  0  0  0  0  0  0  0  0  # atno 8008 bound_to 7997
  154.5459  140.2302  155.8531 H   0  0  0  0  0  0  0  0  0  0  0  0  # atno 8009 bound_to 7997
  156.1923  140.3047  155.9364 H   0  0  0  0  0  0  0  0  0  0  0  0  # atno 8010 bound_to 7997
  140.6582  143.7371  150.7692 H   0  0  0  0  0  0  0  0  0  0  0  0  # atno 10167 bound_to 10162
  157.5683  130.8888  149.9225 H   0  0  0  0  0  0  0  0  0  0  0  0  # atno 10718 bound_to 10713
  152.9798  135.5971  154.3786 H   0  0  0  0  0  0  0  0  0  0  0  0  # atno 10763 bound_to 10752
  154.3453  135.2767  155.2403 H   0  0  0  0  0  0  0  0  0  0  0  0  # atno 10764 bound_to 10752
  154.4466  135.6000  153.6219 H   0  0  0  0  0  0  0  0  0  0  0  0  # atno 10765 bound_to 10752
  140.6116  133.9743  155.8180 H   0  0  0  0  0  0  0  0  0  0  0  0  # atno 11005 bound_to 11000
  144.8406  140.6851  143.6232 LP  0  0  0  0  0  0  0  0  0  0  0  0  # atno 17320 bound_to 7965
  145.3924  139.1614  143.4222 LP  0  0  0  0  0  0  0  0  0  0  0  0  # atno 17321 bound_to 7965
  140.1035  143.4765  152.2411 LP  0  0  0  0  0  0  0  0  0  0  0  0  # atno 17342 bound_to 10162
  139.5810  144.7510  151.3640 LP  0  0  0  0  0  0  0  0  0  0  0  0  # atno 17343 bound_to 10162
  156.0730  130.3682  150.0736 LP  0  0  0  0  0  0  0  0  0  0  0  0  # atno 17370 bound_to 10713
  156.8892  130.9582  151.3590 LP  0  0  0  0  0  0  0  0  0  0  0  0  # atno 17371 bound_to 10713
  141.0804  134.0071  157.3395 LP  0  0  0  0  0  0  0  0  0  0  0  0  # atno 17394 bound_to 11000
  139.9190  135.0199  156.7991 LP  0  0  0  0  0  0  0  0  0  0  0  0  # atno 17395 bound_to 11000

$$$$
