AV-unprocessed.smi:2802|AV-procd|sdf|10806|dock9
  -GOLD-   2272015243D 1   1.00000     0.00000
 Structure written by MMmdl.
 47 48  0  0  0  0  0  0  0  0  1 V2000
  147.2472  139.8788  153.3789 C   0  0  0  0  0  0  0  0  0  0  0  0
  148.1087  139.0438  154.3374 C   0  0  1  0  0  0  0  0  0  0  0  0
  147.6375  137.5782  154.3723 C   0  0  0  0  0  0  0  0  0  0  0  0
  148.4699  136.6864  155.3222 C   0  0  0  0  0  0  0  0  0  0  0  0
  148.1276  136.9916  156.7967 C   0  0  0  0  0  0  0  0  0  0  0  0
  148.0915  135.2126  155.0690 C   0  0  0  0  0  0  0  0  0  0  0  0
  149.9866  136.8563  155.0214 C   0  0  0  0  0  0  0  0  0  0  0  0
  150.5292  138.3155  154.8986 C   0  0  2  0  0  0  0  0  0  0  0  0
  151.9599  138.3595  154.2826 C   0  0  0  0  0  0  0  0  0  0  0  0
  152.3252  137.1738  153.6046 O   0  0  0  0  0  0  0  0  0  0  0  0
  150.5356  139.0477  156.1734 N   0  0  0  0  0  0  0  0  0  0  0  0
  150.8910  140.3222  156.4187 C   0  0  0  0  0  0  0  0  0  0  0  0
  151.2977  141.1053  155.5622 O   0  0  0  0  0  0  0  0  0  0  0  0
  150.7711  140.7853  157.8717 C   0  0  0  0  0  0  0  0  0  0  0  0
  151.4263  142.1430  158.0514 C   0  0  0  0  0  0  0  0  0  0  0  0
  152.4716  142.3279  158.9804 C   0  0  0  0  0  0  0  0  0  0  0  0
  153.0653  143.5998  159.0888 C   0  0  0  0  0  0  0  0  0  0  0  0
  152.5854  144.6364  158.2636 C   0  0  0  0  0  0  0  0  0  0  0  0
  151.5831  144.4724  157.3737 N   0  0  0  0  0  0  0  0  0  0  0  0
  151.0182  143.2498  157.2760 C   0  0  0  0  0  0  0  0  0  0  0  0
  149.5974  139.1080  153.9466 C   0  0  0  0  0  0  0  0  0  0  0  0
  147.3152  139.5064  152.3561 H   0  0  0  0  0  0  0  0  0  0  0  0
  147.5631  140.9223  153.3750 H   0  0  0  0  0  0  0  0  0  0  0  0
  146.1975  139.8545  153.6729 H   0  0  0  0  0  0  0  0  0  0  0  0
  147.9859  139.4808  155.3281 H   0  0  0  0  0  0  0  0  0  0  0  0
  146.5840  137.5344  154.6526 H   0  0  0  0  0  0  0  0  0  0  0  0
  147.6923  137.1748  153.3599 H   0  0  0  0  0  0  0  0  0  0  0  0
  148.7606  136.4221  157.4779 H   0  0  0  0  0  0  0  0  0  0  0  0
  147.0923  136.7352  157.0233 H   0  0  0  0  0  0  0  0  0  0  0  0
  148.2443  138.0429  157.0445 H   0  0  0  0  0  0  0  0  0  0  0  0
  148.6542  134.5416  155.7191 H   0  0  0  0  0  0  0  0  0  0  0  0
  148.2950  134.9155  154.0395 H   0  0  0  0  0  0  0  0  0  0  0  0
  147.0314  135.0351  155.2532 H   0  0  0  0  0  0  0  0  0  0  0  0
  150.5626  136.2873  155.7513 H   0  0  0  0  0  0  0  0  0  0  0  0
  150.1879  136.3663  154.0672 H   0  0  0  0  0  0  0  0  0  0  0  0
  152.0270  139.1529  153.5376 H   0  0  0  0  0  0  0  0  0  0  0  0
  152.7106  138.5923  155.0393 H   0  0  0  0  0  0  0  0  0  0  0  0
  151.7399  137.0519  152.8730 H   0  0  0  0  0  0  0  0  0  0  0  0
  150.2289  138.5132  156.9728 H   0  0  0  0  0  0  0  0  0  0  0  0
  149.7199  140.8460  158.1573 H   0  0  0  0  0  0  0  0  0  0  0  0
  151.2368  140.0514  158.5307 H   0  0  0  0  0  0  0  0  0  0  0  0
  152.8215  141.5084  159.5910 H   0  0  0  0  0  0  0  0  0  0  0  0
  153.8716  143.7766  159.7850 H   0  0  0  0  0  0  0  0  0  0  0  0
  153.0195  145.6238  158.3192 H   0  0  0  0  0  0  0  0  0  0  0  0
  150.2263  143.1487  156.5485 H   0  0  0  0  0  0  0  0  0  0  0  0
  149.6965  138.7191  152.9318 H   0  0  0  0  0  0  0  0  0  0  0  0
  149.9198  140.1495  153.8971 H   0  0  0  0  0  0  0  0  0  0  0  0
  1  2  1  0  0  0  0
  1 22  1  0  0  0  0
  1 23  1  0  0  0  0
  1 24  1  0  0  0  0
  2 21  1  0  0  0  0
  2  3  1  0  0  0  0
  2 25  1  0  0  0  0
  3  4  1  0  0  0  0
  3 26  1  0  0  0  0
  3 27  1  0  0  0  0
  4  5  1  0  0  0  0
  4  6  1  0  0  0  0
  4  7  1  0  0  0  0
  5 28  1  0  0  0  0
  5 29  1  0  0  0  0
  5 30  1  0  0  0  0
  6 31  1  0  0  0  0
  6 32  1  0  0  0  0
  6 33  1  0  0  0  0
  7  8  1  0  0  0  0
  7 34  1  0  0  0  0
  7 35  1  0  0  0  0
  8  9  1  0  0  0  0
  8 11  1  0  0  0  0
  8 21  1  0  0  0  0
  9 10  1  0  0  0  0
  9 36  1  0  0  0  0
  9 37  1  0  0  0  0
 10 38  1  0  0  0  0
 11 12  1  0  0  0  0
 11 39  1  0  0  0  0
 12 13  2  0  0  0  0
 12 14  1  0  0  0  0
 14 15  1  0  0  0  0
 14 40  1  0  0  0  0
 14 41  1  0  0  0  0
 15 20  1  0  0  0  0
 15 16  2  0  0  0  0
 16 17  1  0  0  0  0
 16 42  1  0  0  0  0
 17 18  2  0  0  0  0
 17 43  1  0  0  0  0
 18 19  1  0  0  0  0
 18 44  1  0  0  0  0
 19 20  2  0  0  0  0
 20 45  1  0  0  0  0
 21 46  1  0  0  0  0
 21 47  1  0  0  0  0
M  END
> <s_m_source_file>
AV-unprocessed.smi

> <i_m_source_file_index>
2802

> <i_lp_mmshare_version>
43012

> <i_f3d_flags>
0

> <s_epik_input>
W0NIM11DMShbQ0gzXSlbQ0gyXVtDQEBIXShbQ0gzXSlbQ0gyXVtDQF0oW0NIMl0xKShbQ0gyXVtPSF0pW05IXUMoPU8pW0NIMl1jMltjSF1bY0hdW2NIXW5bY0hdMg==

> <s_epik_cmdline>
J2VwaWtfcHl0aG9uJywgJy1waCcsICc3LjAnLCAnLXRuJywgJzgnLCAnLW1hJywgJzIwMCcsICctbWV0YWxfYmluZGluZycsICctaW1hZScsICc8aW5maWxlLm1hZT4nLCAnLW9tYWUnLCAnPG91dGZpbGUubWFlPic=

> <r_epik_Ionization_Penalty>
0.004793

> <r_epik_Ionization_Penalty_Charging>
0

> <r_epik_Ionization_Penalty_Neutral>
0.004793

> <r_epik_State_Penalty>
0.00347421

> <r_epik_Charging_Adjusted_Penalty>
0.00347421

> <i_epik_Tot_Q>
0

> <i_epik_Tot_abs_Q>
0

> <r_epik_Metal_State_Penalty>
-0

> <b_epik_Metal_Only>
0

> <s_lp_Force_Field>
OPLS_2005

> <r_lp_Energy>
17.3779

> <b_lp_Chiralities_Consistent>
1

> <s_lp_Variant>
AV-unprocessed.smi:2802-4

> <Gold.Version>
5.8.1

> <Gold.Id.Protein>
6NUR|6NUR_protein|mol2

> <Gold.PLP.Fitness>
43.8259

> <Gold.PLP.PLP>
-35.4289

> <Gold.PLP.part.hbond>
-2.8675

> <Gold.PLP.part.metal>
0.0000

> <Gold.PLP.part.buried>
-0.4460

> <Gold.PLP.part.nonpolar>
-31.1830

> <Gold.PLP.part.repulsive>
0.1845

> <Gold.PLP.ligand.clash>
0.0000

> <Gold.PLP.ligand.torsion>
0.9453

> <Gold.PLP.Chemscore.Hbond>
2.4168

> <Gold.PLP.Chemscore.CHOScore>
1.0000

> <Gold.PLP.Chemscore.Metal>
0.0000

> <Gold.Chemscore.Hbonds>
donor molecule, donor type, donor heavy atom, donor atom, acceptor molecule, acceptor atom, score
      L1  H    10    38       P1  7949  0.96
      P1  H  7989  7998       L1    13  0.50
      P1  H 10752 10764       L1    10  0.91
      L1  C    20    45       P1  8028  0.98

> <Gold.PLP.Chemscore.Internal.Correction>
0.0371

> <Gold.Rescore>
     Score         DG    S(hbond)    S(metal)    S(lipo)     H(rot)  DE(clash)    DE(int)     intcor
     16.31     -18.62       1.86        0.00     102.99       2.00       0.07       2.24       ----

> <Gold.Chemscore.Fitness>
16.3109

> <Gold.Chemscore.DG>
-18.6159

> <Gold.Chemscore.ZeroCoef>
-5.4800

> <Gold.Chemscore.Hbond>
1.8600

> <Gold.Chemscore.Metal>
0.0000

> <Gold.Chemscore.Lipo>
102.9935

> <Gold.Chemscore.Internal_Hbond>
0.0000

> <Gold.Chemscore.DEClash>
0.0691

> <Gold.Chemscore.DEInternal>
2.2359

> <Gold.Chemscore.Rot>
2.0026

> <Gold.Chemscore.Internal.Correction>
   9.000000E+99

> <Gold.Chemscore.Hbonds>
donor molecule, donor type, donor heavy atom, donor atom, acceptor molecule, acceptor atom, score
      L1  H    10    38       P1  7949  0.92
      P1  H  7989  7998       L1    13  0.49
      P1  H 10752 10764       L1    10  0.70

> <Gold.Chemscore.Hbond.Weighted>
-6.2123

> <Gold.Chemscore.Metal.Weighted>
-0.0000

> <Gold.Chemscore.Lipo.Weighted>
-12.0502

> <Gold.Chemscore.Internal_Hbond.Weighted>
0.0000

> <Gold.Chemscore.DEClash.Weighted>
0.0691

> <Gold.Chemscore.DEInternal.Weighted>
2.2359

> <Gold.Chemscore.Rot.Weighted>
5.1267

> <Gold.Chemscore.Internal.Correction.Weighted>
   9.000000E+99

> <Gold.Protein.RotatedTorsions>
[ 6907 6896 6895 6894 ] final -118.60 input  -60.11 | X-H torsion
[ 7974 7965 7964 7962 ] final  -89.24 input  175.53 | X-H torsion
[ 8008 7997 7996 7995 ] final  158.05 input   59.86 | X-H torsion
[ 10167 10162 10161 10158 ] final  109.77 input  -65.29 | X-H torsion
[ 10718 10713 10712 10709 ] final  -49.30 input   66.30 | X-H torsion
[ 10763 10752 10751 10750 ] final  -89.31 input  -60.55 | X-H torsion
[ 11005 11000 10999 10996 ] final  -18.78 input  -57.11 | X-H torsion

> <Gold.Protein.ActiveResidues>
 VAL166  LYS551  ARG553  GLY616  TRP617  ASP618  TYR619  PRO620  LYS621  CYS622 
 ASP623  PHE694  ASN695  SER759  ASP760  ASP761  ALA762  ILE779  LEU786  VAL792 
 PHE793  MET794  SER795  GLU796  ALA797  LYS798  CYS799  TRP800  GLU811  SER814 

> <Gold.Protein.RotatedAtoms>
  150.8234  133.8214  159.3128 H   0  0  0  0  0  0  0  0  0  0  0  0  # atno 6907 bound_to 6896
  151.5965  135.1048  160.0060 H   0  0  0  0  0  0  0  0  0  0  0  0  # atno 6908 bound_to 6896
  152.4321  133.7255  159.6614 H   0  0  0  0  0  0  0  0  0  0  0  0  # atno 6909 bound_to 6896
  145.4425  140.9559  143.2067 H   0  0  0  0  0  0  0  0  0  0  0  0  # atno 7974 bound_to 7965
  156.2327  140.1869  156.7202 H   0  0  0  0  0  0  0  0  0  0  0  0  # atno 8008 bound_to 7997
  154.6050  140.0630  156.9446 H   0  0  0  0  0  0  0  0  0  0  0  0  # atno 8009 bound_to 7997
  155.2111  140.3300  155.4331 H   0  0  0  0  0  0  0  0  0  0  0  0  # atno 8010 bound_to 7997
  139.6740  144.7123  151.1635 H   0  0  0  0  0  0  0  0  0  0  0  0  # atno 10167 bound_to 10162
  156.1906  130.4152  149.9377 H   0  0  0  0  0  0  0  0  0  0  0  0  # atno 10718 bound_to 10713
  154.6539  135.5345  153.7935 H   0  0  0  0  0  0  0  0  0  0  0  0  # atno 10763 bound_to 10752
  153.0402  135.6489  154.0975 H   0  0  0  0  0  0  0  0  0  0  0  0  # atno 10764 bound_to 10752
  154.0889  135.2941  155.3255 H   0  0  0  0  0  0  0  0  0  0  0  0  # atno 10765 bound_to 10752
  140.8301  133.8003  155.9750 H   0  0  0  0  0  0  0  0  0  0  0  0  # atno 11005 bound_to 11000
  144.8113  139.5958  143.7028 LP  0  0  0  0  0  0  0  0  0  0  0  0  # atno 17320 bound_to 7965
  146.2549  139.6279  142.9402 LP  0  0  0  0  0  0  0  0  0  0  0  0  # atno 17321 bound_to 7965
  140.7629  143.5800  150.8905 LP  0  0  0  0  0  0  0  0  0  0  0  0  # atno 17342 bound_to 10162
  139.9467  143.6319  152.3040 LP  0  0  0  0  0  0  0  0  0  0  0  0  # atno 17343 bound_to 10162
  156.7118  130.8973  151.3610 LP  0  0  0  0  0  0  0  0  0  0  0  0  # atno 17370 bound_to 10713
  157.6926  130.9249  150.0557 LP  0  0  0  0  0  0  0  0  0  0  0  0  # atno 17371 bound_to 10713
  140.9007  134.2382  157.5043 LP  0  0  0  0  0  0  0  0  0  0  0  0  # atno 17394 bound_to 11000
  139.8705  134.9705  156.4703 LP  0  0  0  0  0  0  0  0  0  0  0  0  # atno 17395 bound_to 11000

$$$$
