AV-unprocessed.smi:2158|AV-procd|sdf|8790|dock1
  -GOLD-   2272011573D 1   1.00000     0.00000
 Structure written by MMmdl.
 30 30  0  0  0  0  0  0  0  0  2 V2000
  151.9952  145.7793  160.2141 C   0  0  0  0  0  0  0  0  0  0  0  0
  152.1266  144.5684  159.2788 C   0  0  0  0  0  0  0  0  0  0  0  0
  152.4770  143.2588  160.0092 C   0  0  1  0  0  0  0  0  0  0  0  0
  152.0940  143.3189  161.4963 C   0  0  0  0  0  0  0  0  0  0  0  0
  151.8078  142.1313  159.3656 N   0  0  0  0  0  0  0  0  0  0  0  0
  152.4156  141.0438  158.8679 C   0  0  0  0  0  0  0  0  0  0  0  0
  153.6323  140.8614  158.9279 O   0  0  0  0  0  0  0  0  0  0  0  0
  151.4966  139.9911  158.2343 C   0  0  0  0  0  0  0  0  0  0  0  0
  150.9202  140.4325  156.9547 N   0  0  0  0  0  0  0  0  0  0  0  0
  149.6841  141.1020  156.9899 C   0  0  0  0  0  0  0  0  0  0  0  0
  149.0805  141.5382  155.8680 C   0  0  0  0  0  0  0  0  0  0  0  0
  149.7419  141.3001  154.5910 C   0  0  0  0  0  0  0  0  0  0  0  0
  149.2066  141.6946  153.5569 O   0  0  0  0  0  0  0  0  0  0  0  0
  150.9383  140.6424  154.6086 N   0  5  0  0  0  0  0  0  0  0  0  0
  151.5392  140.2020  155.7576 C   0  0  0  0  0  0  0  0  0  0  0  0
  152.6179  139.6074  155.7512 O   0  0  0  0  0  0  0  0  0  0  0  0
  151.7008  146.6683  159.6562 H   0  0  0  0  0  0  0  0  0  0  0  0
  152.9362  146.0034  160.7175 H   0  0  0  0  0  0  0  0  0  0  0  0
  151.2399  145.6029  160.9802 H   0  0  0  0  0  0  0  0  0  0  0  0
  151.1846  144.4395  158.7447 H   0  0  0  0  0  0  0  0  0  0  0  0
  152.8792  144.7805  158.5182 H   0  0  0  0  0  0  0  0  0  0  0  0
  153.5579  143.1198  159.9417 H   0  0  0  0  0  0  0  0  0  0  0  0
  152.5997  144.1443  161.9977 H   0  0  0  0  0  0  0  0  0  0  0  0
  152.3755  142.4014  162.0144 H   0  0  0  0  0  0  0  0  0  0  0  0
  151.0201  143.4585  161.6250 H   0  0  0  0  0  0  0  0  0  0  0  0
  150.8045  142.1921  159.2725 H   0  0  0  0  0  0  0  0  0  0  0  0
  152.0750  139.0767  158.0965 H   0  0  0  0  0  0  0  0  0  0  0  0
  150.7002  139.7236  158.9315 H   0  0  0  0  0  0  0  0  0  0  0  0
  149.2586  141.2312  157.9741 H   0  0  0  0  0  0  0  0  0  0  0  0
  148.1295  142.0482  155.9119 H   0  0  0  0  0  0  0  0  0  0  0  0
  1  2  1  0  0  0  0
  1 17  1  0  0  0  0
  1 18  1  0  0  0  0
  1 19  1  0  0  0  0
  2  3  1  0  0  0  0
  2 20  1  0  0  0  0
  2 21  1  0  0  0  0
  3  4  1  0  0  0  0
  3  5  1  0  0  0  0
  3 22  1  0  0  0  0
  4 23  1  0  0  0  0
  4 24  1  0  0  0  0
  4 25  1  0  0  0  0
  5  6  1  0  0  0  0
  5 26  1  0  0  0  0
  6  7  2  0  0  0  0
  6  8  1  0  0  0  0
  8  9  1  0  0  0  0
  8 27  1  0  0  0  0
  8 28  1  0  0  0  0
  9 15  1  0  0  0  0
  9 10  1  0  0  0  0
 10 11  2  0  0  0  0
 10 29  1  0  0  0  0
 11 12  1  0  0  0  0
 11 30  1  0  0  0  0
 12 13  2  0  0  0  0
 12 14  1  0  0  0  0
 14 15  1  0  0  0  0
 15 16  2  0  0  0  0
M  CHG  1  14  -1
M  END
> <s_m_source_file>
AV-unprocessed.smi

> <i_m_source_file_index>
2158

> <i_lp_mmshare_version>
43012

> <i_f3d_flags>
0

> <s_epik_input>
W0NIM11bQ0gyXVtDQEhdKFtDSDNdKVtOSF1DKD1PKVtDSDJdbjFbY0hdW2NIXWMoPU8pW25IXWMxPU8=

> <s_epik_cmdline>
J2VwaWtfcHl0aG9uJywgJy1waCcsICc3LjAnLCAnLXRuJywgJzgnLCAnLW1hJywgJzIwMCcsICctbWV0YWxfYmluZGluZycsICctaW1hZScsICc8aW5maWxlLm1hZT4nLCAnLW9tYWUnLCAnPG91dGZpbGUubWFlPic=

> <r_lp_tautomer_probability>
0.999537

> <r_epik_Ionization_Penalty>
3.08395

> <r_epik_Ionization_Penalty_Charging>
2.76809e-08

> <r_epik_Ionization_Penalty_Neutral>
3.08395

> <r_epik_State_Penalty>
3.08299

> <r_epik_Charging_Adjusted_Penalty>
3.08299

> <i_epik_Tot_Q>
-1

> <i_epik_Tot_abs_Q>
1

> <r_epik_Metal_State_Penalty>
0.460296

> <b_epik_Metal_Only>
1

> <s_lp_Force_Field>
OPLS_2005

> <r_lp_Energy>
11.8207

> <b_lp_Chiralities_Consistent>
1

> <s_lp_Variant>
AV-unprocessed.smi:2158-4

> <Gold.Version>
5.8.1

> <Gold.Id.Protein>
6NUR|6NUR_protein|mol2

> <Gold.PLP.Fitness>
40.8571

> <Gold.PLP.PLP>
-34.4825

> <Gold.PLP.part.hbond>
-4.2663

> <Gold.PLP.part.metal>
0.0000

> <Gold.PLP.part.buried>
-3.0470

> <Gold.PLP.part.nonpolar>
-27.8051

> <Gold.PLP.part.repulsive>
0.9011

> <Gold.PLP.ligand.clash>
0.0000

> <Gold.PLP.ligand.torsion>
1.0040

> <Gold.PLP.Chemscore.Hbond>
2.7840

> <Gold.PLP.Chemscore.CHOScore>
0.0000

> <Gold.PLP.Chemscore.Metal>
0.0000

> <Gold.Chemscore.Hbonds>
donor molecule, donor type, donor heavy atom, donor atom, acceptor molecule, acceptor atom, score
      P1  H  7989  7998       L1    14  0.48
      P1  H  7997  8010       L1    16  1.00
      P1  H  8011  8017       L1    13  0.72

> <Gold.PLP.Chemscore.Internal.Correction>
0.0305

> <Gold.Rescore>
     Score         DG    S(hbond)    S(metal)    S(lipo)     H(rot)  DE(clash)    DE(int)     intcor
     14.45     -16.14       2.55        0.00      60.93       1.94       0.70       0.98       ----

> <Gold.Chemscore.Fitness>
14.4522

> <Gold.Chemscore.DG>
-16.1359

> <Gold.Chemscore.ZeroCoef>
-5.4800

> <Gold.Chemscore.Hbond>
2.5468

> <Gold.Chemscore.Metal>
0.0000

> <Gold.Chemscore.Lipo>
60.9275

> <Gold.Chemscore.Internal_Hbond>
0.0000

> <Gold.Chemscore.DEClash>
0.7024

> <Gold.Chemscore.DEInternal>
0.9813

> <Gold.Chemscore.Rot>
1.9449

> <Gold.Chemscore.Internal.Correction>
   9.000000E+99

> <Gold.Chemscore.Hbonds>
donor molecule, donor type, donor heavy atom, donor atom, acceptor molecule, acceptor atom, score
      P1  H  7989  7998       L1    14  0.35
      P1  H  7997  8010       L1    16  1.00
      P1  H  8011  8017       L1    13  0.67

> <Gold.Chemscore.Hbond.Weighted>
-8.5065

> <Gold.Chemscore.Metal.Weighted>
-0.0000

> <Gold.Chemscore.Lipo.Weighted>
-7.1285

> <Gold.Chemscore.Internal_Hbond.Weighted>
0.0000

> <Gold.Chemscore.DEClash.Weighted>
0.7024

> <Gold.Chemscore.DEInternal.Weighted>
0.9813

> <Gold.Chemscore.Rot.Weighted>
4.9791

> <Gold.Chemscore.Internal.Correction.Weighted>
   9.000000E+99

> <Gold.Protein.RotatedTorsions>
[ 6907 6896 6895 6894 ] final   72.20 input  -60.11 | X-H torsion
[ 7974 7965 7964 7962 ] final  110.38 input  175.53 | X-H torsion
[ 8008 7997 7996 7995 ] final   89.57 input   59.86 | X-H torsion
[ 10167 10162 10161 10158 ] final  -25.26 input  -65.29 | X-H torsion
[ 10718 10713 10712 10709 ] final  -60.31 input   66.30 | X-H torsion
[ 10763 10752 10751 10750 ] final   52.71 input  -60.55 | X-H torsion
[ 11005 11000 10999 10996 ] final  -90.14 input  -57.11 | X-H torsion

> <Gold.Protein.ActiveResidues>
 VAL166  LYS551  ARG553  GLY616  TRP617  ASP618  TYR619  PRO620  LYS621  CYS622 
 ASP623  PHE694  ASN695  SER759  ASP760  ASP761  ALA762  ILE779  LEU786  VAL792 
 PHE793  MET794  SER795  GLU796  ALA797  LYS798  CYS799  TRP800  GLU811  SER814 

> <Gold.Protein.RotatedAtoms>
  152.4854  134.4607  159.9603 H   0  0  0  0  0  0  0  0  0  0  0  0  # atno 6907 bound_to 6896
  151.4604  133.3588  159.2816 H   0  0  0  0  0  0  0  0  0  0  0  0  # atno 6908 bound_to 6896
  150.8960  134.8393  159.7387 H   0  0  0  0  0  0  0  0  0  0  0  0  # atno 6909 bound_to 6896
  145.2557  139.2722  143.4044 H   0  0  0  0  0  0  0  0  0  0  0  0  # atno 7974 bound_to 7965
  156.0016  140.3359  155.6851 H   0  0  0  0  0  0  0  0  0  0  0  0  # atno 8008 bound_to 7997
  155.6283  140.0682  157.2675 H   0  0  0  0  0  0  0  0  0  0  0  0  # atno 8009 bound_to 7997
  154.4251  140.1764  156.1432 H   0  0  0  0  0  0  0  0  0  0  0  0  # atno 8010 bound_to 7997
  140.7287  143.4280  151.0846 H   0  0  0  0  0  0  0  0  0  0  0  0  # atno 10167 bound_to 10162
  156.0999  130.4187  150.0837 H   0  0  0  0  0  0  0  0  0  0  0  0  # atno 10718 bound_to 10713
  152.9790  135.5803  154.4622 H   0  0  0  0  0  0  0  0  0  0  0  0  # atno 10763 bound_to 10752
  154.4197  135.2771  155.1985 H   0  0  0  0  0  0  0  0  0  0  0  0  # atno 10764 bound_to 10752
  154.3740  135.6161  153.5809 H   0  0  0  0  0  0  0  0  0  0  0  0  # atno 10765 bound_to 10752
  141.1571  133.7673  156.9695 H   0  0  0  0  0  0  0  0  0  0  0  0  # atno 11005 bound_to 11000
  146.3290  140.2960  142.8618 LP  0  0  0  0  0  0  0  0  0  0  0  0  # atno 17320 bound_to 7965
  144.9463  140.8132  143.5599 LP  0  0  0  0  0  0  0  0  0  0  0  0  # atno 17321 bound_to 7965
  139.7934  143.8186  152.3154 LP  0  0  0  0  0  0  0  0  0  0  0  0  # atno 17342 bound_to 10162
  139.8178  144.7309  150.9612 LP  0  0  0  0  0  0  0  0  0  0  0  0  # atno 17343 bound_to 10162
  156.8826  130.9562  151.3597 LP  0  0  0  0  0  0  0  0  0  0  0  0  # atno 17370 bound_to 10713
  157.6168  130.8624  149.9041 LP  0  0  0  0  0  0  0  0  0  0  0  0  # atno 17371 bound_to 10713
  140.1139  134.9460  157.2105 LP  0  0  0  0  0  0  0  0  0  0  0  0  # atno 17394 bound_to 11000
  140.3159  134.2971  155.7256 LP  0  0  0  0  0  0  0  0  0  0  0  0  # atno 17395 bound_to 11000

$$$$
