AV-unprocessed.smi:2442|AV-procd|sdf|9628|dock4
  -GOLD-   2272013263D 1   1.00000     0.00000
 Structure written by MMmdl.
 47 48  0  0  0  0  0  0  0  0  2 V2000
  152.0863  138.6579  154.6663 C   0  0  0  0  0  0  0  0  0  0  0  0
  150.7423  138.8425  154.2513 O   0  0  0  0  0  0  0  0  0  0  0  0
  149.8124  138.9815  155.3218 C   0  0  1  0  0  0  0  0  0  0  0  0
  149.9011  140.3929  155.9406 C   0  0  0  0  0  0  0  0  0  0  0  0
  149.4653  141.4809  154.9459 C   0  0  0  0  0  0  0  0  0  0  0  0
  148.0506  141.2097  154.4120 C   0  0  0  0  0  0  0  0  0  0  0  0
  147.9501  139.8102  153.7850 C   0  0  0  0  0  0  0  0  0  0  0  0
  148.3895  138.7142  154.7757 C   0  0  1  0  0  0  0  0  0  0  0  0
  148.3072  137.4041  154.1343 N   0  0  0  0  0  0  0  0  0  0  0  0
  147.5803  136.3697  154.5783 C   0  0  0  0  0  0  0  0  0  0  0  0
  146.8742  136.4024  155.5867 O   0  0  0  0  0  0  0  0  0  0  0  0
  147.7207  135.2893  153.7976 N   0  0  0  0  0  0  0  0  0  0  0  0
  147.0613  134.0100  154.0301 C   0  0  0  0  0  0  0  0  0  0  0  0
  147.0622  133.1357  152.7641 C   0  0  0  0  0  0  0  0  0  0  0  0
  145.8334  133.3736  151.9001 C   0  0  0  0  0  0  0  0  0  0  0  0
  145.4714  134.6980  151.5658 C   0  0  0  0  0  0  0  0  0  0  0  0
  144.3320  134.9267  150.7692 C   0  0  0  0  0  0  0  0  0  0  0  0
  143.5976  133.8817  150.3333 N   0  3  0  0  0  0  0  0  0  0  0  0
  143.9034  132.5998  150.6280 C   0  0  0  0  0  0  0  0  0  0  0  0
  145.0322  132.3028  151.4232 C   0  0  0  0  0  0  0  0  0  0  0  0
  145.3568  130.8538  151.7434 C   0  0  0  0  0  0  0  0  0  0  0  0
  152.7237  138.5483  153.7890 H   0  0  0  0  0  0  0  0  0  0  0  0
  152.1908  137.7549  155.2689 H   0  0  0  0  0  0  0  0  0  0  0  0
  152.4553  139.5072  155.2409 H   0  0  0  0  0  0  0  0  0  0  0  0
  150.0312  138.2411  156.0933 H   0  0  0  0  0  0  0  0  0  0  0  0
  149.2564  140.4370  156.8194 H   0  0  0  0  0  0  0  0  0  0  0  0
  150.9084  140.5992  156.3007 H   0  0  0  0  0  0  0  0  0  0  0  0
  149.4990  142.4589  155.4268 H   0  0  0  0  0  0  0  0  0  0  0  0
  150.1703  141.5215  154.1146 H   0  0  0  0  0  0  0  0  0  0  0  0
  147.3300  141.2978  155.2260 H   0  0  0  0  0  0  0  0  0  0  0  0
  147.7800  141.9670  153.6759 H   0  0  0  0  0  0  0  0  0  0  0  0
  146.9248  139.6296  153.4594 H   0  0  0  0  0  0  0  0  0  0  0  0
  148.5695  139.7710  152.8877 H   0  0  0  0  0  0  0  0  0  0  0  0
  147.6901  138.7283  155.6140 H   0  0  0  0  0  0  0  0  0  0  0  0
  148.8596  137.2750  153.2995 H   0  0  0  0  0  0  0  0  0  0  0  0
  148.3241  135.3566  152.9906 H   0  0  0  0  0  0  0  0  0  0  0  0
  147.5474  133.4923  154.8586 H   0  0  0  0  0  0  0  0  0  0  0  0
  146.0364  134.2043  154.3478 H   0  0  0  0  0  0  0  0  0  0  0  0
  147.9550  133.3484  152.1743 H   0  0  0  0  0  0  0  0  0  0  0  0
  147.1298  132.0793  153.0241 H   0  0  0  0  0  0  0  0  0  0  0  0
  146.0600  135.5332  151.9173 H   0  0  0  0  0  0  0  0  0  0  0  0
  143.9886  135.9066  150.4706 H   0  0  0  0  0  0  0  0  0  0  0  0
  143.2371  131.8536  150.2201 H   0  0  0  0  0  0  0  0  0  0  0  0
  144.5675  130.1866  151.3960 H   0  0  0  0  0  0  0  0  0  0  0  0
  145.4666  130.7076  152.8179 H   0  0  0  0  0  0  0  0  0  0  0  0
  146.2859  130.5555  151.2569 H   0  0  0  0  0  0  0  0  0  0  0  0
  142.7764  134.0679  149.7570 H   0  0  0  0  0  0  0  0  0  0  0  0
  1  2  1  0  0  0  0
  1 22  1  0  0  0  0
  1 23  1  0  0  0  0
  1 24  1  0  0  0  0
  2  3  1  0  0  0  0
  3  8  1  0  0  0  0
  3  4  1  0  0  0  0
  3 25  1  0  0  0  0
  4  5  1  0  0  0  0
  4 26  1  0  0  0  0
  4 27  1  0  0  0  0
  5  6  1  0  0  0  0
  5 28  1  0  0  0  0
  5 29  1  0  0  0  0
  6  7  1  0  0  0  0
  6 30  1  0  0  0  0
  6 31  1  0  0  0  0
  7  8  1  0  0  0  0
  7 32  1  0  0  0  0
  7 33  1  0  0  0  0
  8  9  1  0  0  0  0
  8 34  1  0  0  0  0
  9 10  1  0  0  0  0
  9 35  1  0  0  0  0
 10 11  2  0  0  0  0
 10 12  1  0  0  0  0
 12 13  1  0  0  0  0
 12 36  1  0  0  0  0
 13 14  1  0  0  0  0
 13 37  1  0  0  0  0
 13 38  1  0  0  0  0
 14 15  1  0  0  0  0
 14 39  1  0  0  0  0
 14 40  1  0  0  0  0
 15 20  1  0  0  0  0
 15 16  2  0  0  0  0
 16 17  1  0  0  0  0
 16 41  1  0  0  0  0
 17 18  2  0  0  0  0
 17 42  1  0  0  0  0
 18 19  1  0  0  0  0
 18 47  1  0  0  0  0
 19 20  2  0  0  0  0
 19 43  1  0  0  0  0
 20 21  1  0  0  0  0
 21 44  1  0  0  0  0
 21 45  1  0  0  0  0
 21 46  1  0  0  0  0
M  CHG  1  18   1
M  END
> <s_m_source_file>
AV-unprocessed.smi

> <i_m_source_file_index>
2442

> <i_lp_mmshare_version>
43012

> <i_f3d_flags>
0

> <s_epik_input>
W0NIM11PW0NAQEhdMVtDSDJdW0NIMl1bQ0gyXVtDSDJdW0NASF0xW05IXUMoPU8pW05IXVtDSDJdW0NIMl1jMltjSF1bY0hdbltjSF1jMltDSDNd

> <s_epik_cmdline>
J2VwaWtfcHl0aG9uJywgJy1waCcsICc3LjAnLCAnLXRuJywgJzgnLCAnLW1hJywgJzIwMCcsICctbWV0YWxfYmluZGluZycsICctaW1hZScsICc8aW5maWxlLm1hZT4nLCAnLW9tYWUnLCAnPG91dGZpbGUubWFlPic=

> <r_epik_Ionization_Penalty>
1.07145

> <r_epik_Ionization_Penalty_Charging>
1.0714

> <r_epik_Ionization_Penalty_Neutral>
4.9109e-05

> <r_epik_State_Penalty>
1.12601

> <r_epik_Charging_Adjusted_Penalty>
2.19741

> <i_epik_Tot_Q>
1

> <i_epik_Tot_abs_Q>
1

> <r_epik_Metal_State_Penalty>
1.2173

> <b_epik_Metal_Only>
0

> <s_lp_Force_Field>
OPLS_2005

> <r_lp_Energy>
15.5832

> <b_lp_Chiralities_Consistent>
1

> <s_lp_Variant>
AV-unprocessed.smi:2442-6

> <Gold.Version>
5.8.1

> <Gold.Id.Protein>
6NUR|6NUR_protein|mol2

> <Gold.PLP.Fitness>
44.9602

> <Gold.PLP.PLP>
-34.4636

> <Gold.PLP.part.hbond>
-2.8605

> <Gold.PLP.part.metal>
0.0000

> <Gold.PLP.part.buried>
-4.5734

> <Gold.PLP.part.nonpolar>
-28.1505

> <Gold.PLP.part.repulsive>
0.2397

> <Gold.PLP.ligand.clash>
0.0000

> <Gold.PLP.ligand.torsion>
0.5741

> <Gold.PLP.Chemscore.Hbond>
3.8661

> <Gold.PLP.Chemscore.CHOScore>
0.0000

> <Gold.PLP.Chemscore.Metal>
0.0000

> <Gold.Chemscore.Hbonds>
donor molecule, donor type, donor heavy atom, donor atom, acceptor molecule, acceptor atom, score
      L1  H     9    35       P1  7948  0.83
      L1  H    12    36       P1  7948  1.00
      L1  H    18    47       P1 10186  2.00
      P1  H  7989  7998       L1     2  0.01

> <Gold.PLP.Chemscore.Internal.Correction>
0.0463

> <Gold.Rescore>
     Score         DG    S(hbond)    S(metal)    S(lipo)     H(rot)  DE(clash)    DE(int)     intcor
     20.51     -21.06       2.85        0.00      89.49       1.72       0.03       0.52       ----

> <Gold.Chemscore.Fitness>
20.5101

> <Gold.Chemscore.DG>
-21.0648

> <Gold.Chemscore.ZeroCoef>
-5.4800

> <Gold.Chemscore.Hbond>
2.8531

> <Gold.Chemscore.Metal>
0.0000

> <Gold.Chemscore.Lipo>
89.4861

> <Gold.Chemscore.Internal_Hbond>
0.0000

> <Gold.Chemscore.DEClash>
0.0308

> <Gold.Chemscore.DEInternal>
0.5239

> <Gold.Chemscore.Rot>
1.7244

> <Gold.Chemscore.Internal.Correction>
   9.000000E+99

> <Gold.Chemscore.Hbonds>
donor molecule, donor type, donor heavy atom, donor atom, acceptor molecule, acceptor atom, score
      L1  H     9    35       P1  7948  0.83
      L1  H    12    36       P1  7948  0.89
      L1  H    18    47       P1 10186  0.96

> <Gold.Chemscore.Hbond.Weighted>
-9.5294

> <Gold.Chemscore.Metal.Weighted>
-0.0000

> <Gold.Chemscore.Lipo.Weighted>
-10.4699

> <Gold.Chemscore.Internal_Hbond.Weighted>
0.0000

> <Gold.Chemscore.DEClash.Weighted>
0.0308

> <Gold.Chemscore.DEInternal.Weighted>
0.5239

> <Gold.Chemscore.Rot.Weighted>
4.4145

> <Gold.Chemscore.Internal.Correction.Weighted>
   9.000000E+99

> <Gold.Protein.RotatedTorsions>
[ 6907 6896 6895 6894 ] final  -43.27 input  -60.11 | X-H torsion
[ 7974 7965 7964 7962 ] final -105.54 input  175.53 | X-H torsion
[ 8008 7997 7996 7995 ] final  -23.19 input   59.86 | X-H torsion
[ 10167 10162 10161 10158 ] final  166.09 input  -65.29 | X-H torsion
[ 10718 10713 10712 10709 ] final -101.88 input   66.30 | X-H torsion
[ 10763 10752 10751 10750 ] final   21.22 input  -60.55 | X-H torsion
[ 11005 11000 10999 10996 ] final    5.65 input  -57.11 | X-H torsion

> <Gold.Protein.ActiveResidues>
 VAL166  LYS551  ARG553  GLY616  TRP617  ASP618  TYR619  PRO620  LYS621  CYS622 
 ASP623  PHE694  ASN695  SER759  ASP760  ASP761  ALA762  ILE779  LEU786  VAL792 
 PHE793  MET794  SER795  GLU796  ALA797  LYS798  CYS799  TRP800  GLU811  SER814 

> <Gold.Protein.RotatedAtoms>
  150.9458  134.8863  159.7640 H   0  0  0  0  0  0  0  0  0  0  0  0  # atno 6907 bound_to 6896
  152.5099  134.3877  159.9383 H   0  0  0  0  0  0  0  0  0  0  0  0  # atno 6908 bound_to 6896
  151.3895  133.3753  159.2754 H   0  0  0  0  0  0  0  0  0  0  0  0  # atno 6909 bound_to 6896
  145.2292  140.9164  143.3214 H   0  0  0  0  0  0  0  0  0  0  0  0  # atno 7974 bound_to 7965
  154.4600  140.1987  156.0272 H   0  0  0  0  0  0  0  0  0  0  0  0  # atno 8008 bound_to 7997
  156.0821  140.3270  155.7678 H   0  0  0  0  0  0  0  0  0  0  0  0  # atno 8009 bound_to 7997
  155.5095  140.0560  157.2916 H   0  0  0  0  0  0  0  0  0  0  0  0  # atno 8010 bound_to 7997
  139.4918  144.4064  151.9350 H   0  0  0  0  0  0  0  0  0  0  0  0  # atno 10167 bound_to 10162
  156.0209  130.5394  150.7027 H   0  0  0  0  0  0  0  0  0  0  0  0  # atno 10718 bound_to 10713
  153.1013  135.6673  153.9668 H   0  0  0  0  0  0  0  0  0  0  0  0  # atno 10763 bound_to 10752
  153.9238  135.3011  155.3448 H   0  0  0  0  0  0  0  0  0  0  0  0  # atno 10764 bound_to 10752
  154.7434  135.5069  153.9236 H   0  0  0  0  0  0  0  0  0  0  0  0  # atno 10765 bound_to 10752
  140.5683  134.0127  155.7998 H   0  0  0  0  0  0  0  0  0  0  0  0  # atno 11005 bound_to 11000
  144.9693  139.3897  143.6317 LP  0  0  0  0  0  0  0  0  0  0  0  0  # atno 17320 bound_to 7965
  146.3357  139.8783  142.8828 LP  0  0  0  0  0  0  0  0  0  0  0  0  # atno 17321 bound_to 7965
  140.3504  144.3095  150.5950 LP  0  0  0  0  0  0  0  0  0  0  0  0  # atno 17342 bound_to 10162
  140.5490  143.2210  151.7959 LP  0  0  0  0  0  0  0  0  0  0  0  0  # atno 17343 bound_to 10162
  157.4683  131.0890  151.0670 LP  0  0  0  0  0  0  0  0  0  0  0  0  # atno 17370 bound_to 10713
  157.1137  130.6032  149.5488 LP  0  0  0  0  0  0  0  0  0  0  0  0  # atno 17371 bound_to 10713
  141.1072  133.9674  157.2975 LP  0  0  0  0  0  0  0  0  0  0  0  0  # atno 17394 bound_to 11000
  139.9374  135.0195  156.8600 LP  0  0  0  0  0  0  0  0  0  0  0  0  # atno 17395 bound_to 11000

$$$$
