AV-unprocessed.smi:212|AV-procd|sdf|1618|dock5
  -GOLD-   2262019543D 1   1.00000     0.00000
 Structure written by MMmdl.
 65 68  0  0  0  0  0  0  0  0  2 V2000
  143.9480  135.9927  154.7881 C   0  0  0  0  0  0  0  0  0  0  0  0
  145.4211  136.2659  154.4408 C   0  0  1  0  0  0  0  0  0  0  0  0
  146.0439  135.1261  153.6075 C   0  0  0  0  0  0  0  0  0  0  0  0
  145.5266  135.1241  152.2143 N   0  3  2  0  0  0  0  0  0  0  0  0
  145.9894  133.9606  151.4137 C   0  0  0  0  0  0  0  0  0  0  0  0
  144.8682  133.3854  150.5185 C   0  0  0  0  0  0  0  0  0  0  0  0
  145.3667  132.1309  149.7819 C   0  0  0  0  0  0  0  0  0  0  0  0
  143.5822  133.0659  151.3027 C   0  0  0  0  0  0  0  0  0  0  0  0
  144.5560  134.3444  149.5269 O   0  0  0  0  0  0  0  0  0  0  0  0
  145.7356  136.4272  151.5354 C   0  0  0  0  0  0  0  0  0  0  0  0
  145.1258  137.5789  152.3560 C   0  0  0  0  0  0  0  0  0  0  0  0
  145.5850  137.5457  153.7459 N   0  0  0  0  0  0  0  0  0  0  0  0
  146.6828  138.2698  154.0885 C   0  0  0  0  0  0  0  0  0  0  0  0
  147.3307  139.0073  153.1476 N   0  0  0  0  0  0  0  0  0  0  0  0
  148.4209  139.7086  153.4712 C   0  0  0  0  0  0  0  0  0  0  0  0
  149.0223  139.8146  154.6570 N   0  0  0  0  0  0  0  0  0  0  0  0
  148.3708  139.0883  155.6091 C   0  0  0  0  0  0  0  0  0  0  0  0
  147.2065  138.2936  155.4121 C   0  0  0  0  0  0  0  0  0  0  0  0
  146.8281  137.7040  156.6126 N   0  0  0  0  0  0  0  0  0  0  0  0
  147.7217  138.1194  157.4682 C   0  0  0  0  0  0  0  0  0  0  0  0
  148.6762  138.9678  156.9536 N   0  0  0  0  0  0  0  0  0  0  0  0
  149.7857  139.5673  157.6725 C   0  0  0  0  0  0  0  0  0  0  0  0
  150.6482  140.5593  156.8415 C   0  0  2  0  0  0  0  0  0  0  0  0
  151.5965  139.7746  155.9078 C   0  0  0  0  0  0  0  0  0  0  0  0
  152.5598  139.0498  156.6442 O   0  0  0  0  0  0  0  0  0  0  0  0
  151.4612  141.6167  157.6454 C   0  0  2  0  0  0  0  0  0  0  0  0
  152.2754  141.1176  158.8245 C   0  0  0  0  0  0  0  0  0  0  0  0
  152.6266  142.4202  159.5432 C   0  0  0  0  0  0  0  0  0  0  0  0
  151.6245  143.3685  159.1796 O   0  0  0  0  0  0  0  0  0  0  0  0
  150.6950  142.7793  158.2778 C   0  0  0  0  0  0  0  0  0  0  0  0
  143.8484  135.0700  155.3603 H   0  0  0  0  0  0  0  0  0  0  0  0
  143.3265  135.8951  153.8978 H   0  0  0  0  0  0  0  0  0  0  0  0
  143.5363  136.7996  155.3952 H   0  0  0  0  0  0  0  0  0  0  0  0
  145.9604  136.2894  155.3875 H   0  0  0  0  0  0  0  0  0  0  0  0
  147.1285  135.2438  153.5799 H   0  0  0  0  0  0  0  0  0  0  0  0
  145.8472  134.1654  154.0845 H   0  0  0  0  0  0  0  0  0  0  0  0
  146.8348  134.2514  150.7875 H   0  0  0  0  0  0  0  0  0  0  0  0
  146.3757  133.1810  152.0725 H   0  0  0  0  0  0  0  0  0  0  0  0
  145.6280  131.3390  150.4847 H   0  0  0  0  0  0  0  0  0  0  0  0
  146.2536  132.3446  149.1839 H   0  0  0  0  0  0  0  0  0  0  0  0
  144.6056  131.7336  149.1092 H   0  0  0  0  0  0  0  0  0  0  0  0
  143.7765  132.3491  152.1012 H   0  0  0  0  0  0  0  0  0  0  0  0
  142.8192  132.6348  150.6537 H   0  0  0  0  0  0  0  0  0  0  0  0
  143.1501  133.9580  151.7568 H   0  0  0  0  0  0  0  0  0  0  0  0
  145.2872  134.4118  148.9315 H   0  0  0  0  0  0  0  0  0  0  0  0
  146.8042  136.5888  151.3874 H   0  0  0  0  0  0  0  0  0  0  0  0
  145.2774  136.4043  150.5458 H   0  0  0  0  0  0  0  0  0  0  0  0
  145.3486  138.5406  151.8921 H   0  0  0  0  0  0  0  0  0  0  0  0
  144.0389  137.4953  152.3523 H   0  0  0  0  0  0  0  0  0  0  0  0
  148.8770  140.2646  152.6653 H   0  0  0  0  0  0  0  0  0  0  0  0
  147.7027  137.8213  158.5064 H   0  0  0  0  0  0  0  0  0  0  0  0
  149.4007  140.0550  158.5682 H   0  0  0  0  0  0  0  0  0  0  0  0
  150.4053  138.7444  158.0297 H   0  0  0  0  0  0  0  0  0  0  0  0
  149.9770  141.1228  156.1921 H   0  0  0  0  0  0  0  0  0  0  0  0
  151.0417  139.0544  155.3059 H   0  0  0  0  0  0  0  0  0  0  0  0
  152.1026  140.4474  155.2149 H   0  0  0  0  0  0  0  0  0  0  0  0
  152.1686  138.2410  156.9374 H   0  0  0  0  0  0  0  0  0  0  0  0
  152.1607  142.0856  156.9511 H   0  0  0  0  0  0  0  0  0  0  0  0
  151.6747  140.4942  159.4851 H   0  0  0  0  0  0  0  0  0  0  0  0
  153.1567  140.5485  158.5279 H   0  0  0  0  0  0  0  0  0  0  0  0
  152.6716  142.2903  160.6248 H   0  0  0  0  0  0  0  0  0  0  0  0
  153.5940  142.7955  159.2079 H   0  0  0  0  0  0  0  0  0  0  0  0
  150.3453  143.5016  157.5398 H   0  0  0  0  0  0  0  0  0  0  0  0
  149.8381  142.4540  158.8607 H   0  0  0  0  0  0  0  0  0  0  0  0
  144.5248  135.0167  152.2877 H   0  0  0  0  0  0  0  0  0  0  0  0
  1  2  1  0  0  0  0
  1 31  1  0  0  0  0
  1 32  1  0  0  0  0
  1 33  1  0  0  0  0
  2 12  1  0  0  0  0
  2  3  1  0  0  0  0
  2 34  1  0  0  0  0
  3  4  1  0  0  0  0
  3 35  1  0  0  0  0
  3 36  1  0  0  0  0
  4  5  1  0  0  0  0
  4 10  1  0  0  0  0
  4 65  1  0  0  0  0
  5  6  1  0  0  0  0
  5 37  1  0  0  0  0
  5 38  1  0  0  0  0
  6  7  1  0  0  0  0
  6  8  1  0  0  0  0
  6  9  1  0  0  0  0
  7 39  1  0  0  0  0
  7 40  1  0  0  0  0
  7 41  1  0  0  0  0
  8 42  1  0  0  0  0
  8 43  1  0  0  0  0
  8 44  1  0  0  0  0
  9 45  1  0  0  0  0
 10 11  1  0  0  0  0
 10 46  1  0  0  0  0
 10 47  1  0  0  0  0
 11 12  1  0  0  0  0
 11 48  1  0  0  0  0
 11 49  1  0  0  0  0
 12 13  1  0  0  0  0
 13 18  1  0  0  0  0
 13 14  2  0  0  0  0
 14 15  1  0  0  0  0
 15 16  2  0  0  0  0
 15 50  1  0  0  0  0
 16 17  1  0  0  0  0
 17 21  1  0  0  0  0
 17 18  2  0  0  0  0
 18 19  1  0  0  0  0
 19 20  2  0  0  0  0
 20 21  1  0  0  0  0
 20 51  1  0  0  0  0
 21 22  1  0  0  0  0
 22 23  1  0  0  0  0
 22 52  1  0  0  0  0
 22 53  1  0  0  0  0
 23 24  1  0  0  0  0
 23 26  1  0  0  0  0
 23 54  1  0  0  0  0
 24 25  1  0  0  0  0
 24 55  1  0  0  0  0
 24 56  1  0  0  0  0
 25 57  1  0  0  0  0
 26 30  1  0  0  0  0
 26 27  1  0  0  0  0
 26 58  1  0  0  0  0
 27 28  1  0  0  0  0
 27 59  1  0  0  0  0
 27 60  1  0  0  0  0
 28 29  1  0  0  0  0
 28 61  1  0  0  0  0
 28 62  1  0  0  0  0
 29 30  1  0  0  0  0
 30 63  1  0  0  0  0
 30 64  1  0  0  0  0
M  CHG  1   4   1
M  END
> <s_m_source_file>
AV-unprocessed.smi

> <i_m_source_file_index>
212

> <i_lp_mmshare_version>
43012

> <i_f3d_flags>
0

> <s_epik_input>
W0NIM11bQ0BASF0xW0NIMl1OKFtDSDJdQyhbQ0gzXSkoW0NIM10pW09IXSlbQ0gyXVtDSDJdTjFjKG5bY0hdbjIpYyhjMjMpbltjSF1uM1tDSDJdW0NASF0oW0NIMl1bT0hdKVtDQEBIXTRbQ0gyXVtDSDJdT1tDSDJdNA==

> <s_epik_cmdline>
J2VwaWtfcHl0aG9uJywgJy1waCcsICc3LjAnLCAnLXRuJywgJzgnLCAnLW1hJywgJzIwMCcsICctbWV0YWxfYmluZGluZycsICctaW1hZScsICc8aW5maWxlLm1hZT4nLCAnLW9tYWUnLCAnPG91dGZpbGUubWFlPic=

> <r_lp_tautomer_probability>
1

> <r_epik_Ionization_Penalty>
0.00182193

> <r_epik_Ionization_Penalty_Charging>
0.00173996

> <r_epik_Ionization_Penalty_Neutral>
8.19718e-05

> <r_epik_State_Penalty>
-0

> <r_epik_Charging_Adjusted_Penalty>
0.00173996

> <i_epik_Tot_Q>
1

> <i_epik_Tot_abs_Q>
1

> <r_epik_Metal_State_Penalty>
-0

> <b_epik_Metal_Only>
0

> <s_lp_Force_Field>
OPLS_2005

> <r_lp_Energy>
59.4292

> <b_lp_Chiralities_Consistent>
1

> <s_lp_Variant>
AV-unprocessed.smi:212-2

> <Gold.Version>
5.8.1

> <Gold.Id.Protein>
6NUR|6NUR_protein|mol2

> <Gold.PLP.Fitness>
45.0961

> <Gold.PLP.PLP>
-37.3774

> <Gold.PLP.part.hbond>
-2.1804

> <Gold.PLP.part.metal>
0.0000

> <Gold.PLP.part.buried>
-6.1393

> <Gold.PLP.part.nonpolar>
-28.8676

> <Gold.PLP.part.repulsive>
0.2868

> <Gold.PLP.ligand.clash>
0.0000

> <Gold.PLP.ligand.torsion>
1.2344

> <Gold.PLP.Chemscore.Hbond>
2.0000

> <Gold.PLP.Chemscore.CHOScore>
1.0000

> <Gold.PLP.Chemscore.Metal>
0.0000

> <Gold.Chemscore.Hbonds>
donor molecule, donor type, donor heavy atom, donor atom, acceptor molecule, acceptor atom, score
      L1  H     9    45       P1  7921  1.00
      P1  H  7997  8010       L1    25  0.83
      L1  C    15    50       P1  7957  0.14

> <Gold.PLP.Chemscore.Internal.Correction>
1.1876

> <Gold.Rescore>
     Score         DG    S(hbond)    S(metal)    S(lipo)     H(rot)  DE(clash)    DE(int)     intcor
     10.21     -14.48       1.98        0.00      94.72       3.40       0.21       4.05       ----

> <Gold.Chemscore.Fitness>
10.2145

> <Gold.Chemscore.DG>
-14.4787

> <Gold.Chemscore.ZeroCoef>
-5.4800

> <Gold.Chemscore.Hbond>
1.9811

> <Gold.Chemscore.Metal>
0.0000

> <Gold.Chemscore.Lipo>
94.7218

> <Gold.Chemscore.Internal_Hbond>
0.0000

> <Gold.Chemscore.DEClash>
0.2101

> <Gold.Chemscore.DEInternal>
4.0542

> <Gold.Chemscore.Rot>
3.3986

> <Gold.Chemscore.Internal.Correction>
   9.000000E+99

> <Gold.Chemscore.Hbonds>
donor molecule, donor type, donor heavy atom, donor atom, acceptor molecule, acceptor atom, score
      L1  H     9    45       P1  7921  0.98
      P1  H  7997  8010       L1    25  0.63

> <Gold.Chemscore.Hbond.Weighted>
-6.6167

> <Gold.Chemscore.Metal.Weighted>
-0.0000

> <Gold.Chemscore.Lipo.Weighted>
-11.0825

> <Gold.Chemscore.Internal_Hbond.Weighted>
0.0000

> <Gold.Chemscore.DEClash.Weighted>
0.2101

> <Gold.Chemscore.DEInternal.Weighted>
4.0542

> <Gold.Chemscore.Rot.Weighted>
8.7005

> <Gold.Chemscore.Internal.Correction.Weighted>
   9.000000E+99

> <Gold.Protein.RotatedTorsions>
[ 6907 6896 6895 6894 ] final -140.15 input  -60.11 | X-H torsion
[ 7974 7965 7964 7962 ] final   74.98 input  175.53 | X-H torsion
[ 8008 7997 7996 7995 ] final   55.52 input   59.86 | X-H torsion
[ 10167 10162 10161 10158 ] final -101.34 input  -65.29 | X-H torsion
[ 10718 10713 10712 10709 ] final  135.38 input   66.30 | X-H torsion
[ 10763 10752 10751 10750 ] final -138.80 input  -60.55 | X-H torsion
[ 11005 11000 10999 10996 ] final  135.24 input  -57.11 | X-H torsion

> <Gold.Protein.ActiveResidues>
 VAL166  LYS551  ARG553  GLY616  TRP617  ASP618  TYR619  PRO620  LYS621  CYS622 
 ASP623  PHE694  ASN695  SER759  ASP760  ASP761  ALA762  ILE779  LEU786  VAL792 
 PHE793  MET794  SER795  GLU796  ALA797  LYS798  CYS799  TRP800  GLU811  SER814 

> <Gold.Protein.RotatedAtoms>
  151.0570  133.5576  159.2637 H   0  0  0  0  0  0  0  0  0  0  0  0  # atno 6907 bound_to 6896
  151.2566  135.0639  159.9092 H   0  0  0  0  0  0  0  0  0  0  0  0  # atno 6908 bound_to 6896
  152.5391  134.0322  159.8083 H   0  0  0  0  0  0  0  0  0  0  0  0  # atno 6909 bound_to 6896
  145.7214  139.2649  143.1594 H   0  0  0  0  0  0  0  0  0  0  0  0  # atno 7974 bound_to 7965
  155.5025  140.3475  155.4373 H   0  0  0  0  0  0  0  0  0  0  0  0  # atno 8008 bound_to 7997
  156.0904  140.1409  156.9627 H   0  0  0  0  0  0  0  0  0  0  0  0  # atno 8009 bound_to 7997
  154.4632  140.0927  156.6926 H   0  0  0  0  0  0  0  0  0  0  0  0  # atno 8010 bound_to 7997
  140.2424  143.3530  152.0790 H   0  0  0  0  0  0  0  0  0  0  0  0  # atno 10167 bound_to 10162
  157.4577  131.1071  150.9958 H   0  0  0  0  0  0  0  0  0  0  0  0  # atno 10718 bound_to 10713
  154.8627  135.3601  154.5443 H   0  0  0  0  0  0  0  0  0  0  0  0  # atno 10763 bound_to 10752
  153.6063  135.7011  153.5369 H   0  0  0  0  0  0  0  0  0  0  0  0  # atno 10764 bound_to 10752
  153.3247  135.4141  155.1407 H   0  0  0  0  0  0  0  0  0  0  0  0  # atno 10765 bound_to 10752
  139.9967  134.9495  156.9979 H   0  0  0  0  0  0  0  0  0  0  0  0  # atno 11005 bound_to 11000
  146.0622  140.7958  142.9729 LP  0  0  0  0  0  0  0  0  0  0  0  0  # atno 17320 bound_to 7965
  144.6916  140.3215  143.7231 LP  0  0  0  0  0  0  0  0  0  0  0  0  # atno 17321 bound_to 7965
  139.5073  144.6829  151.5961 LP  0  0  0  0  0  0  0  0  0  0  0  0  # atno 17342 bound_to 10162
  140.6104  143.9447  150.6449 LP  0  0  0  0  0  0  0  0  0  0  0  0  # atno 17343 bound_to 10162
  157.0766  130.5886  149.5412 LP  0  0  0  0  0  0  0  0  0  0  0  0  # atno 17370 bound_to 10713
  156.0014  130.5094  150.7677 LP  0  0  0  0  0  0  0  0  0  0  0  0  # atno 17371 bound_to 10713
  140.4805  134.1294  155.7216 LP  0  0  0  0  0  0  0  0  0  0  0  0  # atno 17394 bound_to 11000
  141.1609  133.8794  157.1849 LP  0  0  0  0  0  0  0  0  0  0  0  0  # atno 17395 bound_to 11000

$$$$
