#       Name:                AV-unprocessed.smi:1209
#       Creating user name   scv26
#       Creation time:       Fri Mar 27 04:11:37 2020


#       File generated by GOLD software.
#

@<TRIPOS>MOLECULE
AV-unprocessed.smi:1209
    55    57     1
SMALL
NO_CHARGES


@<TRIPOS>ATOM
      1 ****        -4.6382   6.1750  -0.1563 C.3            1 S1                 0.0000
      2 ****        -4.6303   4.7097   0.1151 C.2            1 S1                 0.0000
      3 ****        -3.7268   3.7194  -0.1457 C.2            1 S1                 0.0000
      4 ****        -4.3456   2.5519   0.3811 C.2            1 S1                 0.0000
      5 ****        -3.8253   1.1384   0.3911 C.3            1 S1                 0.0000
      6 ****        -2.4772   1.0139   0.9501 N.3            1 S1                 0.0000
      7 ****        -2.4690   1.3480   2.3747 C.3            1 S1                 0.0000
      8 ****        -1.9488  -0.3312   0.7056 C.3            1 S1                 0.0000
      9 ****        -0.4440  -0.5235   0.9839 C.3            1 S1                 0.0000
     10 ****         0.2826   0.2694   0.0659 O.3            1 S1                 0.0000
     11 ****        -0.0318  -2.0010   0.8309 C.3            1 S1                 0.0000
     12 ****         1.3940  -2.2355   1.1029 N.pl3          1 S1                 0.0000
     13 ****         2.0244  -2.4759   2.2843 C.2            1 S1                 0.0000
     14 ****         3.3497  -2.6394   2.0175 N.pl3          1 S1                 1.0000
     15 ****         3.5699  -2.4985   0.6458 C.ar           1 S1                 0.0000
     16 ****         4.7395  -2.5782  -0.1007 C.ar           1 S1                 0.0000
     17 ****         4.6289  -2.3809  -1.4956 C.ar           1 S1                 0.0000
     18 ****         5.8884  -2.4602  -2.3416 C.3            1 S1                 0.0000
     19 ****         3.3722  -2.1120  -2.0974 C.ar           1 S1                 0.0000
     20 ****         3.2650  -1.8944  -3.5971 C.3            1 S1                 0.0000
     21 ****         2.1940  -2.0378  -1.3206 C.ar           1 S1                 0.0000
     22 ****         2.3198  -2.2367   0.0523 C.ar           1 S1                 0.0000
     23 ****        -5.5275   2.8209   0.9116 N.2            1 S1                 0.0000
     24 ****        -5.7180   4.1973   0.7463 O.3            1 S1                 0.0000
     25 ****        -3.6254   6.5467  -0.3114 H              1 S1                 0.0000
     26 ****        -5.0744   6.7235   0.6789 H              1 S1                 0.0000
     27 ****        -5.2210   6.3981  -1.0502 H              1 S1                 0.0000
     28 ****        -2.7687   3.8133  -0.6349 H              1 S1                 0.0000
     29 ****        -4.5099   0.4846   0.9344 H              1 S1                 0.0000
     30 ****        -3.8241   0.7750  -0.6371 H              1 S1                 0.0000
     31 ****        -1.4586   1.3457   2.7805 H              1 S1                 0.0000
     32 ****        -3.0699   0.6411   2.9484 H              1 S1                 0.0000
     33 ****        -2.8693   2.3469   2.5490 H              1 S1                 0.0000
     34 ****        -2.5175  -1.0487   1.2993 H              1 S1                 0.0000
     35 ****        -2.1279  -0.6055  -0.3353 H              1 S1                 0.0000
     36 ****        -0.1901  -0.2015   1.9930 H              1 S1                 0.0000
     37 ****        -0.0032   1.1660   0.1587 H              1 S1                 0.0000
     38 ****        -0.5939  -2.6140   1.5366 H              1 S1                 0.0000
     39 ****        -0.2755  -2.3815  -0.1615 H              1 S1                 0.0000
     40 ****         1.5578  -2.5313   3.2572 H              1 S1                 0.0000
     41 ****         5.6929  -2.7809   0.3651 H              1 S1                 0.0000
     42 ****         5.7939  -3.2398  -3.0982 H              1 S1                 0.0000
     43 ****         6.7640  -2.6914  -1.7343 H              1 S1                 0.0000
     44 ****         6.0719  -1.5100  -2.8438 H              1 S1                 0.0000
     45 ****         2.2332  -1.7139  -3.9010 H              1 S1                 0.0000
     46 ****         3.6228  -2.7701  -4.1386 H              1 S1                 0.0000
     47 ****         3.8574  -1.0312  -3.9014 H              1 S1                 0.0000
     48 ****         1.2390  -1.8265  -1.7784 H              1 S1                 0.0000
     49 ****         4.0502  -2.8331   2.7216 H              1 S1                 0.0000
     50 ****        -1.8771   1.6682   0.4899 LP             1 S1                 0.0000
     51 ****         0.1080  -0.0467  -0.8666 LP             1 S1                 0.0000
     52 ****         1.2609   0.2039   0.2624 LP             1 S1                 0.0000
     53 ****        -6.1559   2.1732   1.3424 LP             1 S1                 0.0000
     54 ****        -6.5362   4.3609   0.1951 LP             1 S1                 0.0000
     55 ****        -5.8257   4.6327   1.6400 LP             1 S1                 0.0000
@<TRIPOS>BOND
    1    1    2 1     
    2    1   25 1     
    3    1   26 1     
    4    1   27 1     
    5    2   24 1     
    6    2    3 2     
    7    3    4 1     
    8    3   28 1     
    9    4    5 1     
   10    4   23 2     
   11    5    6 1     
   12    5   29 1     
   13    5   30 1     
   14    6    7 1     
   15    6    8 1     
   16    7   31 1     
   17    7   32 1     
   18    7   33 1     
   19    8    9 1     
   20    8   34 1     
   21    8   35 1     
   22    9   10 1     
   23    9   11 1     
   24    9   36 1     
   25   10   37 1     
   26   11   12 1     
   27   11   38 1     
   28   11   39 1     
   29   12   22 1     
   30   12   13 1     
   31   13   14 2     
   32   13   40 1     
   33   14   15 1     
   34   14   49 1     
   35   15   22 ar    
   36   15   16 ar    
   37   16   17 ar    
   38   16   41 1     
   39   17   18 1     
   40   17   19 ar    
   41   18   42 1     
   42   18   43 1     
   43   18   44 1     
   44   19   20 1     
   45   19   21 ar    
   46   20   45 1     
   47   20   46 1     
   48   20   47 1     
   49   21   22 ar    
   50   21   48 1     
   51   23   24 1     
   52    6   50 1     
   53   10   51 1     
   54   10   52 1     
   55   23   53 1     
   56   24   54 1     
   57   24   55 1     
@<TRIPOS>SUBSTRUCTURE
      1 S1             1
@<TRIPOS>SET
LONE_PAIRS      STATIC     ATOMS    <user>   **** ""
6 50 51 52 53 54 55
DONOR_HYDROGENS      STATIC     ATOMS    <user>   **** ""
2 37 49
ATOM$BLUE        STATIC     ATOMS    COLORGROUP SYSTEM
6 50 51 52 53 54 55
ATOM$RED        STATIC     ATOMS    COLORGROUP SYSTEM
2 37 49
