AV-unprocessed.smi:3333|AV-procd|sdf|12831|dock5
  -GOLD-   2272019213D 1   1.00000     0.00000
 Structure written by MMmdl.
 41 43  0  0  0  0  0  0  0  0  1 V2000
  146.5257  137.1861  156.9789 C   0  0  0  0  0  0  0  0  0  0  0  0
  145.5665  137.8420  155.9800 C   0  0  0  0  0  0  0  0  0  0  0  0
  146.2717  138.7192  155.0003 C   0  0  0  0  0  0  0  0  0  0  0  0
  146.9586  139.8098  155.3499 N   0  0  0  0  0  0  0  0  0  0  0  0
  147.5039  140.4808  154.2504 C   0  0  0  0  0  0  0  0  0  0  0  0
  148.3167  141.7268  154.4606 C   0  0  0  0  0  0  0  0  0  0  0  0
  149.6224  141.4127  155.1976 C   0  0  0  0  0  0  0  0  0  0  0  0
  150.3184  140.4574  154.8520 O   0  0  0  0  0  0  0  0  0  0  0  0
  149.9403  142.2218  156.2204 N   0  0  0  0  0  0  0  0  0  0  0  0
  151.1274  142.0875  157.0583 C   0  0  0  0  0  0  0  0  0  0  0  0
  151.0345  142.9479  158.3363 C   0  0  2  0  0  0  0  0  0  0  0  0
  151.0338  144.4714  158.0684 C   0  0  0  0  0  0  0  0  0  0  0  0
  152.1955  144.9781  158.9422 C   0  0  1  0  0  0  0  0  0  0  0  0
  151.8160  144.8518  160.4296 C   0  0  0  0  0  0  0  0  0  0  0  0
  151.8836  143.3313  160.6686 C   0  0  0  0  0  0  0  0  0  0  0  0
  152.2512  142.7854  159.2756 C   0  0  2  0  0  0  0  0  0  0  0  0
  153.2148  143.8584  158.7775 C   0  0  0  0  0  0  0  0  0  0  0  0
  147.1970  139.8872  153.0504 C   0  0  0  0  0  0  0  0  0  0  0  0
  146.2220  138.4591  153.2609 S   0  0  0  0  0  0  0  0  0  0  0  0
  145.9825  136.5544  157.6816 H   0  0  0  0  0  0  0  0  0  0  0  0
  147.0673  137.9369  157.5545 H   0  0  0  0  0  0  0  0  0  0  0  0
  147.2594  136.5619  156.4676 H   0  0  0  0  0  0  0  0  0  0  0  0
  145.0151  137.0753  155.4345 H   0  0  0  0  0  0  0  0  0  0  0  0
  144.8266  138.4391  156.5134 H   0  0  0  0  0  0  0  0  0  0  0  0
  148.5326  142.1999  153.5016 H   0  0  0  0  0  0  0  0  0  0  0  0
  147.7608  142.4600  155.0462 H   0  0  0  0  0  0  0  0  0  0  0  0
  149.3118  142.9814  156.4384 H   0  0  0  0  0  0  0  0  0  0  0  0
  151.2751  141.0384  157.3201 H   0  0  0  0  0  0  0  0  0  0  0  0
  151.9939  142.3784  156.4641 H   0  0  0  0  0  0  0  0  0  0  0  0
  150.1274  142.6658  158.8728 H   0  0  0  0  0  0  0  0  0  0  0  0
  151.2317  144.6914  157.0184 H   0  0  0  0  0  0  0  0  0  0  0  0
  150.0830  144.9373  158.3293 H   0  0  0  0  0  0  0  0  0  0  0  0
  152.5513  145.9705  158.6639 H   0  0  0  0  0  0  0  0  0  0  0  0
  152.5361  145.3718  161.0624 H   0  0  0  0  0  0  0  0  0  0  0  0
  150.8274  145.2621  160.6387 H   0  0  0  0  0  0  0  0  0  0  0  0
  152.6619  143.0927  161.3946 H   0  0  0  0  0  0  0  0  0  0  0  0
  150.9437  142.9248  161.0436 H   0  0  0  0  0  0  0  0  0  0  0  0
  152.6590  141.7743  159.3026 H   0  0  0  0  0  0  0  0  0  0  0  0
  153.5374  143.7143  157.7454 H   0  0  0  0  0  0  0  0  0  0  0  0
  154.0949  143.9779  159.4121 H   0  0  0  0  0  0  0  0  0  0  0  0
  147.4865  140.2021  152.0589 H   0  0  0  0  0  0  0  0  0  0  0  0
  1  2  1  0  0  0  0
  1 20  1  0  0  0  0
  1 21  1  0  0  0  0
  1 22  1  0  0  0  0
  2  3  1  0  0  0  0
  2 23  1  0  0  0  0
  2 24  1  0  0  0  0
  3 19  1  0  0  0  0
  3  4  2  0  0  0  0
  4  5  1  0  0  0  0
  5  6  1  0  0  0  0
  5 18  2  0  0  0  0
  6  7  1  0  0  0  0
  6 25  1  0  0  0  0
  6 26  1  0  0  0  0
  7  8  2  0  0  0  0
  7  9  1  0  0  0  0
  9 10  1  0  0  0  0
  9 27  1  0  0  0  0
 10 11  1  0  0  0  0
 10 28  1  0  0  0  0
 10 29  1  0  0  0  0
 11 16  1  0  0  0  0
 11 12  1  0  0  0  0
 11 30  1  0  0  0  0
 12 13  1  0  0  0  0
 12 31  1  0  0  0  0
 12 32  1  0  0  0  0
 13 17  1  0  0  0  0
 13 14  1  0  0  0  0
 13 33  1  0  0  0  0
 14 15  1  0  0  0  0
 14 34  1  0  0  0  0
 14 35  1  0  0  0  0
 15 16  1  0  0  0  0
 15 36  1  0  0  0  0
 15 37  1  0  0  0  0
 16 17  1  0  0  0  0
 16 38  1  0  0  0  0
 17 39  1  0  0  0  0
 17 40  1  0  0  0  0
 18 19  1  0  0  0  0
 18 41  1  0  0  0  0
M  END
> <s_m_source_file>
AV-unprocessed.smi

> <i_m_source_file_index>
3333

> <i_lp_mmshare_version>
43012

> <i_f3d_flags>
0

> <s_epik_input>
W0NIM11bQ0gyXWMxbmMoW2NIXXMxKVtDSDJdQyg9TylbTkhdW0NIMl1bQ0BIXShbQ0gyXVtDQEBIXTIzKVtDQEBIXShbQ0gyXTMpW0NIMl1bQ0gyXTI=

> <s_epik_cmdline>
J2VwaWtfcHl0aG9uJywgJy1waCcsICc3LjAnLCAnLXRuJywgJzgnLCAnLW1hJywgJzIwMCcsICctbWV0YWxfYmluZGluZycsICctaW1hZScsICc8aW5maWxlLm1hZT4nLCAnLW9tYWUnLCAnPG91dGZpbGUubWFlPic=

> <r_lp_tautomer_probability>
1

> <r_epik_Ionization_Penalty>
6.68371e-05

> <r_epik_Ionization_Penalty_Charging>
0

> <r_epik_Ionization_Penalty_Neutral>
6.68371e-05

> <r_epik_State_Penalty>
-0

> <r_epik_Charging_Adjusted_Penalty>
0

> <i_epik_Tot_Q>
0

> <i_epik_Tot_abs_Q>
0

> <r_epik_Metal_State_Penalty>
-0

> <b_epik_Metal_Only>
0

> <s_lp_Force_Field>
OPLS_2005

> <r_lp_Energy>
44.1536

> <b_lp_Chiralities_Consistent>
1

> <s_lp_Variant>
AV-unprocessed.smi:3333-1

> <Gold.Version>
5.8.1

> <Gold.Id.Protein>
6NUR|6NUR_protein|mol2

> <Gold.PLP.Fitness>
46.6247

> <Gold.PLP.PLP>
-39.1040

> <Gold.PLP.part.hbond>
-2.0000

> <Gold.PLP.part.metal>
0.0000

> <Gold.PLP.part.buried>
-4.2765

> <Gold.PLP.part.nonpolar>
-33.4195

> <Gold.PLP.part.repulsive>
0.2019

> <Gold.PLP.ligand.clash>
0.0000

> <Gold.PLP.ligand.torsion>
0.2920

> <Gold.PLP.Chemscore.Hbond>
1.7360

> <Gold.PLP.Chemscore.CHOScore>
0.9560

> <Gold.PLP.Chemscore.Metal>
0.0000

> <Gold.Chemscore.Hbonds>
donor molecule, donor type, donor heavy atom, donor atom, acceptor molecule, acceptor atom, score
      L1  H     9    27       P1  8028  0.74
      P1  H  7989  7998       L1     8  1.00
      L1  C    18    41       P1  7957  0.94

> <Gold.PLP.Chemscore.Internal.Correction>
0.0286

> <Gold.Rescore>
     Score         DG    S(hbond)    S(metal)    S(lipo)     H(rot)  DE(clash)    DE(int)     intcor
     20.72     -21.30       1.58        0.00     121.25       1.42       0.18       0.40       ----

> <Gold.Chemscore.Fitness>
20.7188

> <Gold.Chemscore.DG>
-21.2986

> <Gold.Chemscore.ZeroCoef>
-5.4800

> <Gold.Chemscore.Hbond>
1.5791

> <Gold.Chemscore.Metal>
0.0000

> <Gold.Chemscore.Lipo>
121.2518

> <Gold.Chemscore.Internal_Hbond>
0.0000

> <Gold.Chemscore.DEClash>
0.1770

> <Gold.Chemscore.DEInternal>
0.4028

> <Gold.Chemscore.Rot>
1.4227

> <Gold.Chemscore.Internal.Correction>
   9.000000E+99

> <Gold.Chemscore.Hbonds>
donor molecule, donor type, donor heavy atom, donor atom, acceptor molecule, acceptor atom, score
      L1  H     9    27       P1  8028  0.71
      P1  H  7989  7998       L1     8  0.83

> <Gold.Chemscore.Hbond.Weighted>
-5.2743

> <Gold.Chemscore.Metal.Weighted>
-0.0000

> <Gold.Chemscore.Lipo.Weighted>
-14.1865

> <Gold.Chemscore.Internal_Hbond.Weighted>
0.0000

> <Gold.Chemscore.DEClash.Weighted>
0.1770

> <Gold.Chemscore.DEInternal.Weighted>
0.4028

> <Gold.Chemscore.Rot.Weighted>
3.6421

> <Gold.Chemscore.Internal.Correction.Weighted>
   9.000000E+99

> <Gold.Protein.RotatedTorsions>
[ 6907 6896 6895 6894 ] final -125.85 input  -60.11 | X-H torsion
[ 7974 7965 7964 7962 ] final  -86.97 input  175.53 | X-H torsion
[ 8008 7997 7996 7995 ] final    3.01 input   59.86 | X-H torsion
[ 10167 10162 10161 10158 ] final -119.88 input  -65.29 | X-H torsion
[ 10718 10713 10712 10709 ] final  -57.12 input   66.30 | X-H torsion
[ 10763 10752 10751 10750 ] final   57.43 input  -60.55 | X-H torsion
[ 11005 11000 10999 10996 ] final -104.71 input  -57.11 | X-H torsion

> <Gold.Protein.ActiveResidues>
 VAL166  LYS551  ARG553  GLY616  TRP617  ASP618  TYR619  PRO620  LYS621  CYS622 
 ASP623  PHE694  ASN695  SER759  ASP760  ASP761  ALA762  ILE779  LEU786  VAL792 
 PHE793  MET794  SER795  GLU796  ALA797  LYS798  CYS799  TRP800  GLU811  SER814 

> <Gold.Protein.RotatedAtoms>
  150.8910  133.7244  159.2904 H   0  0  0  0  0  0  0  0  0  0  0  0  # atno 6907 bound_to 6896
  151.4794  135.1050  159.9783 H   0  0  0  0  0  0  0  0  0  0  0  0  # atno 6908 bound_to 6896
  152.4820  133.8230  159.7119 H   0  0  0  0  0  0  0  0  0  0  0  0  # atno 6909 bound_to 6896
  145.4727  140.9559  143.1908 H   0  0  0  0  0  0  0  0  0  0  0  0  # atno 7974 bound_to 7965
  154.6985  140.2668  155.6742 H   0  0  0  0  0  0  0  0  0  0  0  0  # atno 8008 bound_to 7997
  156.2757  140.2777  156.1511 H   0  0  0  0  0  0  0  0  0  0  0  0  # atno 8009 bound_to 7997
  155.0797  140.0372  157.2625 H   0  0  0  0  0  0  0  0  0  0  0  0  # atno 8010 bound_to 7997
  140.0419  143.5145  152.2126 H   0  0  0  0  0  0  0  0  0  0  0  0  # atno 10167 bound_to 10162
  156.1235  130.4164  150.0398 H   0  0  0  0  0  0  0  0  0  0  0  0  # atno 10718 bound_to 10713
  152.9850  135.5642  154.5390 H   0  0  0  0  0  0  0  0  0  0  0  0  # atno 10763 bound_to 10752
  154.4848  135.2790  155.1545 H   0  0  0  0  0  0  0  0  0  0  0  0  # atno 10764 bound_to 10752
  154.3039  135.6302  153.5489 H   0  0  0  0  0  0  0  0  0  0  0  0  # atno 10765 bound_to 10752
  141.1088  133.8746  157.1645 H   0  0  0  0  0  0  0  0  0  0  0  0  # atno 11005 bound_to 11000
  144.7935  139.6280  143.7103 LP  0  0  0  0  0  0  0  0  0  0  0  0  # atno 17320 bound_to 7965
  146.2387  139.5957  142.9506 LP  0  0  0  0  0  0  0  0  0  0  0  0  # atno 17321 bound_to 7965
  139.6008  144.7582  151.3176 LP  0  0  0  0  0  0  0  0  0  0  0  0  # atno 17342 bound_to 10162
  140.7256  143.7012  150.7843 LP  0  0  0  0  0  0  0  0  0  0  0  0  # atno 17343 bound_to 10162
  156.8329  130.9399  151.3636 LP  0  0  0  0  0  0  0  0  0  0  0  0  # atno 17370 bound_to 10713
  157.6418  130.8811  149.9462 LP  0  0  0  0  0  0  0  0  0  0  0  0  # atno 17371 bound_to 10713
  139.9971  135.0042  157.0106 LP  0  0  0  0  0  0  0  0  0  0  0  0  # atno 17394 bound_to 11000
  140.4832  134.1268  155.7220 LP  0  0  0  0  0  0  0  0  0  0  0  0  # atno 17395 bound_to 11000

$$$$
