#       Name:                AV-unprocessed.smi:2356
#       Creating user name   scv26
#       Creation time:       Fri Mar 27 13:03:24 2020


#       File generated by GOLD software.
#

@<TRIPOS>MOLECULE
AV-unprocessed.smi:2356
    58    61     1
SMALL
NO_CHARGES


@<TRIPOS>ATOM
      1 ****        -0.9401  -1.5257  -0.5708 C.3            1 S1                 0.0000
      2 ****        -1.6151  -0.1695  -0.4730 C.ar           1 S1                 0.0000
      3 ****        -2.9664  -0.1436  -0.4957 N.pl3          1 S1                 1.0000
      4 ****        -3.7032   0.9895  -0.4174 C.ar           1 S1                 0.0000
      5 ****        -5.1069   0.8849  -0.4481 N.pl3          1 S1                 0.0000
      6 ****        -5.9525   2.0534  -0.6273 C.3            1 S1                 0.0000
      7 ****        -7.3647   1.4897  -0.7796 C.3            1 S1                 0.0000
      8 ****        -7.1295   0.1425  -1.4630 C.3            1 S1                 0.0000
      9 ****        -5.7764  -0.3229  -0.9134 C.3            1 S1                 0.0000
     10 ****        -3.0271   2.2247  -0.2910 C.ar           1 S1                 0.0000
     11 ****        -1.6184   2.2518  -0.2632 C.ar           1 S1                 0.0000
     12 ****        -0.8904   1.0409  -0.3683 C.ar           1 S1                 0.0000
     13 ****         0.5298   0.9769  -0.3292 N.am           1 S1                 0.0000
     14 ****         1.4289   1.9337  -0.6310 C.2            1 S1                 0.0000
     15 ****         1.1430   3.0629  -1.0227 O.2            1 S1                 0.0000
     16 ****         2.7104   1.5480  -0.4933 N.am           1 S1                 0.0000
     17 ****         3.9269   2.3278  -0.7346 C.3            1 S1                 0.0000
     18 ****         4.2644   3.2091   0.4798 C.3            1 S1                 0.0000
     19 ****         5.6160   3.9121   0.2840 C.3            1 S1                 0.0000
     20 ****         6.6442   2.9556   0.0382 O.3            1 S1                 0.0000
     21 ****         6.4451   2.1275  -1.1085 C.3            1 S1                 0.0000
     22 ****         6.6049   2.9077  -2.4065 C.3            1 S1                 0.0000
     23 ****         7.1621   2.2437  -3.6440 C.3            1 S1                 0.0000
     24 ****         7.9775   3.2837  -2.9127 C.3            1 S1                 0.0000
     25 ****         5.1026   1.3762  -1.0064 C.3            1 S1                 0.0000
     26 ****        -0.2891  -1.6907   0.2883 H              1 S1                 0.0000
     27 ****        -0.3362  -1.5828  -1.4769 H              1 S1                 0.0000
     28 ****        -1.6722  -2.3338  -0.5999 H              1 S1                 0.0000
     29 ****        -5.8831   2.7372   0.2192 H              1 S1                 0.0000
     30 ****        -5.6508   2.5853  -1.5306 H              1 S1                 0.0000
     31 ****        -7.8081   1.3302   0.2044 H              1 S1                 0.0000
     32 ****        -8.0256   2.1472  -1.3448 H              1 S1                 0.0000
     33 ****        -7.9299  -0.5746  -1.2787 H              1 S1                 0.0000
     34 ****        -7.0544   0.2904  -2.5411 H              1 S1                 0.0000
     35 ****        -5.2055  -0.8499  -1.6789 H              1 S1                 0.0000
     36 ****        -5.9146  -0.9949  -0.0659 H              1 S1                 0.0000
     37 ****        -3.5700   3.1545  -0.2082 H              1 S1                 0.0000
     38 ****        -1.1255   3.2042  -0.1455 H              1 S1                 0.0000
     39 ****         0.9148   0.0711  -0.1041 H              1 S1                 0.0000
     40 ****         2.8586   0.5940  -0.1963 H              1 S1                 0.0000
     41 ****         3.7893   2.9586  -1.6140 H              1 S1                 0.0000
     42 ****         3.4842   3.9521   0.6460 H              1 S1                 0.0000
     43 ****         4.3076   2.5961   1.3814 H              1 S1                 0.0000
     44 ****         5.5626   4.6381  -0.5274 H              1 S1                 0.0000
     45 ****         5.8744   4.4727   1.1825 H              1 S1                 0.0000
     46 ****         7.2421   1.3833  -1.0826 H              1 S1                 0.0000
     47 ****         5.8255   3.6448  -2.5869 H              1 S1                 0.0000
     48 ****         7.4837   1.2071  -3.5644 H              1 S1                 0.0000
     49 ****         6.7300   2.5249  -4.6022 H              1 S1                 0.0000
     50 ****         8.0889   4.2592  -3.3816 H              1 S1                 0.0000
     51 ****         8.8392   2.9381  -2.3452 H              1 S1                 0.0000
     52 ****         5.1729   0.6511  -0.1939 H              1 S1                 0.0000
     53 ****         4.9244   0.7992  -1.9148 H              1 S1                 0.0000
     54 ****        -3.4603  -1.0323  -0.5766 H              1 S1                 0.0000
     55 ****         0.1847   3.3247  -1.1371 LP             1 S1                 0.0000
     56 ****         1.8687   3.7199  -1.2271 LP             1 S1                 0.0000
     57 ****         6.7123   2.3619   0.8401 LP             1 S1                 0.0000
     58 ****         7.5044   3.4508  -0.0838 LP             1 S1                 0.0000
@<TRIPOS>BOND
    1    1    2 1     
    2    1   26 1     
    3    1   27 1     
    4    1   28 1     
    5    2   12 ar    
    6    2    3 ar    
    7    3    4 ar    
    8    3   54 1     
    9    4    5 1     
   10    4   10 ar    
   11    5    9 1     
   12    5    6 1     
   13    6    7 1     
   14    6   29 1     
   15    6   30 1     
   16    7    8 1     
   17    7   31 1     
   18    7   32 1     
   19    8    9 1     
   20    8   33 1     
   21    8   34 1     
   22    9   35 1     
   23    9   36 1     
   24   10   11 ar    
   25   10   37 1     
   26   11   12 ar    
   27   11   38 1     
   28   12   13 1     
   29   13   14 am    
   30   13   39 1     
   31   14   15 2     
   32   14   16 am    
   33   16   17 1     
   34   16   40 1     
   35   17   25 1     
   36   17   18 1     
   37   17   41 1     
   38   18   19 1     
   39   18   42 1     
   40   18   43 1     
   41   19   20 1     
   42   19   44 1     
   43   19   45 1     
   44   20   21 1     
   45   21   22 1     
   46   21   25 1     
   47   21   46 1     
   48   22   24 1     
   49   22   23 1     
   50   22   47 1     
   51   23   24 1     
   52   23   48 1     
   53   23   49 1     
   54   24   50 1     
   55   24   51 1     
   56   25   52 1     
   57   25   53 1     
   58   15   55 1     
   59   15   56 1     
   60   20   57 1     
   61   20   58 1     
@<TRIPOS>SUBSTRUCTURE
      1 S1             1
@<TRIPOS>SET
LONE_PAIRS      STATIC     ATOMS    <user>   **** ""
4 55 56 57 58
DONOR_HYDROGENS      STATIC     ATOMS    <user>   **** ""
3 54 39 40
ATOM$BLUE        STATIC     ATOMS    COLORGROUP SYSTEM
4 55 56 57 58
ATOM$RED        STATIC     ATOMS    COLORGROUP SYSTEM
3 54 39 40
