AV-unprocessed.smi:83|AV-procd|sdf|803|dock8
  -GOLD-   2262017193D 1   1.00000     0.00000
 Structure written by MMmdl.
 56 59  0  0  0  0  0  0  0  0  1 V2000
  151.6949  144.7791  159.6712 C   0  0  0  0  0  0  0  0  0  0  0  0
  152.2684  143.4490  160.1611 C   0  0  0  0  0  0  0  0  0  0  0  0
  152.8494  143.4126  161.2459 O   0  0  0  0  0  0  0  0  0  0  0  0
  152.1229  142.3606  159.3786 N   0  0  0  0  0  0  0  0  0  0  0  0
  152.6643  141.0307  159.6489 C   0  0  0  0  0  0  0  0  0  0  0  0
  152.4848  140.2477  158.3468 C   0  0  0  0  0  0  0  0  0  0  0  0
  151.2837  140.9052  157.6744 C   0  0  2  0  0  0  0  0  0  0  0  0
  151.2203  140.6692  156.1475 C   0  0  0  0  0  0  0  0  0  0  0  0
  149.8554  140.5625  155.6273 N   0  0  0  0  0  0  0  0  0  0  0  0
  149.3756  141.6226  154.7503 C   0  0  0  0  0  0  0  0  0  0  0  0
  149.3673  139.3063  155.4611 C   0  0  0  0  0  0  0  0  0  0  0  0
  150.1498  138.2705  155.8632 N   0  0  0  0  0  0  0  0  0  0  0  0
  149.7715  137.0088  155.6422 C   0  0  0  0  0  0  0  0  0  0  0  0
  148.6739  136.5636  155.0299 N   0  0  0  0  0  0  0  0  0  0  0  0
  147.8773  137.5965  154.6338 C   0  0  0  0  0  0  0  0  0  0  0  0
  148.1303  138.9849  154.8261 C   0  0  0  0  0  0  0  0  0  0  0  0
  147.0879  139.7273  154.2792 N   0  0  0  0  0  0  0  0  0  0  0  0
  146.2780  138.8339  153.7823 C   0  0  0  0  0  0  0  0  0  0  0  0
  146.6939  137.5306  153.9228 N   0  0  0  0  0  0  0  0  0  0  0  0
  146.0428  136.3460  153.3982 C   0  0  0  0  0  0  0  0  0  0  0  0
  145.2959  136.6251  152.0750 C   0  0  1  0  0  0  0  0  0  0  0  0
  146.2075  137.2636  151.2041 O   0  0  0  0  0  0  0  0  0  0  0  0
  144.7380  135.3625  151.3783 C   0  0  2  0  0  0  0  0  0  0  0  0
  143.6338  134.6399  152.1554 C   0  0  0  0  0  0  0  0  0  0  0  0
  143.7160  133.2016  151.6626 C   0  0  0  0  0  0  0  0  0  0  0  0
  145.0386  133.1484  150.8965 C   0  0  0  0  0  0  0  0  0  0  0  0
  145.7139  134.3351  151.2800 O   0  0  0  0  0  0  0  0  0  0  0  0
  151.4167  142.3746  158.1022 C   0  0  0  0  0  0  0  0  0  0  0  0
  152.0741  145.0222  158.6785 H   0  0  0  0  0  0  0  0  0  0  0  0
  151.9751  145.5897  160.3446 H   0  0  0  0  0  0  0  0  0  0  0  0
  150.6063  144.7361  159.6304 H   0  0  0  0  0  0  0  0  0  0  0  0
  153.7133  141.0604  159.9467 H   0  0  0  0  0  0  0  0  0  0  0  0
  152.0914  140.5699  160.4548 H   0  0  0  0  0  0  0  0  0  0  0  0
  153.3723  140.3704  157.7241 H   0  0  0  0  0  0  0  0  0  0  0  0
  152.3418  139.1801  158.5156 H   0  0  0  0  0  0  0  0  0  0  0  0
  150.3875  140.4932  158.1411 H   0  0  0  0  0  0  0  0  0  0  0  0
  151.7764  141.4438  155.6184 H   0  0  0  0  0  0  0  0  0  0  0  0
  151.7331  139.7353  155.9147 H   0  0  0  0  0  0  0  0  0  0  0  0
  148.2994  141.5436  154.5922 H   0  0  0  0  0  0  0  0  0  0  0  0
  149.8764  141.5863  153.7826 H   0  0  0  0  0  0  0  0  0  0  0  0
  149.5731  142.5979  155.1955 H   0  0  0  0  0  0  0  0  0  0  0  0
  150.4546  136.2482  155.9898 H   0  0  0  0  0  0  0  0  0  0  0  0
  145.3712  139.1047  153.2612 H   0  0  0  0  0  0  0  0  0  0  0  0
  146.8044  135.5790  153.2513 H   0  0  0  0  0  0  0  0  0  0  0  0
  145.3535  135.9642  154.1526 H   0  0  0  0  0  0  0  0  0  0  0  0
  144.4777  137.3224  152.2606 H   0  0  0  0  0  0  0  0  0  0  0  0
  147.0817  137.1340  151.5390 H   0  0  0  0  0  0  0  0  0  0  0  0
  144.3836  135.6116  150.3760 H   0  0  0  0  0  0  0  0  0  0  0  0
  143.8458  134.6690  153.2252 H   0  0  0  0  0  0  0  0  0  0  0  0
  142.6511  135.0852  151.9963 H   0  0  0  0  0  0  0  0  0  0  0  0
  143.7126  132.5065  152.5026 H   0  0  0  0  0  0  0  0  0  0  0  0
  142.8799  132.9467  151.0109 H   0  0  0  0  0  0  0  0  0  0  0  0
  145.6279  132.2610  151.1265 H   0  0  0  0  0  0  0  0  0  0  0  0
  144.8618  133.1687  149.8203 H   0  0  0  0  0  0  0  0  0  0  0  0
  150.4409  142.8536  158.1942 H   0  0  0  0  0  0  0  0  0  0  0  0
  152.0094  142.9424  157.3837 H   0  0  0  0  0  0  0  0  0  0  0  0
  1  2  1  0  0  0  0
  1 29  1  0  0  0  0
  1 30  1  0  0  0  0
  1 31  1  0  0  0  0
  2  3  2  0  0  0  0
  2  4  1  0  0  0  0
  4 28  1  0  0  0  0
  4  5  1  0  0  0  0
  5  6  1  0  0  0  0
  5 32  1  0  0  0  0
  5 33  1  0  0  0  0
  6  7  1  0  0  0  0
  6 34  1  0  0  0  0
  6 35  1  0  0  0  0
  7  8  1  0  0  0  0
  7 28  1  0  0  0  0
  7 36  1  0  0  0  0
  8  9  1  0  0  0  0
  8 37  1  0  0  0  0
  8 38  1  0  0  0  0
  9 10  1  0  0  0  0
  9 11  1  0  0  0  0
 10 39  1  0  0  0  0
 10 40  1  0  0  0  0
 10 41  1  0  0  0  0
 11 16  1  0  0  0  0
 11 12  2  0  0  0  0
 12 13  1  0  0  0  0
 13 14  2  0  0  0  0
 13 42  1  0  0  0  0
 14 15  1  0  0  0  0
 15 19  1  0  0  0  0
 15 16  2  0  0  0  0
 16 17  1  0  0  0  0
 17 18  2  0  0  0  0
 18 19  1  0  0  0  0
 18 43  1  0  0  0  0
 19 20  1  0  0  0  0
 20 21  1  0  0  0  0
 20 44  1  0  0  0  0
 20 45  1  0  0  0  0
 21 22  1  0  0  0  0
 21 23  1  0  0  0  0
 21 46  1  0  0  0  0
 22 47  1  0  0  0  0
 23 27  1  0  0  0  0
 23 24  1  0  0  0  0
 23 48  1  0  0  0  0
 24 25  1  0  0  0  0
 24 49  1  0  0  0  0
 24 50  1  0  0  0  0
 25 26  1  0  0  0  0
 25 51  1  0  0  0  0
 25 52  1  0  0  0  0
 26 27  1  0  0  0  0
 26 53  1  0  0  0  0
 26 54  1  0  0  0  0
 28 55  1  0  0  0  0
 28 56  1  0  0  0  0
M  END
> <s_m_source_file>
AV-unprocessed.smi

> <i_m_source_file_index>
83

> <i_lp_mmshare_version>
43012

> <i_f3d_flags>
0

> <s_epik_input>
W0NIM11DKD1PKU4xW0NIMl1bQ0gyXVtDQEhdKFtDSDJdMSlbQ0gyXU4oW0NIM10pYyhuW2NIXW4yKWMoYzIzKW5bY0hdbjNbQ0gyXVtDQEhdKFtPSF0pW0NAQEhdNFtDSDJdW0NIMl1bQ0gyXU80

> <s_epik_cmdline>
J2VwaWtfcHl0aG9uJywgJy1waCcsICc3LjAnLCAnLXRuJywgJzgnLCAnLW1hJywgJzIwMCcsICctbWV0YWxfYmluZGluZycsICctaW1hZScsICc8aW5maWxlLm1hZT4nLCAnLW9tYWUnLCAnPG91dGZpbGUubWFlPic=

> <r_lp_tautomer_probability>
1

> <r_epik_Ionization_Penalty>
0.00109752

> <r_epik_Ionization_Penalty_Charging>
0

> <r_epik_Ionization_Penalty_Neutral>
0.00109752

> <r_epik_State_Penalty>
0.000634803

> <r_epik_Charging_Adjusted_Penalty>
0.000634803

> <i_epik_Tot_Q>
0

> <i_epik_Tot_abs_Q>
0

> <r_epik_Metal_State_Penalty>
-0

> <b_epik_Metal_Only>
0

> <s_lp_Force_Field>
OPLS_2005

> <r_lp_Energy>
52.1505

> <b_lp_Chiralities_Consistent>
1

> <s_lp_Variant>
AV-unprocessed.smi:83-4

> <Gold.Version>
5.8.1

> <Gold.Id.Protein>
6NUR|6NUR_protein|mol2

> <Gold.PLP.Fitness>
48.2834

> <Gold.PLP.PLP>
-44.1621

> <Gold.PLP.part.hbond>
-2.2563

> <Gold.PLP.part.metal>
0.0000

> <Gold.PLP.part.buried>
-3.8006

> <Gold.PLP.part.nonpolar>
-38.0007

> <Gold.PLP.part.repulsive>
0.5250

> <Gold.PLP.ligand.clash>
0.0000

> <Gold.PLP.ligand.torsion>
1.2702

> <Gold.PLP.Chemscore.Hbond>
1.0000

> <Gold.PLP.Chemscore.CHOScore>
1.0000

> <Gold.PLP.Chemscore.Metal>
0.0000

> <Gold.Chemscore.Hbonds>
donor molecule, donor type, donor heavy atom, donor atom, acceptor molecule, acceptor atom, score
      L1  H    22    47       P1  7948  0.89
      L1  C    18    43       P1 10175  1.00

> <Gold.PLP.Chemscore.Internal.Correction>
0.6617

> <Gold.Rescore>
     Score         DG    S(hbond)    S(metal)    S(lipo)     H(rot)  DE(clash)    DE(int)     intcor
     10.44     -12.66       1.00        0.00      90.09       2.62       0.07       2.14       ----

> <Gold.Chemscore.Fitness>
10.4394

> <Gold.Chemscore.DG>
-12.6554

> <Gold.Chemscore.ZeroCoef>
-5.4800

> <Gold.Chemscore.Hbond>
0.9970

> <Gold.Chemscore.Metal>
0.0000

> <Gold.Chemscore.Lipo>
90.0889

> <Gold.Chemscore.Internal_Hbond>
0.0000

> <Gold.Chemscore.DEClash>
0.0712

> <Gold.Chemscore.DEInternal>
2.1449

> <Gold.Chemscore.Rot>
2.6152

> <Gold.Chemscore.Internal.Correction>
   9.000000E+99

> <Gold.Chemscore.Hbonds>
donor molecule, donor type, donor heavy atom, donor atom, acceptor molecule, acceptor atom, score
      L1  H    22    47       P1  7948  0.87

> <Gold.Chemscore.Hbond.Weighted>
-3.3299

> <Gold.Chemscore.Metal.Weighted>
-0.0000

> <Gold.Chemscore.Lipo.Weighted>
-10.5404

> <Gold.Chemscore.Internal_Hbond.Weighted>
0.0000

> <Gold.Chemscore.DEClash.Weighted>
0.0712

> <Gold.Chemscore.DEInternal.Weighted>
2.1449

> <Gold.Chemscore.Rot.Weighted>
6.6949

> <Gold.Chemscore.Internal.Correction.Weighted>
   9.000000E+99

> <Gold.Protein.RotatedTorsions>
[ 6907 6896 6895 6894 ] final  -26.13 input  -60.11 | X-H torsion
[ 7974 7965 7964 7962 ] final -153.03 input  175.53 | X-H torsion
[ 8008 7997 7996 7995 ] final  -82.67 input   59.86 | X-H torsion
[ 10167 10162 10161 10158 ] final  146.29 input  -65.29 | X-H torsion
[ 10718 10713 10712 10709 ] final  -90.23 input   66.30 | X-H torsion
[ 10763 10752 10751 10750 ] final   -3.37 input  -60.55 | X-H torsion
[ 11005 11000 10999 10996 ] final  -89.74 input  -57.11 | X-H torsion

> <Gold.Protein.ActiveResidues>
 VAL166  LYS551  ARG553  GLY616  TRP617  ASP618  TYR619  PRO620  LYS621  CYS622 
 ASP623  PHE694  ASN695  SER759  ASP760  ASP761  ALA762  ILE779  LEU786  VAL792 
 PHE793  MET794  SER795  GLU796  ALA797  LYS798  CYS799  TRP800  GLU811  SER814 

> <Gold.Protein.RotatedAtoms>
  151.1653  135.0293  159.8727 H   0  0  0  0  0  0  0  0  0  0  0  0  # atno 6907 bound_to 6896
  152.5450  134.1232  159.8418 H   0  0  0  0  0  0  0  0  0  0  0  0  # atno 6908 bound_to 6896
  151.1332  133.4976  159.2631 H   0  0  0  0  0  0  0  0  0  0  0  0  # atno 6909 bound_to 6896
  144.7762  140.4582  143.5871 H   0  0  0  0  0  0  0  0  0  0  0  0  # atno 7974 bound_to 7965
  154.6110  140.0630  156.9494 H   0  0  0  0  0  0  0  0  0  0  0  0  # atno 8008 bound_to 7997
  155.1973  140.3312  155.4330 H   0  0  0  0  0  0  0  0  0  0  0  0  # atno 8009 bound_to 7997
  156.2377  140.1870  156.7059 H   0  0  0  0  0  0  0  0  0  0  0  0  # atno 8010 bound_to 7997
  139.4910  144.5840  151.6815 H   0  0  0  0  0  0  0  0  0  0  0  0  # atno 10167 bound_to 10162
  155.9987  130.4902  150.5291 H   0  0  0  0  0  0  0  0  0  0  0  0  # atno 10718 bound_to 10713
  153.3705  135.6994  153.6642 H   0  0  0  0  0  0  0  0  0  0  0  0  # atno 10763 bound_to 10752
  153.5294  135.3595  155.2669 H   0  0  0  0  0  0  0  0  0  0  0  0  # atno 10764 bound_to 10752
  154.8680  135.4177  154.2982 H   0  0  0  0  0  0  0  0  0  0  0  0  # atno 10765 bound_to 10752
  141.1579  133.7649  156.9638 H   0  0  0  0  0  0  0  0  0  0  0  0  # atno 11005 bound_to 11000
  145.6178  139.1520  143.3039 LP  0  0  0  0  0  0  0  0  0  0  0  0  # atno 17320 bound_to 7965
  146.1943  140.6290  142.9131 LP  0  0  0  0  0  0  0  0  0  0  0  0  # atno 17321 bound_to 7965
  140.5452  144.0514  150.6104 LP  0  0  0  0  0  0  0  0  0  0  0  0  # atno 17342 bound_to 10162
  140.3550  143.2941  152.0446 LP  0  0  0  0  0  0  0  0  0  0  0  0  # atno 17343 bound_to 10162
  157.3243  131.0687  151.1909 LP  0  0  0  0  0  0  0  0  0  0  0  0  # atno 17370 bound_to 10713
  157.2811  130.6750  149.6066 LP  0  0  0  0  0  0  0  0  0  0  0  0  # atno 17371 bound_to 10713
  140.1175  134.9438  157.2155 LP  0  0  0  0  0  0  0  0  0  0  0  0  # atno 17394 bound_to 11000
  140.3115  134.3019  155.7266 LP  0  0  0  0  0  0  0  0  0  0  0  0  # atno 17395 bound_to 11000

$$$$
