AV-unprocessed.smi:153|AV-procd|sdf|1264|dock1
  -GOLD-   2262018513D 1   1.00000     0.00000
 Structure written by MMmdl.
 59 62  0  0  0  0  0  0  0  0  1 V2000
  145.3042  132.6451  152.1684 C   0  0  0  0  0  0  0  0  0  0  0  0
  144.5492  133.9841  152.2799 C   0  0  2  0  0  0  0  0  0  0  0  0
  143.7343  134.1128  151.1192 O   0  0  0  0  0  0  0  0  0  0  0  0
  144.4133  134.8596  150.1129 C   0  0  0  0  0  0  0  0  0  0  0  0
  145.6604  135.4517  150.7749 C   0  0  0  0  0  0  0  0  0  0  0  0
  145.4322  135.2502  152.2706 C   0  0  2  0  0  0  0  0  0  0  0  0
  146.6743  135.0293  152.9127 O   0  0  0  0  0  0  0  0  0  0  0  0
  144.7864  136.4702  152.9852 C   0  0  0  0  0  0  0  0  0  0  0  0
  145.6889  137.5872  153.2160 N   0  0  0  0  0  0  0  0  0  0  0  0
  146.2815  138.3788  152.2596 C   0  0  0  0  0  0  0  0  0  0  0  0
  147.0827  139.2981  152.7206 N   0  0  0  0  0  0  0  0  0  0  0  0
  147.0338  139.1408  154.1016 C   0  0  0  0  0  0  0  0  0  0  0  0
  147.6724  139.7828  155.2045 C   0  0  0  0  0  0  0  0  0  0  0  0
  148.6194  140.7523  155.0728 N   0  0  0  0  0  0  0  0  0  0  0  0
  148.6308  141.5413  153.8437 C   0  0  0  0  0  0  0  0  0  0  0  0
  149.0864  141.4043  156.2978 C   0  0  0  0  0  0  0  0  0  0  0  0
  150.5349  141.0289  156.6893 C   0  0  1  0  0  0  0  0  0  0  0  0
  151.3273  140.7503  155.5514 O   0  0  0  0  0  0  0  0  0  0  0  0
  151.2416  142.1214  157.5234 C   0  0  0  0  0  0  0  0  0  0  0  0
  151.8536  141.6953  158.7871 N   0  0  0  0  0  0  0  0  0  0  0  0
  152.6617  142.7386  159.4175 C   0  0  0  0  0  0  0  0  0  0  0  0
  153.3149  142.2527  160.7229 C   0  0  0  0  0  0  0  0  0  0  0  0
  154.0943  141.0892  160.4675 O   0  0  0  0  0  0  0  0  0  0  0  0
  153.3291  140.0315  159.8999 C   0  0  0  0  0  0  0  0  0  0  0  0
  152.6833  140.5113  158.5886 C   0  0  0  0  0  0  0  0  0  0  0  0
  147.3226  139.3628  156.4504 N   0  0  0  0  0  0  0  0  0  0  0  0
  146.4430  138.3713  156.6130 C   0  0  0  0  0  0  0  0  0  0  0  0
  145.8021  137.6648  155.6814 N   0  0  0  0  0  0  0  0  0  0  0  0
  146.1302  138.0890  154.4283 C   0  0  0  0  0  0  0  0  0  0  0  0
  145.9220  132.4628  153.0477 H   0  0  0  0  0  0  0  0  0  0  0  0
  145.9518  132.6144  151.2921 H   0  0  0  0  0  0  0  0  0  0  0  0
  144.6030  131.8143  152.0879 H   0  0  0  0  0  0  0  0  0  0  0  0
  143.9217  133.9479  153.1706 H   0  0  0  0  0  0  0  0  0  0  0  0
  144.6785  134.2151  149.2746 H   0  0  0  0  0  0  0  0  0  0  0  0
  143.7507  135.6391  149.7371 H   0  0  0  0  0  0  0  0  0  0  0  0
  146.5313  134.8836  150.4438 H   0  0  0  0  0  0  0  0  0  0  0  0
  145.8370  136.4912  150.4994 H   0  0  0  0  0  0  0  0  0  0  0  0
  147.3671  135.2448  152.3073 H   0  0  0  0  0  0  0  0  0  0  0  0
  143.9413  136.8382  152.4016 H   0  0  0  0  0  0  0  0  0  0  0  0
  144.3755  136.1646  153.9483 H   0  0  0  0  0  0  0  0  0  0  0  0
  146.1157  138.2414  151.2012 H   0  0  0  0  0  0  0  0  0  0  0  0
  148.6118  140.8939  152.9661 H   0  0  0  0  0  0  0  0  0  0  0  0
  149.5342  142.1487  153.7858 H   0  0  0  0  0  0  0  0  0  0  0  0
  147.7702  142.2098  153.8008 H   0  0  0  0  0  0  0  0  0  0  0  0
  148.9599  142.4833  156.2582 H   0  0  0  0  0  0  0  0  0  0  0  0
  148.4215  141.0797  157.0988 H   0  0  0  0  0  0  0  0  0  0  0  0
  150.5217  140.1181  157.2887 H   0  0  0  0  0  0  0  0  0  0  0  0
  152.2276  140.6716  155.8272 H   0  0  0  0  0  0  0  0  0  0  0  0
  152.0346  142.5222  156.8906 H   0  0  0  0  0  0  0  0  0  0  0  0
  150.5624  142.9578  157.6963 H   0  0  0  0  0  0  0  0  0  0  0  0
  153.4365  143.0761  158.7273 H   0  0  0  0  0  0  0  0  0  0  0  0
  152.0476  143.6069  159.6512 H   0  0  0  0  0  0  0  0  0  0  0  0
  153.9581  143.0297  161.1362 H   0  0  0  0  0  0  0  0  0  0  0  0
  152.5551  142.0324  161.4744 H   0  0  0  0  0  0  0  0  0  0  0  0
  153.9828  139.1800  159.7117 H   0  0  0  0  0  0  0  0  0  0  0  0
  152.5675  139.7016  160.6081 H   0  0  0  0  0  0  0  0  0  0  0  0
  152.0818  139.7035  158.1703 H   0  0  0  0  0  0  0  0  0  0  0  0
  153.4665  140.7257  157.8598 H   0  0  0  0  0  0  0  0  0  0  0  0
  146.2306  138.0980  157.6359 H   0  0  0  0  0  0  0  0  0  0  0  0
  1  2  1  0  0  0  0
  1 30  1  0  0  0  0
  1 31  1  0  0  0  0
  1 32  1  0  0  0  0
  2  6  1  0  0  0  0
  2  3  1  0  0  0  0
  2 33  1  0  0  0  0
  3  4  1  0  0  0  0
  4  5  1  0  0  0  0
  4 34  1  0  0  0  0
  4 35  1  0  0  0  0
  5  6  1  0  0  0  0
  5 36  1  0  0  0  0
  5 37  1  0  0  0  0
  6  7  1  0  0  0  0
  6  8  1  0  0  0  0
  7 38  1  0  0  0  0
  8  9  1  0  0  0  0
  8 39  1  0  0  0  0
  8 40  1  0  0  0  0
  9 29  1  0  0  0  0
  9 10  1  0  0  0  0
 10 11  2  0  0  0  0
 10 41  1  0  0  0  0
 11 12  1  0  0  0  0
 12 29  2  0  0  0  0
 12 13  1  0  0  0  0
 13 14  1  0  0  0  0
 13 26  2  0  0  0  0
 14 15  1  0  0  0  0
 14 16  1  0  0  0  0
 15 42  1  0  0  0  0
 15 43  1  0  0  0  0
 15 44  1  0  0  0  0
 16 17  1  0  0  0  0
 16 45  1  0  0  0  0
 16 46  1  0  0  0  0
 17 18  1  0  0  0  0
 17 19  1  0  0  0  0
 17 47  1  0  0  0  0
 18 48  1  0  0  0  0
 19 20  1  0  0  0  0
 19 49  1  0  0  0  0
 19 50  1  0  0  0  0
 20 25  1  0  0  0  0
 20 21  1  0  0  0  0
 21 22  1  0  0  0  0
 21 51  1  0  0  0  0
 21 52  1  0  0  0  0
 22 23  1  0  0  0  0
 22 53  1  0  0  0  0
 22 54  1  0  0  0  0
 23 24  1  0  0  0  0
 24 25  1  0  0  0  0
 24 55  1  0  0  0  0
 24 56  1  0  0  0  0
 25 57  1  0  0  0  0
 25 58  1  0  0  0  0
 26 27  1  0  0  0  0
 27 28  2  0  0  0  0
 27 59  1  0  0  0  0
 28 29  1  0  0  0  0
M  END
> <s_m_source_file>
AV-unprocessed.smi

> <i_m_source_file_index>
153

> <i_lp_mmshare_version>
43012

> <i_f3d_flags>
0

> <s_epik_input>
W0NIMl0xW0NIMl1PW0NAQEhdKFtDSDNdKVtDQEBdMShbT0hdKVtDSDJdbihbY0hdbjIpYyhjMjMpbltjSF1uYzNOKFtDSDNdKVtDSDJdW0NASF0oW09IXSlbQ0gyXU40W0NIMl1bQ0gyXU9bQ0gyXVtDSDJdNA==

> <s_epik_cmdline>
J2VwaWtfcHl0aG9uJywgJy1waCcsICc3LjAnLCAnLXRuJywgJzgnLCAnLW1hJywgJzIwMCcsICctbWV0YWxfYmluZGluZycsICctaW1hZScsICc8aW5maWxlLm1hZT4nLCAnLW9tYWUnLCAnPG91dGZpbGUubWFlPic=

> <r_lp_tautomer_probability>
1

> <r_epik_Ionization_Penalty>
0.424123

> <r_epik_Ionization_Penalty_Charging>
0

> <r_epik_Ionization_Penalty_Neutral>
0.424123

> <r_epik_State_Penalty>
0.421495

> <r_epik_Charging_Adjusted_Penalty>
0.421495

> <i_epik_Tot_Q>
0

> <i_epik_Tot_abs_Q>
0

> <r_epik_Metal_State_Penalty>
0.421223

> <b_epik_Metal_Only>
0

> <s_lp_Force_Field>
OPLS_2005

> <r_lp_Energy>
59.2103

> <b_lp_Chiralities_Consistent>
1

> <s_lp_Variant>
AV-unprocessed.smi:153-15

> <Gold.Version>
5.8.1

> <Gold.Id.Protein>
6NUR|6NUR_protein|mol2

> <Gold.PLP.Fitness>
44.1900

> <Gold.PLP.PLP>
-39.3592

> <Gold.PLP.part.hbond>
-2.0000

> <Gold.PLP.part.metal>
0.0000

> <Gold.PLP.part.buried>
-3.6140

> <Gold.PLP.part.nonpolar>
-33.5619

> <Gold.PLP.part.repulsive>
0.7584

> <Gold.PLP.ligand.clash>
0.0000

> <Gold.PLP.ligand.torsion>
1.5670

> <Gold.PLP.Chemscore.Hbond>
1.6100

> <Gold.PLP.Chemscore.CHOScore>
0.7670

> <Gold.PLP.Chemscore.Metal>
0.0000

> <Gold.Chemscore.Hbonds>
donor molecule, donor type, donor heavy atom, donor atom, acceptor molecule, acceptor atom, score
      L1  H     7    38       P1  7948  1.00
      P1  H  7989  7998       L1    18  0.62
      L1  C    10    41       P1 10171  0.68

> <Gold.PLP.Chemscore.Internal.Correction>
0.8341

> <Gold.Rescore>
     Score         DG    S(hbond)    S(metal)    S(lipo)     H(rot)  DE(clash)    DE(int)     intcor
      8.39     -11.15       1.03        0.00      96.19       3.52       0.09       2.68       ----

> <Gold.Chemscore.Fitness>
8.3894

> <Gold.Chemscore.DG>
-11.1544

> <Gold.Chemscore.ZeroCoef>
-5.4800

> <Gold.Chemscore.Hbond>
1.0252

> <Gold.Chemscore.Metal>
0.0000

> <Gold.Chemscore.Lipo>
96.1869

> <Gold.Chemscore.Internal_Hbond>
0.0000

> <Gold.Chemscore.DEClash>
0.0860

> <Gold.Chemscore.DEInternal>
2.6789

> <Gold.Chemscore.Rot>
3.5170

> <Gold.Chemscore.Internal.Correction>
   9.000000E+99

> <Gold.Chemscore.Hbonds>
donor molecule, donor type, donor heavy atom, donor atom, acceptor molecule, acceptor atom, score
      L1  H     7    38       P1  7948  0.96
      P1  H  7989  7998       L1    18  0.12

> <Gold.Chemscore.Hbond.Weighted>
-3.4241

> <Gold.Chemscore.Metal.Weighted>
-0.0000

> <Gold.Chemscore.Lipo.Weighted>
-11.2539

> <Gold.Chemscore.Internal_Hbond.Weighted>
0.0000

> <Gold.Chemscore.DEClash.Weighted>
0.0860

> <Gold.Chemscore.DEInternal.Weighted>
2.6789

> <Gold.Chemscore.Rot.Weighted>
9.0036

> <Gold.Chemscore.Internal.Correction.Weighted>
   9.000000E+99

> <Gold.Protein.RotatedTorsions>
[ 6907 6896 6895 6894 ] final -132.13 input  -60.11 | X-H torsion
[ 7974 7965 7964 7962 ] final    5.11 input  175.53 | X-H torsion
[ 8008 7997 7996 7995 ] final  108.25 input   59.86 | X-H torsion
[ 10167 10162 10161 10158 ] final  128.01 input  -65.29 | X-H torsion
[ 10718 10713 10712 10709 ] final  -32.89 input   66.30 | X-H torsion
[ 10763 10752 10751 10750 ] final  -27.68 input  -60.55 | X-H torsion
[ 11005 11000 10999 10996 ] final  -24.57 input  -57.11 | X-H torsion

> <Gold.Protein.ActiveResidues>
 VAL166  LYS551  ARG553  GLY616  TRP617  ASP618  TYR619  PRO620  LYS621  CYS622 
 ASP623  PHE694  ASN695  SER759  ASP760  ASP761  ALA762  ILE779  LEU786  VAL792 
 PHE793  MET794  SER795  GLU796  ALA797  LYS798  CYS799  TRP800  GLU811  SER814 

> <Gold.Protein.RotatedAtoms>
  150.9589  133.6467  159.2757 H   0  0  0  0  0  0  0  0  0  0  0  0  # atno 6907 bound_to 6896
  151.3797  135.0936  159.9501 H   0  0  0  0  0  0  0  0  0  0  0  0  # atno 6908 bound_to 6896
  152.5140  133.9126  159.7550 H   0  0  0  0  0  0  0  0  0  0  0  0  # atno 6909 bound_to 6896
  146.2442  140.0434  142.8380 H   0  0  0  0  0  0  0  0  0  0  0  0  # atno 7974 bound_to 7965
  156.1888  140.3080  155.9292 H   0  0  0  0  0  0  0  0  0  0  0  0  # atno 8008 bound_to 7997
  155.3219  140.0456  157.3056 H   0  0  0  0  0  0  0  0  0  0  0  0  # atno 8009 bound_to 7997
  154.5428  140.2267  155.8622 H   0  0  0  0  0  0  0  0  0  0  0  0  # atno 8010 bound_to 7997
  139.5549  144.6841  151.4214 H   0  0  0  0  0  0  0  0  0  0  0  0  # atno 10167 bound_to 10162
  156.3693  130.4337  149.7558 H   0  0  0  0  0  0  0  0  0  0  0  0  # atno 10718 bound_to 10713
  153.7361  135.6935  153.4978 H   0  0  0  0  0  0  0  0  0  0  0  0  # atno 10763 bound_to 10752
  153.2102  135.4405  155.0369 H   0  0  0  0  0  0  0  0  0  0  0  0  # atno 10764 bound_to 10752
  154.8236  135.3435  154.6889 H   0  0  0  0  0  0  0  0  0  0  0  0  # atno 10765 bound_to 10752
  140.8857  133.7623  156.0358 H   0  0  0  0  0  0  0  0  0  0  0  0  # atno 11005 bound_to 11000
  145.1049  140.9369  143.4691 LP  0  0  0  0  0  0  0  0  0  0  0  0  # atno 17320 bound_to 7965
  145.0635  139.3087  143.5868 LP  0  0  0  0  0  0  0  0  0  0  0  0  # atno 17321 bound_to 7965
  140.6819  143.8062  150.7133 LP  0  0  0  0  0  0  0  0  0  0  0  0  # atno 17342 bound_to 10162
  140.1518  143.4351  152.2126 LP  0  0  0  0  0  0  0  0  0  0  0  0  # atno 17343 bound_to 10162
  156.4692  130.7988  151.3007 LP  0  0  0  0  0  0  0  0  0  0  0  0  # atno 17370 bound_to 10713
  157.7482  131.0041  150.3064 LP  0  0  0  0  0  0  0  0  0  0  0  0  # atno 17371 bound_to 10713
  140.8407  134.3069  157.5314 LP  0  0  0  0  0  0  0  0  0  0  0  0  # atno 17394 bound_to 11000
  139.8724  134.9415  156.3798 LP  0  0  0  0  0  0  0  0  0  0  0  0  # atno 17395 bound_to 11000

$$$$
