AV-unprocessed.smi:2517|AV-procd|sdf|9900|dock2
  -GOLD-   2272013533D 1   1.00000     0.00000
 Structure written by MMmdl.
 41 42  0  0  0  0  0  0  0  0  1 V2000
  150.8535  145.1793  159.6164 C   0  0  0  0  0  0  0  0  0  0  0  0
  152.2354  144.6989  159.1597 C   0  0  0  0  0  0  0  0  0  0  0  0
  152.4077  143.2173  159.3524 C   0  0  0  0  0  0  0  0  0  0  0  0
  153.3691  142.7601  160.1433 N   0  0  0  0  0  0  0  0  0  0  0  0
  153.2479  141.4116  160.1077 N   0  0  0  0  0  0  0  0  0  0  0  0
  154.1635  140.5978  160.8779 C   0  0  0  0  0  0  0  0  0  0  0  0
  152.2097  141.0007  159.2970 C   0  0  0  0  0  0  0  0  0  0  0  0
  151.6525  142.1461  158.8026 C   0  0  0  0  0  0  0  0  0  0  0  0
  150.5453  142.2982  157.9291 N   0  0  0  0  0  0  0  0  0  0  0  0
  149.5661  141.4114  157.6891 C   0  0  0  0  0  0  0  0  0  0  0  0
  149.4904  140.2864  158.1835 O   0  0  0  0  0  0  0  0  0  0  0  0
  148.6648  141.9037  156.8307 N   0  0  0  0  0  0  0  0  0  0  0  0
  147.4761  141.1904  156.3830 C   0  0  0  0  0  0  0  0  0  0  0  0
  147.4342  141.1136  154.8507 C   0  0  0  0  0  0  0  0  0  0  0  0
  147.0937  142.3698  154.2633 O   0  0  0  0  0  0  0  0  0  0  0  0
  145.7468  142.7920  154.4332 C   0  0  0  0  0  0  0  0  0  0  0  0
  148.6803  140.5713  154.1253 C   0  0  0  0  0  0  0  0  0  0  0  0
  147.9860  139.2118  154.0290 C   0  0  0  0  0  0  0  0  0  0  0  0
  146.6599  139.9573  154.1866 C   0  0  0  0  0  0  0  0  0  0  0  0
  150.7468  146.2537  159.4673 H   0  0  0  0  0  0  0  0  0  0  0  0
  150.6934  144.9724  160.6748 H   0  0  0  0  0  0  0  0  0  0  0  0
  150.0613  144.6843  159.0541 H   0  0  0  0  0  0  0  0  0  0  0  0
  152.3798  144.9584  158.1107 H   0  0  0  0  0  0  0  0  0  0  0  0
  153.0066  145.2391  159.7102 H   0  0  0  0  0  0  0  0  0  0  0  0
  153.8981  139.5444  160.7838 H   0  0  0  0  0  0  0  0  0  0  0  0
  154.1159  140.8824  161.9295 H   0  0  0  0  0  0  0  0  0  0  0  0
  155.1806  140.7415  160.5126 H   0  0  0  0  0  0  0  0  0  0  0  0
  151.9697  139.9573  159.1562 H   0  0  0  0  0  0  0  0  0  0  0  0
  150.4879  143.1810  157.4428 H   0  0  0  0  0  0  0  0  0  0  0  0
  148.7982  142.8382  156.4729 H   0  0  0  0  0  0  0  0  0  0  0  0
  147.4945  140.1881  156.8133 H   0  0  0  0  0  0  0  0  0  0  0  0
  146.5788  141.6686  156.7772 H   0  0  0  0  0  0  0  0  0  0  0  0
  145.5800  143.6974  153.8498 H   0  0  0  0  0  0  0  0  0  0  0  0
  145.5264  143.0324  155.4731 H   0  0  0  0  0  0  0  0  0  0  0  0
  145.0368  142.0403  154.0882 H   0  0  0  0  0  0  0  0  0  0  0  0
  148.8422  141.0270  153.1466 H   0  0  0  0  0  0  0  0  0  0  0  0
  149.5950  140.5677  154.7188 H   0  0  0  0  0  0  0  0  0  0  0  0
  148.1128  138.7000  153.0747 H   0  0  0  0  0  0  0  0  0  0  0  0
  148.2102  138.5594  154.8744 H   0  0  0  0  0  0  0  0  0  0  0  0
  145.9365  139.4601  154.8333 H   0  0  0  0  0  0  0  0  0  0  0  0
  146.2193  140.2262  153.2247 H   0  0  0  0  0  0  0  0  0  0  0  0
  1  2  1  0  0  0  0
  1 20  1  0  0  0  0
  1 21  1  0  0  0  0
  1 22  1  0  0  0  0
  2  3  1  0  0  0  0
  2 23  1  0  0  0  0
  2 24  1  0  0  0  0
  3  8  1  0  0  0  0
  3  4  2  0  0  0  0
  4  5  1  0  0  0  0
  5  6  1  0  0  0  0
  5  7  1  0  0  0  0
  6 25  1  0  0  0  0
  6 26  1  0  0  0  0
  6 27  1  0  0  0  0
  7  8  2  0  0  0  0
  7 28  1  0  0  0  0
  8  9  1  0  0  0  0
  9 10  1  0  0  0  0
  9 29  1  0  0  0  0
 10 11  2  0  0  0  0
 10 12  1  0  0  0  0
 12 13  1  0  0  0  0
 12 30  1  0  0  0  0
 13 14  1  0  0  0  0
 13 31  1  0  0  0  0
 13 32  1  0  0  0  0
 14 19  1  0  0  0  0
 14 15  1  0  0  0  0
 14 17  1  0  0  0  0
 15 16  1  0  0  0  0
 16 33  1  0  0  0  0
 16 34  1  0  0  0  0
 16 35  1  0  0  0  0
 17 18  1  0  0  0  0
 17 36  1  0  0  0  0
 17 37  1  0  0  0  0
 18 19  1  0  0  0  0
 18 38  1  0  0  0  0
 18 39  1  0  0  0  0
 19 40  1  0  0  0  0
 19 41  1  0  0  0  0
M  END
> <s_m_source_file>
AV-unprocessed.smi

> <i_m_source_file_index>
2517

> <i_lp_mmshare_version>
43012

> <i_f3d_flags>
0

> <s_epik_input>
W0NIM11bQ0gyXWMxbm4oW0NIM10pW2NIXWMxW05IXUMoPU8pW05IXVtDSDJdQzIoT1tDSDNdKVtDSDJdW0NIMl1bQ0gyXTI=

> <s_epik_cmdline>
J2VwaWtfcHl0aG9uJywgJy1waCcsICc3LjAnLCAnLXRuJywgJzgnLCAnLW1hJywgJzIwMCcsICctbWV0YWxfYmluZGluZycsICctaW1hZScsICc8aW5maWxlLm1hZT4nLCAnLW9tYWUnLCAnPG91dGZpbGUubWFlPic=

> <r_lp_tautomer_probability>
1

> <r_epik_Ionization_Penalty>
0.000729918

> <r_epik_Ionization_Penalty_Charging>
0

> <r_epik_Ionization_Penalty_Neutral>
0.000729918

> <r_epik_State_Penalty>
-0

> <r_epik_Charging_Adjusted_Penalty>
0

> <i_epik_Tot_Q>
0

> <i_epik_Tot_abs_Q>
0

> <r_epik_Metal_State_Penalty>
-0

> <b_epik_Metal_Only>
0

> <s_lp_Force_Field>
OPLS_2005

> <r_lp_Energy>
14.833

> <b_lp_Chiralities_Consistent>
1

> <s_lp_Variant>
AV-unprocessed.smi:2517-1

> <Gold.Version>
5.8.1

> <Gold.Id.Protein>
6NUR|6NUR_protein|mol2

> <Gold.PLP.Fitness>
40.7066

> <Gold.PLP.PLP>
-38.3032

> <Gold.PLP.part.hbond>
-1.0000

> <Gold.PLP.part.metal>
0.0000

> <Gold.PLP.part.buried>
-5.3723

> <Gold.PLP.part.nonpolar>
-33.0438

> <Gold.PLP.part.repulsive>
0.6695

> <Gold.PLP.ligand.clash>
0.0000

> <Gold.PLP.ligand.torsion>
0.4664

> <Gold.PLP.Chemscore.Hbond>
1.0000

> <Gold.PLP.Chemscore.CHOScore>
0.0000

> <Gold.PLP.Chemscore.Metal>
0.0000

> <Gold.Chemscore.Hbonds>
donor molecule, donor type, donor heavy atom, donor atom, acceptor molecule, acceptor atom, score
      L1  H    12    30       P1  8028  0.96

> <Gold.PLP.Chemscore.Internal.Correction>
0.3362

> <Gold.Rescore>
     Score         DG    S(hbond)    S(metal)    S(lipo)     H(rot)  DE(clash)    DE(int)     intcor
     14.75     -16.10       1.00        0.00      96.17       1.55       0.06       1.30       ----

> <Gold.Chemscore.Fitness>
14.7458

> <Gold.Chemscore.DG>
-16.1031

> <Gold.Chemscore.ZeroCoef>
-5.4800

> <Gold.Chemscore.Hbond>
0.9991

> <Gold.Chemscore.Metal>
0.0000

> <Gold.Chemscore.Lipo>
96.1728

> <Gold.Chemscore.Internal_Hbond>
0.0000

> <Gold.Chemscore.DEClash>
0.0617

> <Gold.Chemscore.DEInternal>
1.2956

> <Gold.Chemscore.Rot>
1.5493

> <Gold.Chemscore.Internal.Correction>
   9.000000E+99

> <Gold.Chemscore.Hbonds>
donor molecule, donor type, donor heavy atom, donor atom, acceptor molecule, acceptor atom, score
      L1  H    12    30       P1  8028  0.89

> <Gold.Chemscore.Hbond.Weighted>
-3.3370

> <Gold.Chemscore.Metal.Weighted>
-0.0000

> <Gold.Chemscore.Lipo.Weighted>
-11.2522

> <Gold.Chemscore.Internal_Hbond.Weighted>
0.0000

> <Gold.Chemscore.DEClash.Weighted>
0.0617

> <Gold.Chemscore.DEInternal.Weighted>
1.2956

> <Gold.Chemscore.Rot.Weighted>
3.9661

> <Gold.Chemscore.Internal.Correction.Weighted>
   9.000000E+99

> <Gold.Protein.RotatedTorsions>
[ 6907 6896 6895 6894 ] final -158.59 input  -60.11 | X-H torsion
[ 7974 7965 7964 7962 ] final   82.31 input  175.53 | X-H torsion
[ 8008 7997 7996 7995 ] final   -8.37 input   59.86 | X-H torsion
[ 10167 10162 10161 10158 ] final -149.55 input  -65.29 | X-H torsion
[ 10718 10713 10712 10709 ] final  163.41 input   66.30 | X-H torsion
[ 10763 10752 10751 10750 ] final  -41.85 input  -60.55 | X-H torsion
[ 11005 11000 10999 10996 ] final   71.26 input  -57.11 | X-H torsion

> <Gold.Protein.ActiveResidues>
 VAL166  LYS551  ARG553  GLY616  TRP617  ASP618  TYR619  PRO620  LYS621  CYS622 
 ASP623  PHE694  ASN695  SER759  ASP760  ASP761  ALA762  ILE779  LEU786  VAL792 
 PHE793  MET794  SER795  GLU796  ALA797  LYS798  CYS799  TRP800  GLU811  SER814 

> <Gold.Protein.RotatedAtoms>
  151.3206  133.4042  159.2653 H   0  0  0  0  0  0  0  0  0  0  0  0  # atno 6907 bound_to 6896
  151.0038  134.9343  159.7979 H   0  0  0  0  0  0  0  0  0  0  0  0  # atno 6908 bound_to 6896
  152.5282  134.3171  159.9187 H   0  0  0  0  0  0  0  0  0  0  0  0  # atno 6909 bound_to 6896
  145.6267  139.2396  143.2108 H   0  0  0  0  0  0  0  0  0  0  0  0  # atno 7974 bound_to 7965
  154.5748  140.2383  155.8139 H   0  0  0  0  0  0  0  0  0  0  0  0  # atno 8008 bound_to 7997
  156.2134  140.3019  155.9742 H   0  0  0  0  0  0  0  0  0  0  0  0  # atno 8009 bound_to 7997
  155.2647  140.0416  157.2991 H   0  0  0  0  0  0  0  0  0  0  0  0  # atno 8010 bound_to 7997
  139.7432  143.8630  152.2568 H   0  0  0  0  0  0  0  0  0  0  0  0  # atno 10167 bound_to 10162
  157.1089  131.0462  151.2466 H   0  0  0  0  0  0  0  0  0  0  0  0  # atno 10718 bound_to 10713
  153.9693  135.6730  153.4746 H   0  0  0  0  0  0  0  0  0  0  0  0  # atno 10763 bound_to 10752
  153.0800  135.4928  154.8480 H   0  0  0  0  0  0  0  0  0  0  0  0  # atno 10764 bound_to 10752
  154.7228  135.3121  154.8980 H   0  0  0  0  0  0  0  0  0  0  0  0  # atno 10765 bound_to 10752
  139.9553  134.7155  156.0767 H   0  0  0  0  0  0  0  0  0  0  0  0  # atno 11005 bound_to 11000
  146.1389  140.7085  142.9376 LP  0  0  0  0  0  0  0  0  0  0  0  0  # atno 17320 bound_to 7965
  144.7209  140.4371  143.7008 LP  0  0  0  0  0  0  0  0  0  0  0  0  # atno 17321 bound_to 7965
  139.8587  144.7128  150.9126 LP  0  0  0  0  0  0  0  0  0  0  0  0  # atno 17342 bound_to 10162
  140.7789  143.3836  151.1432 LP  0  0  0  0  0  0  0  0  0  0  0  0  # atno 17343 bound_to 10162
  157.4576  130.7634  149.7207 LP  0  0  0  0  0  0  0  0  0  0  0  0  # atno 17370 bound_to 10713
  155.9855  130.3982  150.3258 LP  0  0  0  0  0  0  0  0  0  0  0  0  # atno 17371 bound_to 10713
  141.1223  133.6609  156.3247 LP  0  0  0  0  0  0  0  0  0  0  0  0  # atno 17394 bound_to 11000
  140.5623  134.5922  157.5437 LP  0  0  0  0  0  0  0  0  0  0  0  0  # atno 17395 bound_to 11000

$$$$
