AV-unprocessed.smi:1|AV-procd|sdf|5|dock9
  -GOLD-   2262015 93D 1   1.00000     0.00000
 Structure written by MMmdl.
 57 62  0  0  0  0  0  0  0  0  1 V2000
  151.8342  139.9946  157.8919 O   0  0  0  0  0  0  0  0  0  0  0  0
  151.2659  141.0584  157.6430 C   0  0  0  0  0  0  0  0  0  0  0  0
  150.2090  141.1568  156.6518 N   0  0  0  0  0  0  0  0  0  0  0  0
  149.6402  140.1603  155.9332 C   0  0  0  0  0  0  0  0  0  0  0  0
  150.1621  139.7173  154.7592 N   0  0  0  0  0  0  0  0  0  0  0  0
  149.5629  138.7309  154.0865 C   0  0  0  0  0  0  0  0  0  0  0  0
  148.4529  138.0611  154.4027 N   0  0  0  0  0  0  0  0  0  0  0  0
  147.9232  138.4960  155.5820 C   0  0  0  0  0  0  0  0  0  0  0  0
  148.4551  139.5331  156.3987 C   0  0  0  0  0  0  0  0  0  0  0  0
  147.6559  139.7048  157.5209 N   0  0  0  0  0  0  0  0  0  0  0  0
  146.7093  138.8176  157.3729 C   0  0  0  0  0  0  0  0  0  0  0  0
  146.7891  138.0505  156.2315 N   0  0  0  0  0  0  0  0  0  0  0  0
  145.8576  136.9614  155.8065 C   0  0  2  0  0  0  0  0  0  0  0  0
  145.2390  137.3232  154.6071 O   0  0  0  0  0  0  0  0  0  0  0  0
  143.8268  137.4196  154.7778 C   0  0  1  0  0  0  0  0  0  0  0  0
  143.0868  137.0347  153.4917 C   0  0  0  0  0  0  0  0  0  0  0  0
  143.5563  135.7715  153.0510 O   0  0  0  0  0  0  0  0  0  0  0  0
  144.6578  135.6915  152.2805 C   0  0  0  0  0  0  0  0  0  0  0  0
  145.4512  136.6222  152.1255 O   0  0  0  0  0  0  0  0  0  0  0  0
  144.8190  134.3556  151.6374 C   0  0  0  0  0  0  0  0  0  0  0  0
  143.7610  133.4195  151.7093 C   0  0  0  0  0  0  0  0  0  0  0  0
  143.8838  132.1509  151.1095 C   0  0  0  0  0  0  0  0  0  0  0  0
  145.0662  131.8026  150.4312 C   0  0  0  0  0  0  0  0  0  0  0  0
  146.1266  132.7241  150.3539 C   0  0  0  0  0  0  0  0  0  0  0  0
  146.0056  133.9936  150.9525 C   0  0  0  0  0  0  0  0  0  0  0  0
  143.5293  136.5178  155.9739 C   0  0  1  0  0  0  0  0  0  0  0  0
  143.4661  135.1531  155.5929 O   0  0  0  0  0  0  0  0  0  0  0  0
  144.2882  134.2511  156.7336 S   0  0  0  0  0  0  0  0  0  0  0  0
  143.3017  133.6177  157.6214 O   0  0  0  0  0  0  0  0  0  0  0  0
  145.3416  133.4892  156.0454 O   0  0  0  0  0  0  0  0  0  0  0  0
  145.0077  135.5096  157.5660 O   0  0  0  0  0  0  0  0  0  0  0  0
  144.7650  136.7110  156.8558 C   0  0  1  0  0  0  0  0  0  0  0  0
  151.6854  142.3468  158.2892 C   0  0  0  0  0  0  0  0  0  0  0  0
  151.3567  143.5809  157.6842 C   0  0  0  0  0  0  0  0  0  0  0  0
  151.7606  144.7943  158.2740 C   0  0  0  0  0  0  0  0  0  0  0  0
  152.5026  144.7843  159.4702 C   0  0  0  0  0  0  0  0  0  0  0  0
  152.8447  143.5596  160.0737 C   0  0  0  0  0  0  0  0  0  0  0  0
  152.4418  142.3451  159.4844 C   0  0  0  0  0  0  0  0  0  0  0  0
  149.8400  142.0827  156.4906 H   0  0  0  0  0  0  0  0  0  0  0  0
  150.0410  138.4368  153.1638 H   0  0  0  0  0  0  0  0  0  0  0  0
  145.9184  138.6996  158.0993 H   0  0  0  0  0  0  0  0  0  0  0  0
  146.4991  136.0966  155.6327 H   0  0  0  0  0  0  0  0  0  0  0  0
  143.5725  138.4434  155.0511 H   0  0  0  0  0  0  0  0  0  0  0  0
  142.0088  137.0100  153.6568 H   0  0  0  0  0  0  0  0  0  0  0  0
  143.2864  137.7761  152.7167 H   0  0  0  0  0  0  0  0  0  0  0  0
  142.8431  133.6645  152.2243 H   0  0  0  0  0  0  0  0  0  0  0  0
  143.0689  131.4447  151.1703 H   0  0  0  0  0  0  0  0  0  0  0  0
  145.1600  130.8300  149.9711 H   0  0  0  0  0  0  0  0  0  0  0  0
  147.0353  132.4580  149.8342 H   0  0  0  0  0  0  0  0  0  0  0  0
  146.8386  134.6769  150.8743 H   0  0  0  0  0  0  0  0  0  0  0  0
  142.6047  136.7902  156.4839 H   0  0  0  0  0  0  0  0  0  0  0  0
  144.6509  137.5672  157.5214 H   0  0  0  0  0  0  0  0  0  0  0  0
  150.7887  143.6057  156.7652 H   0  0  0  0  0  0  0  0  0  0  0  0
  151.5017  145.7333  157.8074 H   0  0  0  0  0  0  0  0  0  0  0  0
  152.8126  145.7152  159.9218 H   0  0  0  0  0  0  0  0  0  0  0  0
  153.4194  143.5513  160.9884 H   0  0  0  0  0  0  0  0  0  0  0  0
  152.7238  141.4165  159.9593 H   0  0  0  0  0  0  0  0  0  0  0  0
  1  2  2  0  0  0  0
  2  3  1  0  0  0  0
  2 33  1  0  0  0  0
  3  4  1  0  0  0  0
  3 39  1  0  0  0  0
  4  9  1  0  0  0  0
  4  5  2  0  0  0  0
  5  6  1  0  0  0  0
  6  7  2  0  0  0  0
  6 40  1  0  0  0  0
  7  8  1  0  0  0  0
  8 12  1  0  0  0  0
  8  9  2  0  0  0  0
  9 10  1  0  0  0  0
 10 11  2  0  0  0  0
 11 12  1  0  0  0  0
 11 41  1  0  0  0  0
 12 13  1  0  0  0  0
 13 32  1  0  0  0  0
 13 14  1  0  0  0  0
 13 42  1  0  0  0  0
 14 15  1  0  0  0  0
 15 16  1  0  0  0  0
 15 26  1  0  0  0  0
 15 43  1  0  0  0  0
 16 17  1  0  0  0  0
 16 44  1  0  0  0  0
 16 45  1  0  0  0  0
 17 18  1  0  0  0  0
 18 19  2  0  0  0  0
 18 20  1  0  0  0  0
 20 25  1  0  0  0  0
 20 21  2  0  0  0  0
 21 22  1  0  0  0  0
 21 46  1  0  0  0  0
 22 23  2  0  0  0  0
 22 47  1  0  0  0  0
 23 24  1  0  0  0  0
 23 48  1  0  0  0  0
 24 25  2  0  0  0  0
 24 49  1  0  0  0  0
 25 50  1  0  0  0  0
 26 32  1  0  0  0  0
 26 27  1  0  0  0  0
 26 51  1  0  0  0  0
 27 28  1  0  0  0  0
 28 29  2  0  0  0  0
 28 30  2  0  0  0  0
 28 31  1  0  0  0  0
 31 32  1  0  0  0  0
 32 52  1  0  0  0  0
 33 38  1  0  0  0  0
 33 34  2  0  0  0  0
 34 35  1  0  0  0  0
 34 53  1  0  0  0  0
 35 36  2  0  0  0  0
 35 54  1  0  0  0  0
 36 37  1  0  0  0  0
 36 55  1  0  0  0  0
 37 38  2  0  0  0  0
 37 56  1  0  0  0  0
 38 57  1  0  0  0  0
M  END
> <s_m_source_file>
AV-unprocessed.smi

> <i_m_source_file_index>
1

> <i_lp_mmshare_version>
43012

> <i_f3d_flags>
0

> <s_epik_input>
W2NIXTFbY0hdW2NIXVtjSF1bY0hdYzFDKD1PKVtOSF1jKG5bY0hdbjIpYyhjMjMpbltjSF1uM1tDQEBIXShbQ0BIXShbQ0BIXTQ1KU9TKE81KSg9Tyk9TylPW0NASF00W0NIMl1PQyg9TyljNltjSF1bY0hdW2NIXVtjSF1bY0hdNg==

> <s_epik_cmdline>
J2VwaWtfcHl0aG9uJywgJy1waCcsICc3LjAnLCAnLXRuJywgJzgnLCAnLW1hJywgJzIwMCcsICctbWV0YWxfYmluZGluZycsICctaW1hZScsICc8aW5maWxlLm1hZT4nLCAnLW9tYWUnLCAnPG91dGZpbGUubWFlPic=

> <r_lp_tautomer_probability>
1

> <r_epik_Ionization_Penalty>
0.00195722

> <r_epik_Ionization_Penalty_Charging>
0

> <r_epik_Ionization_Penalty_Neutral>
0.00195722

> <r_epik_State_Penalty>
0.00633741

> <r_epik_Charging_Adjusted_Penalty>
0.00633741

> <i_epik_Tot_Q>
0

> <i_epik_Tot_abs_Q>
0

> <r_epik_Metal_State_Penalty>
0.341185

> <b_epik_Metal_Only>
0

> <s_epik_Chemistry_Notes>
This compound has an ester and may undergo hydrolysis at high or low pH. This compound contains an acetal/aminal-like group ( X-CH(R)-Y where X, Y are N, S, or O) that may be acid/base labile, releasing an aldehyde.

> <s_lp_Force_Field>
OPLS_2005

> <r_lp_Energy>
45.5474

> <b_lp_Chiralities_Consistent>
1

> <s_lp_Variant>
AV-unprocessed.smi:1-5

> <Gold.Version>
5.8.1

> <Gold.Id.Protein>
6NUR|6NUR_protein|mol2

> <Gold.PLP.Fitness>
54.9124

> <Gold.PLP.PLP>
-49.6166

> <Gold.PLP.part.hbond>
-1.4254

> <Gold.PLP.part.metal>
0.0000

> <Gold.PLP.part.buried>
-8.7037

> <Gold.PLP.part.nonpolar>
-40.2517

> <Gold.PLP.part.repulsive>
1.0286

> <Gold.PLP.ligand.clash>
0.0000

> <Gold.PLP.ligand.torsion>
1.3112

> <Gold.PLP.Chemscore.Hbond>
1.5200

> <Gold.PLP.Chemscore.CHOScore>
1.0613

> <Gold.PLP.Chemscore.Metal>
0.0000

> <Gold.Chemscore.Hbonds>
donor molecule, donor type, donor heavy atom, donor atom, acceptor molecule, acceptor atom, score
      P1  H  7989  7998       L1     5  0.46
      P1  H 11000 11005       L1    29  0.65
      L1  C     6    40       P1  7948  0.37
      L1  C     6    40       P1  7957  0.62

> <Gold.PLP.Chemscore.Internal.Correction>
0.1742

> <Gold.Rescore>
     Score         DG    S(hbond)    S(metal)    S(lipo)     H(rot)  DE(clash)    DE(int)     intcor
     13.69     -19.81       1.63        0.00     122.59       2.13       0.44       5.68       ----

> <Gold.Chemscore.Fitness>
13.6920

> <Gold.Chemscore.DG>
-19.8125

> <Gold.Chemscore.ZeroCoef>
-5.4800

> <Gold.Chemscore.Hbond>
1.6318

> <Gold.Chemscore.Metal>
0.0000

> <Gold.Chemscore.Lipo>
122.5940

> <Gold.Chemscore.Internal_Hbond>
0.0000

> <Gold.Chemscore.DEClash>
0.4423

> <Gold.Chemscore.DEInternal>
5.6781

> <Gold.Chemscore.Rot>
2.1333

> <Gold.Chemscore.Internal.Correction>
   9.000000E+99

> <Gold.Chemscore.Hbonds>
donor molecule, donor type, donor heavy atom, donor atom, acceptor molecule, acceptor atom, score
      P1  H  7989  7998       L1     5  0.39
      P1  H 11000 11005       L1    29  0.61

> <Gold.Chemscore.Hbond.Weighted>
-5.4503

> <Gold.Chemscore.Metal.Weighted>
-0.0000

> <Gold.Chemscore.Lipo.Weighted>
-14.3435

> <Gold.Chemscore.Internal_Hbond.Weighted>
0.0000

> <Gold.Chemscore.DEClash.Weighted>
0.4423

> <Gold.Chemscore.DEInternal.Weighted>
5.6781

> <Gold.Chemscore.Rot.Weighted>
5.4614

> <Gold.Chemscore.Internal.Correction.Weighted>
   9.000000E+99

> <Gold.Protein.RotatedTorsions>
[ 6907 6896 6895 6894 ] final  134.00 input  -60.11 | X-H torsion
[ 7974 7965 7964 7962 ] final  -11.22 input  175.53 | X-H torsion
[ 8008 7997 7996 7995 ] final   40.29 input   59.86 | X-H torsion
[ 10167 10162 10161 10158 ] final  -59.35 input  -65.29 | X-H torsion
[ 10718 10713 10712 10709 ] final -122.60 input   66.30 | X-H torsion
[ 10763 10752 10751 10750 ] final  -99.82 input  -60.55 | X-H torsion
[ 11005 11000 10999 10996 ] final  -95.42 input  -57.11 | X-H torsion

> <Gold.Protein.ActiveResidues>
 VAL166  LYS551  ARG553  GLY616  TRP617  ASP618  TYR619  PRO620  LYS621  CYS622 
 ASP623  PHE694  ASN695  SER759  ASP760  ASP761  ALA762  ILE779  LEU786  VAL792 
 PHE793  MET794  SER795  GLU796  ALA797  LYS798  CYS799  TRP800  GLU811  SER814 

> <Gold.Protein.RotatedAtoms>
  152.3160  133.5803  159.5712 H   0  0  0  0  0  0  0  0  0  0  0  0  # atno 6907 bound_to 6896
  150.7347  134.0082  159.3669 H   0  0  0  0  0  0  0  0  0  0  0  0  # atno 6908 bound_to 6896
  151.7971  135.0720  160.0446 H   0  0  0  0  0  0  0  0  0  0  0  0  # atno 6909 bound_to 6896
  146.2195  140.2879  142.8366 H   0  0  0  0  0  0  0  0  0  0  0  0  # atno 7974 bound_to 7965
  155.2507  140.3352  155.4282 H   0  0  0  0  0  0  0  0  0  0  0  0  # atno 8008 bound_to 7997
  156.2217  140.1812  156.7505 H   0  0  0  0  0  0  0  0  0  0  0  0  # atno 8009 bound_to 7997
  154.5835  140.0649  156.9123 H   0  0  0  0  0  0  0  0  0  0  0  0  # atno 8010 bound_to 7997
  140.6140  143.2396  151.5641 H   0  0  0  0  0  0  0  0  0  0  0  0  # atno 10167 bound_to 10162
  156.1432  130.6481  150.9802 H   0  0  0  0  0  0  0  0  0  0  0  0  # atno 10718 bound_to 10713
  154.7529  135.4958  153.9322 H   0  0  0  0  0  0  0  0  0  0  0  0  # atno 10763 bound_to 10752
  153.1164  135.6721  153.9419 H   0  0  0  0  0  0  0  0  0  0  0  0  # atno 10764 bound_to 10752
  153.9164  135.3093  155.3427 H   0  0  0  0  0  0  0  0  0  0  0  0  # atno 10765 bound_to 10752
  141.1442  133.8025  157.0433 H   0  0  0  0  0  0  0  0  0  0  0  0  # atno 11005 bound_to 11000
  144.9149  140.7800  143.5784 LP  0  0  0  0  0  0  0  0  0  0  0  0  # atno 17320 bound_to 7965
  145.2812  139.1918  143.4790 LP  0  0  0  0  0  0  0  0  0  0  0  0  # atno 17321 bound_to 7965
  139.5384  144.2717  152.1299 LP  0  0  0  0  0  0  0  0  0  0  0  0  # atno 17342 bound_to 10162
  140.1922  144.4741  150.6473 LP  0  0  0  0  0  0  0  0  0  0  0  0  # atno 17343 bound_to 10162
  157.6594  131.0883  150.7874 LP  0  0  0  0  0  0  0  0  0  0  0  0  # atno 17370 bound_to 10713
  156.7947  130.4901  149.5379 LP  0  0  0  0  0  0  0  0  0  0  0  0  # atno 17371 bound_to 10713
  140.0679  134.9719  157.1417 LP  0  0  0  0  0  0  0  0  0  0  0  0  # atno 17394 bound_to 11000
  140.3753  134.2345  155.7175 LP  0  0  0  0  0  0  0  0  0  0  0  0  # atno 17395 bound_to 11000

$$$$
