#       Name:                AV-unprocessed.smi:427
#       Creating user name   scv26
#       Creation time:       Thu Mar 26 22:50:35 2020


#       File generated by GOLD software.
#

@<TRIPOS>MOLECULE
AV-unprocessed.smi:427
    59    60     1
SMALL
NO_CHARGES


@<TRIPOS>ATOM
      1 ****        -0.8029   2.7483  -0.3646 C.3            1 S1                 0.0000
      2 ****        -1.6782   1.5118  -0.4548 C.ar           1 S1                 0.0000
      3 ****        -3.0773   1.6369  -0.3258 C.ar           1 S1                 0.0000
      4 ****        -3.9227   0.5036  -0.4027 C.ar           1 S1                 0.0000
      5 ****        -5.4545   0.6041  -0.2678 C.3            1 S1                 0.0000
      6 ****        -6.1233   0.0799  -1.5557 C.3            1 S1                 0.0000
      7 ****        -5.9477   2.0512  -0.0396 C.3            1 S1                 0.0000
      8 ****        -5.9268  -0.2447   0.9312 C.3            1 S1                 0.0000
      9 ****        -3.3226  -0.7589  -0.6123 C.ar           1 S1                 0.0000
     10 ****        -1.9278  -0.8901  -0.7420 C.ar           1 S1                 0.0000
     11 ****        -1.0879   0.2466  -0.6649 C.ar           1 S1                 0.0000
     12 ****         0.2851   0.1972  -0.7834 O.3            1 S1                 0.0000
     13 ****         0.9091  -1.0675  -0.9674 C.3            1 S1                 0.0000
     14 ****         2.4350  -0.8877  -1.0267 C.3            1 S1                 0.0000
     15 ****         2.7588  -0.3854  -2.3075 O.3            1 S1                 0.0000
     16 ****         2.9713   0.0537   0.0747 C.3            1 S1                 0.0000
     17 ****         4.3430  -0.2335   0.4591 N.am           1 S1                 0.0000
     18 ****         5.3780   0.4973  -0.1757 C.2            1 S1                 0.0000
     19 ****         5.1491   1.3552  -1.0290 O.2            1 S1                 0.0000
     20 ****         6.7271   0.1418   0.2510 C.2            1 S1                 0.0000
     21 ****         6.9321  -0.8235   1.1734 C.2            1 S1                 0.0000
     22 ****         5.9003  -1.5288   1.7611 N.am           1 S1                 0.0000
     23 ****         6.1272  -2.5581   2.7342 C.3            1 S1                 0.0000
     24 ****         4.5594  -1.2570   1.4124 C.2            1 S1                 0.0000
     25 ****         3.6264  -1.8921   1.9125 O.2            1 S1                 0.0000
     26 ****        -1.3958   3.6511  -0.2162 H              1 S1                 0.0000
     27 ****        -0.2242   2.8703  -1.2805 H              1 S1                 0.0000
     28 ****        -0.1077   2.6587   0.4706 H              1 S1                 0.0000
     29 ****        -3.4818   2.6239  -0.1665 H              1 S1                 0.0000
     30 ****        -7.2095   0.1567  -1.4975 H              1 S1                 0.0000
     31 ****        -5.8880  -0.9676  -1.7446 H              1 S1                 0.0000
     32 ****        -5.8014   0.6504  -2.4276 H              1 S1                 0.0000
     33 ****        -5.6771   2.7056  -0.8692 H              1 S1                 0.0000
     34 ****        -5.5381   2.4778   0.8768 H              1 S1                 0.0000
     35 ****        -7.0339   2.0883   0.0515 H              1 S1                 0.0000
     36 ****        -7.0073  -0.1767   1.0639 H              1 S1                 0.0000
     37 ****        -5.4618   0.0903   1.8591 H              1 S1                 0.0000
     38 ****        -5.6878  -1.3010   0.8072 H              1 S1                 0.0000
     39 ****        -3.9316  -1.6480  -0.6768 H              1 S1                 0.0000
     40 ****        -1.5269  -1.8793  -0.9013 H              1 S1                 0.0000
     41 ****         0.6671  -1.7081  -0.1179 H              1 S1                 0.0000
     42 ****         0.5458  -1.5615  -1.8704 H              1 S1                 0.0000
     43 ****         2.8924  -1.8740  -0.9380 H              1 S1                 0.0000
     44 ****         3.6939  -0.2563  -2.3520 H              1 S1                 0.0000
     45 ****         2.8934   1.1070  -0.2002 H              1 S1                 0.0000
     46 ****         2.3747  -0.0285   0.9851 H              1 S1                 0.0000
     47 ****         7.5728   0.6580  -0.1791 H              1 S1                 0.0000
     48 ****         7.9488  -1.0525   1.4577 H              1 S1                 0.0000
     49 ****         5.6327  -2.2520   3.6577 H              1 S1                 0.0000
     50 ****         7.2034  -2.6477   2.8850 H              1 S1                 0.0000
     51 ****         5.7163  -3.4865   2.3342 H              1 S1                 0.0000
     52 ****         0.6672   0.5955   0.0505 LP             1 S1                 0.0000
     53 ****         0.5336   0.7651  -1.5681 LP             1 S1                 0.0000
     54 ****         2.2907   0.4857  -2.4563 LP             1 S1                 0.0000
     55 ****         2.4751  -1.0401  -3.0081 LP             1 S1                 0.0000
     56 ****         4.2065   1.5563  -1.2956 LP             1 S1                 0.0000
     57 ****         5.9059   1.8508  -1.4554 LP             1 S1                 0.0000
     58 ****         2.6841  -1.6891   1.6464 LP             1 S1                 0.0000
     59 ****         3.8130  -2.6095   2.5837 LP             1 S1                 0.0000
@<TRIPOS>BOND
    1    1    2 1     
    2    1   26 1     
    3    1   27 1     
    4    1   28 1     
    5    2   11 ar    
    6    2    3 ar    
    7    3    4 ar    
    8    3   29 1     
    9    4    5 1     
   10    4    9 ar    
   11    5    6 1     
   12    5    7 1     
   13    5    8 1     
   14    6   30 1     
   15    6   31 1     
   16    6   32 1     
   17    7   33 1     
   18    7   34 1     
   19    7   35 1     
   20    8   36 1     
   21    8   37 1     
   22    8   38 1     
   23    9   10 ar    
   24    9   39 1     
   25   10   11 ar    
   26   10   40 1     
   27   11   12 1     
   28   12   13 1     
   29   13   14 1     
   30   13   41 1     
   31   13   42 1     
   32   14   15 1     
   33   14   16 1     
   34   14   43 1     
   35   15   44 1     
   36   16   17 1     
   37   16   45 1     
   38   16   46 1     
   39   17   24 am    
   40   17   18 am    
   41   18   19 2     
   42   18   20 1     
   43   20   21 2     
   44   20   47 1     
   45   21   22 1     
   46   21   48 1     
   47   22   23 1     
   48   22   24 am    
   49   23   49 1     
   50   23   50 1     
   51   23   51 1     
   52   24   25 2     
   53   12   52 1     
   54   12   53 1     
   55   15   54 1     
   56   15   55 1     
   57   19   56 1     
   58   19   57 1     
   59   25   58 1     
   60   25   59 1     
@<TRIPOS>SUBSTRUCTURE
      1 S1             1
@<TRIPOS>SET
LONE_PAIRS      STATIC     ATOMS    <user>   **** ""
8 52 53 54 55 56 57 58 59
DONOR_HYDROGENS      STATIC     ATOMS    <user>   **** ""
1 44
ATOM$BLUE        STATIC     ATOMS    COLORGROUP SYSTEM
8 52 53 54 55 56 57 58 59
ATOM$RED        STATIC     ATOMS    COLORGROUP SYSTEM
1 44
