AV-unprocessed.smi:1292|AV-procd|sdf|5397|dock7
  -GOLD-   22720 4553D 1   1.00000     0.00000
 Structure written by MMmdl.
 39 40  0  0  0  0  0  0  0  0  2 V2000
  151.6825  144.9448  159.0626 C   0  0  0  0  0  0  0  0  0  0  0  0
  151.8056  143.4718  159.4768 C   0  0  2  0  0  0  0  0  0  0  0  0
  153.0870  143.2185  160.2830 C   0  0  0  0  0  0  0  0  0  0  0  0
  153.1550  141.7431  160.6864 C   0  0  0  0  0  0  0  0  0  0  0  0
  153.0854  140.8260  159.4557 C   0  0  0  0  0  0  0  0  0  0  0  0
  151.8949  141.1187  158.6308 N   0  0  0  0  0  0  0  0  0  0  0  0
  151.3861  139.9187  157.4810 S   0  0  0  0  0  0  0  0  0  0  0  0
  150.0364  140.3043  157.0381 O   0  0  0  0  0  0  0  0  0  0  0  0
  152.4485  139.8456  156.4640 O   0  0  0  0  0  0  0  0  0  0  0  0
  151.3867  138.6667  158.5086 N   0  5  0  0  0  0  0  0  0  0  0  0
  150.1265  138.1384  158.9990 C   0  0  0  0  0  0  0  0  0  0  0  0
  150.2560  136.6271  159.3032 C   0  0  0  0  0  0  0  0  0  0  0  0
  149.2036  136.0605  160.2559 C   0  0  0  0  0  0  0  0  0  0  0  0
  148.3778  134.9828  159.8608 C   0  0  0  0  0  0  0  0  0  0  0  0
  147.4239  134.4932  160.7739 C   0  0  0  0  0  0  0  0  0  0  0  0
  147.3238  135.0977  162.0415 C   0  0  0  0  0  0  0  0  0  0  0  0
  148.1842  136.1725  162.3399 C   0  0  0  0  0  0  0  0  0  0  0  0
  149.0988  136.6522  161.4712 N   0  0  0  0  0  0  0  0  0  0  0  0
  151.7488  142.5404  158.2507 C   0  0  0  0  0  0  0  0  0  0  0  0
  152.5081  145.2449  158.4165 H   0  0  0  0  0  0  0  0  0  0  0  0
  151.6849  145.5999  159.9340 H   0  0  0  0  0  0  0  0  0  0  0  0
  150.7537  145.1225  158.5196 H   0  0  0  0  0  0  0  0  0  0  0  0
  150.9522  143.2384  160.1152 H   0  0  0  0  0  0  0  0  0  0  0  0
  153.9637  143.4817  159.6895 H   0  0  0  0  0  0  0  0  0  0  0  0
  153.1072  143.8478  161.1732 H   0  0  0  0  0  0  0  0  0  0  0  0
  154.0746  141.5500  161.2392 H   0  0  0  0  0  0  0  0  0  0  0  0
  152.3323  141.5086  161.3633 H   0  0  0  0  0  0  0  0  0  0  0  0
  153.9799  140.9478  158.8432 H   0  0  0  0  0  0  0  0  0  0  0  0
  153.0643  139.7859  159.7800 H   0  0  0  0  0  0  0  0  0  0  0  0
  149.8144  138.6528  159.9083 H   0  0  0  0  0  0  0  0  0  0  0  0
  149.3170  138.2864  158.2833 H   0  0  0  0  0  0  0  0  0  0  0  0
  150.2339  136.0609  158.3706 H   0  0  0  0  0  0  0  0  0  0  0  0
  151.2389  136.4384  159.7359 H   0  0  0  0  0  0  0  0  0  0  0  0
  148.4801  134.5364  158.8828 H   0  0  0  0  0  0  0  0  0  0  0  0
  146.7815  133.6671  160.5070 H   0  0  0  0  0  0  0  0  0  0  0  0
  146.6054  134.7471  162.7675 H   0  0  0  0  0  0  0  0  0  0  0  0
  148.1350  136.6621  163.3012 H   0  0  0  0  0  0  0  0  0  0  0  0
  150.8011  142.6836  157.7321 H   0  0  0  0  0  0  0  0  0  0  0  0
  152.5358  142.7979  157.5402 H   0  0  0  0  0  0  0  0  0  0  0  0
  1  2  1  0  0  0  0
  1 20  1  0  0  0  0
  1 21  1  0  0  0  0
  1 22  1  0  0  0  0
  2 19  1  0  0  0  0
  2  3  1  0  0  0  0
  2 23  1  0  0  0  0
  3  4  1  0  0  0  0
  3 24  1  0  0  0  0
  3 25  1  0  0  0  0
  4  5  1  0  0  0  0
  4 26  1  0  0  0  0
  4 27  1  0  0  0  0
  5  6  1  0  0  0  0
  5 28  1  0  0  0  0
  5 29  1  0  0  0  0
  6  7  1  0  0  0  0
  6 19  1  0  0  0  0
  7  8  2  0  0  0  0
  7  9  2  0  0  0  0
  7 10  1  0  0  0  0
 10 11  1  0  0  0  0
 11 12  1  0  0  0  0
 11 30  1  0  0  0  0
 11 31  1  0  0  0  0
 12 13  1  0  0  0  0
 12 32  1  0  0  0  0
 12 33  1  0  0  0  0
 13 18  1  0  0  0  0
 13 14  2  0  0  0  0
 14 15  1  0  0  0  0
 14 34  1  0  0  0  0
 15 16  2  0  0  0  0
 15 35  1  0  0  0  0
 16 17  1  0  0  0  0
 16 36  1  0  0  0  0
 17 18  2  0  0  0  0
 17 37  1  0  0  0  0
 19 38  1  0  0  0  0
 19 39  1  0  0  0  0
M  CHG  1  10  -1
M  END
> <s_m_source_file>
AV-unprocessed.smi

> <i_m_source_file_index>
1292

> <i_lp_mmshare_version>
43012

> <i_f3d_flags>
0

> <s_epik_input>
W0NIM11bQ0BASF0xW0NIMl1bQ0gyXVtDSDJdTihbQ0gyXTEpUyg9TykoPU8pW05IXVtDSDJdW0NIMl1jMltjSF1bY0hdW2NIXVtjSF1uMg==

> <s_epik_cmdline>
J2VwaWtfcHl0aG9uJywgJy1waCcsICc3LjAnLCAnLXRuJywgJzgnLCAnLW1hJywgJzIwMCcsICctbWV0YWxfYmluZGluZycsICctaW1hZScsICc8aW5maWxlLm1hZT4nLCAnLW9tYWUnLCAnPG91dGZpbGUubWFlPic=

> <r_epik_Ionization_Penalty>
2.02944

> <r_epik_Ionization_Penalty_Charging>
1.95606

> <r_epik_Ionization_Penalty_Neutral>
0.0733799

> <r_epik_State_Penalty>
2.47711

> <r_epik_Charging_Adjusted_Penalty>
4.43317

> <i_epik_Tot_Q>
-1

> <i_epik_Tot_abs_Q>
1

> <r_epik_Metal_State_Penalty>
0.729901

> <b_epik_Metal_Only>
0

> <s_lp_Force_Field>
OPLS_2005

> <r_lp_Energy>
8.05256

> <b_lp_Chiralities_Consistent>
1

> <s_lp_Variant>
AV-unprocessed.smi:1292-3

> <Gold.Version>
5.8.1

> <Gold.Id.Protein>
6NUR|6NUR_protein|mol2

> <Gold.PLP.Fitness>
42.9386

> <Gold.PLP.PLP>
-37.7084

> <Gold.PLP.part.hbond>
-2.2191

> <Gold.PLP.part.metal>
0.0000

> <Gold.PLP.part.buried>
-3.6179

> <Gold.PLP.part.nonpolar>
-32.7344

> <Gold.PLP.part.repulsive>
0.0188

> <Gold.PLP.ligand.clash>
0.0000

> <Gold.PLP.ligand.torsion>
1.9311

> <Gold.PLP.Chemscore.Hbond>
2.0000

> <Gold.PLP.Chemscore.CHOScore>
0.0000

> <Gold.PLP.Chemscore.Metal>
0.0000

> <Gold.Chemscore.Hbonds>
donor molecule, donor type, donor heavy atom, donor atom, acceptor molecule, acceptor atom, score
      P1  H  6931  6943       L1    18  0.95
      P1  H  7997  8010       L1     9  1.00

> <Gold.PLP.Chemscore.Internal.Correction>
3.0924

> <Gold.Rescore>
     Score         DG    S(hbond)    S(metal)    S(lipo)     H(rot)  DE(clash)    DE(int)     intcor
     18.94     -20.85       1.93        0.00     104.13       1.27       0.03       1.88       ----

> <Gold.Chemscore.Fitness>
18.9385

> <Gold.Chemscore.DG>
-20.8486

> <Gold.Chemscore.ZeroCoef>
-5.4800

> <Gold.Chemscore.Hbond>
1.9299

> <Gold.Chemscore.Metal>
0.0000

> <Gold.Chemscore.Lipo>
104.1334

> <Gold.Chemscore.Internal_Hbond>
0.0000

> <Gold.Chemscore.DEClash>
0.0285

> <Gold.Chemscore.DEInternal>
1.8816

> <Gold.Chemscore.Rot>
1.2738

> <Gold.Chemscore.Internal.Correction>
   9.000000E+99

> <Gold.Chemscore.Hbonds>
donor molecule, donor type, donor heavy atom, donor atom, acceptor molecule, acceptor atom, score
      P1  H  6931  6943       L1    18  0.21
      P1  H  7997  8010       L1     9  1.00

> <Gold.Chemscore.Hbond.Weighted>
-6.4460

> <Gold.Chemscore.Metal.Weighted>
-0.0000

> <Gold.Chemscore.Lipo.Weighted>
-12.1836

> <Gold.Chemscore.Internal_Hbond.Weighted>
0.0000

> <Gold.Chemscore.DEClash.Weighted>
0.0285

> <Gold.Chemscore.DEInternal.Weighted>
1.8816

> <Gold.Chemscore.Rot.Weighted>
3.2610

> <Gold.Chemscore.Internal.Correction.Weighted>
   9.000000E+99

> <Gold.Protein.RotatedTorsions>
[ 6907 6896 6895 6894 ] final  -20.04 input  -60.11 | X-H torsion
[ 7974 7965 7964 7962 ] final    2.86 input  175.53 | X-H torsion
[ 8008 7997 7996 7995 ] final   74.74 input   59.86 | X-H torsion
[ 10167 10162 10161 10158 ] final   54.34 input  -65.29 | X-H torsion
[ 10718 10713 10712 10709 ] final  104.42 input   66.30 | X-H torsion
[ 10763 10752 10751 10750 ] final -124.30 input  -60.55 | X-H torsion
[ 11005 11000 10999 10996 ] final -108.51 input  -57.11 | X-H torsion

> <Gold.Protein.ActiveResidues>
 VAL166  LYS551  ARG553  GLY616  TRP617  ASP618  TYR619  PRO620  LYS621  CYS622 
 ASP623  PHE694  ASN695  SER759  ASP760  ASP761  ALA762  ILE779  LEU786  VAL792 
 PHE793  MET794  SER795  GLU796  ALA797  LYS798  CYS799  TRP800  GLU811  SER814 

> <Gold.Protein.RotatedAtoms>
  151.2541  135.0632  159.9072 H   0  0  0  0  0  0  0  0  0  0  0  0  # atno 6907 bound_to 6896
  152.5376  134.0301  159.8031 H   0  0  0  0  0  0  0  0  0  0  0  0  # atno 6908 bound_to 6896
  151.0513  133.5572  159.2673 H   0  0  0  0  0  0  0  0  0  0  0  0  # atno 6909 bound_to 6896
  146.2444  140.0772  142.8359 H   0  0  0  0  0  0  0  0  0  0  0  0  # atno 7974 bound_to 7965
  155.8027  140.3476  155.5412 H   0  0  0  0  0  0  0  0  0  0  0  0  # atno 8008 bound_to 7997
  155.8521  140.0958  157.1688 H   0  0  0  0  0  0  0  0  0  0  0  0  # atno 8009 bound_to 7997
  154.4008  140.1374  156.3845 H   0  0  0  0  0  0  0  0  0  0  0  0  # atno 8010 bound_to 7997
  140.2312  144.3685  150.6414 H   0  0  0  0  0  0  0  0  0  0  0  0  # atno 10167 bound_to 10162
  157.6741  131.0803  150.5703 H   0  0  0  0  0  0  0  0  0  0  0  0  # atno 10718 bound_to 10713
  154.8721  135.4068  154.3083 H   0  0  0  0  0  0  0  0  0  0  0  0  # atno 10763 bound_to 10752
  153.3931  135.7015  153.6486 H   0  0  0  0  0  0  0  0  0  0  0  0  # atno 10764 bound_to 10752
  153.5260  135.3677  155.2625 H   0  0  0  0  0  0  0  0  0  0  0  0  # atno 10765 bound_to 10752
  141.0898  133.9075  157.2103 H   0  0  0  0  0  0  0  0  0  0  0  0  # atno 11005 bound_to 11000
  145.0765  140.9191  143.4851 LP  0  0  0  0  0  0  0  0  0  0  0  0  # atno 17320 bound_to 7965
  145.0916  139.2886  143.5732 LP  0  0  0  0  0  0  0  0  0  0  0  0  # atno 17321 bound_to 7965
  140.6184  143.2174  151.6745 LP  0  0  0  0  0  0  0  0  0  0  0  0  # atno 17342 bound_to 10162
  139.5109  144.3526  152.0638 LP  0  0  0  0  0  0  0  0  0  0  0  0  # atno 17343 bound_to 10162
  156.6005  130.4353  149.5899 LP  0  0  0  0  0  0  0  0  0  0  0  0  # atno 17370 bound_to 10713
  156.2510  130.6907  151.1645 LP  0  0  0  0  0  0  0  0  0  0  0  0  # atno 17371 bound_to 10713
  139.9721  135.0125  156.9540 LP  0  0  0  0  0  0  0  0  0  0  0  0  # atno 17394 bound_to 11000
  140.5279  134.0842  155.7308 LP  0  0  0  0  0  0  0  0  0  0  0  0  # atno 17395 bound_to 11000

$$$$
