AV-unprocessed.smi:3044|AV-procd|sdf|11605|dock7
  -GOLD-   2272016583D 1   1.00000     0.00000
 Structure written by MMmdl.
 41 42  0  0  0  0  0  0  0  0  1 V2000
  153.1718  142.7568  163.1597 C   0  0  0  0  0  0  0  0  0  0  0  0
  152.7443  143.0951  161.7415 C   0  0  0  0  0  0  0  0  0  0  0  0
  151.9130  144.1544  161.6226 N   0  0  0  0  0  0  0  0  0  0  0  0
  151.5004  144.5063  160.3870 C   0  0  0  0  0  0  0  0  0  0  0  0
  151.8992  143.8300  159.2188 C   0  0  0  0  0  0  0  0  0  0  0  0
  152.7642  142.7268  159.3440 C   0  0  0  0  0  0  0  0  0  0  0  0
  153.1936  142.3334  160.6346 C   0  0  0  0  0  0  0  0  0  0  0  0
  154.0807  141.2467  160.8656 N   0  0  0  0  0  0  0  0  0  0  0  0
  154.4272  140.2444  160.0362 C   0  0  0  0  0  0  0  0  0  0  0  0
  154.0349  140.1291  158.8760 O   0  0  0  0  0  0  0  0  0  0  0  0
  155.3739  139.1892  160.6126 C   0  0  0  0  0  0  0  0  0  0  0  0
  154.6693  138.3876  161.5527 O   0  0  0  0  0  0  0  0  0  0  0  0
  155.3966  137.2797  162.0663 C   0  0  2  0  0  0  0  0  0  0  0  0
  154.4492  136.1310  162.4690 C   0  0  0  0  0  0  0  0  0  0  0  0
  153.5275  136.5371  163.6304 C   0  0  0  0  0  0  0  0  0  0  0  0
  154.3371  137.0329  164.8389 C   0  0  0  0  0  0  0  0  0  0  0  0
  155.2760  138.1921  164.4544 C   0  0  1  0  0  0  0  0  0  0  0  0
  156.0901  138.6803  165.6609 C   0  0  0  0  0  0  0  0  0  0  0  0
  156.1941  137.7784  163.2853 C   0  0  0  0  0  0  0  0  0  0  0  0
  152.8736  141.7392  163.4144 H   0  0  0  0  0  0  0  0  0  0  0  0
  152.7190  143.4316  163.8874 H   0  0  0  0  0  0  0  0  0  0  0  0
  154.2550  142.8327  163.2584 H   0  0  0  0  0  0  0  0  0  0  0  0
  150.8380  145.3569  160.3268 H   0  0  0  0  0  0  0  0  0  0  0  0
  151.5535  144.1539  158.2484 H   0  0  0  0  0  0  0  0  0  0  0  0
  153.0918  142.2157  158.4521 H   0  0  0  0  0  0  0  0  0  0  0  0
  154.4240  141.1624  161.8117 H   0  0  0  0  0  0  0  0  0  0  0  0
  155.7690  138.5821  159.7980 H   0  0  0  0  0  0  0  0  0  0  0  0
  156.2132  139.6919  161.0951 H   0  0  0  0  0  0  0  0  0  0  0  0
  156.1050  136.9286  161.3139 H   0  0  0  0  0  0  0  0  0  0  0  0
  153.8541  135.7977  161.6194 H   0  0  0  0  0  0  0  0  0  0  0  0
  155.0448  135.2689  162.7721 H   0  0  0  0  0  0  0  0  0  0  0  0
  152.8446  137.3210  163.3001 H   0  0  0  0  0  0  0  0  0  0  0  0
  152.9061  135.6904  163.9230 H   0  0  0  0  0  0  0  0  0  0  0  0
  153.6557  137.3508  165.6288 H   0  0  0  0  0  0  0  0  0  0  0  0
  154.9199  136.2067  165.2486 H   0  0  0  0  0  0  0  0  0  0  0  0
  154.6581  139.0276  164.1216 H   0  0  0  0  0  0  0  0  0  0  0  0
  156.7372  137.8925  166.0475 H   0  0  0  0  0  0  0  0  0  0  0  0
  155.4358  139.0022  166.4716 H   0  0  0  0  0  0  0  0  0  0  0  0
  156.7211  139.5274  165.3912 H   0  0  0  0  0  0  0  0  0  0  0  0
  156.8706  136.9895  163.6168 H   0  0  0  0  0  0  0  0  0  0  0  0
  156.8255  138.6175  162.9906 H   0  0  0  0  0  0  0  0  0  0  0  0
  1  2  1  0  0  0  0
  1 20  1  0  0  0  0
  1 21  1  0  0  0  0
  1 22  1  0  0  0  0
  2  7  1  0  0  0  0
  2  3  2  0  0  0  0
  3  4  1  0  0  0  0
  4  5  2  0  0  0  0
  4 23  1  0  0  0  0
  5  6  1  0  0  0  0
  5 24  1  0  0  0  0
  6  7  2  0  0  0  0
  6 25  1  0  0  0  0
  7  8  1  0  0  0  0
  8  9  1  0  0  0  0
  8 26  1  0  0  0  0
  9 10  2  0  0  0  0
  9 11  1  0  0  0  0
 11 12  1  0  0  0  0
 11 27  1  0  0  0  0
 11 28  1  0  0  0  0
 12 13  1  0  0  0  0
 13 19  1  0  0  0  0
 13 14  1  0  0  0  0
 13 29  1  0  0  0  0
 14 15  1  0  0  0  0
 14 30  1  0  0  0  0
 14 31  1  0  0  0  0
 15 16  1  0  0  0  0
 15 32  1  0  0  0  0
 15 33  1  0  0  0  0
 16 17  1  0  0  0  0
 16 34  1  0  0  0  0
 16 35  1  0  0  0  0
 17 18  1  0  0  0  0
 17 19  1  0  0  0  0
 17 36  1  0  0  0  0
 18 37  1  0  0  0  0
 18 38  1  0  0  0  0
 18 39  1  0  0  0  0
 19 40  1  0  0  0  0
 19 41  1  0  0  0  0
M  END
> <s_m_source_file>
AV-unprocessed.smi

> <i_m_source_file_index>
3044

> <i_lp_mmshare_version>
43012

> <i_f3d_flags>
0

> <s_epik_input>
W0NIM11jMW5bY0hdW2NIXVtjSF1jMVtOSF1DKD1PKVtDSDJdT1tDQEBIXTJbQ0gyXVtDSDJdW0NIMl1bQ0BASF0oW0NIM10pW0NIMl0y

> <s_epik_cmdline>
J2VwaWtfcHl0aG9uJywgJy1waCcsICc3LjAnLCAnLXRuJywgJzgnLCAnLW1hJywgJzIwMCcsICctbWV0YWxfYmluZGluZycsICctaW1hZScsICc8aW5maWxlLm1hZT4nLCAnLW9tYWUnLCAnPG91dGZpbGUubWFlPic=

> <r_epik_Ionization_Penalty>
0.0077122

> <r_epik_Ionization_Penalty_Charging>
0

> <r_epik_Ionization_Penalty_Neutral>
0.0077122

> <r_epik_State_Penalty>
0.00577497

> <r_epik_Charging_Adjusted_Penalty>
0.00577497

> <i_epik_Tot_Q>
0

> <i_epik_Tot_abs_Q>
0

> <r_epik_Metal_State_Penalty>
-0

> <b_epik_Metal_Only>
0

> <s_lp_Force_Field>
OPLS_2005

> <r_lp_Energy>
17.2241

> <b_lp_Chiralities_Consistent>
1

> <s_lp_Variant>
AV-unprocessed.smi:3044-1

> <Gold.Version>
5.8.1

> <Gold.Id.Protein>
6NUR|6NUR_protein|mol2

> <Gold.PLP.Fitness>
45.1290

> <Gold.PLP.PLP>
-43.2852

> <Gold.PLP.part.hbond>
-1.0000

> <Gold.PLP.part.metal>
0.0000

> <Gold.PLP.part.buried>
-4.1978

> <Gold.PLP.part.nonpolar>
-37.7999

> <Gold.PLP.part.repulsive>
0.2030

> <Gold.PLP.ligand.clash>
0.0000

> <Gold.PLP.ligand.torsion>
0.5246

> <Gold.PLP.Chemscore.Hbond>
0.9600

> <Gold.PLP.Chemscore.CHOScore>
0.0000

> <Gold.PLP.Chemscore.Metal>
0.0000

> <Gold.Chemscore.Hbonds>
donor molecule, donor type, donor heavy atom, donor atom, acceptor molecule, acceptor atom, score
      P1  H  7997  8008       L1    10  0.94

> <Gold.PLP.Chemscore.Internal.Correction>
0.0129

> <Gold.Rescore>
     Score         DG    S(hbond)    S(metal)    S(lipo)     H(rot)  DE(clash)    DE(int)     intcor
     17.50     -19.31       0.98        0.00     118.83       1.31       0.05       1.75       ----

> <Gold.Chemscore.Fitness>
17.5013

> <Gold.Chemscore.DG>
-19.3050

> <Gold.Chemscore.ZeroCoef>
-5.4800

> <Gold.Chemscore.Hbond>
0.9780

> <Gold.Chemscore.Metal>
0.0000

> <Gold.Chemscore.Lipo>
118.8283

> <Gold.Chemscore.Internal_Hbond>
0.0000

> <Gold.Chemscore.DEClash>
0.0497

> <Gold.Chemscore.DEInternal>
1.7540

> <Gold.Chemscore.Rot>
1.3064

> <Gold.Chemscore.Internal.Correction>
   9.000000E+99

> <Gold.Chemscore.Hbonds>
donor molecule, donor type, donor heavy atom, donor atom, acceptor molecule, acceptor atom, score
      P1  H  7997  8008       L1    10  0.91

> <Gold.Chemscore.Hbond.Weighted>
-3.2664

> <Gold.Chemscore.Metal.Weighted>
-0.0000

> <Gold.Chemscore.Lipo.Weighted>
-13.9029

> <Gold.Chemscore.Internal_Hbond.Weighted>
0.0000

> <Gold.Chemscore.DEClash.Weighted>
0.0497

> <Gold.Chemscore.DEInternal.Weighted>
1.7540

> <Gold.Chemscore.Rot.Weighted>
3.3443

> <Gold.Chemscore.Internal.Correction.Weighted>
   9.000000E+99

> <Gold.Protein.RotatedTorsions>
[ 6907 6896 6895 6894 ] final   70.08 input  -60.11 | X-H torsion
[ 7974 7965 7964 7962 ] final   21.14 input  175.53 | X-H torsion
[ 8008 7997 7996 7995 ] final -112.43 input   59.86 | X-H torsion
[ 10167 10162 10161 10158 ] final  132.31 input  -65.29 | X-H torsion
[ 10718 10713 10712 10709 ] final -154.63 input   66.30 | X-H torsion
[ 10763 10752 10751 10750 ] final  -81.71 input  -60.55 | X-H torsion
[ 11005 11000 10999 10996 ] final   99.80 input  -57.11 | X-H torsion

> <Gold.Protein.ActiveResidues>
 VAL166  LYS551  ARG553  GLY616  TRP617  ASP618  TYR619  PRO620  LYS621  CYS622 
 ASP623  PHE694  ASN695  SER759  ASP760  ASP761  ALA762  ILE779  LEU786  VAL792 
 PHE793  MET794  SER795  GLU796  ALA797  LYS798  CYS799  TRP800  GLU811  SER814 

> <Gold.Protein.RotatedAtoms>
  152.4727  134.4921  159.9698 H   0  0  0  0  0  0  0  0  0  0  0  0  # atno 6907 bound_to 6896
  151.4945  133.3512  159.2866 H   0  0  0  0  0  0  0  0  0  0  0  0  # atno 6908 bound_to 6896
  150.8746  134.8154  159.7241 H   0  0  0  0  0  0  0  0  0  0  0  0  # atno 6909 bound_to 6896
  146.2083  139.8069  142.8708 H   0  0  0  0  0  0  0  0  0  0  0  0  # atno 7974 bound_to 7965
  155.0051  140.0394  157.2376 H   0  0  0  0  0  0  0  0  0  0  0  0  # atno 8008 bound_to 7997
  154.7509  140.2767  155.6270 H   0  0  0  0  0  0  0  0  0  0  0  0  # atno 8009 bound_to 7997
  156.2885  140.2647  156.2263 H   0  0  0  0  0  0  0  0  0  0  0  0  # atno 8010 bound_to 7997
  139.5345  144.6667  151.4834 H   0  0  0  0  0  0  0  0  0  0  0  0  # atno 10167 bound_to 10162
  156.5018  130.8395  151.2612 H   0  0  0  0  0  0  0  0  0  0  0  0  # atno 10718 bound_to 10713
  154.5669  135.5616  153.7059 H   0  0  0  0  0  0  0  0  0  0  0  0  # atno 10763 bound_to 10752
  153.0036  135.6287  154.2167 H   0  0  0  0  0  0  0  0  0  0  0  0  # atno 10764 bound_to 10752
  154.2106  135.2874  155.2939 H   0  0  0  0  0  0  0  0  0  0  0  0  # atno 10765 bound_to 10752
  139.8770  134.9112  156.4660 H   0  0  0  0  0  0  0  0  0  0  0  0  # atno 11005 bound_to 11000
  145.3237  141.0250  143.3486 LP  0  0  0  0  0  0  0  0  0  0  0  0  # atno 17320 bound_to 7965
  144.8848  139.4854  143.6705 LP  0  0  0  0  0  0  0  0  0  0  0  0  # atno 17321 bound_to 7965
  140.6543  143.8631  150.6819 LP  0  0  0  0  0  0  0  0  0  0  0  0  # atno 17342 bound_to 10162
  140.2005  143.3963  152.1795 LP  0  0  0  0  0  0  0  0  0  0  0  0  # atno 17343 bound_to 10162
  157.7462  130.9979  150.2833 LP  0  0  0  0  0  0  0  0  0  0  0  0  # atno 17370 bound_to 10713
  156.3325  130.3802  149.7479 LP  0  0  0  0  0  0  0  0  0  0  0  0  # atno 17371 bound_to 10713
  140.8830  133.7904  155.9487 LP  0  0  0  0  0  0  0  0  0  0  0  0  # atno 17394 bound_to 11000
  140.8834  134.2583  157.5132 LP  0  0  0  0  0  0  0  0  0  0  0  0  # atno 17395 bound_to 11000

$$$$
