#       Name:                AV-unprocessed.smi:578
#       Creating user name   scv26
#       Creation time:       Thu Mar 26 23:49:11 2020


#       File generated by GOLD software.
#

@<TRIPOS>MOLECULE
AV-unprocessed.smi:578
    40    41     1
SMALL
NO_CHARGES


@<TRIPOS>ATOM
      1 ****        -2.9117  -1.5491   1.9441 C.3            1 S1                 0.0000
      2 ****        -2.3002  -0.8848   0.7063 C.3            1 S1                 0.0000
      3 ****        -0.7651  -0.8135   0.7916 C.3            1 S1                 0.0000
      4 ****        -0.2368  -0.0845  -0.3529 N.3            1 S1                 0.0000
      5 ****         1.1620  -0.1094  -0.4345 C.ar           1 S1                 0.0000
      6 ****         1.7753  -0.7334  -1.5418 C.ar           1 S1                 0.0000
      7 ****         3.1813  -0.7624  -1.6250 C.ar           1 S1                 0.0000
      8 ****         3.9227  -0.1953  -0.6499 N.pl3          1 S1                 1.0000
      9 ****         3.3875   0.4162   0.4315 C.ar           1 S1                 0.0000
     10 ****         4.3077   1.0130   1.4549 C.2            1 S1                 0.0000
     11 ****         3.8107   1.5779   2.4538 O.co2          1 S1                 0.0000
     12 ****         5.5422   0.9231   1.2707 O.co2          1 S1                -1.0000
     13 ****         1.9806   0.4724   0.5623 C.ar           1 S1                 0.0000
     14 ****        -0.7984   1.2556  -0.4623 C.3            1 S1                 0.0000
     15 ****        -2.3390   1.2002  -0.5014 C.3            1 S1                 0.0000
     16 ****        -2.9027   0.7034  -1.8446 C.3            1 S1                 0.0000
     17 ****        -2.8315   0.4371   0.6039 O.3            1 S1                 0.0000
     18 ****        -2.5419  -2.5675   2.0658 H              1 S1                 0.0000
     19 ****        -3.9980  -1.5977   1.8633 H              1 S1                 0.0000
     20 ****        -2.6697  -0.9941   2.8510 H              1 S1                 0.0000
     21 ****        -2.5918  -1.4674  -0.1680 H              1 S1                 0.0000
     22 ****        -0.4669  -0.3160   1.7156 H              1 S1                 0.0000
     23 ****        -0.3432  -1.8192   0.8158 H              1 S1                 0.0000
     24 ****         1.1761  -1.1862  -2.3183 H              1 S1                 0.0000
     25 ****         3.7318  -1.2185  -2.4345 H              1 S1                 0.0000
     26 ****         1.5334   0.9570   1.4184 H              1 S1                 0.0000
     27 ****        -0.4810   1.8493   0.3963 H              1 S1                 0.0000
     28 ****        -0.4137   1.7546  -1.3528 H              1 S1                 0.0000
     29 ****        -2.7107   2.2154  -0.3602 H              1 S1                 0.0000
     30 ****        -2.6149   1.3728  -2.6554 H              1 S1                 0.0000
     31 ****        -3.9920   0.6673  -1.8181 H              1 S1                 0.0000
     32 ****        -2.5412  -0.2913  -2.1035 H              1 S1                 0.0000
     33 ****         4.9402  -0.2246  -0.7233 H              1 S1                 0.0000
     34 ****        -0.5470  -0.5825  -1.1627 LP             1 S1                 0.0000
     35 ****         4.4066   1.9821   3.1477 LP             1 S1                 0.0000
     36 ****         2.8173   1.6254   2.5587 LP             1 S1                 0.0000
     37 ****         6.1770   1.3126   1.9381 LP             1 S1                 0.0000
     38 ****         5.8939   0.4618   0.4562 LP             1 S1                 0.0000
     39 ****        -2.6066   0.9283   1.4454 LP             1 S1                 0.0000
     40 ****        -3.8250   0.3665   0.5146 LP             1 S1                 0.0000
@<TRIPOS>BOND
    1    1    2 1     
    2    1   18 1     
    3    1   19 1     
    4    1   20 1     
    5    2   17 1     
    6    2    3 1     
    7    2   21 1     
    8    3    4 1     
    9    3   22 1     
   10    3   23 1     
   11    4    5 1     
   12    4   14 1     
   13    5   13 ar    
   14    5    6 ar    
   15    6    7 ar    
   16    6   24 1     
   17    7    8 ar    
   18    7   25 1     
   19    8    9 ar    
   20    8   33 1     
   21    9   10 1     
   22    9   13 ar    
   23   10   11 ar    
   24   10   12 ar    
   25   13   26 1     
   26   14   15 1     
   27   14   27 1     
   28   14   28 1     
   29   15   16 1     
   30   15   17 1     
   31   15   29 1     
   32   16   30 1     
   33   16   31 1     
   34   16   32 1     
   35    4   34 1     
   36   11   35 1     
   37   11   36 1     
   38   12   37 1     
   39   12   38 1     
   40   17   39 1     
   41   17   40 1     
@<TRIPOS>SUBSTRUCTURE
      1 S1             1
@<TRIPOS>SET
LONE_PAIRS      STATIC     ATOMS    <user>   **** ""
7 34 35 36 37 38 39 40
DONOR_HYDROGENS      STATIC     ATOMS    <user>   **** ""
1 33
ATOM$BLUE        STATIC     ATOMS    COLORGROUP SYSTEM
7 34 35 36 37 38 39 40
ATOM$RED        STATIC     ATOMS    COLORGROUP SYSTEM
1 33
