AV-unprocessed.smi:2664|AV-procd|sdf|10329|dock8
  -GOLD-   2272014343D 1   1.00000     0.00000
 Structure written by MMmdl.
 44 45  0  0  0  0  0  0  0  0  2 V2000
  146.4485  131.7482  153.9069 O   0  0  0  0  0  0  0  0  0  0  0  0
  147.1509  131.6128  152.9059 C   0  0  0  0  0  0  0  0  0  0  0  0
  146.7847  131.9354  151.6534 N   0  0  0  0  0  0  0  0  0  0  0  0
  145.5361  132.4379  151.1955 C   0  0  0  0  0  0  0  0  0  0  0  0
  145.1961  132.2078  149.8438 C   0  0  0  0  0  0  0  0  0  0  0  0
  143.9604  132.6715  149.3481 C   0  0  0  0  0  0  0  0  0  0  0  0
  143.1085  133.3226  150.1686 N   0  3  0  0  0  0  0  0  0  0  0  0
  143.3827  133.5545  151.4702 C   0  0  0  0  0  0  0  0  0  0  0  0
  144.6025  133.1135  152.0227 C   0  0  0  0  0  0  0  0  0  0  0  0
  148.4045  131.1347  152.9338 N   0  0  0  0  0  0  0  0  0  0  0  0
  149.1273  130.6774  154.1244 C   0  0  1  0  0  0  0  0  0  0  0  0
  149.7869  129.3089  153.8164 C   0  0  0  0  0  0  0  0  0  0  0  0
  150.3729  128.5741  155.0373 C   0  0  0  0  0  0  0  0  0  0  0  0
  151.3113  127.6017  154.6285 O   0  0  0  0  0  0  0  0  0  0  0  0
  150.1401  131.7659  154.5851 C   0  0  0  0  0  0  0  0  0  0  0  0
  150.7457  131.4605  155.9778 C   0  0  0  0  0  0  0  0  0  0  0  0
  151.7367  132.5422  156.4372 C   0  0  0  0  0  0  0  0  0  0  0  0
  151.0879  133.9314  156.4430 C   0  0  0  0  0  0  0  0  0  0  0  0
  150.5078  134.2611  155.0625 C   0  0  0  0  0  0  0  0  0  0  0  0
  149.5120  133.1840  154.6036 C   0  0  0  0  0  0  0  0  0  0  0  0
  147.5025  131.8512  150.9484 H   0  0  0  0  0  0  0  0  0  0  0  0
  145.8768  131.6855  149.1871 H   0  0  0  0  0  0  0  0  0  0  0  0
  143.6299  132.5401  148.3280 H   0  0  0  0  0  0  0  0  0  0  0  0
  142.6204  134.0768  152.0299 H   0  0  0  0  0  0  0  0  0  0  0  0
  144.7900  133.2920  153.0703 H   0  0  0  0  0  0  0  0  0  0  0  0
  148.9033  131.0705  152.0586 H   0  0  0  0  0  0  0  0  0  0  0  0
  148.4235  130.5246  154.9443 H   0  0  0  0  0  0  0  0  0  0  0  0
  149.0519  128.6597  153.3391 H   0  0  0  0  0  0  0  0  0  0  0  0
  150.5922  129.4307  153.0935 H   0  0  0  0  0  0  0  0  0  0  0  0
  150.8430  129.2642  155.7377 H   0  0  0  0  0  0  0  0  0  0  0  0
  149.5748  128.0698  155.5825 H   0  0  0  0  0  0  0  0  0  0  0  0
  151.3438  127.5916  153.6839 H   0  0  0  0  0  0  0  0  0  0  0  0
  150.9600  131.7812  153.8650 H   0  0  0  0  0  0  0  0  0  0  0  0
  149.9459  131.3641  156.7134 H   0  0  0  0  0  0  0  0  0  0  0  0
  151.2760  130.5098  155.9713 H   0  0  0  0  0  0  0  0  0  0  0  0
  152.1102  132.3036  157.4335 H   0  0  0  0  0  0  0  0  0  0  0  0
  152.6037  132.5466  155.7756 H   0  0  0  0  0  0  0  0  0  0  0  0
  150.2973  133.9664  157.1936 H   0  0  0  0  0  0  0  0  0  0  0  0
  151.8224  134.6849  156.7288 H   0  0  0  0  0  0  0  0  0  0  0  0
  150.0160  135.2339  155.0900 H   0  0  0  0  0  0  0  0  0  0  0  0
  151.3169  134.3443  154.3357 H   0  0  0  0  0  0  0  0  0  0  0  0
  149.1483  133.4610  153.6144 H   0  0  0  0  0  0  0  0  0  0  0  0
  148.6421  133.1901  155.2619 H   0  0  0  0  0  0  0  0  0  0  0  0
  142.2185  133.6489  149.7907 H   0  0  0  0  0  0  0  0  0  0  0  0
  1  2  2  0  0  0  0
  2  3  1  0  0  0  0
  2 10  1  0  0  0  0
  3  4  1  0  0  0  0
  3 21  1  0  0  0  0
  4  9  1  0  0  0  0
  4  5  2  0  0  0  0
  5  6  1  0  0  0  0
  5 22  1  0  0  0  0
  6  7  2  0  0  0  0
  6 23  1  0  0  0  0
  7  8  1  0  0  0  0
  7 44  1  0  0  0  0
  8  9  2  0  0  0  0
  8 24  1  0  0  0  0
  9 25  1  0  0  0  0
 10 11  1  0  0  0  0
 10 26  1  0  0  0  0
 11 12  1  0  0  0  0
 11 15  1  0  0  0  0
 11 27  1  0  0  0  0
 12 13  1  0  0  0  0
 12 28  1  0  0  0  0
 12 29  1  0  0  0  0
 13 14  1  0  0  0  0
 13 30  1  0  0  0  0
 13 31  1  0  0  0  0
 14 32  1  0  0  0  0
 15 20  1  0  0  0  0
 15 16  1  0  0  0  0
 15 33  1  0  0  0  0
 16 17  1  0  0  0  0
 16 34  1  0  0  0  0
 16 35  1  0  0  0  0
 17 18  1  0  0  0  0
 17 36  1  0  0  0  0
 17 37  1  0  0  0  0
 18 19  1  0  0  0  0
 18 38  1  0  0  0  0
 18 39  1  0  0  0  0
 19 20  1  0  0  0  0
 19 40  1  0  0  0  0
 19 41  1  0  0  0  0
 20 42  1  0  0  0  0
 20 43  1  0  0  0  0
M  CHG  1   7   1
M  END
> <s_m_source_file>
AV-unprocessed.smi

> <i_m_source_file_index>
2664

> <i_lp_mmshare_version>
43012

> <i_f3d_flags>
0

> <s_epik_input>
W2NIXTFbY0hdbltjSF1bY0hdYzFbTkhdQyg9TylbTkhdW0NASF0oW0NIMl1bQ0gyXVtPSF0pW0NIXTJbQ0gyXVtDSDJdW0NIMl1bQ0gyXVtDSDJdMg==

> <s_epik_cmdline>
J2VwaWtfcHl0aG9uJywgJy1waCcsICc3LjAnLCAnLXRuJywgJzgnLCAnLW1hJywgJzIwMCcsICctbWV0YWxfYmluZGluZycsICctaW1hZScsICc8aW5maWxlLm1hZT4nLCAnLW9tYWUnLCAnPG91dGZpbGUubWFlPic=

> <r_epik_Ionization_Penalty>
1.0085

> <r_epik_Ionization_Penalty_Charging>
1.00848

> <r_epik_Ionization_Penalty_Neutral>
2.14516e-05

> <r_epik_State_Penalty>
1.05769

> <r_epik_Charging_Adjusted_Penalty>
2.06617

> <i_epik_Tot_Q>
1

> <i_epik_Tot_abs_Q>
1

> <r_epik_Metal_State_Penalty>
1.15842

> <b_epik_Metal_Only>
0

> <s_lp_Force_Field>
OPLS_2005

> <r_lp_Energy>
27.8621

> <b_lp_Chiralities_Consistent>
1

> <s_lp_Variant>
AV-unprocessed.smi:2664-4

> <Gold.Version>
5.8.1

> <Gold.Id.Protein>
6NUR|6NUR_protein|mol2

> <Gold.PLP.Fitness>
50.5328

> <Gold.PLP.PLP>
-36.8352

> <Gold.PLP.part.hbond>
-3.9096

> <Gold.PLP.part.metal>
0.0000

> <Gold.PLP.part.buried>
-5.8567

> <Gold.PLP.part.nonpolar>
-27.3154

> <Gold.PLP.part.repulsive>
0.2267

> <Gold.PLP.ligand.clash>
0.0000

> <Gold.PLP.ligand.torsion>
0.5698

> <Gold.PLP.Chemscore.Hbond>
4.9280

> <Gold.PLP.Chemscore.CHOScore>
0.0000

> <Gold.PLP.Chemscore.Metal>
0.0000

> <Gold.Chemscore.Hbonds>
donor molecule, donor type, donor heavy atom, donor atom, acceptor molecule, acceptor atom, score
      L1  H     3    21       P1 10747  0.96
      L1  H     7    44       P1 10186  1.62
      L1  H    10    26       P1 10747  1.00
      L1  H    14    32       P1 10737  0.88

> <Gold.PLP.Chemscore.Internal.Correction>
0.0532

> <Gold.Rescore>
     Score         DG    S(hbond)    S(metal)    S(lipo)     H(rot)  DE(clash)    DE(int)     intcor
     18.75     -20.37       3.23        0.00      84.77       2.27       0.04       1.58       ----

> <Gold.Chemscore.Fitness>
18.7503

> <Gold.Chemscore.DG>
-20.3687

> <Gold.Chemscore.ZeroCoef>
-5.4800

> <Gold.Chemscore.Hbond>
3.2306

> <Gold.Chemscore.Metal>
0.0000

> <Gold.Chemscore.Lipo>
84.7660

> <Gold.Chemscore.Internal_Hbond>
0.0000

> <Gold.Chemscore.DEClash>
0.0407

> <Gold.Chemscore.DEInternal>
1.5778

> <Gold.Chemscore.Rot>
2.2731

> <Gold.Chemscore.Internal.Correction>
   9.000000E+99

> <Gold.Chemscore.Hbonds>
donor molecule, donor type, donor heavy atom, donor atom, acceptor molecule, acceptor atom, score
      L1  H     3    21       P1 10747  0.92
      L1  H     7    44       P1 10186  0.80
      L1  H    10    26       P1 10747  0.64
      L1  H    14    32       P1 10737  0.85

> <Gold.Chemscore.Hbond.Weighted>
-10.7903

> <Gold.Chemscore.Metal.Weighted>
-0.0000

> <Gold.Chemscore.Lipo.Weighted>
-9.9176

> <Gold.Chemscore.Internal_Hbond.Weighted>
0.0000

> <Gold.Chemscore.DEClash.Weighted>
0.0407

> <Gold.Chemscore.DEInternal.Weighted>
1.5778

> <Gold.Chemscore.Rot.Weighted>
5.8192

> <Gold.Chemscore.Internal.Correction.Weighted>
   9.000000E+99

> <Gold.Protein.RotatedTorsions>
[ 6907 6896 6895 6894 ] final -173.66 input  -60.11 | X-H torsion
[ 7974 7965 7964 7962 ] final  -12.87 input  175.53 | X-H torsion
[ 8008 7997 7996 7995 ] final  -80.52 input   59.86 | X-H torsion
[ 10167 10162 10161 10158 ] final   85.88 input  -65.29 | X-H torsion
[ 10718 10713 10712 10709 ] final  114.62 input   66.30 | X-H torsion
[ 10763 10752 10751 10750 ] final  140.98 input  -60.55 | X-H torsion
[ 11005 11000 10999 10996 ] final   -1.40 input  -57.11 | X-H torsion

> <Gold.Protein.ActiveResidues>
 VAL166  LYS551  ARG553  GLY616  TRP617  ASP618  TYR619  PRO620  LYS621  CYS622 
 ASP623  PHE694  ASN695  SER759  ASP760  ASP761  ALA762  ILE779  LEU786  VAL792 
 PHE793  MET794  SER795  GLU796  ALA797  LYS798  CYS799  TRP800  GLU811  SER814 

> <Gold.Protein.RotatedAtoms>
  151.5598  133.3405  159.2968 H   0  0  0  0  0  0  0  0  0  0  0  0  # atno 6907 bound_to 6896
  150.8429  134.7730  159.6958 H   0  0  0  0  0  0  0  0  0  0  0  0  # atno 6908 bound_to 6896
  152.4493  134.5435  159.9898 H   0  0  0  0  0  0  0  0  0  0  0  0  # atno 6909 bound_to 6896
  146.2136  140.3120  142.8383 H   0  0  0  0  0  0  0  0  0  0  0  0  # atno 7974 bound_to 7965
  154.5892  140.0661  156.9214 H   0  0  0  0  0  0  0  0  0  0  0  0  # atno 8008 bound_to 7997
  155.2326  140.3338  155.4283 H   0  0  0  0  0  0  0  0  0  0  0  0  # atno 8009 bound_to 7997
  156.2244  140.1812  156.7384 H   0  0  0  0  0  0  0  0  0  0  0  0  # atno 8010 bound_to 7997
  139.8932  144.6373  150.8716 H   0  0  0  0  0  0  0  0  0  0  0  0  # atno 10167 bound_to 10162
  157.6270  131.1001  150.7212 H   0  0  0  0  0  0  0  0  0  0  0  0  # atno 10718 bound_to 10713
  153.9316  135.2989  155.3445 H   0  0  0  0  0  0  0  0  0  0  0  0  # atno 10763 bound_to 10752
  154.7523  135.4974  153.9315 H   0  0  0  0  0  0  0  0  0  0  0  0  # atno 10764 bound_to 10752
  153.1088  135.6754  153.9642 H   0  0  0  0  0  0  0  0  0  0  0  0  # atno 10765 bound_to 10752
  140.6469  133.9439  155.8358 H   0  0  0  0  0  0  0  0  0  0  0  0  # atno 11005 bound_to 11000
  144.8981  140.7608  143.5884 LP  0  0  0  0  0  0  0  0  0  0  0  0  # atno 17320 bound_to 7965
  145.3045  139.1839  143.4671 LP  0  0  0  0  0  0  0  0  0  0  0  0  # atno 17321 bound_to 7965
  140.7722  143.3494  151.2045 LP  0  0  0  0  0  0  0  0  0  0  0  0  # atno 17342 bound_to 10162
  139.7091  143.9406  152.2940 LP  0  0  0  0  0  0  0  0  0  0  0  0  # atno 17343 bound_to 10162
  156.7558  130.4783  149.5447 LP  0  0  0  0  0  0  0  0  0  0  0  0  # atno 17370 bound_to 10713
  156.1449  130.6270  151.0518 LP  0  0  0  0  0  0  0  0  0  0  0  0  # atno 17371 bound_to 10713
  141.0565  134.0408  157.3715 LP  0  0  0  0  0  0  0  0  0  0  0  0  # atno 17394 bound_to 11000
  139.9059  135.0179  156.7485 LP  0  0  0  0  0  0  0  0  0  0  0  0  # atno 17395 bound_to 11000

$$$$
