AV-unprocessed.smi:1725|AV-procd|sdf|6956|dock8
  -GOLD-   22720 8173D 1   1.00000     0.00000
 Structure written by MMmdl.
 35 36  0  0  0  0  0  0  0  0  2 V2000
  157.1961  139.5563  161.4088 C   0  0  0  0  0  0  0  0  0  0  0  0
  155.7074  139.1826  161.4390 C   0  0  1  0  0  0  0  0  0  0  0  0
  155.4153  138.6960  162.7460 O   0  0  0  0  0  0  0  0  0  0  0  0
  155.6303  137.3016  162.9410 C   0  0  0  0  0  0  0  0  0  0  0  0
  154.3339  136.5909  163.2842 C   0  0  0  0  0  0  0  0  0  0  0  0
  153.7451  136.6873  164.6766 C   0  0  0  0  0  0  0  0  0  0  0  0
  154.3170  135.3809  164.1961 C   0  0  0  0  0  0  0  0  0  0  0  0
  154.8226  140.3965  161.1135 C   0  0  0  0  0  0  0  0  0  0  0  0
  154.8045  141.3557  161.8851 O   0  0  0  0  0  0  0  0  0  0  0  0
  154.1159  140.3064  159.9699 N   0  0  0  0  0  0  0  0  0  0  0  0
  153.1814  141.2052  159.4291 C   0  0  0  0  0  0  0  0  0  0  0  0
  152.8786  142.4205  159.9639 C   0  0  0  0  0  0  0  0  0  0  0  0
  151.8833  143.3056  159.3709 C   0  0  0  0  0  0  0  0  0  0  0  0
  151.5081  144.6673  159.9265 C   0  0  0  0  0  0  0  0  0  0  0  0
  151.9542  145.6319  159.1225 F   0  0  0  0  0  0  0  0  0  0  0  0
  150.1829  144.7814  160.0112 F   0  0  0  0  0  0  0  0  0  0  0  0
  152.0252  144.8582  161.1404 F   0  0  0  0  0  0  0  0  0  0  0  0
  151.3030  142.7623  158.2423 C   0  0  0  0  0  0  0  0  0  0  0  0
  151.5385  141.5685  157.6548 N   0  5  0  0  0  0  0  0  0  0  0  0
  152.4696  140.7475  158.2179 C   0  0  0  0  0  0  0  0  0  0  0  0
  152.7268  139.6415  157.7408 O   0  0  0  0  0  0  0  0  0  0  0  0
  157.4863  139.9422  160.4309 H   0  0  0  0  0  0  0  0  0  0  0  0
  157.8168  138.6844  161.6155 H   0  0  0  0  0  0  0  0  0  0  0  0
  157.4359  140.3155  162.1541 H   0  0  0  0  0  0  0  0  0  0  0  0
  155.5372  138.3872  160.7105 H   0  0  0  0  0  0  0  0  0  0  0  0
  156.0455  136.8366  162.0465 H   0  0  0  0  0  0  0  0  0  0  0  0
  156.3405  137.1456  163.7538 H   0  0  0  0  0  0  0  0  0  0  0  0
  153.6158  136.5792  162.4665 H   0  0  0  0  0  0  0  0  0  0  0  0
  154.3061  137.2334  165.4326 H   0  0  0  0  0  0  0  0  0  0  0  0
  152.6628  136.7621  164.7585 H   0  0  0  0  0  0  0  0  0  0  0  0
  153.6145  134.5844  163.9595 H   0  0  0  0  0  0  0  0  0  0  0  0
  155.2579  135.0536  164.6341 H   0  0  0  0  0  0  0  0  0  0  0  0
  154.2989  139.4986  159.3922 H   0  0  0  0  0  0  0  0  0  0  0  0
  153.3586  142.7571  160.8681 H   0  0  0  0  0  0  0  0  0  0  0  0
  150.5305  143.3817  157.7384 H   0  0  0  0  0  0  0  0  0  0  0  0
  1  2  1  0  0  0  0
  1 22  1  0  0  0  0
  1 23  1  0  0  0  0
  1 24  1  0  0  0  0
  2  3  1  0  0  0  0
  2  8  1  0  0  0  0
  2 25  1  0  0  0  0
  3  4  1  0  0  0  0
  4  5  1  0  0  0  0
  4 26  1  0  0  0  0
  4 27  1  0  0  0  0
  5  7  1  0  0  0  0
  5  6  1  0  0  0  0
  5 28  1  0  0  0  0
  6  7  1  0  0  0  0
  6 29  1  0  0  0  0
  6 30  1  0  0  0  0
  7 31  1  0  0  0  0
  7 32  1  0  0  0  0
  8  9  2  0  0  0  0
  8 10  1  0  0  0  0
 10 11  1  0  0  0  0
 10 33  1  0  0  0  0
 11 20  1  0  0  0  0
 11 12  2  0  0  0  0
 12 13  1  0  0  0  0
 12 34  1  0  0  0  0
 13 14  1  0  0  0  0
 13 18  2  0  0  0  0
 14 15  1  0  0  0  0
 14 16  1  0  0  0  0
 14 17  1  0  0  0  0
 18 19  1  0  0  0  0
 18 35  1  0  0  0  0
 19 20  1  0  0  0  0
 20 21  2  0  0  0  0
M  CHG  1  19  -1
M  END
> <s_m_source_file>
AV-unprocessed.smi

> <i_m_source_file_index>
1725

> <i_lp_mmshare_version>
43012

> <i_f3d_flags>
0

> <s_epik_input>
W0NIMl0xW0NIMl1bQ0hdMVtDSDJdT1tDQEBIXShbQ0gzXSlDKD1PKVtOSF1jMltjSF1jKEMoRikoRilGKVtjSF1bbkhdYzI9Tw==

> <s_epik_cmdline>
J2VwaWtfcHl0aG9uJywgJy1waCcsICc3LjAnLCAnLXRuJywgJzgnLCAnLW1hJywgJzIwMCcsICctbWV0YWxfYmluZGluZycsICctaW1hZScsICc8aW5maWxlLm1hZT4nLCAnLW9tYWUnLCAnPG91dGZpbGUubWFlPic=

> <r_lp_tautomer_probability>
0.999

> <r_epik_Ionization_Penalty>
2.64397

> <r_epik_Ionization_Penalty_Charging>
0.0618254

> <r_epik_Ionization_Penalty_Neutral>
2.58215

> <r_epik_State_Penalty>
2.58023

> <r_epik_Charging_Adjusted_Penalty>
2.64205

> <i_epik_Tot_Q>
-1

> <i_epik_Tot_abs_Q>
1

> <r_epik_Metal_State_Penalty>
0.429101

> <b_epik_Metal_Only>
1

> <s_lp_Force_Field>
OPLS_2005

> <r_lp_Energy>
29.0368

> <b_lp_Chiralities_Consistent>
1

> <s_lp_Variant>
AV-unprocessed.smi:1725-4

> <Gold.Version>
5.8.1

> <Gold.Id.Protein>
6NUR|6NUR_protein|mol2

> <Gold.PLP.Fitness>
44.8928

> <Gold.PLP.PLP>
-44.0693

> <Gold.PLP.part.hbond>
-2.0000

> <Gold.PLP.part.metal>
0.0000

> <Gold.PLP.part.buried>
-2.4430

> <Gold.PLP.part.nonpolar>
-39.0077

> <Gold.PLP.part.repulsive>
0.0884

> <Gold.PLP.ligand.clash>
0.0000

> <Gold.PLP.ligand.torsion>
1.4032

> <Gold.PLP.Chemscore.Hbond>
1.0000

> <Gold.PLP.Chemscore.CHOScore>
0.0000

> <Gold.PLP.Chemscore.Metal>
0.0000

> <Gold.Chemscore.Hbonds>
donor molecule, donor type, donor heavy atom, donor atom, acceptor molecule, acceptor atom, score
      P1  H  7997  8010       L1    21  0.94

> <Gold.PLP.Chemscore.Internal.Correction>
0.6299

> <Gold.Rescore>
     Score         DG    S(hbond)    S(metal)    S(lipo)     H(rot)  DE(clash)    DE(int)     intcor
     10.43     -13.40       0.78        0.00      84.06       1.76       0.86       2.10       ----

> <Gold.Chemscore.Fitness>
10.4346

> <Gold.Chemscore.DG>
-13.3981

> <Gold.Chemscore.ZeroCoef>
-5.4800

> <Gold.Chemscore.Hbond>
0.7754

> <Gold.Chemscore.Metal>
0.0000

> <Gold.Chemscore.Lipo>
84.0573

> <Gold.Chemscore.Internal_Hbond>
0.0000

> <Gold.Chemscore.DEClash>
0.8588

> <Gold.Chemscore.DEInternal>
2.1047

> <Gold.Chemscore.Rot>
1.7604

> <Gold.Chemscore.Internal.Correction>
   9.000000E+99

> <Gold.Chemscore.Hbonds>
donor molecule, donor type, donor heavy atom, donor atom, acceptor molecule, acceptor atom, score
      P1  H  7997  8010       L1    21  0.20

> <Gold.Chemscore.Hbond.Weighted>
-2.5899

> <Gold.Chemscore.Metal.Weighted>
-0.0000

> <Gold.Chemscore.Lipo.Weighted>
-9.8347

> <Gold.Chemscore.Internal_Hbond.Weighted>
0.0000

> <Gold.Chemscore.DEClash.Weighted>
0.8588

> <Gold.Chemscore.DEInternal.Weighted>
2.1047

> <Gold.Chemscore.Rot.Weighted>
4.5065

> <Gold.Chemscore.Internal.Correction.Weighted>
   9.000000E+99

> <Gold.Protein.RotatedTorsions>
[ 6907 6896 6895 6894 ] final  135.02 input  -60.11 | X-H torsion
[ 7974 7965 7964 7962 ] final  -70.54 input  175.53 | X-H torsion
[ 8008 7997 7996 7995 ] final   33.63 input   59.86 | X-H torsion
[ 10167 10162 10161 10158 ] final  -22.64 input  -65.29 | X-H torsion
[ 10718 10713 10712 10709 ] final  -30.20 input   66.30 | X-H torsion
[ 10763 10752 10751 10750 ] final  175.71 input  -60.55 | X-H torsion
[ 11005 11000 10999 10996 ] final -107.50 input  -57.11 | X-H torsion

> <Gold.Protein.ActiveResidues>
 VAL166  LYS551  ARG553  GLY616  TRP617  ASP618  TYR619  PRO620  LYS621  CYS622 
 ASP623  PHE694  ASN695  SER759  ASP760  ASP761  ALA762  ILE779  LEU786  VAL792 
 PHE793  MET794  SER795  GLU796  ALA797  LYS798  CYS799  TRP800  GLU811  SER814 

> <Gold.Protein.RotatedAtoms>
  152.3050  133.5693  159.5642 H   0  0  0  0  0  0  0  0  0  0  0  0  # atno 6907 bound_to 6896
  150.7295  134.0236  159.3718 H   0  0  0  0  0  0  0  0  0  0  0  0  # atno 6908 bound_to 6896
  151.8133  135.0674  160.0466 H   0  0  0  0  0  0  0  0  0  0  0  0  # atno 6909 bound_to 6896
  145.6896  140.9158  143.0789 H   0  0  0  0  0  0  0  0  0  0  0  0  # atno 7974 bound_to 7965
  155.1418  140.3267  155.4450 H   0  0  0  0  0  0  0  0  0  0  0  0  # atno 8008 bound_to 7997
  156.2602  140.1992  156.6483 H   0  0  0  0  0  0  0  0  0  0  0  0  # atno 8009 bound_to 7997
  154.6537  140.0555  156.9971 H   0  0  0  0  0  0  0  0  0  0  0  0  # atno 8010 bound_to 7997
  140.7286  143.4516  151.0508 H   0  0  0  0  0  0  0  0  0  0  0  0  # atno 10167 bound_to 10162
  156.4028  130.4393  149.7309 H   0  0  0  0  0  0  0  0  0  0  0  0  # atno 10718 bound_to 10713
  154.4713  135.2771  155.1641 H   0  0  0  0  0  0  0  0  0  0  0  0  # atno 10763 bound_to 10752
  154.3388  135.6174  153.5590 H   0  0  0  0  0  0  0  0  0  0  0  0  # atno 10764 bound_to 10752
  152.9864  135.5783  154.5094 H   0  0  0  0  0  0  0  0  0  0  0  0  # atno 10765 bound_to 10752
  141.0951  133.8986  157.1983 H   0  0  0  0  0  0  0  0  0  0  0  0  # atno 11005 bound_to 11000
  144.7001  139.8804  143.7446 LP  0  0  0  0  0  0  0  0  0  0  0  0  # atno 17320 bound_to 7965
  146.0893  139.3883  143.0415 LP  0  0  0  0  0  0  0  0  0  0  0  0  # atno 17321 bound_to 7965
  139.8193  143.7842  152.3176 LP  0  0  0  0  0  0  0  0  0  0  0  0  # atno 17342 bound_to 10162
  139.7919  144.7407  150.9943 LP  0  0  0  0  0  0  0  0  0  0  0  0  # atno 17343 bound_to 10162
  156.4319  130.7819  151.2839 LP  0  0  0  0  0  0  0  0  0  0  0  0  # atno 17370 bound_to 10713
  157.7504  131.0151  150.3492 LP  0  0  0  0  0  0  0  0  0  0  0  0  # atno 17371 bound_to 10713
  139.9785  135.0106  156.9692 LP  0  0  0  0  0  0  0  0  0  0  0  0  # atno 17394 bound_to 11000
  140.5160  134.0955  155.7281 LP  0  0  0  0  0  0  0  0  0  0  0  0  # atno 17395 bound_to 11000

$$$$
