AV-unprocessed.smi:998|AV-procd|sdf|4349|dock5
  -GOLD-   22720 2253D 1   1.00000     0.00000
 Structure written by MMmdl.
 44 46  0  0  0  0  0  0  0  0  1 V2000
  146.2748  133.3345  150.8908 C   0  0  0  0  0  0  0  0  0  0  0  0
  144.8555  134.4337  151.2961 S   0  0  0  0  0  0  0  0  0  0  0  0
  144.2270  134.8916  150.0477 O   0  0  0  0  0  0  0  0  0  0  0  0
  144.0461  133.7578  152.3216 O   0  0  0  0  0  0  0  0  0  0  0  0
  145.6151  135.8029  152.0387 N   0  0  0  0  0  0  0  0  0  0  0  0
  145.5992  137.0792  151.2955 C   0  0  0  0  0  0  0  0  0  0  0  0
  146.5844  138.0905  151.9053 C   0  0  0  0  0  0  0  0  0  0  0  0
  146.3217  138.2729  153.3267 N   0  0  0  0  0  0  0  0  0  0  0  0
  147.0758  139.3105  153.8933 C   0  0  0  0  0  0  0  0  0  0  0  0
  147.1561  140.5459  153.2185 C   0  0  0  0  0  0  0  0  0  0  0  0
  147.9190  141.5839  153.7874 C   0  0  0  0  0  0  0  0  0  0  0  0
  148.5751  141.3535  155.0203 C   0  0  0  0  0  0  0  0  0  0  0  0
  149.3925  142.3065  155.6863 N   0  0  0  0  0  0  0  0  0  0  0  0
  150.2945  142.1049  156.6624 C   0  0  0  0  0  0  0  0  0  0  0  0
  150.6001  141.0100  157.1341 O   0  0  0  0  0  0  0  0  0  0  0  0
  150.8456  143.2618  157.0541 N   0  0  0  0  0  0  0  0  0  0  0  0
  151.8456  143.4045  158.0627 C   0  0  0  0  0  0  0  0  0  0  0  0
  151.5907  144.4067  159.1678 C   0  0  0  0  0  0  0  0  0  0  0  0
  152.6158  144.7065  158.1096 C   0  0  0  0  0  0  0  0  0  0  0  0
  148.4413  140.0779  155.6059 C   0  0  0  0  0  0  0  0  0  0  0  0
  147.7108  139.0797  155.0667 N   0  0  0  0  0  0  0  0  0  0  0  0
  146.4232  137.0151  154.0555 C   0  0  0  0  0  0  0  0  0  0  0  0
  145.4357  135.9768  153.4944 C   0  0  0  0  0  0  0  0  0  0  0  0
  145.8974  132.3947  150.4887 H   0  0  0  0  0  0  0  0  0  0  0  0
  146.8498  133.1341  151.7945 H   0  0  0  0  0  0  0  0  0  0  0  0
  146.9144  133.8069  150.1469 H   0  0  0  0  0  0  0  0  0  0  0  0
  145.8568  136.9052  150.2519 H   0  0  0  0  0  0  0  0  0  0  0  0
  144.5865  137.4847  151.3091 H   0  0  0  0  0  0  0  0  0  0  0  0
  147.6083  137.7409  151.7623 H   0  0  0  0  0  0  0  0  0  0  0  0
  146.4991  139.0476  151.3892 H   0  0  0  0  0  0  0  0  0  0  0  0
  146.6464  140.6969  152.2780 H   0  0  0  0  0  0  0  0  0  0  0  0
  147.9954  142.5222  153.2606 H   0  0  0  0  0  0  0  0  0  0  0  0
  149.3125  143.2539  155.3470 H   0  0  0  0  0  0  0  0  0  0  0  0
  150.5337  144.1100  156.6045 H   0  0  0  0  0  0  0  0  0  0  0  0
  152.4006  142.5115  158.3469 H   0  0  0  0  0  0  0  0  0  0  0  0
  150.6607  144.9713  159.1397 H   0  0  0  0  0  0  0  0  0  0  0  0
  151.9543  144.1589  160.1631 H   0  0  0  0  0  0  0  0  0  0  0  0
  153.6638  144.6591  158.3981 H   0  0  0  0  0  0  0  0  0  0  0  0
  152.3696  145.4721  157.3763 H   0  0  0  0  0  0  0  0  0  0  0  0
  148.9341  139.8493  156.5397 H   0  0  0  0  0  0  0  0  0  0  0  0
  147.4410  136.6284  153.9850 H   0  0  0  0  0  0  0  0  0  0  0  0
  146.2198  137.1861  155.1134 H   0  0  0  0  0  0  0  0  0  0  0  0
  144.4072  136.2823  153.6911 H   0  0  0  0  0  0  0  0  0  0  0  0
  145.5895  135.0259  154.0038 H   0  0  0  0  0  0  0  0  0  0  0  0
  1  2  1  0  0  0  0
  1 24  1  0  0  0  0
  1 25  1  0  0  0  0
  1 26  1  0  0  0  0
  2  3  2  0  0  0  0
  2  4  2  0  0  0  0
  2  5  1  0  0  0  0
  5 23  1  0  0  0  0
  5  6  1  0  0  0  0
  6  7  1  0  0  0  0
  6 27  1  0  0  0  0
  6 28  1  0  0  0  0
  7  8  1  0  0  0  0
  7 29  1  0  0  0  0
  7 30  1  0  0  0  0
  8  9  1  0  0  0  0
  8 22  1  0  0  0  0
  9 21  1  0  0  0  0
  9 10  2  0  0  0  0
 10 11  1  0  0  0  0
 10 31  1  0  0  0  0
 11 12  2  0  0  0  0
 11 32  1  0  0  0  0
 12 13  1  0  0  0  0
 12 20  1  0  0  0  0
 13 14  1  0  0  0  0
 13 33  1  0  0  0  0
 14 15  2  0  0  0  0
 14 16  1  0  0  0  0
 16 17  1  0  0  0  0
 16 34  1  0  0  0  0
 17 19  1  0  0  0  0
 17 18  1  0  0  0  0
 17 35  1  0  0  0  0
 18 19  1  0  0  0  0
 18 36  1  0  0  0  0
 18 37  1  0  0  0  0
 19 38  1  0  0  0  0
 19 39  1  0  0  0  0
 20 21  2  0  0  0  0
 20 40  1  0  0  0  0
 22 23  1  0  0  0  0
 22 41  1  0  0  0  0
 22 42  1  0  0  0  0
 23 43  1  0  0  0  0
 23 44  1  0  0  0  0
M  END
> <s_m_source_file>
AV-unprocessed.smi

> <i_m_source_file_index>
998

> <i_lp_mmshare_version>
43012

> <i_f3d_flags>
0

> <s_epik_input>
W0NIM11TKD1PKSg9TylOMVtDSDJdW0NIMl1OKFtDSDJdW0NIMl0xKWMyW2NIXVtjSF1jKFtjSF1uMilbTkhdQyg9TylbTkhdW0NIXTNbQ0gyXVtDSDJdMw==

> <s_epik_cmdline>
J2VwaWtfcHl0aG9uJywgJy1waCcsICc3LjAnLCAnLXRuJywgJzgnLCAnLW1hJywgJzIwMCcsICctbWV0YWxfYmluZGluZycsICctaW1hZScsICc8aW5maWxlLm1hZT4nLCAnLW9tYWUnLCAnPG91dGZpbGUubWFlPic=

> <r_lp_tautomer_probability>
1

> <r_epik_Ionization_Penalty>
0.0538093

> <r_epik_Ionization_Penalty_Charging>
0

> <r_epik_Ionization_Penalty_Neutral>
0.0538093

> <r_epik_State_Penalty>
0.0462087

> <r_epik_Charging_Adjusted_Penalty>
0.0462087

> <i_epik_Tot_Q>
0

> <i_epik_Tot_abs_Q>
0

> <r_epik_Metal_State_Penalty>
0.0423268

> <b_epik_Metal_Only>
0

> <s_lp_Force_Field>
OPLS_2005

> <r_lp_Energy>
34.3098

> <b_lp_Chiralities_Consistent>
1

> <s_lp_Variant>
AV-unprocessed.smi:998-1

> <Gold.Version>
5.8.1

> <Gold.Id.Protein>
6NUR|6NUR_protein|mol2

> <Gold.PLP.Fitness>
40.6858

> <Gold.PLP.PLP>
-35.9955

> <Gold.PLP.part.hbond>
-1.7967

> <Gold.PLP.part.metal>
0.0000

> <Gold.PLP.part.buried>
-2.0596

> <Gold.PLP.part.nonpolar>
-34.2303

> <Gold.PLP.part.repulsive>
1.4075

> <Gold.PLP.ligand.clash>
0.0000

> <Gold.PLP.ligand.torsion>
0.7051

> <Gold.PLP.Chemscore.Hbond>
1.7840

> <Gold.PLP.Chemscore.CHOScore>
0.0000

> <Gold.PLP.Chemscore.Metal>
0.0000

> <Gold.Chemscore.Hbonds>
donor molecule, donor type, donor heavy atom, donor atom, acceptor molecule, acceptor atom, score
      L1  H    13    33       P1  8028  0.96
      L1  H    16    34       P1  8028  0.75

> <Gold.PLP.Chemscore.Internal.Correction>
0.7486

> <Gold.Rescore>
     Score         DG    S(hbond)    S(metal)    S(lipo)     H(rot)  DE(clash)    DE(int)     intcor
     14.97     -17.70       1.85        0.00      85.42       1.55       0.59       2.13       ----

> <Gold.Chemscore.Fitness>
14.9705

> <Gold.Chemscore.DG>
-17.6983

> <Gold.Chemscore.ZeroCoef>
-5.4800

> <Gold.Chemscore.Hbond>
1.8530

> <Gold.Chemscore.Metal>
0.0000

> <Gold.Chemscore.Lipo>
85.4173

> <Gold.Chemscore.Internal_Hbond>
0.0000

> <Gold.Chemscore.DEClash>
0.5940

> <Gold.Chemscore.DEInternal>
2.1337

> <Gold.Chemscore.Rot>
1.5486

> <Gold.Chemscore.Internal.Correction>
   9.000000E+99

> <Gold.Chemscore.Hbonds>
donor molecule, donor type, donor heavy atom, donor atom, acceptor molecule, acceptor atom, score
      L1  H    13    33       P1  8028  0.88
      L1  H    16    34       P1  8028  0.74

> <Gold.Chemscore.Hbond.Weighted>
-6.1889

> <Gold.Chemscore.Metal.Weighted>
-0.0000

> <Gold.Chemscore.Lipo.Weighted>
-9.9938

> <Gold.Chemscore.Internal_Hbond.Weighted>
0.0000

> <Gold.Chemscore.DEClash.Weighted>
0.5940

> <Gold.Chemscore.DEInternal.Weighted>
2.1337

> <Gold.Chemscore.Rot.Weighted>
3.9645

> <Gold.Chemscore.Internal.Correction.Weighted>
   9.000000E+99

> <Gold.Protein.RotatedTorsions>
[ 6907 6896 6895 6894 ] final  151.43 input  -60.11 | X-H torsion
[ 7974 7965 7964 7962 ] final  113.38 input  175.53 | X-H torsion
[ 8008 7997 7996 7995 ] final  -22.43 input   59.86 | X-H torsion
[ 10167 10162 10161 10158 ] final -140.27 input  -65.29 | X-H torsion
[ 10718 10713 10712 10709 ] final -179.59 input   66.30 | X-H torsion
[ 10763 10752 10751 10750 ] final   27.71 input  -60.55 | X-H torsion
[ 11005 11000 10999 10996 ] final  149.19 input  -57.11 | X-H torsion

> <Gold.Protein.ActiveResidues>
 VAL166  LYS551  ARG553  GLY616  TRP617  ASP618  TYR619  PRO620  LYS621  CYS622 
 ASP623  PHE694  ASN695  SER759  ASP760  ASP761  ALA762  ILE779  LEU786  VAL792 
 PHE793  MET794  SER795  GLU796  ALA797  LYS798  CYS799  TRP800  GLU811  SER814 

> <Gold.Protein.RotatedAtoms>
  152.1008  133.4248  159.4585 H   0  0  0  0  0  0  0  0  0  0  0  0  # atno 6907 bound_to 6896
  150.6864  134.2763  159.4618 H   0  0  0  0  0  0  0  0  0  0  0  0  # atno 6908 bound_to 6896
  152.0623  134.9586  160.0625 H   0  0  0  0  0  0  0  0  0  0  0  0  # atno 6909 bound_to 6896
  145.2177  139.2876  143.4235 H   0  0  0  0  0  0  0  0  0  0  0  0  # atno 7974 bound_to 7965
  154.4644  140.2008  156.0156 H   0  0  0  0  0  0  0  0  0  0  0  0  # atno 8008 bound_to 7997
  156.0901  140.3259  155.7775 H   0  0  0  0  0  0  0  0  0  0  0  0  # atno 8009 bound_to 7997
  155.4971  140.0551  157.2935 H   0  0  0  0  0  0  0  0  0  0  0  0  # atno 8010 bound_to 7997
  139.8298  143.7462  152.2666 H   0  0  0  0  0  0  0  0  0  0  0  0  # atno 10167 bound_to 10162
  156.8613  130.9752  151.3083 H   0  0  0  0  0  0  0  0  0  0  0  0  # atno 10718 bound_to 10713
  153.0538  135.6530  154.0627 H   0  0  0  0  0  0  0  0  0  0  0  0  # atno 10763 bound_to 10752
  154.0309  135.2911  155.3370 H   0  0  0  0  0  0  0  0  0  0  0  0  # atno 10764 bound_to 10752
  154.6842  135.5308  153.8371 H   0  0  0  0  0  0  0  0  0  0  0  0  # atno 10765 bound_to 10752
  140.1023  134.8975  157.1814 H   0  0  0  0  0  0  0  0  0  0  0  0  # atno 11005 bound_to 11000
  146.3383  140.2473  142.8597 LP  0  0  0  0  0  0  0  0  0  0  0  0  # atno 17320 bound_to 7965
  144.9795  140.8446  143.5406 LP  0  0  0  0  0  0  0  0  0  0  0  0  # atno 17321 bound_to 7965
  139.7666  144.7490  151.0285 LP  0  0  0  0  0  0  0  0  0  0  0  0  # atno 17342 bound_to 10162
  140.7807  143.4691  151.0171 LP  0  0  0  0  0  0  0  0  0  0  0  0  # atno 17343 bound_to 10162
  157.6248  130.8683  149.9171 LP  0  0  0  0  0  0  0  0  0  0  0  0  # atno 17370 bound_to 10713
  156.0775  130.3677  150.0648 LP  0  0  0  0  0  0  0  0  0  0  0  0  # atno 17371 bound_to 10713
  140.3203  134.2924  155.7248 LP  0  0  0  0  0  0  0  0  0  0  0  0  # atno 17394 bound_to 11000
  141.2109  133.7705  156.9901 LP  0  0  0  0  0  0  0  0  0  0  0  0  # atno 17395 bound_to 11000

$$$$
