AV-unprocessed.smi:3117|AV-procd|sdf|11881|dock4
  -GOLD-   2272017263D 1   1.00000     0.00000
 Structure written by MMmdl.
 37 37  0  0  0  0  0  0  0  0  2 V2000
  146.8334  138.0307  154.6774 C   0  0  0  0  0  0  0  0  0  0  0  0
  148.3480  137.8420  154.8626 C   0  0  1  0  0  0  0  0  0  0  0  0
  148.7237  136.4635  154.4745 N   0  3  0  0  0  0  0  0  0  0  0  0
  147.8243  135.4024  154.9744 C   0  0  0  0  0  0  0  0  0  0  0  0
  147.9340  134.1066  154.1429 C   0  0  0  0  0  0  0  0  0  0  0  0
  149.3935  133.6241  154.1009 C   0  0  0  0  0  0  0  0  0  0  0  0
  147.0171  132.9890  154.6726 C   0  0  0  0  0  0  0  0  0  0  0  0
  147.5608  134.4017  152.8107 O   0  0  0  0  0  0  0  0  0  0  0  0
  149.1847  138.8944  154.0895 C   0  0  1  0  0  0  0  0  0  0  0  0
  148.5721  140.3069  154.1454 C   0  0  0  0  0  0  0  0  0  0  0  0
  150.5945  138.8999  154.4694 N   0  0  0  0  0  0  0  0  0  0  0  0
  151.5153  137.8805  154.3339 C   0  0  0  0  0  0  0  0  0  0  0  0
  152.7016  138.3288  154.8394 C   0  0  0  0  0  0  0  0  0  0  0  0
  152.4068  139.6513  155.2716 C   0  0  0  0  0  0  0  0  0  0  0  0
  151.1460  139.9884  155.0537 N   0  0  0  0  0  0  0  0  0  0  0  0
  146.5264  139.0382  154.9588 H   0  0  0  0  0  0  0  0  0  0  0  0
  146.2735  137.3317  155.2996 H   0  0  0  0  0  0  0  0  0  0  0  0
  146.5286  137.8665  153.6433 H   0  0  0  0  0  0  0  0  0  0  0  0
  148.5601  137.9786  155.9245 H   0  0  0  0  0  0  0  0  0  0  0  0
  148.7606  136.4101  153.4669 H   0  0  0  0  0  0  0  0  0  0  0  0
  148.0696  135.1970  156.0178 H   0  0  0  0  0  0  0  0  0  0  0  0
  146.7984  135.7733  154.9560 H   0  0  0  0  0  0  0  0  0  0  0  0
  149.7556  133.3795  155.1000 H   0  0  0  0  0  0  0  0  0  0  0  0
  150.0550  134.3876  153.6897 H   0  0  0  0  0  0  0  0  0  0  0  0
  149.5013  132.7302  153.4853 H   0  0  0  0  0  0  0  0  0  0  0  0
  147.2579  132.7402  155.7068 H   0  0  0  0  0  0  0  0  0  0  0  0
  147.1243  132.0772  154.0837 H   0  0  0  0  0  0  0  0  0  0  0  0
  145.9650  133.2737  154.6382 H   0  0  0  0  0  0  0  0  0  0  0  0
  148.2713  134.8656  152.3933 H   0  0  0  0  0  0  0  0  0  0  0  0
  149.1576  138.5992  153.0393 H   0  0  0  0  0  0  0  0  0  0  0  0
  147.5476  140.3034  153.7724 H   0  0  0  0  0  0  0  0  0  0  0  0
  149.1418  141.0040  153.5302 H   0  0  0  0  0  0  0  0  0  0  0  0
  148.5517  140.7046  155.1606 H   0  0  0  0  0  0  0  0  0  0  0  0
  151.2531  136.9296  153.8937 H   0  0  0  0  0  0  0  0  0  0  0  0
  153.6380  137.7932  154.8923 H   0  0  0  0  0  0  0  0  0  0  0  0
  153.0656  140.3699  155.7363 H   0  0  0  0  0  0  0  0  0  0  0  0
  149.6506  136.2798  154.8334 H   0  0  0  0  0  0  0  0  0  0  0  0
  1  2  1  0  0  0  0
  1 16  1  0  0  0  0
  1 17  1  0  0  0  0
  1 18  1  0  0  0  0
  2  3  1  0  0  0  0
  2  9  1  0  0  0  0
  2 19  1  0  0  0  0
  3  4  1  0  0  0  0
  3 20  1  0  0  0  0
  3 37  1  0  0  0  0
  4  5  1  0  0  0  0
  4 21  1  0  0  0  0
  4 22  1  0  0  0  0
  5  6  1  0  0  0  0
  5  7  1  0  0  0  0
  5  8  1  0  0  0  0
  6 23  1  0  0  0  0
  6 24  1  0  0  0  0
  6 25  1  0  0  0  0
  7 26  1  0  0  0  0
  7 27  1  0  0  0  0
  7 28  1  0  0  0  0
  8 29  1  0  0  0  0
  9 10  1  0  0  0  0
  9 11  1  0  0  0  0
  9 30  1  0  0  0  0
 10 31  1  0  0  0  0
 10 32  1  0  0  0  0
 10 33  1  0  0  0  0
 11 15  1  0  0  0  0
 11 12  1  0  0  0  0
 12 13  2  0  0  0  0
 12 34  1  0  0  0  0
 13 14  1  0  0  0  0
 13 35  1  0  0  0  0
 14 15  2  0  0  0  0
 14 36  1  0  0  0  0
M  CHG  1   3   1
M  END
> <s_m_source_file>
AV-unprocessed.smi

> <i_m_source_file_index>
3117

> <i_lp_mmshare_version>
43012

> <i_f3d_flags>
0

> <s_epik_input>
W0NIM11DKFtDSDNdKShbT0hdKVtDSDJdW05IXVtDQEBIXShbQ0gzXSlbQ0BIXShbQ0gzXSluMVtjSF1bY0hdW2NIXW4x

> <s_epik_cmdline>
J2VwaWtfcHl0aG9uJywgJy1waCcsICc3LjAnLCAnLXRuJywgJzgnLCAnLW1hJywgJzIwMCcsICctbWV0YWxfYmluZGluZycsICctaW1hZScsICc8aW5maWxlLm1hZT4nLCAnLW9tYWUnLCAnPG91dGZpbGUubWFlPic=

> <r_lp_tautomer_probability>
1

> <r_epik_Ionization_Penalty>
0.0164263

> <r_epik_Ionization_Penalty_Charging>
0.0164138

> <r_epik_Ionization_Penalty_Neutral>
1.24697e-05

> <r_epik_State_Penalty>
0.0129543

> <r_epik_Charging_Adjusted_Penalty>
0.0293681

> <i_epik_Tot_Q>
1

> <i_epik_Tot_abs_Q>
1

> <r_epik_Metal_State_Penalty>
0.0129806

> <b_epik_Metal_Only>
0

> <s_lp_Force_Field>
OPLS_2005

> <r_lp_Energy>
13.722

> <b_lp_Chiralities_Consistent>
1

> <s_lp_Variant>
AV-unprocessed.smi:3117-4

> <Gold.Version>
5.8.1

> <Gold.Id.Protein>
6NUR|6NUR_protein|mol2

> <Gold.PLP.Fitness>
37.9836

> <Gold.PLP.PLP>
-25.2553

> <Gold.PLP.part.hbond>
-3.0000

> <Gold.PLP.part.metal>
0.0000

> <Gold.PLP.part.buried>
-0.2527

> <Gold.PLP.part.nonpolar>
-22.0999

> <Gold.PLP.part.repulsive>
0.0435

> <Gold.PLP.ligand.clash>
0.0000

> <Gold.PLP.ligand.torsion>
0.5498

> <Gold.PLP.Chemscore.Hbond>
3.5500

> <Gold.PLP.Chemscore.CHOScore>
1.0000

> <Gold.PLP.Chemscore.Metal>
0.0000

> <Gold.Chemscore.Hbonds>
donor molecule, donor type, donor heavy atom, donor atom, acceptor molecule, acceptor atom, score
      L1  H     3    20       P1  7948  2.00
      L1  H     8    29       P1  7948  1.00
      P1  H  7989  7998       L1    15  0.45
      L1  C    12    34       P1  7949  0.87

> <Gold.PLP.Chemscore.Internal.Correction>
0.1779

> <Gold.Rescore>
     Score         DG    S(hbond)    S(metal)    S(lipo)     H(rot)  DE(clash)    DE(int)     intcor
     12.17     -12.91       1.97        0.00      56.89       2.27       0.02       0.72       ----

> <Gold.Chemscore.Fitness>
12.1715

> <Gold.Chemscore.DG>
-12.9117

> <Gold.Chemscore.ZeroCoef>
-5.4800

> <Gold.Chemscore.Hbond>
1.9741

> <Gold.Chemscore.Metal>
0.0000

> <Gold.Chemscore.Lipo>
56.8875

> <Gold.Chemscore.Internal_Hbond>
0.0000

> <Gold.Chemscore.DEClash>
0.0192

> <Gold.Chemscore.DEInternal>
0.7210

> <Gold.Chemscore.Rot>
2.2725

> <Gold.Chemscore.Internal.Correction>
   9.000000E+99

> <Gold.Chemscore.Hbonds>
donor molecule, donor type, donor heavy atom, donor atom, acceptor molecule, acceptor atom, score
      L1  H     3    20       P1  7948  0.99
      L1  H     8    29       P1  7948  0.37

> <Gold.Chemscore.Hbond.Weighted>
-6.5935

> <Gold.Chemscore.Metal.Weighted>
-0.0000

> <Gold.Chemscore.Lipo.Weighted>
-6.6558

> <Gold.Chemscore.Internal_Hbond.Weighted>
0.0000

> <Gold.Chemscore.DEClash.Weighted>
0.0192

> <Gold.Chemscore.DEInternal.Weighted>
0.7210

> <Gold.Chemscore.Rot.Weighted>
5.8176

> <Gold.Chemscore.Internal.Correction.Weighted>
   9.000000E+99

> <Gold.Protein.RotatedTorsions>
[ 6907 6896 6895 6894 ] final  -94.27 input  -60.11 | X-H torsion
[ 7974 7965 7964 7962 ] final  -76.42 input  175.53 | X-H torsion
[ 8008 7997 7996 7995 ] final   93.37 input   59.86 | X-H torsion
[ 10167 10162 10161 10158 ] final  -25.94 input  -65.29 | X-H torsion
[ 10718 10713 10712 10709 ] final  -55.81 input   66.30 | X-H torsion
[ 10763 10752 10751 10750 ] final  164.76 input  -60.55 | X-H torsion
[ 11005 11000 10999 10996 ] final   64.07 input  -57.11 | X-H torsion

> <Gold.Protein.ActiveResidues>
 VAL166  LYS551  ARG553  GLY616  TRP617  ASP618  TYR619  PRO620  LYS621  CYS622 
 ASP623  PHE694  ASN695  SER759  ASP760  ASP761  ALA762  ILE779  LEU786  VAL792 
 PHE793  MET794  SER795  GLU796  ALA797  LYS798  CYS799  TRP800  GLU811  SER814 

> <Gold.Protein.RotatedAtoms>
  150.6938  134.1839  159.4258 H   0  0  0  0  0  0  0  0  0  0  0  0  # atno 6907 bound_to 6896
  151.9812  135.0025  160.0567 H   0  0  0  0  0  0  0  0  0  0  0  0  # atno 6908 bound_to 6896
  152.1753  133.4636  159.4967 H   0  0  0  0  0  0  0  0  0  0  0  0  # atno 6909 bound_to 6896
  145.6132  140.9381  143.1178 H   0  0  0  0  0  0  0  0  0  0  0  0  # atno 7974 bound_to 7965
  156.0460  140.3313  155.7297 H   0  0  0  0  0  0  0  0  0  0  0  0  # atno 8008 bound_to 7997
  155.5673  140.0624  157.2832 H   0  0  0  0  0  0  0  0  0  0  0  0  # atno 8009 bound_to 7997
  154.4414  140.1867  156.0832 H   0  0  0  0  0  0  0  0  0  0  0  0  # atno 8010 bound_to 7997
  140.7285  143.4221  151.0935 H   0  0  0  0  0  0  0  0  0  0  0  0  # atno 10167 bound_to 10162
  156.1339  130.4158  150.0220 H   0  0  0  0  0  0  0  0  0  0  0  0  # atno 10718 bound_to 10713
  154.3138  135.2757  155.2553 H   0  0  0  0  0  0  0  0  0  0  0  0  # atno 10763 bound_to 10752
  154.4936  135.5827  153.6481 H   0  0  0  0  0  0  0  0  0  0  0  0  # atno 10764 bound_to 10752
  152.9885  135.6141  154.3317 H   0  0  0  0  0  0  0  0  0  0  0  0  # atno 10765 bound_to 10752
  139.9983  134.6483  155.9973 H   0  0  0  0  0  0  0  0  0  0  0  0  # atno 11005 bound_to 11000
  144.7261  139.7870  143.7364 LP  0  0  0  0  0  0  0  0  0  0  0  0  # atno 17320 bound_to 7965
  146.1488  139.4566  143.0062 LP  0  0  0  0  0  0  0  0  0  0  0  0  # atno 17321 bound_to 7965
  139.7868  143.8276  152.3146 LP  0  0  0  0  0  0  0  0  0  0  0  0  # atno 17342 bound_to 10162
  139.8246  144.7281  150.9528 LP  0  0  0  0  0  0  0  0  0  0  0  0  # atno 17343 bound_to 10162
  156.8125  130.9330  151.3644 LP  0  0  0  0  0  0  0  0  0  0  0  0  # atno 17370 bound_to 10713
  157.6514  130.8887  149.9640 LP  0  0  0  0  0  0  0  0  0  0  0  0  # atno 17371 bound_to 10713
  141.1622  133.6538  156.4356 LP  0  0  0  0  0  0  0  0  0  0  0  0  # atno 17394 bound_to 11000
  140.4776  134.6694  157.5157 LP  0  0  0  0  0  0  0  0  0  0  0  0  # atno 17395 bound_to 11000

$$$$
