#       Name:                AV-unprocessed.smi:3116
#       Creating user name   scv26
#       Creation time:       Fri Mar 27 17:24:45 2020


#       File generated by GOLD software.
#

@<TRIPOS>MOLECULE
AV-unprocessed.smi:3116
    37    37     1
SMALL
NO_CHARGES


@<TRIPOS>ATOM
      1 ****        -2.6909   1.4333   1.3953 C.3            1 S1                 0.0000
      2 ****        -1.3165   1.4348   0.7091 C.3            1 S1                 0.0000
      3 ****        -0.6337   0.1440   0.9612 N.4            1 S1                 1.0000
      4 ****         0.8412   0.1414   0.7944 C.3            1 S1                 0.0000
      5 ****         1.5049   0.6397   2.0924 C.3            1 S1                 0.0000
      6 ****         1.3239  -1.2744   0.3827 C.3            1 S1                 0.0000
      7 ****         2.8516  -1.3767   0.2100 C.3            1 S1                 0.0000
      8 ****         0.6561  -1.7131  -0.8386 N.pl3          1 S1                 0.0000
      9 ****         0.9040  -1.3417  -2.1460 C.2            1 S1                 0.0000
     10 ****        -0.0070  -1.9844  -2.9340 C.2            1 S1                 0.0000
     11 ****        -0.7909  -2.7264  -2.0080 C.2            1 S1                 0.0000
     12 ****        -0.3974  -2.5557  -0.7562 N.2            1 S1                 0.0000
     13 ****        -1.4822   1.6992  -0.7943 C.2            1 S1                 0.0000
     14 ****        -1.4289   2.9708  -1.1989 N.am           1 S1                 0.0000
     15 ****        -1.6697   0.7716  -1.5793 O.2            1 S1                 0.0000
     16 ****        -3.2106   2.3807   1.2454 H              1 S1                 0.0000
     17 ****        -2.5901   1.2854   2.4711 H              1 S1                 0.0000
     18 ****        -3.3314   0.6382   1.0106 H              1 S1                 0.0000
     19 ****        -0.7241   2.2393   1.1469 H              1 S1                 0.0000
     20 ****        -0.8410  -0.1611   1.9012 H              1 S1                 0.0000
     21 ****         1.1038   0.8284  -0.0116 H              1 S1                 0.0000
     22 ****         2.5831   0.7479   1.9781 H              1 S1                 0.0000
     23 ****         1.3240  -0.0488   2.9185 H              1 S1                 0.0000
     24 ****         1.1251   1.6170   2.3896 H              1 S1                 0.0000
     25 ****         1.0470  -1.9729   1.1751 H              1 S1                 0.0000
     26 ****         3.3736  -1.2440   1.1573 H              1 S1                 0.0000
     27 ****         3.2288  -0.6266  -0.4856 H              1 S1                 0.0000
     28 ****         3.1373  -2.3577  -0.1717 H              1 S1                 0.0000
     29 ****         1.6973  -0.6568  -2.4067 H              1 S1                 0.0000
     30 ****        -0.1033  -1.9280  -4.0082 H              1 S1                 0.0000
     31 ****        -1.6315  -3.3751  -2.2061 H              1 S1                 0.0000
     32 ****        -1.5241   3.1981  -2.1783 H              1 S1                 0.0000
     33 ****        -1.2845   3.7053  -0.5205 H              1 S1                 0.0000
     34 ****        -1.0248  -0.5289   0.3159 H              1 S1                 0.0000
     35 ****        -0.7923  -2.9607   0.0685 LP             1 S1                 0.0000
     36 ****        -1.7158  -0.1683  -1.2409 LP             1 S1                 0.0000
     37 ****        -1.7761   0.9570  -2.5562 LP             1 S1                 0.0000
@<TRIPOS>BOND
    1    1    2 1     
    2    1   16 1     
    3    1   17 1     
    4    1   18 1     
    5    2    3 1     
    6    2   13 1     
    7    2   19 1     
    8    3    4 1     
    9    3   20 1     
   10    3   34 1     
   11    4    5 1     
   12    4    6 1     
   13    4   21 1     
   14    5   22 1     
   15    5   23 1     
   16    5   24 1     
   17    6    7 1     
   18    6    8 1     
   19    6   25 1     
   20    7   26 1     
   21    7   27 1     
   22    7   28 1     
   23    8   12 1     
   24    8    9 1     
   25    9   10 2     
   26    9   29 1     
   27   10   11 1     
   28   10   30 1     
   29   11   12 2     
   30   11   31 1     
   31   13   14 am    
   32   13   15 2     
   33   14   32 1     
   34   14   33 1     
   35   12   35 1     
   36   15   36 1     
   37   15   37 1     
@<TRIPOS>SUBSTRUCTURE
      1 S1             1
@<TRIPOS>SET
LONE_PAIRS      STATIC     ATOMS    <user>   **** ""
3 35 36 37
DONOR_HYDROGENS      STATIC     ATOMS    <user>   **** ""
4 20 34 32 33
ATOM$BLUE        STATIC     ATOMS    COLORGROUP SYSTEM
3 35 36 37
ATOM$RED        STATIC     ATOMS    COLORGROUP SYSTEM
4 20 34 32 33
