AV-unprocessed.smi:45|AV-procd|sdf|418|dock10
  -GOLD-   2262016293D 1   1.00000     0.00000
 Structure written by MMmdl.
 60 63  0  0  0  0  0  0  0  0  3 V2000
  145.2242  143.8529  157.5511 C   0  0  0  0  0  0  0  0  0  0  0  0
  145.6427  143.5581  156.2265 O   0  0  0  0  0  0  0  0  0  0  0  0
  146.6132  142.5941  156.0467 C   0  0  0  0  0  0  0  0  0  0  0  0
  147.2212  141.8781  157.1094 C   0  0  0  0  0  0  0  0  0  0  0  0
  148.2060  140.9061  156.8465 C   0  0  0  0  0  0  0  0  0  0  0  0
  148.5980  140.6321  155.5214 C   0  0  0  0  0  0  0  0  0  0  0  0
  149.6571  139.5856  155.2395 C   0  0  0  0  0  0  0  0  0  0  0  0
  150.6709  139.5068  156.2802 N   0  0  0  0  0  0  0  0  0  0  0  0
  150.5706  138.5803  157.3313 C   0  0  0  0  0  0  0  0  0  0  0  0
  149.5029  137.7370  157.3435 N   0  3  0  0  0  0  0  0  0  0  0  0
  149.3584  136.8196  158.3139 C   0  0  0  0  0  0  0  0  0  0  0  0
  148.2507  135.9741  158.2708 N   0  0  0  0  0  0  0  0  0  0  0  0
  147.8228  135.3440  157.0265 C   0  0  0  0  0  0  0  0  0  0  0  0
  147.2242  133.9953  157.4225 C   0  0  0  0  0  0  0  0  0  0  0  0
  146.6935  134.2578  158.8257 C   0  0  0  0  0  0  0  0  0  0  0  0
  147.7166  135.2382  159.4182 C   0  0  2  0  0  0  0  0  0  0  0  0
  147.1019  136.1541  160.4978 C   0  0  0  0  0  0  0  0  0  0  0  0
  148.1174  136.9046  161.1287 O   0  0  0  0  0  0  0  0  0  0  0  0
  150.2481  136.6882  159.3050 N   0  0  0  0  0  0  0  0  0  0  0  0
  151.3226  137.4987  159.3391 C   0  0  0  0  0  0  0  0  0  0  0  0
  151.5460  138.4845  158.3573 C   0  0  0  0  0  0  0  0  0  0  0  0
  152.7411  139.3983  158.4450 C   0  0  0  0  0  0  0  0  0  0  0  0
  153.8693  138.9031  158.3489 O   0  0  0  0  0  0  0  0  0  0  0  0
  152.3704  140.6936  158.6441 N   0  5  0  0  0  0  0  0  0  0  0  0
  153.2659  141.7333  159.1530 C   0  0  0  0  0  0  0  0  0  0  0  0
  152.5284  143.0402  159.4195 C   0  0  0  0  0  0  0  0  0  0  0  0
  151.7101  143.0708  160.4786 N   0  0  0  0  0  0  0  0  0  0  0  0
  151.0769  144.2367  160.7312 C   0  0  0  0  0  0  0  0  0  0  0  0
  151.2630  145.3737  159.9193 C   0  0  0  0  0  0  0  0  0  0  0  0
  152.1467  145.2241  158.8317 C   0  0  0  0  0  0  0  0  0  0  0  0
  152.7787  144.0564  158.5841 N   0  0  0  0  0  0  0  0  0  0  0  0
  148.0004  141.3405  154.4609 C   0  0  0  0  0  0  0  0  0  0  0  0
  147.0162  142.3139  154.7219 C   0  0  0  0  0  0  0  0  0  0  0  0
  146.3023  143.1638  153.3981 Cl  0  0  0  0  0  0  0  0  0  0  0  0
  148.5411  134.6686  159.8500 H   0  0  0  0  0  0  0  0  0  0  0  0
  144.4535  144.6229  157.5201 H   0  0  0  0  0  0  0  0  0  0  0  0
  146.0482  144.2359  158.1544 H   0  0  0  0  0  0  0  0  0  0  0  0
  144.7946  142.9764  158.0382 H   0  0  0  0  0  0  0  0  0  0  0  0
  146.9498  142.0564  158.1387 H   0  0  0  0  0  0  0  0  0  0  0  0
  148.6610  140.3704  157.6669 H   0  0  0  0  0  0  0  0  0  0  0  0
  149.1686  138.6154  155.1399 H   0  0  0  0  0  0  0  0  0  0  0  0
  150.1366  139.8029  154.2841 H   0  0  0  0  0  0  0  0  0  0  0  0
  151.4922  140.0917  156.2080 H   0  0  0  0  0  0  0  0  0  0  0  0
  147.0695  135.9773  156.5566 H   0  0  0  0  0  0  0  0  0  0  0  0
  148.6450  135.2139  156.3217 H   0  0  0  0  0  0  0  0  0  0  0  0
  146.4552  133.6509  156.7305 H   0  0  0  0  0  0  0  0  0  0  0  0
  148.0088  133.2383  157.4615 H   0  0  0  0  0  0  0  0  0  0  0  0
  145.7102  134.7260  158.7569 H   0  0  0  0  0  0  0  0  0  0  0  0
  146.5893  133.3476  159.4171 H   0  0  0  0  0  0  0  0  0  0  0  0
  146.3864  136.8566  160.0727 H   0  0  0  0  0  0  0  0  0  0  0  0
  146.5670  135.5693  161.2471 H   0  0  0  0  0  0  0  0  0  0  0  0
  148.7890  136.3108  161.4283 H   0  0  0  0  0  0  0  0  0  0  0  0
  152.0013  137.3592  160.1683 H   0  0  0  0  0  0  0  0  0  0  0  0
  153.7374  141.4163  160.0842 H   0  0  0  0  0  0  0  0  0  0  0  0
  154.0992  141.9283  158.4753 H   0  0  0  0  0  0  0  0  0  0  0  0
  150.4181  144.2627  161.5864 H   0  0  0  0  0  0  0  0  0  0  0  0
  150.7577  146.3067  160.1194 H   0  0  0  0  0  0  0  0  0  0  0  0
  152.3471  146.0439  158.1578 H   0  0  0  0  0  0  0  0  0  0  0  0
  148.2967  141.1404  153.4416 H   0  0  0  0  0  0  0  0  0  0  0  0
  148.8104  137.8100  156.5994 H   0  0  0  0  0  0  0  0  0  0  0  0
  1  2  1  0  0  0  0
  1 36  1  0  0  0  0
  1 37  1  0  0  0  0
  1 38  1  0  0  0  0
  2  3  1  0  0  0  0
  3 33  1  0  0  0  0
  3  4  2  0  0  0  0
  4  5  1  0  0  0  0
  4 39  1  0  0  0  0
  5  6  2  0  0  0  0
  5 40  1  0  0  0  0
  6  7  1  0  0  0  0
  6 32  1  0  0  0  0
  7  8  1  0  0  0  0
  7 41  1  0  0  0  0
  7 42  1  0  0  0  0
  8  9  1  0  0  0  0
  8 43  1  0  0  0  0
  9 21  1  0  0  0  0
  9 10  2  0  0  0  0
 10 11  1  0  0  0  0
 10 60  1  0  0  0  0
 11 12  1  0  0  0  0
 11 19  2  0  0  0  0
 12 16  1  0  0  0  0
 12 13  1  0  0  0  0
 13 14  1  0  0  0  0
 13 44  1  0  0  0  0
 13 45  1  0  0  0  0
 14 15  1  0  0  0  0
 14 46  1  0  0  0  0
 14 47  1  0  0  0  0
 15 16  1  0  0  0  0
 15 48  1  0  0  0  0
 15 49  1  0  0  0  0
 16 35  1  0  0  0  0
 16 17  1  0  0  0  0
 17 18  1  0  0  0  0
 17 50  1  0  0  0  0
 17 51  1  0  0  0  0
 18 52  1  0  0  0  0
 19 20  1  0  0  0  0
 20 21  2  0  0  0  0
 20 53  1  0  0  0  0
 21 22  1  0  0  0  0
 22 23  2  0  0  0  0
 22 24  1  0  0  0  0
 24 25  1  0  0  0  0
 25 26  1  0  0  0  0
 25 54  1  0  0  0  0
 25 55  1  0  0  0  0
 26 31  1  0  0  0  0
 26 27  2  0  0  0  0
 27 28  1  0  0  0  0
 28 29  2  0  0  0  0
 28 56  1  0  0  0  0
 29 30  1  0  0  0  0
 29 57  1  0  0  0  0
 30 31  2  0  0  0  0
 30 58  1  0  0  0  0
 32 33  2  0  0  0  0
 32 59  1  0  0  0  0
 33 34  1  0  0  0  0
M  CHG  1  10   1
M  CHG  1  24  -1
M  END
> <s_m_source_file>
AV-unprocessed.smi

> <i_m_source_file_index>
45

> <i_lp_mmshare_version>
43012

> <i_f3d_flags>
0

> <s_epik_input>
W0NIM11PYzFbY0hdW2NIXWMoW2NIXWMxQ2wpW0NIMl1bTkhdYzJuYyhOM1tDSDJdW0NIMl1bQ0gyXVtDQEhdM1tDSDJdW09IXSluW2NIXWMyQyg9TylbTkhdW0NIMl1jNG5bY0hdW2NIXVtjSF1uNA==

> <s_epik_cmdline>
J2VwaWtfcHl0aG9uJywgJy1waCcsICc3LjAnLCAnLXRuJywgJzgnLCAnLW1hJywgJzIwMCcsICctbWV0YWxfYmluZGluZycsICctaW1hZScsICc8aW5maWxlLm1hZT4nLCAnLW9tYWUnLCAnPG91dGZpbGUubWFlPic=

> <r_lp_tautomer_probability>
0.424989

> <r_epik_Ionization_Penalty>
7.51351

> <r_epik_Ionization_Penalty_Charging>
7.51312

> <r_epik_Ionization_Penalty_Neutral>
0.00038389

> <r_epik_State_Penalty>
8.64696

> <r_epik_Charging_Adjusted_Penalty>
16.1601

> <i_epik_Tot_Q>
0

> <i_epik_Tot_abs_Q>
2

> <r_epik_Metal_State_Penalty>
4.61083

> <b_epik_Metal_Only>
1

> <s_epik_Chemistry_Notes>
This compound contains an electron-poor aromatic ring that is susceptible to covalent hydrolysis at low pH, typically resulting in measured values for nitrogen ring protonation that are around two units higher than predicted values.

> <s_lp_Force_Field>
OPLS_2005

> <r_lp_Energy>
41.8384

> <b_lp_Chiralities_Consistent>
1

> <s_lp_Variant>
AV-unprocessed.smi:45-12

> <Gold.Version>
5.8.1

> <Gold.Id.Protein>
6NUR|6NUR_protein|mol2

> <Gold.PLP.Fitness>
56.3644

> <Gold.PLP.PLP>
-50.1647

> <Gold.PLP.part.hbond>
-3.3242

> <Gold.PLP.part.metal>
0.0000

> <Gold.PLP.part.buried>
-10.2202

> <Gold.PLP.part.nonpolar>
-37.1250

> <Gold.PLP.part.repulsive>
0.3183

> <Gold.PLP.ligand.clash>
0.0000

> <Gold.PLP.ligand.torsion>
2.4660

> <Gold.PLP.Chemscore.Hbond>
3.0000

> <Gold.PLP.Chemscore.CHOScore>
0.0000

> <Gold.PLP.Chemscore.Metal>
0.0000

> <Gold.Chemscore.Hbonds>
donor molecule, donor type, donor heavy atom, donor atom, acceptor molecule, acceptor atom, score
      P1  H  6896  6908       L1    19  1.00
      P1  H  6931  6943       L1    18  0.40
      P1  H  6934  6947       L1    18  0.20
      P1  H  7997  8010       L1    23  1.00

> <Gold.PLP.Chemscore.Internal.Correction>
2.1319

> <Gold.Rescore>
     Score         DG    S(hbond)    S(metal)    S(lipo)     H(rot)  DE(clash)    DE(int)     intcor
     14.33     -18.24       2.47        0.00     102.06       2.90       0.00       3.91       ----

> <Gold.Chemscore.Fitness>
14.3334

> <Gold.Chemscore.DG>
-18.2450

> <Gold.Chemscore.ZeroCoef>
-5.4800

> <Gold.Chemscore.Hbond>
2.4685

> <Gold.Chemscore.Metal>
0.0000

> <Gold.Chemscore.Lipo>
102.0612

> <Gold.Chemscore.Internal_Hbond>
0.0000

> <Gold.Chemscore.DEClash>
0.0047

> <Gold.Chemscore.DEInternal>
3.9069

> <Gold.Chemscore.Rot>
2.8988

> <Gold.Chemscore.Internal.Correction>
   9.000000E+99

> <Gold.Chemscore.Hbonds>
donor molecule, donor type, donor heavy atom, donor atom, acceptor molecule, acceptor atom, score
      P1  H  6896  6908       L1    19  0.53
      P1  H  6931  6943       L1    18  0.01
      P1  H  6934  6947       L1    18  0.05
      P1  H  7997  8010       L1    23  0.60

> <Gold.Chemscore.Hbond.Weighted>
-8.2447

> <Gold.Chemscore.Metal.Weighted>
-0.0000

> <Gold.Chemscore.Lipo.Weighted>
-11.9412

> <Gold.Chemscore.Internal_Hbond.Weighted>
0.0000

> <Gold.Chemscore.DEClash.Weighted>
0.0047

> <Gold.Chemscore.DEInternal.Weighted>
3.9069

> <Gold.Chemscore.Rot.Weighted>
7.4209

> <Gold.Chemscore.Internal.Correction.Weighted>
   9.000000E+99

> <Gold.Protein.RotatedTorsions>
[ 6907 6896 6895 6894 ] final -165.62 input  -60.11 | X-H torsion
[ 7974 7965 7964 7962 ] final  157.44 input  175.53 | X-H torsion
[ 8008 7997 7996 7995 ] final   14.71 input   59.86 | X-H torsion
[ 10167 10162 10161 10158 ] final -149.49 input  -65.29 | X-H torsion
[ 10718 10713 10712 10709 ] final  157.57 input   66.30 | X-H torsion
[ 10763 10752 10751 10750 ] final -169.89 input  -60.55 | X-H torsion
[ 11005 11000 10999 10996 ] final   23.01 input  -57.11 | X-H torsion

> <Gold.Protein.ActiveResidues>
 VAL166  LYS551  ARG553  GLY616  TRP617  ASP618  TYR619  PRO620  LYS621  CYS622 
 ASP623  PHE694  ASN695  SER759  ASP760  ASP761  ALA762  ILE779  LEU786  VAL792 
 PHE793  MET794  SER795  GLU796  ALA797  LYS798  CYS799  TRP800  GLU811  SER814 

> <Gold.Protein.RotatedAtoms>
  151.4306  133.3671  159.2767 H   0  0  0  0  0  0  0  0  0  0  0  0  # atno 6907 bound_to 6896
  150.9228  134.8647  159.7511 H   0  0  0  0  0  0  0  0  0  0  0  0  # atno 6908 bound_to 6896
  152.4990  134.4245  159.9543 H   0  0  0  0  0  0  0  0  0  0  0  0  # atno 6909 bound_to 6896
  144.7903  139.7341  143.6224 H   0  0  0  0  0  0  0  0  0  0  0  0  # atno 7974 bound_to 7965
  154.8523  140.2931  155.5590 H   0  0  0  0  0  0  0  0  0  0  0  0  # atno 8008 bound_to 7997
  156.3017  140.2493  156.3416 H   0  0  0  0  0  0  0  0  0  0  0  0  # atno 8009 bound_to 7997
  154.9008  140.0391  157.1881 H   0  0  0  0  0  0  0  0  0  0  0  0  # atno 8010 bound_to 7997
  139.7437  143.8622  152.2569 H   0  0  0  0  0  0  0  0  0  0  0  0  # atno 10167 bound_to 10162
  157.1896  131.0651  151.2086 H   0  0  0  0  0  0  0  0  0  0  0  0  # atno 10718 bound_to 10713
  154.6474  135.2906  155.0029 H   0  0  0  0  0  0  0  0  0  0  0  0  # atno 10763 bound_to 10752
  154.1134  135.6559  153.4893 H   0  0  0  0  0  0  0  0  0  0  0  0  # atno 10764 bound_to 10752
  153.0358  135.5270  154.7367 H   0  0  0  0  0  0  0  0  0  0  0  0  # atno 10765 bound_to 10752
  140.3743  134.1989  155.7665 H   0  0  0  0  0  0  0  0  0  0  0  0  # atno 11005 bound_to 11000
  146.2153  139.5537  142.9654 LP  0  0  0  0  0  0  0  0  0  0  0  0  # atno 17320 bound_to 7965
  145.5811  141.0382  143.2121 LP  0  0  0  0  0  0  0  0  0  0  0  0  # atno 17321 bound_to 7965
  139.8581  144.7131  150.9133 LP  0  0  0  0  0  0  0  0  0  0  0  0  # atno 17342 bound_to 10162
  140.7789  143.3841  151.1424 LP  0  0  0  0  0  0  0  0  0  0  0  0  # atno 17343 bound_to 10162
  157.3873  130.7263  149.6672 LP  0  0  0  0  0  0  0  0  0  0  0  0  # atno 17370 bound_to 10713
  155.9713  130.4156  150.4189 LP  0  0  0  0  0  0  0  0  0  0  0  0  # atno 17371 bound_to 10713
  141.1944  133.8128  157.0757 LP  0  0  0  0  0  0  0  0  0  0  0  0  # atno 17394 bound_to 11000
  140.0527  134.9797  157.1166 LP  0  0  0  0  0  0  0  0  0  0  0  0  # atno 17395 bound_to 11000

$$$$
