#       Name:                AV-unprocessed.smi:1413
#       Creating user name   scv26
#       Creation time:       Fri Mar 27 05:39:13 2020


#       File generated by GOLD software.
#

@<TRIPOS>MOLECULE
AV-unprocessed.smi:1413
    61    63     1
SMALL
NO_CHARGES


@<TRIPOS>ATOM
      1 ****        -6.8701  -1.3428   2.4784 C.3            1 S1                 0.0000
      2 ****        -6.0789  -1.0762   1.1934 C.3            1 S1                 0.0000
      3 ****        -4.5794  -0.8694   1.4745 C.3            1 S1                 0.0000
      4 ****        -3.8812  -0.4876   0.2514 N.3            1 S1                 0.0000
      5 ****        -2.4739  -0.5834   0.2975 C.ar           1 S1                 0.0000
      6 ****        -1.8572  -1.8001   0.6723 C.ar           1 S1                 0.0000
      7 ****        -0.4520  -1.8730   0.7135 C.ar           1 S1                 0.0000
      8 ****         0.3065  -0.7316   0.3903 C.ar           1 S1                 0.0000
      9 ****         1.7231  -0.8351   0.4216 N.am           1 S1                 0.0000
     10 ****         2.6257   0.1517   0.5553 C.2            1 S1                 0.0000
     11 ****         2.3565   1.3414   0.7186 O.2            1 S1                 0.0000
     12 ****         3.8772  -0.3278   0.5058 N.am           1 S1                 0.0000
     13 ****         5.1025   0.4596   0.6369 C.3            1 S1                 0.0000
     14 ****         6.0760  -0.2923   1.5565 C.3            1 S1                 0.0000
     15 ****         5.7237   0.7321  -0.7487 C.3            1 S1                 0.0000
     16 ****         4.8401   1.5168  -1.7191 C.3            1 S1                 0.0000
     17 ****         5.8399   2.1232  -2.6892 C.3            1 S1                 0.0000
     18 ****         7.1709   2.0675  -1.9330 C.3            1 S1                 0.0000
     19 ****         6.8520   1.5853  -0.6340 O.3            1 S1                 0.0000
     20 ****        -0.3957   0.4361   0.0096 C.ar           1 S1                 0.0000
     21 ****        -1.7427   0.5085  -0.0351 N.ar           1 S1                 0.0000
     22 ****        -4.4682   0.6790  -0.4040 C.3            1 S1                 0.0000
     23 ****        -5.9787   0.4817  -0.6374 C.3            1 S1                 0.0000
     24 ****        -6.3008  -0.4800  -1.7954 C.3            1 S1                 0.0000
     25 ****        -6.6189   0.0939   0.5801 O.3            1 S1                 0.0000
     26 ****        -6.5092  -2.2393   2.9829 H              1 S1                 0.0000
     27 ****        -7.9287  -1.4873   2.2609 H              1 S1                 0.0000
     28 ****        -6.7840  -0.5081   3.1748 H              1 S1                 0.0000
     29 ****        -6.2121  -1.9328   0.5324 H              1 S1                 0.0000
     30 ****        -4.4412  -0.0793   2.2140 H              1 S1                 0.0000
     31 ****        -4.1674  -1.7806   1.9066 H              1 S1                 0.0000
     32 ****        -2.4424  -2.6753   0.9122 H              1 S1                 0.0000
     33 ****         0.0338  -2.7966   0.9927 H              1 S1                 0.0000
     34 ****         2.0909  -1.7746   0.3888 H              1 S1                 0.0000
     35 ****         3.9953  -1.3212   0.3714 H              1 S1                 0.0000
     36 ****         4.8769   1.4166   1.1108 H              1 S1                 0.0000
     37 ****         6.9929   0.2775   1.7095 H              1 S1                 0.0000
     38 ****         6.3532  -1.2599   1.1370 H              1 S1                 0.0000
     39 ****         5.6336  -0.4678   2.5376 H              1 S1                 0.0000
     40 ****         6.0379  -0.2046  -1.2139 H              1 S1                 0.0000
     41 ****         4.0938   0.8942  -2.2132 H              1 S1                 0.0000
     42 ****         4.3171   2.3145  -1.1898 H              1 S1                 0.0000
     43 ****         5.9000   1.5370  -3.6068 H              1 S1                 0.0000
     44 ****         5.5627   3.1428  -2.9587 H              1 S1                 0.0000
     45 ****         7.8584   1.3724  -2.4167 H              1 S1                 0.0000
     46 ****         7.6579   3.0411  -1.8735 H              1 S1                 0.0000
     47 ****         0.1148   1.3376  -0.2915 H              1 S1                 0.0000
     48 ****        -4.3071   1.5530   0.2288 H              1 S1                 0.0000
     49 ****        -3.9724   0.8749  -1.3555 H              1 S1                 0.0000
     50 ****        -6.4006   1.4503  -0.9069 H              1 S1                 0.0000
     51 ****        -5.9164  -0.0907  -2.7383 H              1 S1                 0.0000
     52 ****        -7.3776  -0.6077  -1.9066 H              1 S1                 0.0000
     53 ****        -5.8589  -1.4655  -1.6502 H              1 S1                 0.0000
     54 ****        -4.0634  -1.2181  -0.4066 LP             1 S1                 0.0000
     55 ****         1.4021   1.6369   0.7606 LP             1 S1                 0.0000
     56 ****         3.0922   2.0127   0.8094 LP             1 S1                 0.0000
     57 ****         7.6272   1.0750  -0.2615 LP             1 S1                 0.0000
     58 ****         6.6373   2.3530  -0.0301 LP             1 S1                 0.0000
     59 ****        -2.1954   1.3567  -0.3100 LP             1 S1                 0.0000
     60 ****        -6.5382   0.8507   1.2288 LP             1 S1                 0.0000
     61 ****        -7.5847  -0.0752   0.3837 LP             1 S1                 0.0000
@<TRIPOS>BOND
    1    1    2 1     
    2    1   26 1     
    3    1   27 1     
    4    1   28 1     
    5    2   25 1     
    6    2    3 1     
    7    2   29 1     
    8    3    4 1     
    9    3   30 1     
   10    3   31 1     
   11    4    5 1     
   12    4   22 1     
   13    5   21 ar    
   14    5    6 ar    
   15    6    7 ar    
   16    6   32 1     
   17    7    8 ar    
   18    7   33 1     
   19    8    9 1     
   20    8   20 ar    
   21    9   10 am    
   22    9   34 1     
   23   10   11 2     
   24   10   12 am    
   25   12   13 1     
   26   12   35 1     
   27   13   14 1     
   28   13   15 1     
   29   13   36 1     
   30   14   37 1     
   31   14   38 1     
   32   14   39 1     
   33   15   19 1     
   34   15   16 1     
   35   15   40 1     
   36   16   17 1     
   37   16   41 1     
   38   16   42 1     
   39   17   18 1     
   40   17   43 1     
   41   17   44 1     
   42   18   19 1     
   43   18   45 1     
   44   18   46 1     
   45   20   21 ar    
   46   20   47 1     
   47   22   23 1     
   48   22   48 1     
   49   22   49 1     
   50   23   24 1     
   51   23   25 1     
   52   23   50 1     
   53   24   51 1     
   54   24   52 1     
   55   24   53 1     
   56    4   54 1     
   57   11   55 1     
   58   11   56 1     
   59   19   57 1     
   60   19   58 1     
   61   21   59 1     
   62   25   60 1     
   63   25   61 1     
@<TRIPOS>SUBSTRUCTURE
      1 S1             1
@<TRIPOS>SET
LONE_PAIRS      STATIC     ATOMS    <user>   **** ""
8 54 55 56 57 58 59 60 61
DONOR_HYDROGENS      STATIC     ATOMS    <user>   **** ""
2 34 35
ATOM$BLUE        STATIC     ATOMS    COLORGROUP SYSTEM
8 54 55 56 57 58 59 60 61
ATOM$RED        STATIC     ATOMS    COLORGROUP SYSTEM
2 34 35
