AV-unprocessed.smi:2119|AV-procd|sdf|8632|dock5
  -GOLD-   2272011373D 1   1.00000     0.00000
 Structure written by MMmdl.
 47 49  0  0  0  0  0  0  0  0  1 V2000
  146.6915  136.8365  153.7766 O   0  0  0  0  0  0  0  0  0  0  0  0
  145.9964  137.5582  153.0620 C   0  0  0  0  0  0  0  0  0  0  0  0
  145.8570  138.8765  153.2590 N   0  0  0  0  0  0  0  0  0  0  0  0
  146.4608  139.6297  154.3553 C   0  0  0  0  0  0  0  0  0  0  0  0
  146.8099  141.1048  153.9801 C   0  0  2  0  0  0  0  0  0  0  0  0
  148.2004  141.4744  154.6025 C   0  0  1  0  0  0  0  0  0  0  0  0
  148.3940  141.4395  156.1088 C   0  0  0  0  0  0  0  0  0  0  0  0
  149.9091  141.5580  156.2188 C   0  0  0  0  0  0  0  0  0  0  0  0
  150.4155  140.8159  155.1145 O   0  0  0  0  0  0  0  0  0  0  0  0
  149.3812  140.6034  154.1560 C   0  0  0  0  0  0  0  0  0  0  0  0
  145.7433  142.0977  154.2682 N   0  0  0  0  0  0  0  0  0  0  0  0
  145.5364  142.2690  155.7123 C   0  0  0  0  0  0  0  0  0  0  0  0
  144.3659  143.2151  156.0255 C   0  0  0  0  0  0  0  0  0  0  0  0
  144.6187  144.4847  155.4361 O   0  0  0  0  0  0  0  0  0  0  0  0
  144.8119  144.4022  154.0294 C   0  0  0  0  0  0  0  0  0  0  0  0
  145.9696  143.4370  153.7142 C   0  0  0  0  0  0  0  0  0  0  0  0
  145.2922  137.1519  151.9921 N   0  0  0  0  0  0  0  0  0  0  0  0
  145.1301  135.8363  151.4790 C   0  0  0  0  0  0  0  0  0  0  0  0
  144.0278  135.4095  150.6988 C   0  0  0  0  0  0  0  0  0  0  0  0
  143.9971  134.0798  150.2359 C   0  0  0  0  0  0  0  0  0  0  0  0
  145.0707  133.2285  150.5615 C   0  0  0  0  0  0  0  0  0  0  0  0
  146.1333  133.6252  151.2928 N   0  0  0  0  0  0  0  0  0  0  0  0
  146.1556  134.9010  151.7336 C   0  0  0  0  0  0  0  0  0  0  0  0
  145.2741  139.3953  152.6182 H   0  0  0  0  0  0  0  0  0  0  0  0
  145.7617  139.5907  155.1917 H   0  0  0  0  0  0  0  0  0  0  0  0
  147.3540  139.0941  154.6777 H   0  0  0  0  0  0  0  0  0  0  0  0
  146.9501  141.0964  152.8981 H   0  0  0  0  0  0  0  0  0  0  0  0
  148.4279  142.4997  154.3067 H   0  0  0  0  0  0  0  0  0  0  0  0
  147.8652  142.2342  156.6355 H   0  0  0  0  0  0  0  0  0  0  0  0
  148.1037  140.4754  156.5263 H   0  0  0  0  0  0  0  0  0  0  0  0
  150.2202  142.5984  156.1163 H   0  0  0  0  0  0  0  0  0  0  0  0
  150.2934  141.1797  157.1663 H   0  0  0  0  0  0  0  0  0  0  0  0
  149.1097  139.5469  154.1679 H   0  0  0  0  0  0  0  0  0  0  0  0
  149.7295  140.8514  153.1532 H   0  0  0  0  0  0  0  0  0  0  0  0
  145.3664  141.3248  156.2186 H   0  0  0  0  0  0  0  0  0  0  0  0
  146.4434  142.6765  156.1621 H   0  0  0  0  0  0  0  0  0  0  0  0
  143.4259  142.8072  155.6511 H   0  0  0  0  0  0  0  0  0  0  0  0
  144.2566  143.3399  157.1029 H   0  0  0  0  0  0  0  0  0  0  0  0
  143.8907  144.0680  153.5499 H   0  0  0  0  0  0  0  0  0  0  0  0
  145.0315  145.3967  153.6416 H   0  0  0  0  0  0  0  0  0  0  0  0
  146.9025  143.8499  154.1014 H   0  0  0  0  0  0  0  0  0  0  0  0
  146.0649  143.3888  152.6297 H   0  0  0  0  0  0  0  0  0  0  0  0
  144.8372  137.8797  151.4602 H   0  0  0  0  0  0  0  0  0  0  0  0
  143.2170  136.0700  150.4341 H   0  0  0  0  0  0  0  0  0  0  0  0
  143.1708  133.7218  149.6399 H   0  0  0  0  0  0  0  0  0  0  0  0
  145.0785  132.2038  150.2206 H   0  0  0  0  0  0  0  0  0  0  0  0
  147.0225  135.1839  152.3128 H   0  0  0  0  0  0  0  0  0  0  0  0
  1  2  2  0  0  0  0
  2  3  1  0  0  0  0
  2 17  1  0  0  0  0
  3  4  1  0  0  0  0
  3 24  1  0  0  0  0
  4  5  1  0  0  0  0
  4 25  1  0  0  0  0
  4 26  1  0  0  0  0
  5  6  1  0  0  0  0
  5 11  1  0  0  0  0
  5 27  1  0  0  0  0
  6 10  1  0  0  0  0
  6  7  1  0  0  0  0
  6 28  1  0  0  0  0
  7  8  1  0  0  0  0
  7 29  1  0  0  0  0
  7 30  1  0  0  0  0
  8  9  1  0  0  0  0
  8 31  1  0  0  0  0
  8 32  1  0  0  0  0
  9 10  1  0  0  0  0
 10 33  1  0  0  0  0
 10 34  1  0  0  0  0
 11 16  1  0  0  0  0
 11 12  1  0  0  0  0
 12 13  1  0  0  0  0
 12 35  1  0  0  0  0
 12 36  1  0  0  0  0
 13 14  1  0  0  0  0
 13 37  1  0  0  0  0
 13 38  1  0  0  0  0
 14 15  1  0  0  0  0
 15 16  1  0  0  0  0
 15 39  1  0  0  0  0
 15 40  1  0  0  0  0
 16 41  1  0  0  0  0
 16 42  1  0  0  0  0
 17 18  1  0  0  0  0
 17 43  1  0  0  0  0
 18 23  1  0  0  0  0
 18 19  2  0  0  0  0
 19 20  1  0  0  0  0
 19 44  1  0  0  0  0
 20 21  2  0  0  0  0
 20 45  1  0  0  0  0
 21 22  1  0  0  0  0
 21 46  1  0  0  0  0
 22 23  2  0  0  0  0
 23 47  1  0  0  0  0
M  END
> <s_m_source_file>
AV-unprocessed.smi

> <i_m_source_file_index>
2119

> <i_lp_mmshare_version>
43012

> <i_f3d_flags>
0

> <s_epik_input>
W2NIXTFuW2NIXVtjSF1bY0hdYzFbTkhdQyg9TylbTkhdW0NIMl1bQ0BIXShbQ0BASF0yW0NIMl1bQ0gyXU9bQ0gyXTIpTjNbQ0gyXVtDSDJdT1tDSDJdW0NIMl0z

> <s_epik_cmdline>
J2VwaWtfcHl0aG9uJywgJy1waCcsICc3LjAnLCAnLXRuJywgJzgnLCAnLW1hJywgJzIwMCcsICctbWV0YWxfYmluZGluZycsICctaW1hZScsICc8aW5maWxlLm1hZT4nLCAnLW9tYWUnLCAnPG91dGZpbGUubWFlPic=

> <r_epik_Ionization_Penalty>
0.129787

> <r_epik_Ionization_Penalty_Charging>
0

> <r_epik_Ionization_Penalty_Neutral>
0.129787

> <r_epik_State_Penalty>
0.121311

> <r_epik_Charging_Adjusted_Penalty>
0.121311

> <i_epik_Tot_Q>
0

> <i_epik_Tot_abs_Q>
0

> <r_epik_Metal_State_Penalty>
0.117931

> <b_epik_Metal_Only>
0

> <s_lp_Force_Field>
OPLS_2005

> <r_lp_Energy>
58.2648

> <b_lp_Chiralities_Consistent>
1

> <s_lp_Variant>
AV-unprocessed.smi:2119-3

> <Gold.Version>
5.8.1

> <Gold.Id.Protein>
6NUR|6NUR_protein|mol2

> <Gold.PLP.Fitness>
40.9757

> <Gold.PLP.PLP>
-33.3016

> <Gold.PLP.part.hbond>
-3.0000

> <Gold.PLP.part.metal>
0.0000

> <Gold.PLP.part.buried>
-2.7374

> <Gold.PLP.part.nonpolar>
-29.8355

> <Gold.PLP.part.repulsive>
1.7146

> <Gold.PLP.ligand.clash>
0.0000

> <Gold.PLP.ligand.torsion>
0.9072

> <Gold.PLP.Chemscore.Hbond>
2.1104

> <Gold.PLP.Chemscore.CHOScore>
1.0000

> <Gold.PLP.Chemscore.Metal>
0.0000

> <Gold.Chemscore.Hbonds>
donor molecule, donor type, donor heavy atom, donor atom, acceptor molecule, acceptor atom, score
      L1  H     3    24       P1 10175  0.90
      L1  H    17    43       P1 10171  0.99
      P1  H  7989  7998       L1     9  0.16
      L1  C    23    47       P1  7948  1.00

> <Gold.PLP.Chemscore.Internal.Correction>
0.1576

> <Gold.Rescore>
     Score         DG    S(hbond)    S(metal)    S(lipo)     H(rot)  DE(clash)    DE(int)     intcor
     14.03     -16.70       1.77        0.00      81.49       1.65       0.41       2.27       ----

> <Gold.Chemscore.Fitness>
14.0255

> <Gold.Chemscore.DG>
-16.7000

> <Gold.Chemscore.ZeroCoef>
-5.4800

> <Gold.Chemscore.Hbond>
1.7700

> <Gold.Chemscore.Metal>
0.0000

> <Gold.Chemscore.Lipo>
81.4895

> <Gold.Chemscore.Internal_Hbond>
0.0000

> <Gold.Chemscore.DEClash>
0.4074

> <Gold.Chemscore.DEInternal>
2.2672

> <Gold.Chemscore.Rot>
1.6508

> <Gold.Chemscore.Internal.Correction>
   9.000000E+99

> <Gold.Chemscore.Hbonds>
donor molecule, donor type, donor heavy atom, donor atom, acceptor molecule, acceptor atom, score
      L1  H     3    24       P1 10175  0.88
      L1  H    17    43       P1 10171  0.90

> <Gold.Chemscore.Hbond.Weighted>
-5.9120

> <Gold.Chemscore.Metal.Weighted>
-0.0000

> <Gold.Chemscore.Lipo.Weighted>
-9.5343

> <Gold.Chemscore.Internal_Hbond.Weighted>
0.0000

> <Gold.Chemscore.DEClash.Weighted>
0.4074

> <Gold.Chemscore.DEInternal.Weighted>
2.2672

> <Gold.Chemscore.Rot.Weighted>
4.2262

> <Gold.Chemscore.Internal.Correction.Weighted>
   9.000000E+99

> <Gold.Protein.RotatedTorsions>
[ 6907 6896 6895 6894 ] final   19.79 input  -60.11 | X-H torsion
[ 7974 7965 7964 7962 ] final   80.07 input  175.53 | X-H torsion
[ 8008 7997 7996 7995 ] final  -73.34 input   59.86 | X-H torsion
[ 10167 10162 10161 10158 ] final -101.73 input  -65.29 | X-H torsion
[ 10718 10713 10712 10709 ] final  -23.05 input   66.30 | X-H torsion
[ 10763 10752 10751 10750 ] final  -55.32 input  -60.55 | X-H torsion
[ 11005 11000 10999 10996 ] final  -63.97 input  -57.11 | X-H torsion

> <Gold.Protein.ActiveResidues>
 VAL166  LYS551  ARG553  GLY616  TRP617  ASP618  TYR619  PRO620  LYS621  CYS622 
 ASP623  PHE694  ASN695  SER759  ASP760  ASP761  ALA762  ILE779  LEU786  VAL792 
 PHE793  MET794  SER795  GLU796  ALA797  LYS798  CYS799  TRP800  GLU811  SER814 

> <Gold.Protein.RotatedAtoms>
  151.8863  135.0434  160.0493 H   0  0  0  0  0  0  0  0  0  0  0  0  # atno 6907 bound_to 6896
  152.2472  133.5180  159.5312 H   0  0  0  0  0  0  0  0  0  0  0  0  # atno 6908 bound_to 6896
  150.7072  134.0925  159.3979 H   0  0  0  0  0  0  0  0  0  0  0  0  # atno 6909 bound_to 6896
  145.6560  139.2459  143.1950 H   0  0  0  0  0  0  0  0  0  0  0  0  # atno 7974 bound_to 7965
  154.5239  140.0781  156.8222 H   0  0  0  0  0  0  0  0  0  0  0  0  # atno 8008 bound_to 7997
  155.3517  140.3413  155.4221 H   0  0  0  0  0  0  0  0  0  0  0  0  # atno 8009 bound_to 7997
  156.1710  140.1620  156.8433 H   0  0  0  0  0  0  0  0  0  0  0  0  # atno 8010 bound_to 7997
  140.2382  143.3558  152.0825 H   0  0  0  0  0  0  0  0  0  0  0  0  # atno 10167 bound_to 10162
  156.4963  130.4578  149.6726 H   0  0  0  0  0  0  0  0  0  0  0  0  # atno 10718 bound_to 10713
  154.1889  135.6430  153.5054 H   0  0  0  0  0  0  0  0  0  0  0  0  # atno 10763 bound_to 10752
  153.0040  135.5424  154.6435 H   0  0  0  0  0  0  0  0  0  0  0  0  # atno 10764 bound_to 10752
  154.5819  135.2926  155.0697 H   0  0  0  0  0  0  0  0  0  0  0  0  # atno 10765 bound_to 10752
  141.1410  133.6659  156.5762 H   0  0  0  0  0  0  0  0  0  0  0  0  # atno 11005 bound_to 11000
  146.1165  140.7363  142.9478 LP  0  0  0  0  0  0  0  0  0  0  0  0  # atno 17320 bound_to 7965
  144.7106  140.4022  143.7084 LP  0  0  0  0  0  0  0  0  0  0  0  0  # atno 17321 bound_to 7965
  139.5086  144.6853  151.5903 LP  0  0  0  0  0  0  0  0  0  0  0  0  # atno 17342 bound_to 10162
  140.6134  143.9395  150.6470 LP  0  0  0  0  0  0  0  0  0  0  0  0  # atno 17343 bound_to 10162
  156.3377  130.7365  151.2305 LP  0  0  0  0  0  0  0  0  0  0  0  0  # atno 17370 bound_to 10713
  157.7468  131.0412  150.4636 LP  0  0  0  0  0  0  0  0  0  0  0  0  # atno 17371 bound_to 10713
  140.3874  134.7470  157.4700 LP  0  0  0  0  0  0  0  0  0  0  0  0  # atno 17394 bound_to 11000
  140.0592  134.6020  155.8769 LP  0  0  0  0  0  0  0  0  0  0  0  0  # atno 17395 bound_to 11000

$$$$
