AV-unprocessed.smi:2226|AV-procd|sdf|9010|dock8
  -GOLD-   2272012213D 1   1.00000     0.00000
 Structure written by MMmdl.
 40 42  0  0  0  0  0  0  0  0  2 V2000
  146.8363  142.6776  157.8114 C   0  0  0  0  0  0  0  0  0  0  0  0
  147.7660  142.2805  156.7273 N   0  3  2  0  0  0  0  0  0  0  0  0
  147.1556  141.4639  155.6499 C   0  0  1  0  0  0  0  0  0  0  0  0
  148.0825  141.4952  154.4119 C   0  0  0  0  0  0  0  0  0  0  0  0
  149.5398  141.0893  154.7133 C   0  0  0  0  0  0  0  0  0  0  0  0
  150.0583  141.6968  156.0328 C   0  0  0  0  0  0  0  0  0  0  0  0
  149.0297  141.6550  157.1875 C   0  0  2  0  0  0  0  0  0  0  0  0
  148.7769  140.2469  157.7822 C   0  0  0  0  0  0  0  0  0  0  0  0
  147.9409  139.3069  156.8832 C   0  0  1  0  0  0  0  0  0  0  0  0
  147.3762  138.2369  157.7046 N   0  0  0  0  0  0  0  0  0  0  0  0
  147.9982  137.5685  158.6884 C   0  0  0  0  0  0  0  0  0  0  0  0
  149.1672  137.8127  159.0031 O   0  0  0  0  0  0  0  0  0  0  0  0
  147.1357  136.6285  159.2330 N   0  0  0  0  0  0  0  0  0  0  0  0
  147.1144  136.4403  160.5165 C   0  0  0  0  0  0  0  0  0  0  0  0
  146.3236  135.5514  161.2268 N   0  0  0  0  0  0  0  0  0  0  0  0
  146.6239  135.6815  162.5545 C   0  0  0  0  0  0  0  0  0  0  0  0
  147.5645  136.6135  162.6768 C   0  0  0  0  0  0  0  0  0  0  0  0
  147.8873  137.0985  161.4455 O   0  0  0  0  0  0  0  0  0  0  0  0
  146.7936  140.0451  156.1556 C   0  0  0  0  0  0  0  0  0  0  0  0
  146.4638  141.8208  158.3724 H   0  0  0  0  0  0  0  0  0  0  0  0
  145.9781  143.2097  157.4000 H   0  0  0  0  0  0  0  0  0  0  0  0
  147.3339  143.3485  158.5119 H   0  0  0  0  0  0  0  0  0  0  0  0
  146.2253  141.9491  155.3510 H   0  0  0  0  0  0  0  0  0  0  0  0
  147.6771  140.8702  153.6155 H   0  0  0  0  0  0  0  0  0  0  0  0
  148.0882  142.5121  154.0174 H   0  0  0  0  0  0  0  0  0  0  0  0
  149.6371  140.0073  154.7292 H   0  0  0  0  0  0  0  0  0  0  0  0
  150.1819  141.4068  153.8911 H   0  0  0  0  0  0  0  0  0  0  0  0
  150.9866  141.2081  156.3304 H   0  0  0  0  0  0  0  0  0  0  0  0
  150.3182  142.7398  155.8471 H   0  0  0  0  0  0  0  0  0  0  0  0
  149.4373  142.2763  157.9862 H   0  0  0  0  0  0  0  0  0  0  0  0
  149.7257  139.7701  158.0310 H   0  0  0  0  0  0  0  0  0  0  0  0
  148.2630  140.3731  158.7361 H   0  0  0  0  0  0  0  0  0  0  0  0
  148.5985  138.8726  156.1352 H   0  0  0  0  0  0  0  0  0  0  0  0
  146.4201  137.9773  157.5082 H   0  0  0  0  0  0  0  0  0  0  0  0
  145.6351  134.9039  160.8713 H   0  0  0  0  0  0  0  0  0  0  0  0
  146.1175  135.0757  163.2911 H   0  0  0  0  0  0  0  0  0  0  0  0
  148.0831  137.0252  163.5300 H   0  0  0  0  0  0  0  0  0  0  0  0
  145.9455  140.1375  156.8353 H   0  0  0  0  0  0  0  0  0  0  0  0
  146.4299  139.4345  155.3281 H   0  0  0  0  0  0  0  0  0  0  0  0
  148.0361  143.1502  156.2899 H   0  0  0  0  0  0  0  0  0  0  0  0
  1  2  1  0  0  0  0
  1 20  1  0  0  0  0
  1 21  1  0  0  0  0
  1 22  1  0  0  0  0
  2  7  1  0  0  0  0
  2  3  1  0  0  0  0
  2 40  1  0  0  0  0
  3 19  1  0  0  0  0
  3  4  1  0  0  0  0
  3 23  1  0  0  0  0
  4  5  1  0  0  0  0
  4 24  1  0  0  0  0
  4 25  1  0  0  0  0
  5  6  1  0  0  0  0
  5 26  1  0  0  0  0
  5 27  1  0  0  0  0
  6  7  1  0  0  0  0
  6 28  1  0  0  0  0
  6 29  1  0  0  0  0
  7  8  1  0  0  0  0
  7 30  1  0  0  0  0
  8  9  1  0  0  0  0
  8 31  1  0  0  0  0
  8 32  1  0  0  0  0
  9 10  1  0  0  0  0
  9 19  1  0  0  0  0
  9 33  1  0  0  0  0
 10 34  1  0  0  0  0
 10 11  1  0  0  0  0
 11 13  1  0  0  0  0
 11 12  2  0  0  0  0
 13 14  2  0  0  0  0
 14 18  1  0  0  0  0
 14 15  1  0  0  0  0
 15 35  1  0  0  0  0
 15 16  1  0  0  0  0
 16 36  1  0  0  0  0
 16 17  2  0  0  0  0
 17 37  1  0  0  0  0
 17 18  1  0  0  0  0
 19 38  1  0  0  0  0
 19 39  1  0  0  0  0
M  CHG  1   2   1
M  END
> <s_m_source_file>
AV-unprocessed.smi

> <i_m_source_file_index>
2226

> <i_lp_mmshare_version>
43012

> <i_f3d_flags>
0

> <s_epik_input>
W0NIMl0xW0NIMl1bQ0gyXVtDQEhdKE4oW0NIM10pW0NIXTEyKVtDSDJdW0NASF0oW0NIMl0yKVtOSF1DKD1PKVtOSF1jM25bY0hdW2NIXW8z

> <s_epik_cmdline>
J2VwaWtfcHl0aG9uJywgJy1waCcsICc3LjAnLCAnLXRuJywgJzgnLCAnLW1hJywgJzIwMCcsICctbWV0YWxfYmluZGluZycsICctaW1hZScsICc8aW5maWxlLm1hZT4nLCAnLW9tYWUnLCAnPG91dGZpbGUubWFlPic=

> <r_lp_tautomer_probability>
0.107061

> <r_epik_Ionization_Penalty>
1.08307

> <r_epik_Ionization_Penalty_Charging>
1.08272

> <r_epik_Ionization_Penalty_Neutral>
0.000345913

> <r_epik_State_Penalty>
2.5744

> <r_epik_Charging_Adjusted_Penalty>
3.65713

> <i_epik_Tot_Q>
1

> <i_epik_Tot_abs_Q>
1

> <r_epik_Metal_State_Penalty>
3.72133

> <b_epik_Metal_Only>
0

> <s_lp_Force_Field>
OPLS_2005

> <r_lp_Energy>
57.8706

> <b_lp_Chiralities_Consistent>
1

> <s_lp_Variant>
AV-unprocessed.smi:2226-10

> <Gold.Version>
5.8.1

> <Gold.Id.Protein>
6NUR|6NUR_protein|mol2

> <Gold.PLP.Fitness>
35.9893

> <Gold.PLP.PLP>
-26.9460

> <Gold.PLP.part.hbond>
-3.1093

> <Gold.PLP.part.metal>
0.0000

> <Gold.PLP.part.buried>
-2.9294

> <Gold.PLP.part.nonpolar>
-20.5746

> <Gold.PLP.part.repulsive>
0.1013

> <Gold.PLP.ligand.clash>
0.0000

> <Gold.PLP.ligand.torsion>
0.5382

> <Gold.PLP.Chemscore.Hbond>
3.3712

> <Gold.PLP.Chemscore.CHOScore>
0.0000

> <Gold.PLP.Chemscore.Metal>
0.0000

> <Gold.Chemscore.Hbonds>
donor molecule, donor type, donor heavy atom, donor atom, acceptor molecule, acceptor atom, score
      L1  H     2    40       P1  8028  2.00
      P1  H  6931  6943       L1    18  0.95
      P1  H  6934  6947       L1    18  0.47

> <Gold.PLP.Chemscore.Internal.Correction>
0.0060

> <Gold.Rescore>
     Score         DG    S(hbond)    S(metal)    S(lipo)     H(rot)  DE(clash)    DE(int)     intcor
     11.67     -15.53       2.01        0.00      50.36       1.00       0.41       3.45       ----

> <Gold.Chemscore.Fitness>
11.6709

> <Gold.Chemscore.DG>
-15.5345

> <Gold.Chemscore.ZeroCoef>
-5.4800

> <Gold.Chemscore.Hbond>
2.0128

> <Gold.Chemscore.Metal>
0.0000

> <Gold.Chemscore.Lipo>
50.3574

> <Gold.Chemscore.Internal_Hbond>
0.0000

> <Gold.Chemscore.DEClash>
0.4139

> <Gold.Chemscore.DEInternal>
3.4496

> <Gold.Chemscore.Rot>
1.0000

> <Gold.Chemscore.Internal.Correction>
   9.000000E+99

> <Gold.Chemscore.Hbonds>
donor molecule, donor type, donor heavy atom, donor atom, acceptor molecule, acceptor atom, score
      L1  H     2    40       P1  8028  0.35
      P1  H  6931  6943       L1    18  0.21
      P1  H  6934  6947       L1    18  0.07

> <Gold.Chemscore.Hbond.Weighted>
-6.7227

> <Gold.Chemscore.Metal.Weighted>
-0.0000

> <Gold.Chemscore.Lipo.Weighted>
-5.8918

> <Gold.Chemscore.Internal_Hbond.Weighted>
0.0000

> <Gold.Chemscore.DEClash.Weighted>
0.4139

> <Gold.Chemscore.DEInternal.Weighted>
3.4496

> <Gold.Chemscore.Rot.Weighted>
2.5600

> <Gold.Chemscore.Internal.Correction.Weighted>
   9.000000E+99

> <Gold.Protein.RotatedTorsions>
[ 6907 6896 6895 6894 ] final  -58.88 input  -60.11 | X-H torsion
[ 7974 7965 7964 7962 ] final  -51.99 input  175.53 | X-H torsion
[ 8008 7997 7996 7995 ] final  -55.17 input   59.86 | X-H torsion
[ 10167 10162 10161 10158 ] final  166.71 input  -65.29 | X-H torsion
[ 10718 10713 10712 10709 ] final -104.18 input   66.30 | X-H torsion
[ 10763 10752 10751 10750 ] final  -55.33 input  -60.55 | X-H torsion
[ 11005 11000 10999 10996 ] final -110.44 input  -57.11 | X-H torsion

> <Gold.Protein.ActiveResidues>
 VAL166  LYS551  ARG553  GLY616  TRP617  ASP618  TYR619  PRO620  LYS621  CYS622 
 ASP623  PHE694  ASN695  SER759  ASP760  ASP761  ALA762  ILE779  LEU786  VAL792 
 PHE793  MET794  SER795  GLU796  ALA797  LYS798  CYS799  TRP800  GLU811  SER814 

> <Gold.Protein.RotatedAtoms>
  150.7973  134.7041  159.6566 H   0  0  0  0  0  0  0  0  0  0  0  0  # atno 6907 bound_to 6896
  152.4086  134.6160  160.0048 H   0  0  0  0  0  0  0  0  0  0  0  0  # atno 6908 bound_to 6896
  151.6410  133.3289  159.3166 H   0  0  0  0  0  0  0  0  0  0  0  0  # atno 6909 bound_to 6896
  145.9129  140.7900  142.9686 H   0  0  0  0  0  0  0  0  0  0  0  0  # atno 7974 bound_to 7965
  154.4186  140.1159  156.5434 H   0  0  0  0  0  0  0  0  0  0  0  0  # atno 8008 bound_to 7997
  155.6484  140.3496  155.4720 H   0  0  0  0  0  0  0  0  0  0  0  0  # atno 8009 bound_to 7997
  155.9813  140.1161  157.0714 H   0  0  0  0  0  0  0  0  0  0  0  0  # atno 8010 bound_to 7997
  139.4930  144.3998  151.9422 H   0  0  0  0  0  0  0  0  0  0  0  0  # atno 10167 bound_to 10162
  156.0294  130.5503  150.7360 H   0  0  0  0  0  0  0  0  0  0  0  0  # atno 10718 bound_to 10713
  154.1890  135.6430  153.5055 H   0  0  0  0  0  0  0  0  0  0  0  0  # atno 10763 bound_to 10752
  153.0040  135.5424  154.6435 H   0  0  0  0  0  0  0  0  0  0  0  0  # atno 10764 bound_to 10752
  154.5819  135.2926  155.0697 H   0  0  0  0  0  0  0  0  0  0  0  0  # atno 10765 bound_to 10752
  141.0791  133.9250  157.2326 H   0  0  0  0  0  0  0  0  0  0  0  0  # atno 11005 bound_to 11000
  144.6745  140.1854  143.7402 LP  0  0  0  0  0  0  0  0  0  0  0  0  # atno 17320 bound_to 7965
  145.8649  139.2241  143.1695 LP  0  0  0  0  0  0  0  0  0  0  0  0  # atno 17321 bound_to 7965
  140.3437  144.3172  150.5962 LP  0  0  0  0  0  0  0  0  0  0  0  0  # atno 17342 bound_to 10162
  140.5544  143.2201  151.7872 LP  0  0  0  0  0  0  0  0  0  0  0  0  # atno 17343 bound_to 10162
  157.4940  131.0913  151.0393 LP  0  0  0  0  0  0  0  0  0  0  0  0  # atno 17370 bound_to 10713
  157.0792  130.5896  149.5417 LP  0  0  0  0  0  0  0  0  0  0  0  0  # atno 17371 bound_to 10713
  139.9604  135.0155  156.9246 LP  0  0  0  0  0  0  0  0  0  0  0  0  # atno 17394 bound_to 11000
  140.5507  134.0630  155.7368 LP  0  0  0  0  0  0  0  0  0  0  0  0  # atno 17395 bound_to 11000

$$$$
