AV-unprocessed.smi:3116|AV-procd|sdf|11876|dock10
  -GOLD-   2272017263D 1   1.00000     0.00000
 Structure written by MMmdl.
 33 33  0  0  0  0  0  0  0  0  1 V2000
  153.4821  138.5462  155.0019 C   0  0  0  0  0  0  0  0  0  0  0  0
  151.9843  138.8890  154.9744 C   0  0  2  0  0  0  0  0  0  0  0  0
  151.5494  139.3139  156.3174 N   0  0  0  0  0  0  0  0  0  0  0  0
  151.6201  140.7510  156.5808 C   0  0  1  0  0  0  0  0  0  0  0  0
  150.5808  141.4516  155.6824 C   0  0  0  0  0  0  0  0  0  0  0  0
  151.3779  140.9840  158.0958 C   0  0  1  0  0  0  0  0  0  0  0  0
  152.3405  140.1729  158.9833 C   0  0  0  0  0  0  0  0  0  0  0  0
  151.4649  142.3962  158.4464 N   0  0  0  0  0  0  0  0  0  0  0  0
  152.3685  143.0238  159.2811 C   0  0  0  0  0  0  0  0  0  0  0  0
  152.0522  144.3517  159.3013 C   0  0  0  0  0  0  0  0  0  0  0  0
  150.9244  144.4426  158.4390 C   0  0  0  0  0  0  0  0  0  0  0  0
  150.5748  143.2723  157.9308 N   0  0  0  0  0  0  0  0  0  0  0  0
  151.1704  137.7108  154.4140 C   0  0  0  0  0  0  0  0  0  0  0  0
  150.3541  137.9651  153.3883 N   0  0  0  0  0  0  0  0  0  0  0  0
  151.2639  136.5907  154.9125 O   0  0  0  0  0  0  0  0  0  0  0  0
  153.8381  138.2429  154.0167 H   0  0  0  0  0  0  0  0  0  0  0  0
  153.6975  137.7348  155.6986 H   0  0  0  0  0  0  0  0  0  0  0  0
  154.0732  139.4096  155.3090 H   0  0  0  0  0  0  0  0  0  0  0  0
  151.8604  139.7397  154.3014 H   0  0  0  0  0  0  0  0  0  0  0  0
  150.6332  138.9581  156.5511 H   0  0  0  0  0  0  0  0  0  0  0  0
  152.6094  141.1407  156.3363 H   0  0  0  0  0  0  0  0  0  0  0  0
  150.6352  142.5362  155.7746 H   0  0  0  0  0  0  0  0  0  0  0  0
  149.5657  141.1487  155.9415 H   0  0  0  0  0  0  0  0  0  0  0  0
  150.7356  141.2188  154.6291 H   0  0  0  0  0  0  0  0  0  0  0  0
  150.3626  140.6559  158.3291 H   0  0  0  0  0  0  0  0  0  0  0  0
  152.2235  139.1009  158.8250 H   0  0  0  0  0  0  0  0  0  0  0  0
  152.1523  140.3659  160.0400 H   0  0  0  0  0  0  0  0  0  0  0  0
  153.3812  140.4258  158.7791 H   0  0  0  0  0  0  0  0  0  0  0  0
  153.1537  142.4786  159.7837 H   0  0  0  0  0  0  0  0  0  0  0  0
  152.5498  145.1381  159.8489 H   0  0  0  0  0  0  0  0  0  0  0  0
  150.3524  145.3180  158.1690 H   0  0  0  0  0  0  0  0  0  0  0  0
  149.7991  137.2221  152.9895 H   0  0  0  0  0  0  0  0  0  0  0  0
  150.2940  138.9018  153.0163 H   0  0  0  0  0  0  0  0  0  0  0  0
  1  2  1  0  0  0  0
  1 16  1  0  0  0  0
  1 17  1  0  0  0  0
  1 18  1  0  0  0  0
  2  3  1  0  0  0  0
  2 13  1  0  0  0  0
  2 19  1  0  0  0  0
  3  4  1  0  0  0  0
  3 20  1  0  0  0  0
  4  5  1  0  0  0  0
  4  6  1  0  0  0  0
  4 21  1  0  0  0  0
  5 22  1  0  0  0  0
  5 23  1  0  0  0  0
  5 24  1  0  0  0  0
  6  7  1  0  0  0  0
  6  8  1  0  0  0  0
  6 25  1  0  0  0  0
  7 26  1  0  0  0  0
  7 27  1  0  0  0  0
  7 28  1  0  0  0  0
  8 12  1  0  0  0  0
  8  9  1  0  0  0  0
  9 10  2  0  0  0  0
  9 29  1  0  0  0  0
 10 11  1  0  0  0  0
 10 30  1  0  0  0  0
 11 12  2  0  0  0  0
 11 31  1  0  0  0  0
 13 14  1  0  0  0  0
 13 15  2  0  0  0  0
 14 32  1  0  0  0  0
 14 33  1  0  0  0  0
M  END
> <s_m_source_file>
AV-unprocessed.smi

> <i_m_source_file_index>
3116

> <i_lp_mmshare_version>
43012

> <i_f3d_flags>
0

> <s_epik_input>
W05IMl1DKD1PKVtDQEhdKFtDSDNdKVtOSF1bQ0BIXShbQ0gzXSlbQ0BIXShbQ0gzXSluMVtjSF1bY0hdW2NIXW4x

> <s_epik_cmdline>
J2VwaWtfcHl0aG9uJywgJy1waCcsICc3LjAnLCAnLXRuJywgJzgnLCAnLW1hJywgJzIwMCcsICctbWV0YWxfYmluZGluZycsICctaW1hZScsICc8aW5maWxlLm1hZT4nLCAnLW9tYWUnLCAnPG91dGZpbGUubWFlPic=

> <r_lp_tautomer_probability>
1

> <r_epik_Ionization_Penalty>
0.865977

> <r_epik_Ionization_Penalty_Charging>
0

> <r_epik_Ionization_Penalty_Neutral>
0.865977

> <r_epik_State_Penalty>
0.901888

> <r_epik_Charging_Adjusted_Penalty>
0.901888

> <i_epik_Tot_Q>
0

> <i_epik_Tot_abs_Q>
0

> <r_epik_Metal_State_Penalty>
0.901181

> <b_epik_Metal_Only>
0

> <s_lp_Force_Field>
OPLS_2005

> <r_lp_Energy>
9.22902

> <b_lp_Chiralities_Consistent>
1

> <s_lp_Variant>
AV-unprocessed.smi:3116-15

> <Gold.Version>
5.8.1

> <Gold.Id.Protein>
6NUR|6NUR_protein|mol2

> <Gold.PLP.Fitness>
43.0030

> <Gold.PLP.PLP>
-33.3346

> <Gold.PLP.part.hbond>
-4.0000

> <Gold.PLP.part.metal>
0.0000

> <Gold.PLP.part.buried>
-1.0861

> <Gold.PLP.part.nonpolar>
-28.3647

> <Gold.PLP.part.repulsive>
0.4207

> <Gold.PLP.ligand.clash>
0.0000

> <Gold.PLP.ligand.torsion>
0.7070

> <Gold.PLP.Chemscore.Hbond>
2.6614

> <Gold.PLP.Chemscore.CHOScore>
1.0000

> <Gold.PLP.Chemscore.Metal>
0.0000

> <Gold.Chemscore.Hbonds>
donor molecule, donor type, donor heavy atom, donor atom, acceptor molecule, acceptor atom, score
      L1  H    14    32       P1  7948  1.00
      L1  H    14    33       P1  7957  0.33
      P1  H 10752 10765       L1    15  1.00
      L1  C    11    31       P1  8028  0.01
      L1  C    11    31       P1  8029  0.58

> <Gold.PLP.Chemscore.Internal.Correction>
0.0982

> <Gold.Rescore>
     Score         DG    S(hbond)    S(metal)    S(lipo)     H(rot)  DE(clash)    DE(int)     intcor
     14.47     -16.45       2.30        0.00      80.16       2.38       0.08       1.90       ----

> <Gold.Chemscore.Fitness>
14.4659

> <Gold.Chemscore.DG>
-16.4502

> <Gold.Chemscore.ZeroCoef>
-5.4800

> <Gold.Chemscore.Hbond>
2.3033

> <Gold.Chemscore.Metal>
0.0000

> <Gold.Chemscore.Lipo>
80.1626

> <Gold.Chemscore.Internal_Hbond>
0.0000

> <Gold.Chemscore.DEClash>
0.0803

> <Gold.Chemscore.DEInternal>
1.9039

> <Gold.Chemscore.Rot>
2.3836

> <Gold.Chemscore.Internal.Correction>
   9.000000E+99

> <Gold.Chemscore.Hbonds>
donor molecule, donor type, donor heavy atom, donor atom, acceptor molecule, acceptor atom, score
      L1  H    14    32       P1  7948  0.35
      L1  H    14    33       P1  7957  0.22
      P1  H 10752 10765       L1    15  0.74

> <Gold.Chemscore.Hbond.Weighted>
-7.6931

> <Gold.Chemscore.Metal.Weighted>
-0.0000

> <Gold.Chemscore.Lipo.Weighted>
-9.3790

> <Gold.Chemscore.Internal_Hbond.Weighted>
0.0000

> <Gold.Chemscore.DEClash.Weighted>
0.0803

> <Gold.Chemscore.DEInternal.Weighted>
1.9039

> <Gold.Chemscore.Rot.Weighted>
6.1020

> <Gold.Chemscore.Internal.Correction.Weighted>
   9.000000E+99

> <Gold.Protein.RotatedTorsions>
[ 6907 6896 6895 6894 ] final  -87.69 input  -60.11 | X-H torsion
[ 7974 7965 7964 7962 ] final   84.32 input  175.53 | X-H torsion
[ 8008 7997 7996 7995 ] final  -26.00 input   59.86 | X-H torsion
[ 10167 10162 10161 10158 ] final -141.47 input  -65.29 | X-H torsion
[ 10718 10713 10712 10709 ] final   71.10 input   66.30 | X-H torsion
[ 10763 10752 10751 10750 ] final  161.81 input  -60.55 | X-H torsion
[ 11005 11000 10999 10996 ] final -104.60 input  -57.11 | X-H torsion

> <Gold.Protein.ActiveResidues>
 VAL166  LYS551  ARG553  GLY616  TRP617  ASP618  TYR619  PRO620  LYS621  CYS622 
 ASP623  PHE694  ASN695  SER759  ASP760  ASP761  ALA762  ILE779  LEU786  VAL792 
 PHE793  MET794  SER795  GLU796  ALA797  LYS798  CYS799  TRP800  GLU811  SER814 

> <Gold.Protein.RotatedAtoms>
  150.6867  134.2857  159.4645 H   0  0  0  0  0  0  0  0  0  0  0  0  # atno 6907 bound_to 6896
  152.0767  134.9496  160.0583 H   0  0  0  0  0  0  0  0  0  0  0  0  # atno 6908 bound_to 6896
  152.0864  133.4144  159.4561 H   0  0  0  0  0  0  0  0  0  0  0  0  # atno 6909 bound_to 6896
  145.6002  139.2351  143.2250 H   0  0  0  0  0  0  0  0  0  0  0  0  # atno 7974 bound_to 7965
  154.4447  140.1911  156.0707 H   0  0  0  0  0  0  0  0  0  0  0  0  # atno 8008 bound_to 7997
  156.0513  140.3308  155.7328 H   0  0  0  0  0  0  0  0  0  0  0  0  # atno 8009 bound_to 7997
  155.5552  140.0598  157.2832 H   0  0  0  0  0  0  0  0  0  0  0  0  # atno 8010 bound_to 7997
  139.8181  143.7611  152.2665 H   0  0  0  0  0  0  0  0  0  0  0  0  # atno 10167 bound_to 10162
  157.6434  130.9511  150.0742 H   0  0  0  0  0  0  0  0  0  0  0  0  # atno 10718 bound_to 10713
  154.2687  135.2766  155.2747 H   0  0  0  0  0  0  0  0  0  0  0  0  # atno 10763 bound_to 10752
  154.5320  135.5727  153.6771 H   0  0  0  0  0  0  0  0  0  0  0  0  # atno 10764 bound_to 10752
  152.9949  135.6230  154.2841 H   0  0  0  0  0  0  0  0  0  0  0  0  # atno 10765 bound_to 10752
  141.1093  133.8737  157.1631 H   0  0  0  0  0  0  0  0  0  0  0  0  # atno 11005 bound_to 11000
  146.1581  140.6828  142.9290 LP  0  0  0  0  0  0  0  0  0  0  0  0  # atno 17320 bound_to 7965
  144.7313  140.4679  143.6936 LP  0  0  0  0  0  0  0  0  0  0  0  0  # atno 17321 bound_to 7965
  139.7781  144.7454  151.0128 LP  0  0  0  0  0  0  0  0  0  0  0  0  # atno 17342 bound_to 10162
  140.7815  143.4572  151.0329 LP  0  0  0  0  0  0  0  0  0  0  0  0  # atno 17343 bound_to 10162
  156.1737  130.3647  149.9129 LP  0  0  0  0  0  0  0  0  0  0  0  0  # atno 17370 bound_to 10713
  156.7099  130.8966  151.3608 LP  0  0  0  0  0  0  0  0  0  0  0  0  # atno 17371 bound_to 10713
  139.9978  135.0040  157.0122 LP  0  0  0  0  0  0  0  0  0  0  0  0  # atno 17394 bound_to 11000
  140.4819  134.1281  155.7218 LP  0  0  0  0  0  0  0  0  0  0  0  0  # atno 17395 bound_to 11000

$$$$
