AV-unprocessed.smi:2125|AV-procd|sdf|8674|dock5
  -GOLD-   2272011423D 1   1.00000     0.00000
 Structure written by MMmdl.
 32 33  0  0  0  0  0  0  0  0  1 V2000
  153.5766  141.4441  160.6128 C   0  0  0  0  0  0  0  0  0  0  0  0
  152.6618  142.2997  159.8863 N   0  0  0  0  0  0  0  0  0  0  0  0
  152.1772  143.4784  160.5039 C   0  0  0  0  0  0  0  0  0  0  0  0
  152.5018  143.8148  161.6429 O   0  0  0  0  0  0  0  0  0  0  0  0
  151.2630  144.2585  159.6782 C   0  0  0  0  0  0  0  0  0  0  0  0
  150.9343  143.8531  158.4320 C   0  0  0  0  0  0  0  0  0  0  0  0
  151.4234  142.6965  157.8527 N   0  0  0  0  0  0  0  0  0  0  0  0
  151.0012  142.3273  156.4953 C   0  0  0  0  0  0  0  0  0  0  0  0
  149.7237  141.4767  156.4710 C   0  0  0  0  0  0  0  0  0  0  0  0
  149.7809  140.2496  156.5628 O   0  0  0  0  0  0  0  0  0  0  0  0
  148.5699  142.1527  156.3672 N   0  0  0  0  0  0  0  0  0  0  0  0
  147.2455  141.5458  156.3474 C   0  0  0  0  0  0  0  0  0  0  0  0
  146.5742  141.5217  154.9871 C   0  0  0  0  0  0  0  0  0  0  0  0
  147.3782  141.6580  153.7141 C   0  0  0  0  0  0  0  0  0  0  0  0
  146.4779  142.7834  154.1614 C   0  0  0  0  0  0  0  0  0  0  0  0
  152.3124  141.8805  158.5840 C   0  0  0  0  0  0  0  0  0  0  0  0
  152.7613  140.8406  158.0947 O   0  0  0  0  0  0  0  0  0  0  0  0
  153.7957  141.8440  161.6021 H   0  0  0  0  0  0  0  0  0  0  0  0
  154.4959  141.3829  160.0275 H   0  0  0  0  0  0  0  0  0  0  0  0
  153.0987  140.4673  160.7069 H   0  0  0  0  0  0  0  0  0  0  0  0
  150.8427  145.1729  160.0702 H   0  0  0  0  0  0  0  0  0  0  0  0
  150.2500  144.4647  157.8619 H   0  0  0  0  0  0  0  0  0  0  0  0
  150.8208  143.2274  155.9063 H   0  0  0  0  0  0  0  0  0  0  0  0
  151.8066  141.7978  155.9829 H   0  0  0  0  0  0  0  0  0  0  0  0
  148.6126  143.1593  156.2991 H   0  0  0  0  0  0  0  0  0  0  0  0
  147.3512  140.5165  156.6906 H   0  0  0  0  0  0  0  0  0  0  0  0
  146.5958  142.0425  157.0706 H   0  0  0  0  0  0  0  0  0  0  0  0
  145.7037  140.8698  154.9406 H   0  0  0  0  0  0  0  0  0  0  0  0
  148.4523  141.8076  153.8052 H   0  0  0  0  0  0  0  0  0  0  0  0
  147.0614  141.0685  152.8562 H   0  0  0  0  0  0  0  0  0  0  0  0
  145.5605  142.9470  153.5994 H   0  0  0  0  0  0  0  0  0  0  0  0
  146.9541  143.6819  154.5494 H   0  0  0  0  0  0  0  0  0  0  0  0
  1  2  1  0  0  0  0
  1 18  1  0  0  0  0
  1 19  1  0  0  0  0
  1 20  1  0  0  0  0
  2 16  1  0  0  0  0
  2  3  1  0  0  0  0
  3  4  2  0  0  0  0
  3  5  1  0  0  0  0
  5  6  2  0  0  0  0
  5 21  1  0  0  0  0
  6  7  1  0  0  0  0
  6 22  1  0  0  0  0
  7  8  1  0  0  0  0
  7 16  1  0  0  0  0
  8  9  1  0  0  0  0
  8 23  1  0  0  0  0
  8 24  1  0  0  0  0
  9 10  2  0  0  0  0
  9 11  1  0  0  0  0
 11 12  1  0  0  0  0
 11 25  1  0  0  0  0
 12 13  1  0  0  0  0
 12 26  1  0  0  0  0
 12 27  1  0  0  0  0
 13 15  1  0  0  0  0
 13 14  1  0  0  0  0
 13 28  1  0  0  0  0
 14 15  1  0  0  0  0
 14 29  1  0  0  0  0
 14 30  1  0  0  0  0
 15 31  1  0  0  0  0
 15 32  1  0  0  0  0
 16 17  2  0  0  0  0
M  END
> <s_m_source_file>
AV-unprocessed.smi

> <i_m_source_file_index>
2125

> <i_lp_mmshare_version>
43012

> <i_f3d_flags>
0

> <s_epik_input>
W0NIM11uMWMoPU8pW2NIXVtjSF1uKGMxPU8pW0NIMl1DKD1PKVtOSF1bQ0gyXVtDSF0yW0NIMl1bQ0gyXTI=

> <s_epik_cmdline>
J2VwaWtfcHl0aG9uJywgJy1waCcsICc3LjAnLCAnLXRuJywgJzgnLCAnLW1hJywgJzIwMCcsICctbWV0YWxfYmluZGluZycsICctaW1hZScsICc8aW5maWxlLm1hZT4nLCAnLW9tYWUnLCAnPG91dGZpbGUubWFlPic=

> <r_lp_tautomer_probability>
1

> <r_epik_Ionization_Penalty>
3.09839e-08

> <r_epik_Ionization_Penalty_Charging>
1.16822e-08

> <r_epik_Ionization_Penalty_Neutral>
1.93017e-08

> <r_epik_State_Penalty>
-0

> <r_epik_Charging_Adjusted_Penalty>
1.16822e-08

> <i_epik_Tot_Q>
0

> <i_epik_Tot_abs_Q>
0

> <r_epik_Metal_State_Penalty>
-0

> <b_epik_Metal_Only>
0

> <s_lp_Force_Field>
OPLS_2005

> <r_lp_Energy>
19.7621

> <b_lp_Chiralities_Consistent>
1

> <s_lp_Variant>
AV-unprocessed.smi:2125-1

> <Gold.Version>
5.8.1

> <Gold.Id.Protein>
6NUR|6NUR_protein|mol2

> <Gold.PLP.Fitness>
42.1005

> <Gold.PLP.PLP>
-36.7161

> <Gold.PLP.part.hbond>
-1.9148

> <Gold.PLP.part.metal>
0.0000

> <Gold.PLP.part.buried>
-3.8936

> <Gold.PLP.part.nonpolar>
-29.5959

> <Gold.PLP.part.repulsive>
0.1821

> <Gold.PLP.ligand.clash>
0.0000

> <Gold.PLP.ligand.torsion>
1.1320

> <Gold.PLP.Chemscore.Hbond>
1.2907

> <Gold.PLP.Chemscore.CHOScore>
1.0784

> <Gold.PLP.Chemscore.Metal>
0.0000

> <Gold.Chemscore.Hbonds>
donor molecule, donor type, donor heavy atom, donor atom, acceptor molecule, acceptor atom, score
      L1  H    11    25       P1  8028  1.00
      P1  H  7997  8008       L1    17  0.33
      L1  C     6    22       P1  8028  0.88
      L1  C     6    22       P1  8029  0.10

> <Gold.PLP.Chemscore.Internal.Correction>
0.5411

> <Gold.Rescore>
     Score         DG    S(hbond)    S(metal)    S(lipo)     H(rot)  DE(clash)    DE(int)     intcor
     12.69     -13.98       1.86        0.00      59.32       1.81       0.21       1.08       ----

> <Gold.Chemscore.Fitness>
12.6900

> <Gold.Chemscore.DG>
-13.9800

> <Gold.Chemscore.ZeroCoef>
-5.4800

> <Gold.Chemscore.Hbond>
1.8551

> <Gold.Chemscore.Metal>
0.0000

> <Gold.Chemscore.Lipo>
59.3224

> <Gold.Chemscore.Internal_Hbond>
0.0000

> <Gold.Chemscore.DEClash>
0.2100

> <Gold.Chemscore.DEInternal>
1.0800

> <Gold.Chemscore.Rot>
1.8112

> <Gold.Chemscore.Internal.Correction>
   9.000000E+99

> <Gold.Chemscore.Hbonds>
donor molecule, donor type, donor heavy atom, donor atom, acceptor molecule, acceptor atom, score
      L1  H    11    25       P1  8028  0.92
      P1  H  7997  8008       L1    17  0.34

> <Gold.Chemscore.Hbond.Weighted>
-6.1960

> <Gold.Chemscore.Metal.Weighted>
-0.0000

> <Gold.Chemscore.Lipo.Weighted>
-6.9407

> <Gold.Chemscore.Internal_Hbond.Weighted>
0.0000

> <Gold.Chemscore.DEClash.Weighted>
0.2100

> <Gold.Chemscore.DEInternal.Weighted>
1.0800

> <Gold.Chemscore.Rot.Weighted>
4.6367

> <Gold.Chemscore.Internal.Correction.Weighted>
   9.000000E+99

> <Gold.Protein.RotatedTorsions>
[ 6907 6896 6895 6894 ] final  -13.99 input  -60.11 | X-H torsion
[ 7974 7965 7964 7962 ] final  -38.06 input  175.53 | X-H torsion
[ 8008 7997 7996 7995 ] final  -75.13 input   59.86 | X-H torsion
[ 10167 10162 10161 10158 ] final  -35.37 input  -65.29 | X-H torsion
[ 10718 10713 10712 10709 ] final -162.59 input   66.30 | X-H torsion
[ 10763 10752 10751 10750 ] final  -46.67 input  -60.55 | X-H torsion
[ 11005 11000 10999 10996 ] final   12.74 input  -57.11 | X-H torsion

> <Gold.Protein.ActiveResidues>
 VAL166  LYS551  ARG553  GLY616  TRP617  ASP618  TYR619  PRO620  LYS621  CYS622 
 ASP623  PHE694  ASN695  SER759  ASP760  ASP761  ALA762  ILE779  LEU786  VAL792 
 PHE793  MET794  SER795  GLU796  ALA797  LYS798  CYS799  TRP800  GLU811  SER814 

> <Gold.Protein.RotatedAtoms>
  151.3463  135.0875  159.9387 H   0  0  0  0  0  0  0  0  0  0  0  0  # atno 6907 bound_to 6896
  152.5198  133.9396  159.7630 H   0  0  0  0  0  0  0  0  0  0  0  0  # atno 6908 bound_to 6896
  150.9763  133.6238  159.2759 H   0  0  0  0  0  0  0  0  0  0  0  0  # atno 6909 bound_to 6896
  146.0520  140.6468  142.9037 H   0  0  0  0  0  0  0  0  0  0  0  0  # atno 7974 bound_to 7965
  154.5390  140.0749  156.8478 H   0  0  0  0  0  0  0  0  0  0  0  0  # atno 8008 bound_to 7997
  155.3219  140.3396  155.4223 H   0  0  0  0  0  0  0  0  0  0  0  0  # atno 8009 bound_to 7997
  156.1856  140.1668  156.8177 H   0  0  0  0  0  0  0  0  0  0  0  0  # atno 8010 bound_to 7997
  140.7166  143.3482  151.2212 H   0  0  0  0  0  0  0  0  0  0  0  0  # atno 10167 bound_to 10162
  156.6126  130.8857  151.2940 H   0  0  0  0  0  0  0  0  0  0  0  0  # atno 10718 bound_to 10713
  154.0489  135.6634  153.4798 H   0  0  0  0  0  0  0  0  0  0  0  0  # atno 10763 bound_to 10752
  153.0472  135.5107  154.7770 H   0  0  0  0  0  0  0  0  0  0  0  0  # atno 10764 bound_to 10752
  154.6770  135.3039  154.9631 H   0  0  0  0  0  0  0  0  0  0  0  0  # atno 10765 bound_to 10752
  140.4885  134.0864  155.7766 H   0  0  0  0  0  0  0  0  0  0  0  0  # atno 11005 bound_to 11000
  144.7128  140.4100  143.7067 LP  0  0  0  0  0  0  0  0  0  0  0  0  # atno 17320 bound_to 7965
  145.6708  139.1599  143.2756 LP  0  0  0  0  0  0  0  0  0  0  0  0  # atno 17321 bound_to 7965
  139.7006  143.9539  152.2903 LP  0  0  0  0  0  0  0  0  0  0  0  0  # atno 17342 bound_to 10162
  139.9231  144.6787  150.8441 LP  0  0  0  0  0  0  0  0  0  0  0  0  # atno 17343 bound_to 10162
  157.7250  130.9610  150.1596 LP  0  0  0  0  0  0  0  0  0  0  0  0  # atno 17370 bound_to 10713
  156.2377  130.3688  149.8372 LP  0  0  0  0  0  0  0  0  0  0  0  0  # atno 17371 bound_to 10713
  141.1496  133.8993  157.2132 LP  0  0  0  0  0  0  0  0  0  0  0  0  # atno 17394 bound_to 11000
  139.9783  135.0106  156.9686 LP  0  0  0  0  0  0  0  0  0  0  0  0  # atno 17395 bound_to 11000

$$$$
