AV-unprocessed.smi:1554|AV-procd|sdf|6258|dock1
  -GOLD-   22720 6443D 1   1.00000     0.00000
 Structure written by MMmdl.
 49 51  0  0  0  0  0  0  0  0  3 V2000
  152.0866  145.9594  160.0803 C   0  0  0  0  0  0  0  0  0  0  0  0
  151.8545  144.5499  159.5626 C   0  0  0  0  0  0  0  0  0  0  0  0
  151.2940  144.3879  158.2753 C   0  0  0  0  0  0  0  0  0  0  0  0
  151.0985  143.0866  157.8279 C   0  0  0  0  0  0  0  0  0  0  0  0
  150.5785  142.5988  156.6270 N   0  3  0  0  0  0  0  0  0  0  0  0
  150.5890  141.2371  156.6463 C   0  0  0  0  0  0  0  0  0  0  0  0
  151.1109  140.8482  157.8418 N   0  0  0  0  0  0  0  0  0  0  0  0
  151.3559  139.5021  158.3769 C   0  0  0  0  0  0  0  0  0  0  0  0
  152.8364  139.2659  158.7358 C   0  0  2  0  0  0  0  0  0  0  0  0
  153.5316  138.8441  157.5781 O   0  0  0  0  0  0  0  0  0  0  0  0
  153.0025  138.2006  159.8378 C   0  0  0  0  0  0  0  0  0  0  0  0
  154.2873  138.3418  160.5760 N   0  3  2  0  0  0  0  0  0  0  0  0
  155.3501  137.4202  160.1057 C   0  0  0  0  0  0  0  0  0  0  0  0
  155.1374  135.9987  160.6561 C   0  0  0  0  0  0  0  0  0  0  0  0
  155.0907  136.0445  162.0771 O   0  0  0  0  0  0  0  0  0  0  0  0
  154.0097  136.8334  162.5626 C   0  0  1  0  0  0  0  0  0  0  0  0
  154.0127  136.7567  164.0931 C   0  0  0  0  0  0  0  0  0  0  0  0
  154.1686  138.2840  162.0563 C   0  0  0  0  0  0  0  0  0  0  0  0
  151.4387  141.9682  158.6131 C   0  0  0  0  0  0  0  0  0  0  0  0
  151.9880  142.1096  159.8850 C   0  0  0  0  0  0  0  0  0  0  0  0
  152.1960  143.4250  160.3576 C   0  0  0  0  0  0  0  0  0  0  0  0
  152.7959  143.6109  161.7410 C   0  0  0  0  0  0  0  0  0  0  0  0
  151.7607  146.7086  159.3583 H   0  0  0  0  0  0  0  0  0  0  0  0
  153.1463  146.1247  160.2763 H   0  0  0  0  0  0  0  0  0  0  0  0
  151.5331  146.1245  161.0048 H   0  0  0  0  0  0  0  0  0  0  0  0
  151.0310  145.2397  157.6651 H   0  0  0  0  0  0  0  0  0  0  0  0
  150.2498  140.5854  155.8538 H   0  0  0  0  0  0  0  0  0  0  0  0
  150.7141  139.3592  159.2472 H   0  0  0  0  0  0  0  0  0  0  0  0
  151.0246  138.7831  157.6261 H   0  0  0  0  0  0  0  0  0  0  0  0
  153.2691  140.2114  159.0591 H   0  0  0  0  0  0  0  0  0  0  0  0
  152.9066  138.5075  156.9538 H   0  0  0  0  0  0  0  0  0  0  0  0
  152.1662  138.2457  160.5354 H   0  0  0  0  0  0  0  0  0  0  0  0
  152.9505  137.2147  159.3732 H   0  0  0  0  0  0  0  0  0  0  0  0
  155.4029  137.4128  159.0165 H   0  0  0  0  0  0  0  0  0  0  0  0
  156.3116  137.7996  160.4544 H   0  0  0  0  0  0  0  0  0  0  0  0
  154.2241  135.5521  160.2604 H   0  0  0  0  0  0  0  0  0  0  0  0
  155.9622  135.3536  160.3533 H   0  0  0  0  0  0  0  0  0  0  0  0
  153.0707  136.4089  162.2054 H   0  0  0  0  0  0  0  0  0  0  0  0
  153.1899  137.3334  164.5166 H   0  0  0  0  0  0  0  0  0  0  0  0
  154.9429  137.1463  164.5076 H   0  0  0  0  0  0  0  0  0  0  0  0
  153.9037  135.7260  164.4314 H   0  0  0  0  0  0  0  0  0  0  0  0
  155.0770  138.7154  162.4795 H   0  0  0  0  0  0  0  0  0  0  0  0
  153.3475  138.9051  162.4116 H   0  0  0  0  0  0  0  0  0  0  0  0
  152.2482  141.2536  160.4895 H   0  0  0  0  0  0  0  0  0  0  0  0
  153.0121  142.6527  162.2145 H   0  0  0  0  0  0  0  0  0  0  0  0
  152.1056  144.1533  162.3874 H   0  0  0  0  0  0  0  0  0  0  0  0
  153.7294  144.1712  161.6825 H   0  0  0  0  0  0  0  0  0  0  0  0
  154.6123  139.2715  160.3494 H   0  0  0  0  0  0  0  0  0  0  0  0
  150.2424  143.1524  155.8490 H   0  0  0  0  0  0  0  0  0  0  0  0
  1  2  1  0  0  0  0
  1 23  1  0  0  0  0
  1 24  1  0  0  0  0
  1 25  1  0  0  0  0
  2 21  1  0  0  0  0
  2  3  2  0  0  0  0
  3  4  1  0  0  0  0
  3 26  1  0  0  0  0
  4 19  2  0  0  0  0
  4  5  1  0  0  0  0
  5  6  2  0  0  0  0
  5 49  1  0  0  0  0
  6  7  1  0  0  0  0
  6 27  1  0  0  0  0
  7  8  1  0  0  0  0
  7 19  1  0  0  0  0
  8  9  1  0  0  0  0
  8 28  1  0  0  0  0
  8 29  1  0  0  0  0
  9 10  1  0  0  0  0
  9 11  1  0  0  0  0
  9 30  1  0  0  0  0
 10 31  1  0  0  0  0
 11 12  1  0  0  0  0
 11 32  1  0  0  0  0
 11 33  1  0  0  0  0
 12 18  1  0  0  0  0
 12 13  1  0  0  0  0
 12 48  1  0  0  0  0
 13 14  1  0  0  0  0
 13 34  1  0  0  0  0
 13 35  1  0  0  0  0
 14 15  1  0  0  0  0
 14 36  1  0  0  0  0
 14 37  1  0  0  0  0
 15 16  1  0  0  0  0
 16 17  1  0  0  0  0
 16 18  1  0  0  0  0
 16 38  1  0  0  0  0
 17 39  1  0  0  0  0
 17 40  1  0  0  0  0
 17 41  1  0  0  0  0
 18 42  1  0  0  0  0
 18 43  1  0  0  0  0
 19 20  1  0  0  0  0
 20 21  2  0  0  0  0
 20 44  1  0  0  0  0
 21 22  1  0  0  0  0
 22 45  1  0  0  0  0
 22 46  1  0  0  0  0
 22 47  1  0  0  0  0
M  CHG  1   5   1
M  CHG  1  12   1
M  END
> <s_m_source_file>
AV-unprocessed.smi

> <i_m_source_file_index>
1554

> <i_lp_mmshare_version>
43012

> <i_f3d_flags>
0

> <s_epik_input>
W0NIM11jKFtjSF0xKWMoW0NIM10pW2NIXWMoYzEyKW4oW2NIXW4yKVtDSDJdW0NASF0oW09IXSlbQ0gyXU4zW0NIMl1bQ0gyXU9bQ0BASF0oW0NIM10pW0NIMl0z

> <s_epik_cmdline>
J2VwaWtfcHl0aG9uJywgJy1waCcsICc3LjAnLCAnLXRuJywgJzgnLCAnLW1hJywgJzIwMCcsICctbWV0YWxfYmluZGluZycsICctaW1hZScsICc8aW5maWxlLm1hZT4nLCAnLW9tYWUnLCAnPG91dGZpbGUubWFlPic=

> <r_epik_Ionization_Penalty>
1.8848

> <r_epik_Ionization_Penalty_Charging>
1.88479

> <r_epik_Ionization_Penalty_Neutral>
1.42224e-05

> <r_epik_State_Penalty>
1.94551

> <r_epik_Charging_Adjusted_Penalty>
3.8303

> <i_epik_Tot_Q>
2

> <i_epik_Tot_abs_Q>
2

> <r_epik_Metal_State_Penalty>
5.95849

> <b_epik_Metal_Only>
0

> <s_lp_Force_Field>
OPLS_2005

> <r_lp_Energy>
31.481

> <b_lp_Chiralities_Consistent>
1

> <s_lp_Variant>
AV-unprocessed.smi:1554-19

> <Gold.Version>
5.8.1

> <Gold.Id.Protein>
6NUR|6NUR_protein|mol2

> <Gold.PLP.Fitness>
51.5625

> <Gold.PLP.PLP>
-46.0964

> <Gold.PLP.part.hbond>
-2.0000

> <Gold.PLP.part.metal>
0.0000

> <Gold.PLP.part.buried>
-7.1134

> <Gold.PLP.part.nonpolar>
-38.8121

> <Gold.PLP.part.repulsive>
0.0587

> <Gold.PLP.ligand.clash>
0.0000

> <Gold.PLP.ligand.torsion>
1.1374

> <Gold.PLP.Chemscore.Hbond>
2.5680

> <Gold.PLP.Chemscore.CHOScore>
0.0000

> <Gold.PLP.Chemscore.Metal>
0.0000

> <Gold.Chemscore.Hbonds>
donor molecule, donor type, donor heavy atom, donor atom, acceptor molecule, acceptor atom, score
      L1  H     5    49       P1  8028  1.21
      P1  H  7997  8010       L1    10  1.00

> <Gold.PLP.Chemscore.Internal.Correction>
0.0370

> <Gold.Rescore>
     Score         DG    S(hbond)    S(metal)    S(lipo)     H(rot)  DE(clash)    DE(int)     intcor
     20.35     -21.71       1.91        0.00     130.30       2.11       0.12       1.24       ----

> <Gold.Chemscore.Fitness>
20.3523

> <Gold.Chemscore.DG>
-21.7134

> <Gold.Chemscore.ZeroCoef>
-5.4800

> <Gold.Chemscore.Hbond>
1.9150

> <Gold.Chemscore.Metal>
0.0000

> <Gold.Chemscore.Lipo>
130.2970

> <Gold.Chemscore.Internal_Hbond>
0.0000

> <Gold.Chemscore.DEClash>
0.1171

> <Gold.Chemscore.DEInternal>
1.2441

> <Gold.Chemscore.Rot>
2.1122

> <Gold.Chemscore.Internal.Correction>
   9.000000E+99

> <Gold.Chemscore.Hbonds>
donor molecule, donor type, donor heavy atom, donor atom, acceptor molecule, acceptor atom, score
      L1  H     5    49       P1  8028  0.60
      P1  H  7997  8010       L1    10  0.69

> <Gold.Chemscore.Hbond.Weighted>
-6.3960

> <Gold.Chemscore.Metal.Weighted>
-0.0000

> <Gold.Chemscore.Lipo.Weighted>
-15.2447

> <Gold.Chemscore.Internal_Hbond.Weighted>
0.0000

> <Gold.Chemscore.DEClash.Weighted>
0.1171

> <Gold.Chemscore.DEInternal.Weighted>
1.2441

> <Gold.Chemscore.Rot.Weighted>
5.4073

> <Gold.Chemscore.Internal.Correction.Weighted>
   9.000000E+99

> <Gold.Protein.RotatedTorsions>
[ 6907 6896 6895 6894 ] final   52.41 input  -60.11 | X-H torsion
[ 7974 7965 7964 7962 ] final  -50.90 input  175.53 | X-H torsion
[ 8008 7997 7996 7995 ] final   44.43 input   59.86 | X-H torsion
[ 10167 10162 10161 10158 ] final  -56.09 input  -65.29 | X-H torsion
[ 10718 10713 10712 10709 ] final -175.11 input   66.30 | X-H torsion
[ 10763 10752 10751 10750 ] final   40.03 input  -60.55 | X-H torsion
[ 11005 11000 10999 10996 ] final  -99.49 input  -57.11 | X-H torsion

> <Gold.Protein.ActiveResidues>
 VAL166  LYS551  ARG553  GLY616  TRP617  ASP618  TYR619  PRO620  LYS621  CYS622 
 ASP623  PHE694  ASN695  SER759  ASP760  ASP761  ALA762  ILE779  LEU786  VAL792 
 PHE793  MET794  SER795  GLU796  ALA797  LYS798  CYS799  TRP800  GLU811  SER814 

> <Gold.Protein.RotatedAtoms>
  152.3229  134.7357  160.0308 H   0  0  0  0  0  0  0  0  0  0  0  0  # atno 6907 bound_to 6896
  151.7799  133.3343  159.3476 H   0  0  0  0  0  0  0  0  0  0  0  0  # atno 6908 bound_to 6896
  150.7380  134.5871  159.6013 H   0  0  0  0  0  0  0  0  0  0  0  0  # atno 6909 bound_to 6896
  145.9248  140.7802  142.9629 H   0  0  0  0  0  0  0  0  0  0  0  0  # atno 7974 bound_to 7965
  155.3192  140.3396  155.4241 H   0  0  0  0  0  0  0  0  0  0  0  0  # atno 8008 bound_to 7997
  156.1918  140.1700  156.8115 H   0  0  0  0  0  0  0  0  0  0  0  0  # atno 8009 bound_to 7997
  154.5450  140.0717  156.8558 H   0  0  0  0  0  0  0  0  0  0  0  0  # atno 8010 bound_to 7997
  140.6337  143.2472  151.5174 H   0  0  0  0  0  0  0  0  0  0  0  0  # atno 10167 bound_to 10162
  156.7951  130.9532  151.3120 H   0  0  0  0  0  0  0  0  0  0  0  0  # atno 10718 bound_to 10713
  152.9949  135.6203  154.2560 H   0  0  0  0  0  0  0  0  0  0  0  0  # atno 10763 bound_to 10752
  154.2298  135.2792  155.2896 H   0  0  0  0  0  0  0  0  0  0  0  0  # atno 10764 bound_to 10752
  154.5459  135.5747  153.6938 H   0  0  0  0  0  0  0  0  0  0  0  0  # atno 10765 bound_to 10752
  141.1306  133.8325  157.0978 H   0  0  0  0  0  0  0  0  0  0  0  0  # atno 11005 bound_to 11000
  144.6757  140.2033  143.7385 LP  0  0  0  0  0  0  0  0  0  0  0  0  # atno 17320 bound_to 7965
  145.8503  139.2172  143.1776 LP  0  0  0  0  0  0  0  0  0  0  0  0  # atno 17321 bound_to 7965
  139.5549  144.2301  152.1595 LP  0  0  0  0  0  0  0  0  0  0  0  0  # atno 17342 bound_to 10162
  140.1551  144.5078  150.6664 LP  0  0  0  0  0  0  0  0  0  0  0  0  # atno 17343 bound_to 10162
  157.6582  130.8942  149.9772 LP  0  0  0  0  0  0  0  0  0  0  0  0  # atno 17370 bound_to 10713
  156.1135  130.3649  150.0008 LP  0  0  0  0  0  0  0  0  0  0  0  0  # atno 17371 bound_to 10713
  140.0352  134.9882  157.0857 LP  0  0  0  0  0  0  0  0  0  0  0  0  # atno 17394 bound_to 11000
  140.4222  134.1869  155.7165 LP  0  0  0  0  0  0  0  0  0  0  0  0  # atno 17395 bound_to 11000

$$$$
