#       Name:                AV-unprocessed.smi:3274
#       Creating user name   scv26
#       Creation time:       Fri Mar 27 18:43:55 2020


#       File generated by GOLD software.
#

@<TRIPOS>MOLECULE
AV-unprocessed.smi:3274
    45    46     1
SMALL
NO_CHARGES


@<TRIPOS>ATOM
      1 ****         0.8409   2.2847   1.8685 C.3            1 S1                 0.0000
      2 ****        -0.4982   2.1678   1.1591 C.2            1 S1                 0.0000
      3 ****        -1.5051   2.9977   1.4929 C.2            1 S1                 0.0000
      4 ****        -2.8517   3.0240   0.8072 C.3            1 S1                 0.0000
      5 ****        -2.7767   2.3788  -0.5785 C.3            1 S1                 0.0000
      6 ****        -2.0846   1.0075  -0.5211 C.3            1 S1                 0.0000
      7 ****        -2.1295   0.3514  -1.9153 C.3            1 S1                 0.0000
      8 ****        -0.6367   1.1017   0.0529 C.3            1 S1                 0.0000
      9 ****        -0.1480  -0.3006   0.5008 C.3            1 S1                 0.0000
     10 ****         1.3260  -0.3994   0.5773 N.4            1 S1                 1.0000
     11 ****         1.8481  -1.7503   0.8834 C.3            1 S1                 0.0000
     12 ****         2.8975  -1.6490   1.9982 C.3            1 S1                 0.0000
     13 ****         2.4469  -2.4123  -0.3753 C.3            1 S1                 0.0000
     14 ****         1.4679  -2.6105  -1.4287 N.pl3          1 S1                 0.0000
     15 ****         0.5890  -3.5944  -1.6252 C.2            1 S1                 0.0000
     16 ****        -0.1653  -3.4291  -2.7026 N.2            1 S1                 0.0000
     17 ****         0.3434  -2.2467  -3.1606 C.2            1 S1                 0.0000
     18 ****         1.3201  -1.7100  -2.4290 N.2            1 S1                 0.0000
     19 ****         1.6519   2.3614   1.1438 H              1 S1                 0.0000
     20 ****         1.0182   1.4230   2.5119 H              1 S1                 0.0000
     21 ****         0.8786   3.1732   2.4996 H              1 S1                 0.0000
     22 ****        -1.3712   3.7153   2.2896 H              1 S1                 0.0000
     23 ****        -3.5756   2.5069   1.4379 H              1 S1                 0.0000
     24 ****        -3.1867   4.0575   0.7150 H              1 S1                 0.0000
     25 ****        -3.7839   2.2831  -0.9859 H              1 S1                 0.0000
     26 ****        -2.2303   3.0350  -1.2577 H              1 S1                 0.0000
     27 ****        -2.6757   0.3859   0.1536 H              1 S1                 0.0000
     28 ****        -1.5126   0.8962  -2.6307 H              1 S1                 0.0000
     29 ****        -3.1474   0.3355  -2.3060 H              1 S1                 0.0000
     30 ****        -1.7869  -0.6814  -1.8998 H              1 S1                 0.0000
     31 ****         0.0083   1.4418  -0.7591 H              1 S1                 0.0000
     32 ****        -0.5810  -0.5548   1.4692 H              1 S1                 0.0000
     33 ****        -0.4892  -1.0666  -0.1921 H              1 S1                 0.0000
     34 ****         1.7205  -0.0977  -0.3025 H              1 S1                 0.0000
     35 ****         1.0359  -2.3751   1.2591 H              1 S1                 0.0000
     36 ****         3.2774  -2.6342   2.2704 H              1 S1                 0.0000
     37 ****         2.4734  -1.2011   2.8976 H              1 S1                 0.0000
     38 ****         3.7475  -1.0384   1.6911 H              1 S1                 0.0000
     39 ****         3.2719  -1.8155  -0.7681 H              1 S1                 0.0000
     40 ****         2.8642  -3.3875  -0.1210 H              1 S1                 0.0000
     41 ****         0.4939  -4.4441  -0.9647 H              1 S1                 0.0000
     42 ****        -0.0232  -1.7627  -4.0538 H              1 S1                 0.0000
     43 ****         1.6372   0.2331   1.3006 H              1 S1                 0.0000
     44 ****        -0.8953  -4.0035  -3.0730 LP             1 S1                 0.0000
     45 ****         1.8186  -0.8565  -2.5809 LP             1 S1                 0.0000
@<TRIPOS>BOND
    1    1    2 1     
    2    1   19 1     
    3    1   20 1     
    4    1   21 1     
    5    2    8 1     
    6    2    3 2     
    7    3    4 1     
    8    3   22 1     
    9    4    5 1     
   10    4   23 1     
   11    4   24 1     
   12    5    6 1     
   13    5   25 1     
   14    5   26 1     
   15    6    7 1     
   16    6    8 1     
   17    6   27 1     
   18    7   28 1     
   19    7   29 1     
   20    7   30 1     
   21    8    9 1     
   22    8   31 1     
   23    9   10 1     
   24    9   32 1     
   25    9   33 1     
   26   10   11 1     
   27   10   34 1     
   28   10   43 1     
   29   11   12 1     
   30   11   13 1     
   31   11   35 1     
   32   12   36 1     
   33   12   37 1     
   34   12   38 1     
   35   13   14 1     
   36   13   39 1     
   37   13   40 1     
   38   14   18 1     
   39   14   15 1     
   40   15   16 2     
   41   15   41 1     
   42   16   17 1     
   43   17   18 2     
   44   17   42 1     
   45   16   44 1     
   46   18   45 1     
@<TRIPOS>SUBSTRUCTURE
      1 S1             1
@<TRIPOS>SET
LONE_PAIRS      STATIC     ATOMS    <user>   **** ""
2 44 45
DONOR_HYDROGENS      STATIC     ATOMS    <user>   **** ""
2 34 43
ATOM$BLUE        STATIC     ATOMS    COLORGROUP SYSTEM
2 44 45
ATOM$RED        STATIC     ATOMS    COLORGROUP SYSTEM
2 34 43
