AV-unprocessed.smi:3045|AV-procd|sdf|11612|dock5
  -GOLD-   2272016593D 1   1.00000     0.00000
 Structure written by MMmdl.
 36 37  0  0  0  0  0  0  0  0  2 V2000
  151.9007  144.1855  158.8181 C   0  0  0  0  0  0  0  0  0  0  0  0
  152.6022  143.2805  159.7183 N   0  0  0  0  0  0  0  0  0  0  0  0
  153.8431  142.6366  159.3214 C   0  0  0  0  0  0  0  0  0  0  0  0
  154.1578  141.6229  160.4440 C   0  0  2  0  0  0  0  0  0  0  0  0
  153.9459  140.1658  160.0060 C   0  0  0  0  0  0  0  0  0  0  0  0
  153.6973  139.9026  158.8287 O   0  0  0  0  0  0  0  0  0  0  0  0
  154.0214  139.2332  160.9690 N   0  0  0  0  0  0  0  0  0  0  0  0
  153.7895  137.8022  160.7849 C   0  0  0  0  0  0  0  0  0  0  0  0
  155.0739  136.9683  160.9699 C   0  0  0  0  0  0  0  0  0  0  0  0
  155.0500  136.0702  162.1955 C   0  0  0  0  0  0  0  0  0  0  0  0
  155.4617  134.7212  162.1111 C   0  0  0  0  0  0  0  0  0  0  0  0
  155.4631  133.9243  163.2748 C   0  0  0  0  0  0  0  0  0  0  0  0
  155.0519  134.4936  164.4973 C   0  0  0  0  0  0  0  0  0  0  0  0
  154.6596  135.7857  164.5386 N   0  3  0  0  0  0  0  0  0  0  0  0
  154.6413  136.5811  163.4467 C   0  0  0  0  0  0  0  0  0  0  0  0
  153.2034  141.9948  161.5967 C   0  0  0  0  0  0  0  0  0  0  0  0
  152.2330  142.9794  160.9662 C   0  0  0  0  0  0  0  0  0  0  0  0
  151.2421  143.4089  161.5546 O   0  0  0  0  0  0  0  0  0  0  0  0
  151.9201  145.2030  159.2099 H   0  0  0  0  0  0  0  0  0  0  0  0
  150.8597  143.8812  158.7013 H   0  0  0  0  0  0  0  0  0  0  0  0
  152.3621  144.1939  157.8302 H   0  0  0  0  0  0  0  0  0  0  0  0
  153.7400  142.1715  158.3393 H   0  0  0  0  0  0  0  0  0  0  0  0
  154.6301  143.3882  159.2475 H   0  0  0  0  0  0  0  0  0  0  0  0
  155.1935  141.7493  160.7645 H   0  0  0  0  0  0  0  0  0  0  0  0
  154.2372  139.5405  161.9065 H   0  0  0  0  0  0  0  0  0  0  0  0
  153.0099  137.4510  161.4630 H   0  0  0  0  0  0  0  0  0  0  0  0
  153.4019  137.6509  159.7773 H   0  0  0  0  0  0  0  0  0  0  0  0
  155.2344  136.3466  160.0884 H   0  0  0  0  0  0  0  0  0  0  0  0
  155.9361  137.6339  161.0301 H   0  0  0  0  0  0  0  0  0  0  0  0
  155.7857  134.3025  161.1695 H   0  0  0  0  0  0  0  0  0  0  0  0
  155.7810  132.8929  163.2310 H   0  0  0  0  0  0  0  0  0  0  0  0
  155.0268  133.9593  165.4358 H   0  0  0  0  0  0  0  0  0  0  0  0
  154.3196  137.5996  163.6095 H   0  0  0  0  0  0  0  0  0  0  0  0
  152.6642  141.1432  162.0144 H   0  0  0  0  0  0  0  0  0  0  0  0
  153.7405  142.4850  162.4092 H   0  0  0  0  0  0  0  0  0  0  0  0
  154.3685  136.1793  165.4338 H   0  0  0  0  0  0  0  0  0  0  0  0
  1  2  1  0  0  0  0
  1 19  1  0  0  0  0
  1 20  1  0  0  0  0
  1 21  1  0  0  0  0
  2 17  1  0  0  0  0
  2  3  1  0  0  0  0
  3  4  1  0  0  0  0
  3 22  1  0  0  0  0
  3 23  1  0  0  0  0
  4  5  1  0  0  0  0
  4 16  1  0  0  0  0
  4 24  1  0  0  0  0
  5  6  2  0  0  0  0
  5  7  1  0  0  0  0
  7  8  1  0  0  0  0
  7 25  1  0  0  0  0
  8  9  1  0  0  0  0
  8 26  1  0  0  0  0
  8 27  1  0  0  0  0
  9 10  1  0  0  0  0
  9 28  1  0  0  0  0
  9 29  1  0  0  0  0
 10 15  1  0  0  0  0
 10 11  2  0  0  0  0
 11 12  1  0  0  0  0
 11 30  1  0  0  0  0
 12 13  2  0  0  0  0
 12 31  1  0  0  0  0
 13 14  1  0  0  0  0
 13 32  1  0  0  0  0
 14 15  2  0  0  0  0
 14 36  1  0  0  0  0
 15 33  1  0  0  0  0
 16 17  1  0  0  0  0
 16 34  1  0  0  0  0
 16 35  1  0  0  0  0
 17 18  2  0  0  0  0
M  CHG  1  14   1
M  END
> <s_m_source_file>
AV-unprocessed.smi

> <i_m_source_file_index>
3045

> <i_lp_mmshare_version>
43012

> <i_f3d_flags>
0

> <s_epik_input>
W0NIM11OMVtDSDJdW0NASF0oW0NIMl1DMT1PKUMoPU8pW05IXVtDSDJdW0NIMl1jMltjSF1bY0hdW2NIXW5bY0hdMg==

> <s_epik_cmdline>
J2VwaWtfcHl0aG9uJywgJy1waCcsICc3LjAnLCAnLXRuJywgJzgnLCAnLW1hJywgJzIwMCcsICctbWV0YWxfYmluZGluZycsICctaW1hZScsICc8aW5maWxlLm1hZT4nLCAnLW9tYWUnLCAnPG91dGZpbGUubWFlPic=

> <r_epik_Ionization_Penalty>
2.26523

> <r_epik_Ionization_Penalty_Charging>
2.26523

> <r_epik_Ionization_Penalty_Neutral>
2.92809e-08

> <r_epik_State_Penalty>
2.41338

> <r_epik_Charging_Adjusted_Penalty>
4.67861

> <i_epik_Tot_Q>
1

> <i_epik_Tot_abs_Q>
1

> <r_epik_Metal_State_Penalty>
2.42626

> <b_epik_Metal_Only>
0

> <s_lp_Force_Field>
OPLS_2005

> <r_lp_Energy>
17.4324

> <b_lp_Chiralities_Consistent>
1

> <s_lp_Variant>
AV-unprocessed.smi:3045-4

> <Gold.Version>
5.8.1

> <Gold.Id.Protein>
6NUR|6NUR_protein|mol2

> <Gold.PLP.Fitness>
43.4441

> <Gold.PLP.PLP>
-41.4847

> <Gold.PLP.part.hbond>
-2.6681

> <Gold.PLP.part.metal>
0.0000

> <Gold.PLP.part.buried>
-5.3418

> <Gold.PLP.part.nonpolar>
-33.3327

> <Gold.PLP.part.repulsive>
0.2933

> <Gold.PLP.ligand.clash>
0.0000

> <Gold.PLP.ligand.torsion>
0.6364

> <Gold.PLP.Chemscore.Hbond>
1.0692

> <Gold.PLP.Chemscore.CHOScore>
0.0000

> <Gold.PLP.Chemscore.Metal>
0.0000

> <Gold.Chemscore.Hbonds>
donor molecule, donor type, donor heavy atom, donor atom, acceptor molecule, acceptor atom, score
      P1  H  6933  6945       L1    18  0.30
      P1  H  7997  8010       L1     6  1.00

> <Gold.PLP.Chemscore.Internal.Correction>
0.0247

> <Gold.Rescore>
     Score         DG    S(hbond)    S(metal)    S(lipo)     H(rot)  DE(clash)    DE(int)     intcor
     14.89     -16.16       1.36        0.00      89.82       1.71       0.45       0.82       ----

> <Gold.Chemscore.Fitness>
14.8929

> <Gold.Chemscore.DG>
-16.1575

> <Gold.Chemscore.ZeroCoef>
-5.4800

> <Gold.Chemscore.Hbond>
1.3614

> <Gold.Chemscore.Metal>
0.0000

> <Gold.Chemscore.Lipo>
89.8240

> <Gold.Chemscore.Internal_Hbond>
0.0000

> <Gold.Chemscore.DEClash>
0.4479

> <Gold.Chemscore.DEInternal>
0.8167

> <Gold.Chemscore.Rot>
1.7105

> <Gold.Chemscore.Internal.Correction>
   9.000000E+99

> <Gold.Chemscore.Hbonds>
donor molecule, donor type, donor heavy atom, donor atom, acceptor molecule, acceptor atom, score
      P1  H  6933  6945       L1    18  0.22
      P1  H  7997  8010       L1     6  0.96

> <Gold.Chemscore.Hbond.Weighted>
-4.5469

> <Gold.Chemscore.Metal.Weighted>
-0.0000

> <Gold.Chemscore.Lipo.Weighted>
-10.5094

> <Gold.Chemscore.Internal_Hbond.Weighted>
0.0000

> <Gold.Chemscore.DEClash.Weighted>
0.4479

> <Gold.Chemscore.DEInternal.Weighted>
0.8167

> <Gold.Chemscore.Rot.Weighted>
4.3789

> <Gold.Chemscore.Internal.Correction.Weighted>
   9.000000E+99

> <Gold.Protein.RotatedTorsions>
[ 6907 6896 6895 6894 ] final   86.07 input  -60.11 | X-H torsion
[ 7974 7965 7964 7962 ] final -106.25 input  175.53 | X-H torsion
[ 8008 7997 7996 7995 ] final   25.62 input   59.86 | X-H torsion
[ 10167 10162 10161 10158 ] final  -32.56 input  -65.29 | X-H torsion
[ 10718 10713 10712 10709 ] final  -17.81 input   66.30 | X-H torsion
[ 10763 10752 10751 10750 ] final  -98.31 input  -60.55 | X-H torsion
[ 11005 11000 10999 10996 ] final  158.88 input  -57.11 | X-H torsion

> <Gold.Protein.ActiveResidues>
 VAL166  LYS551  ARG553  GLY616  TRP617  ASP618  TYR619  PRO620  LYS621  CYS622 
 ASP623  PHE694  ASN695  SER759  ASP760  ASP761  ALA762  ILE779  LEU786  VAL792 
 PHE793  MET794  SER795  GLU796  ALA797  LYS798  CYS799  TRP800  GLU811  SER814 

> <Gold.Protein.RotatedAtoms>
  152.5387  134.2488  159.8890 H   0  0  0  0  0  0  0  0  0  0  0  0  # atno 6907 bound_to 6896
  151.2453  133.4372  159.2616 H   0  0  0  0  0  0  0  0  0  0  0  0  # atno 6908 bound_to 6896
  151.0589  134.9737  159.8306 H   0  0  0  0  0  0  0  0  0  0  0  0  # atno 6909 bound_to 6896
  145.2202  140.9131  143.3263 H   0  0  0  0  0  0  0  0  0  0  0  0  # atno 7974 bound_to 7965
  155.0146  140.3140  155.4816 H   0  0  0  0  0  0  0  0  0  0  0  0  # atno 8008 bound_to 7997
  156.2903  140.2208  156.5203 H   0  0  0  0  0  0  0  0  0  0  0  0  # atno 8009 bound_to 7997
  154.7505  140.0466  157.0877 H   0  0  0  0  0  0  0  0  0  0  0  0  # atno 8010 bound_to 7997
  140.7219  143.3685  151.1824 H   0  0  0  0  0  0  0  0  0  0  0  0  # atno 10167 bound_to 10162
  156.5683  130.4743  149.6374 H   0  0  0  0  0  0  0  0  0  0  0  0  # atno 10718 bound_to 10713
  154.7403  135.5014  153.9111 H   0  0  0  0  0  0  0  0  0  0  0  0  # atno 10763 bound_to 10752
  153.1036  135.6691  153.9635 H   0  0  0  0  0  0  0  0  0  0  0  0  # atno 10764 bound_to 10752
  153.9414  135.3067  155.3421 H   0  0  0  0  0  0  0  0  0  0  0  0  # atno 10765 bound_to 10752
  140.1908  134.8408  157.2910 H   0  0  0  0  0  0  0  0  0  0  0  0  # atno 11005 bound_to 11000
  144.9772  139.3820  143.6280 LP  0  0  0  0  0  0  0  0  0  0  0  0  # atno 17320 bound_to 7965
  146.3377  139.8897  142.8811 LP  0  0  0  0  0  0  0  0  0  0  0  0  # atno 17321 bound_to 7965
  139.7252  143.9160  152.3000 LP  0  0  0  0  0  0  0  0  0  0  0  0  # atno 17342 bound_to 10162
  139.8930  144.6954  150.8749 LP  0  0  0  0  0  0  0  0  0  0  0  0  # atno 17343 bound_to 10162
  156.2737  130.7031  151.1836 LP  0  0  0  0  0  0  0  0  0  0  0  0  # atno 17370 bound_to 10713
  157.7354  131.0573  150.5473 LP  0  0  0  0  0  0  0  0  0  0  0  0  # atno 17371 bound_to 10713
  140.2162  134.4079  155.7588 LP  0  0  0  0  0  0  0  0  0  0  0  0  # atno 17394 bound_to 11000
  141.2226  133.7143  156.8417 LP  0  0  0  0  0  0  0  0  0  0  0  0  # atno 17395 bound_to 11000

$$$$
