AV-unprocessed.smi:3347|AV-procd|sdf|12914|dock8
  -GOLD-   2272019333D 1   1.00000     0.00000
 Structure written by MMmdl.
 40 42  0  0  0  0  0  0  0  0  2 V2000
  150.5174  135.1142  156.3591 O   0  0  0  0  0  0  0  0  0  0  0  0
  150.1778  135.2675  155.1861 C   0  0  0  0  0  0  0  0  0  0  0  0
  149.7075  134.2738  154.4188 N   0  0  0  0  0  0  0  0  0  0  0  0
  149.5572  132.8818  154.8328 C   0  0  0  0  0  0  0  0  0  0  0  0
  148.8966  132.0172  153.7414 C   0  0  1  0  0  0  0  0  0  0  0  0
  147.9222  130.9760  154.2885 C   0  0  0  0  0  0  0  0  0  0  0  0
  147.0229  130.6350  153.0943 C   0  0  0  0  0  0  0  0  0  0  0  0
  147.1412  131.7585  152.1359 N   0  3  1  0  0  0  0  0  0  0  0  0
  145.8456  132.2866  151.6578 C   0  0  0  0  0  0  0  0  0  0  0  0
  145.2984  131.5489  150.4594 C   0  0  0  0  0  0  0  0  0  0  0  0
  145.9189  132.9189  150.2888 C   0  0  0  0  0  0  0  0  0  0  0  0
  148.0138  132.7796  152.7499 C   0  0  0  0  0  0  0  0  0  0  0  0
  150.2008  136.4305  154.5130 N   0  0  0  0  0  0  0  0  0  0  0  0
  150.6196  137.7119  154.9638 C   0  0  0  0  0  0  0  0  0  0  0  0
  151.3441  137.9449  156.1584 C   0  0  0  0  0  0  0  0  0  0  0  0
  151.7121  139.2648  156.4833 C   0  0  0  0  0  0  0  0  0  0  0  0
  151.3508  140.3012  155.6011 C   0  0  0  0  0  0  0  0  0  0  0  0
  150.6719  140.0927  154.4536 N   0  0  0  0  0  0  0  0  0  0  0  0
  150.3229  138.8249  154.1483 C   0  0  0  0  0  0  0  0  0  0  0  0
  149.4485  134.4934  153.4678 H   0  0  0  0  0  0  0  0  0  0  0  0
  150.5542  132.4958  155.0466 H   0  0  0  0  0  0  0  0  0  0  0  0
  148.9999  132.8165  155.7690 H   0  0  0  0  0  0  0  0  0  0  0  0
  149.6737  131.4935  153.1817 H   0  0  0  0  0  0  0  0  0  0  0  0
  148.4265  130.1000  154.6978 H   0  0  0  0  0  0  0  0  0  0  0  0
  147.3173  131.4130  155.0846 H   0  0  0  0  0  0  0  0  0  0  0  0
  147.3662  129.7259  152.5999 H   0  0  0  0  0  0  0  0  0  0  0  0
  145.9933  130.4674  153.4145 H   0  0  0  0  0  0  0  0  0  0  0  0
  145.1738  132.6855  152.4161 H   0  0  0  0  0  0  0  0  0  0  0  0
  145.8559  130.6935  150.0822 H   0  0  0  0  0  0  0  0  0  0  0  0
  144.2168  131.4768  150.3651 H   0  0  0  0  0  0  0  0  0  0  0  0
  145.2454  133.7482  150.0820 H   0  0  0  0  0  0  0  0  0  0  0  0
  146.8890  132.9744  149.7979 H   0  0  0  0  0  0  0  0  0  0  0  0
  147.4022  133.5095  153.2837 H   0  0  0  0  0  0  0  0  0  0  0  0
  148.5912  133.3123  151.9937 H   0  0  0  0  0  0  0  0  0  0  0  0
  149.8243  136.4071  153.5766 H   0  0  0  0  0  0  0  0  0  0  0  0
  151.6361  137.1466  156.8221 H   0  0  0  0  0  0  0  0  0  0  0  0
  152.2644  139.4771  157.3866 H   0  0  0  0  0  0  0  0  0  0  0  0
  151.6189  141.3241  155.8207 H   0  0  0  0  0  0  0  0  0  0  0  0
  149.7823  138.6960  153.2219 H   0  0  0  0  0  0  0  0  0  0  0  0
  147.6383  131.3979  151.3339 H   0  0  0  0  0  0  0  0  0  0  0  0
  1  2  2  0  0  0  0
  2  3  1  0  0  0  0
  2 13  1  0  0  0  0
  3  4  1  0  0  0  0
  3 20  1  0  0  0  0
  4  5  1  0  0  0  0
  4 21  1  0  0  0  0
  4 22  1  0  0  0  0
  5 12  1  0  0  0  0
  5  6  1  0  0  0  0
  5 23  1  0  0  0  0
  6  7  1  0  0  0  0
  6 24  1  0  0  0  0
  6 25  1  0  0  0  0
  7  8  1  0  0  0  0
  7 26  1  0  0  0  0
  7 27  1  0  0  0  0
  8  9  1  0  0  0  0
  8 12  1  0  0  0  0
  8 40  1  0  0  0  0
  9 11  1  0  0  0  0
  9 10  1  0  0  0  0
  9 28  1  0  0  0  0
 10 11  1  0  0  0  0
 10 29  1  0  0  0  0
 10 30  1  0  0  0  0
 11 31  1  0  0  0  0
 11 32  1  0  0  0  0
 12 33  1  0  0  0  0
 12 34  1  0  0  0  0
 13 14  1  0  0  0  0
 13 35  1  0  0  0  0
 14 19  1  0  0  0  0
 14 15  2  0  0  0  0
 15 16  1  0  0  0  0
 15 36  1  0  0  0  0
 16 17  2  0  0  0  0
 16 37  1  0  0  0  0
 17 18  1  0  0  0  0
 17 38  1  0  0  0  0
 18 19  2  0  0  0  0
 19 39  1  0  0  0  0
M  CHG  1   8   1
M  END
> <s_m_source_file>
AV-unprocessed.smi

> <i_m_source_file_index>
3347

> <i_lp_mmshare_version>
43012

> <i_f3d_flags>
0

> <s_epik_input>
W2NIXTFuW2NIXVtjSF1bY0hdYzFbTkhdQyg9TylbTkhdW0NIMl1bQ0BASF0yW0NIMl1bQ0gyXU4oW0NIMl0yKVtDSF0zW0NIMl1bQ0gyXTM=

> <s_epik_cmdline>
J2VwaWtfcHl0aG9uJywgJy1waCcsICc3LjAnLCAnLXRuJywgJzgnLCAnLW1hJywgJzIwMCcsICctbWV0YWxfYmluZGluZycsICctaW1hZScsICc8aW5maWxlLm1hZT4nLCAnLW9tYWUnLCAnPG91dGZpbGUubWFlPic=

> <r_epik_Ionization_Penalty>
0.00442629

> <r_epik_Ionization_Penalty_Charging>
0.000203384

> <r_epik_Ionization_Penalty_Neutral>
0.00422291

> <r_epik_State_Penalty>
0.00301008

> <r_epik_Charging_Adjusted_Penalty>
0.00321347

> <i_epik_Tot_Q>
1

> <i_epik_Tot_abs_Q>
1

> <r_epik_Metal_State_Penalty>
-0

> <b_epik_Metal_Only>
0

> <s_lp_Force_Field>
OPLS_2005

> <r_lp_Energy>
39.1383

> <b_lp_Chiralities_Consistent>
1

> <s_lp_Variant>
AV-unprocessed.smi:3347-4

> <Gold.Version>
5.8.1

> <Gold.Id.Protein>
6NUR|6NUR_protein|mol2

> <Gold.PLP.Fitness>
46.1502

> <Gold.PLP.PLP>
-35.1909

> <Gold.PLP.part.hbond>
-3.8532

> <Gold.PLP.part.metal>
0.0000

> <Gold.PLP.part.buried>
-4.1205

> <Gold.PLP.part.nonpolar>
-28.3088

> <Gold.PLP.part.repulsive>
0.2170

> <Gold.PLP.ligand.clash>
0.0000

> <Gold.PLP.ligand.torsion>
1.1734

> <Gold.PLP.Chemscore.Hbond>
2.8698

> <Gold.PLP.Chemscore.CHOScore>
1.1440

> <Gold.PLP.Chemscore.Metal>
0.0000

> <Gold.Chemscore.Hbonds>
donor molecule, donor type, donor heavy atom, donor atom, acceptor molecule, acceptor atom, score
      L1  H     3    20       P1  7948  0.05
      L1  H     8    40       P1 10747  1.00
      L1  H    13    35       P1  7948  1.00
      P1  H  7989  7998       L1    18  0.90
      L1  C    19    39       P1  7948  0.10
      L1  C    19    39       P1  7957  1.00

> <Gold.PLP.Chemscore.Internal.Correction>
1.2646

> <Gold.Rescore>
     Score         DG    S(hbond)    S(metal)    S(lipo)     H(rot)  DE(clash)    DE(int)     intcor
     16.35     -18.73       2.14        0.00      83.34       1.42       0.06       2.32       ----

> <Gold.Chemscore.Fitness>
16.3495

> <Gold.Chemscore.DG>
-18.7311

> <Gold.Chemscore.ZeroCoef>
-5.4800

> <Gold.Chemscore.Hbond>
2.1378

> <Gold.Chemscore.Metal>
0.0000

> <Gold.Chemscore.Lipo>
83.3428

> <Gold.Chemscore.Internal_Hbond>
0.0000

> <Gold.Chemscore.DEClash>
0.0630

> <Gold.Chemscore.DEInternal>
2.3186

> <Gold.Chemscore.Rot>
1.4219

> <Gold.Chemscore.Internal.Correction>
   9.000000E+99

> <Gold.Chemscore.Hbonds>
donor molecule, donor type, donor heavy atom, donor atom, acceptor molecule, acceptor atom, score
      L1  H     8    40       P1 10747  1.00
      L1  H    13    35       P1  7948  0.26
      P1  H  7989  7998       L1    18  0.17

> <Gold.Chemscore.Hbond.Weighted>
-7.1401

> <Gold.Chemscore.Metal.Weighted>
-0.0000

> <Gold.Chemscore.Lipo.Weighted>
-9.7511

> <Gold.Chemscore.Internal_Hbond.Weighted>
0.0000

> <Gold.Chemscore.DEClash.Weighted>
0.0630

> <Gold.Chemscore.DEInternal.Weighted>
2.3186

> <Gold.Chemscore.Rot.Weighted>
3.6401

> <Gold.Chemscore.Internal.Correction.Weighted>
   9.000000E+99

> <Gold.Protein.RotatedTorsions>
[ 6907 6896 6895 6894 ] final  -54.27 input  -60.11 | X-H torsion
[ 7974 7965 7964 7962 ] final  -32.99 input  175.53 | X-H torsion
[ 8008 7997 7996 7995 ] final -164.18 input   59.86 | X-H torsion
[ 10167 10162 10161 10158 ] final  135.35 input  -65.29 | X-H torsion
[ 10718 10713 10712 10709 ] final -149.38 input   66.30 | X-H torsion
[ 10763 10752 10751 10750 ] final  -93.40 input  -60.55 | X-H torsion
[ 11005 11000 10999 10996 ] final -148.93 input  -57.11 | X-H torsion

> <Gold.Protein.ActiveResidues>
 VAL166  LYS551  ARG553  GLY616  TRP617  ASP618  TYR619  PRO620  LYS621  CYS622 
 ASP623  PHE694  ASN695  SER759  ASP760  ASP761  ALA762  ILE779  LEU786  VAL792 
 PHE793  MET794  SER795  GLU796  ALA797  LYS798  CYS799  TRP800  GLU811  SER814 

> <Gold.Protein.RotatedAtoms>
  150.8353  134.7624  159.6887 H   0  0  0  0  0  0  0  0  0  0  0  0  # atno 6907 bound_to 6896
  152.4451  134.5508  159.9876 H   0  0  0  0  0  0  0  0  0  0  0  0  # atno 6908 bound_to 6896
  151.5660  133.3359  159.3016 H   0  0  0  0  0  0  0  0  0  0  0  0  # atno 6909 bound_to 6896
  146.0946  140.5861  142.8848 H   0  0  0  0  0  0  0  0  0  0  0  0  # atno 7974 bound_to 7965
  155.8320  140.0935  157.1787 H   0  0  0  0  0  0  0  0  0  0  0  0  # atno 8008 bound_to 7997
  154.3980  140.1417  156.3686 H   0  0  0  0  0  0  0  0  0  0  0  0  # atno 8009 bound_to 7997
  155.8156  140.3448  155.5486 H   0  0  0  0  0  0  0  0  0  0  0  0  # atno 8010 bound_to 7997
  139.5220  144.6521  151.5270 H   0  0  0  0  0  0  0  0  0  0  0  0  # atno 10167 bound_to 10162
  156.4324  130.8082  151.2309 H   0  0  0  0  0  0  0  0  0  0  0  0  # atno 10718 bound_to 10713
  154.6955  135.5196  153.8452 H   0  0  0  0  0  0  0  0  0  0  0  0  # atno 10763 bound_to 10752
  153.0664  135.6586  154.0354 H   0  0  0  0  0  0  0  0  0  0  0  0  # atno 10764 bound_to 10752
  154.0222  135.2992  155.3359 H   0  0  0  0  0  0  0  0  0  0  0  0  # atno 10765 bound_to 10752
  140.7561  134.3352  157.5114 H   0  0  0  0  0  0  0  0  0  0  0  0  # atno 11005 bound_to 11000
  144.7386  140.4878  143.6886 LP  0  0  0  0  0  0  0  0  0  0  0  0  # atno 17320 bound_to 7965
  145.5972  139.1500  143.3149 LP  0  0  0  0  0  0  0  0  0  0  0  0  # atno 17321 bound_to 7965
  140.6331  143.9037  150.6623 LP  0  0  0  0  0  0  0  0  0  0  0  0  # atno 17342 bound_to 10162
  140.2348  143.3708  152.1536 LP  0  0  0  0  0  0  0  0  0  0  0  0  # atno 17343 bound_to 10162
  157.7508  131.0194  150.3665 LP  0  0  0  0  0  0  0  0  0  0  0  0  # atno 17370 bound_to 10713
  156.4006  130.3915  149.6963 LP  0  0  0  0  0  0  0  0  0  0  0  0  # atno 17371 bound_to 10713
  139.8779  134.9172  156.3174 LP  0  0  0  0  0  0  0  0  0  0  0  0  # atno 17394 bound_to 11000
  140.9707  133.7329  156.0530 LP  0  0  0  0  0  0  0  0  0  0  0  0  # atno 17395 bound_to 11000

$$$$
