#       Name:                AV-unprocessed.smi:2117
#       Creating user name   scv26
#       Creation time:       Fri Mar 27 11:37:11 2020


#       File generated by GOLD software.
#

@<TRIPOS>MOLECULE
AV-unprocessed.smi:2117
    30    31     1
SMALL
NO_CHARGES


@<TRIPOS>ATOM
      1 ****        -1.7727   1.8559   0.0036 N.pl3          1 S1                 0.0000
      2 ****        -0.3769   1.9067   0.0050 C.ar           1 S1                 0.0000
      3 ****         0.2762   3.1563   0.0040 C.ar           1 S1                 0.0000
      4 ****         1.6829   3.1908   0.0049 C.ar           1 S1                 0.0000
      5 ****         2.3811   1.9686   0.0072 C.ar           1 S1                 0.0000
      6 ****         1.7684   0.7662   0.0086 N.ar           1 S1                 0.0000
      7 ****         0.4134   0.7297   0.0077 C.ar           1 S1                 0.0000
      8 ****        -0.2015  -0.5334   0.0067 N.3            1 S1                 0.0000
      9 ****         0.0260  -1.2919  -1.2169 C.3            1 S1                 0.0000
     10 ****        -0.7933  -2.5935  -1.1873 C.3            1 S1                 0.0000
     11 ****        -0.4669  -3.3382  -0.0169 O.3            1 S1                 0.0000
     12 ****        -0.7613  -2.6163   1.1760 C.3            1 S1                 0.0000
     13 ****         0.0601  -1.3158   1.2083 C.3            1 S1                 0.0000
     14 ****        -2.2721   0.9782   0.0045 H              1 S1                 0.0000
     15 ****        -2.3272   2.7001  -0.0076 H              1 S1                 0.0000
     16 ****        -0.2896   4.0766   0.0022 H              1 S1                 0.0000
     17 ****         2.2141   4.1310   0.0037 H              1 S1                 0.0000
     18 ****         3.4610   1.9557   0.0077 H              1 S1                 0.0000
     19 ****        -0.2552  -0.6904  -2.0822 H              1 S1                 0.0000
     20 ****         1.0872  -1.5250  -1.3154 H              1 S1                 0.0000
     21 ****        -1.8632  -2.3804  -1.2080 H              1 S1                 0.0000
     22 ****        -0.5714  -3.1976  -2.0671 H              1 S1                 0.0000
     23 ****        -1.8301  -2.4029   1.2292 H              1 S1                 0.0000
     24 ****        -0.5167  -3.2371   2.0378 H              1 S1                 0.0000
     25 ****         1.1231  -1.5520   1.2727 H              1 S1                 0.0000
     26 ****        -0.1963  -0.7312   2.0927 H              1 S1                 0.0000
     27 ****         2.3023  -0.0793   0.0103 LP             1 S1                 0.0000
     28 ****        -1.1810  -0.3331   0.0250 LP             1 S1                 0.0000
     29 ****         0.5100  -3.5515  -0.0322 LP             1 S1                 0.0000
     30 ****        -0.9937  -4.1882  -0.0179 LP             1 S1                 0.0000
@<TRIPOS>BOND
    1    1    2 1     
    2    1   14 1     
    3    1   15 1     
    4    2    7 ar    
    5    2    3 ar    
    6    3    4 ar    
    7    3   16 1     
    8    4    5 ar    
    9    4   17 1     
   10    5    6 ar    
   11    5   18 1     
   12    6    7 ar    
   13    7    8 1     
   14    8   13 1     
   15    8    9 1     
   16    9   10 1     
   17    9   19 1     
   18    9   20 1     
   19   10   11 1     
   20   10   21 1     
   21   10   22 1     
   22   11   12 1     
   23   12   13 1     
   24   12   23 1     
   25   12   24 1     
   26   13   25 1     
   27   13   26 1     
   28    6   27 1     
   29    8   28 1     
   30   11   29 1     
   31   11   30 1     
@<TRIPOS>SUBSTRUCTURE
      1 S1             1
@<TRIPOS>SET
LONE_PAIRS      STATIC     ATOMS    <user>   **** ""
4 27 28 29 30
DONOR_HYDROGENS      STATIC     ATOMS    <user>   **** ""
2 14 15
ATOM$BLUE        STATIC     ATOMS    COLORGROUP SYSTEM
4 27 28 29 30
ATOM$RED        STATIC     ATOMS    COLORGROUP SYSTEM
2 14 15
