#       Name:                AV-unprocessed.smi:1490
#       Creating user name   scv26
#       Creation time:       Fri Mar 27 06:13:32 2020


#       File generated by GOLD software.
#

@<TRIPOS>MOLECULE
AV-unprocessed.smi:1490
    43    44     1
SMALL
NO_CHARGES


@<TRIPOS>ATOM
      1 ****         0.5043   2.5325  -2.1733 C.3            1 S1                 0.0000
      2 ****         0.4279   1.9901  -0.8675 O.3            1 S1                 0.0000
      3 ****        -0.4277   2.7300  -0.0123 C.3            1 S1                 0.0000
      4 ****        -0.4367   2.0843   1.3807 C.3            1 S1                 0.0000
      5 ****        -0.8396   0.6718   1.3329 N.pl3          1 S1                 0.0000
      6 ****        -0.0865  -0.4573   1.2123 C.2            1 S1                 0.0000
      7 ****         1.6695  -0.5307   1.0816 S.3            1 S1                 0.0000
      8 ****         2.0361  -2.1806   0.4190 C.3            1 S1                 0.0000
      9 ****         3.4085  -2.2488  -0.2496 C.2            1 S1                 0.0000
     10 ****         4.3498  -2.7696   0.3471 O.2            1 S1                 0.0000
     11 ****         3.3944  -1.6951  -1.4821 N.pl3          1 S1                -1.0000
     12 ****         4.6230  -1.6550  -2.2501 C.3            1 S1                 0.0000
     13 ****         4.4355  -0.8694  -3.4795 C.1            1 S1                 0.0000
     14 ****         4.2885  -0.2514  -4.4472 N.1            1 S1                 0.0000
     15 ****        -0.9365  -1.5207   1.1956 N.pl3          1 S1                 1.0000
     16 ****        -2.2524  -1.0668   1.2993 C.ar           1 S1                 0.0000
     17 ****        -3.4569  -1.7627   1.3217 C.ar           1 S1                 0.0000
     18 ****        -4.6334  -0.9920   1.4299 C.ar           1 S1                 0.0000
     19 ****        -6.1638  -1.7870   1.4635 Cl             1 S1                 0.0000
     20 ****        -4.5819   0.4154   1.5092 C.ar           1 S1                 0.0000
     21 ****        -3.3552   1.1113   1.4858 C.ar           1 S1                 0.0000
     22 ****        -2.1978   0.3407   1.3828 C.ar           1 S1                 0.0000
     23 ****         1.1733   1.9243  -2.7823 H              1 S1                 0.0000
     24 ****         0.8967   3.5499  -2.1552 H              1 S1                 0.0000
     25 ****        -0.4746   2.5420  -2.6540 H              1 S1                 0.0000
     26 ****        -0.0839   3.7626   0.0612 H              1 S1                 0.0000
     27 ****        -1.4381   2.7497  -0.4237 H              1 S1                 0.0000
     28 ****         0.5603   2.1304   1.8198 H              1 S1                 0.0000
     29 ****        -1.0971   2.6228   2.0607 H              1 S1                 0.0000
     30 ****         1.9809  -2.9074   1.2299 H              1 S1                 0.0000
     31 ****         1.2674  -2.4583  -0.3039 H              1 S1                 0.0000
     32 ****         5.4473  -1.1966  -1.7023 H              1 S1                 0.0000
     33 ****         4.9589  -2.6479  -2.5500 H              1 S1                 0.0000
     34 ****        -3.4967  -2.8402   1.2575 H              1 S1                 0.0000
     35 ****        -5.5030   0.9745   1.5892 H              1 S1                 0.0000
     36 ****        -3.3283   2.1893   1.5437 H              1 S1                 0.0000
     37 ****        -0.6340  -2.4825   1.1103 H              1 S1                 0.0000
     38 ****         1.3460   1.9818  -0.4711 LP             1 S1                 0.0000
     39 ****         0.0837   1.0533  -0.9307 LP             1 S1                 0.0000
     40 ****         4.2143  -3.1451   1.2640 LP             1 S1                 0.0000
     41 ****         5.2505  -2.8175  -0.0847 LP             1 S1                 0.0000
     42 ****         2.5483  -1.3184  -1.8591 LP             1 S1                 0.0000
     43 ****         4.1616   0.2824  -5.2832 LP             1 S1                 0.0000
@<TRIPOS>BOND
    1    1    2 1     
    2    1   23 1     
    3    1   24 1     
    4    1   25 1     
    5    2    3 1     
    6    3    4 1     
    7    3   26 1     
    8    3   27 1     
    9    4    5 1     
   10    4   28 1     
   11    4   29 1     
   12    5   22 1     
   13    5    6 1     
   14    6    7 1     
   15    6   15 2     
   16    7    8 1     
   17    8    9 1     
   18    8   30 1     
   19    8   31 1     
   20    9   10 2     
   21    9   11 1     
   22   11   12 1     
   23   12   13 1     
   24   12   32 1     
   25   12   33 1     
   26   13   14 3     
   27   15   16 1     
   28   15   37 1     
   29   16   22 ar    
   30   16   17 ar    
   31   17   18 ar    
   32   17   34 1     
   33   18   19 1     
   34   18   20 ar    
   35   20   21 ar    
   36   20   35 1     
   37   21   22 ar    
   38   21   36 1     
   39    2   38 1     
   40    2   39 1     
   41   10   40 1     
   42   10   41 1     
   43   11   42 1     
   44   14   43 1     
@<TRIPOS>SUBSTRUCTURE
      1 S1             1
@<TRIPOS>SET
LONE_PAIRS      STATIC     ATOMS    <user>   **** ""
6 38 39 40 41 42 43
DONOR_HYDROGENS      STATIC     ATOMS    <user>   **** ""
1 37
ATOM$BLUE        STATIC     ATOMS    COLORGROUP SYSTEM
6 38 39 40 41 42 43
ATOM$RED        STATIC     ATOMS    COLORGROUP SYSTEM
1 37
