AV-unprocessed.smi:672|AV-procd|sdf|3296|dock1
  -GOLD-   22720 0253D 1   1.00000     0.00000
 Structure written by MMmdl.
 35 36  0  0  0  0  0  0  0  0  2 V2000
  146.3963  134.1256  162.4184 C   0  0  0  0  0  0  0  0  0  0  0  0
  146.5797  135.6457  162.3554 C   0  0  0  0  0  0  0  0  0  0  0  0
  147.4418  136.0717  161.2145 C   0  0  0  0  0  0  0  0  0  0  0  0
  147.6339  137.3530  160.8899 N   0  0  0  0  0  0  0  0  0  0  0  0
  148.4495  137.4939  159.7767 N   0  0  0  0  0  0  0  0  0  0  0  0
  148.8416  136.3202  159.2609 C   0  0  0  0  0  0  0  0  0  0  0  0
  149.6335  136.2357  158.1794 N   0  5  0  0  0  0  0  0  0  0  0  0
  150.7341  137.0161  158.0873 C   0  0  0  0  0  0  0  0  0  0  0  0
  151.8259  136.8063  158.6211 O   0  0  0  0  0  0  0  0  0  0  0  0
  150.5569  138.1129  157.3367 N   0  0  0  0  0  0  0  0  0  0  0  0
  151.5607  139.1409  157.0690 C   0  0  1  0  0  0  0  0  0  0  0  0
  150.9186  140.3671  156.3907 C   0  0  0  0  0  0  0  0  0  0  0  0
  151.3573  141.5858  157.2064 C   0  0  0  0  0  0  0  0  0  0  0  0
  151.5805  141.0404  158.6146 C   0  0  2  0  0  0  0  0  0  0  0  0
  152.6237  142.1276  159.6281 S   0  0  0  0  0  0  0  0  0  0  0  0
  151.9675  143.7454  159.1405 C   0  0  0  0  0  0  0  0  0  0  0  0
  152.1996  139.6622  158.3716 C   0  0  0  0  0  0  0  0  0  0  0  0
  148.2341  134.9233  160.1489 S   0  0  0  0  0  0  0  0  0  0  0  0
  145.7661  133.8447  163.2623 H   0  0  0  0  0  0  0  0  0  0  0  0
  147.3550  133.6196  162.5351 H   0  0  0  0  0  0  0  0  0  0  0  0
  145.9266  133.7475  161.5099 H   0  0  0  0  0  0  0  0  0  0  0  0
  145.6091  136.1348  162.2663 H   0  0  0  0  0  0  0  0  0  0  0  0
  147.0262  136.0042  163.2833 H   0  0  0  0  0  0  0  0  0  0  0  0
  149.6475  138.2439  156.9187 H   0  0  0  0  0  0  0  0  0  0  0  0
  152.3351  138.7270  156.4203 H   0  0  0  0  0  0  0  0  0  0  0  0
  151.2106  140.4556  155.3438 H   0  0  0  0  0  0  0  0  0  0  0  0
  149.8299  140.2956  156.4136 H   0  0  0  0  0  0  0  0  0  0  0  0
  152.2944  141.9737  156.8041 H   0  0  0  0  0  0  0  0  0  0  0  0
  150.6244  142.3928  157.1797 H   0  0  0  0  0  0  0  0  0  0  0  0
  150.6126  140.9206  159.1038 H   0  0  0  0  0  0  0  0  0  0  0  0
  152.5203  144.5401  159.6414 H   0  0  0  0  0  0  0  0  0  0  0  0
  150.9164  143.8332  159.4151 H   0  0  0  0  0  0  0  0  0  0  0  0
  152.0598  143.8858  158.0634 H   0  0  0  0  0  0  0  0  0  0  0  0
  152.0592  138.9933  159.2217 H   0  0  0  0  0  0  0  0  0  0  0  0
  153.2751  139.7645  158.2208 H   0  0  0  0  0  0  0  0  0  0  0  0
  1  2  1  0  0  0  0
  1 19  1  0  0  0  0
  1 20  1  0  0  0  0
  1 21  1  0  0  0  0
  2  3  1  0  0  0  0
  2 22  1  0  0  0  0
  2 23  1  0  0  0  0
  3 18  1  0  0  0  0
  3  4  2  0  0  0  0
  4  5  1  0  0  0  0
  5  6  2  0  0  0  0
  6  7  1  0  0  0  0
  6 18  1  0  0  0  0
  7  8  1  0  0  0  0
  8  9  2  0  0  0  0
  8 10  1  0  0  0  0
 10 11  1  0  0  0  0
 10 24  1  0  0  0  0
 11 17  1  0  0  0  0
 11 12  1  0  0  0  0
 11 25  1  0  0  0  0
 12 13  1  0  0  0  0
 12 26  1  0  0  0  0
 12 27  1  0  0  0  0
 13 14  1  0  0  0  0
 13 28  1  0  0  0  0
 13 29  1  0  0  0  0
 14 15  1  0  0  0  0
 14 17  1  0  0  0  0
 14 30  1  0  0  0  0
 15 16  1  0  0  0  0
 16 31  1  0  0  0  0
 16 32  1  0  0  0  0
 16 33  1  0  0  0  0
 17 34  1  0  0  0  0
 17 35  1  0  0  0  0
M  CHG  1   7  -1
M  END
> <s_m_source_file>
AV-unprocessed.smi

> <i_m_source_file_index>
672

> <i_lp_mmshare_version>
43012

> <i_f3d_flags>
0

> <s_epik_input>
W0NIM11bQ0gyXWMxbm5jKHMxKVtOSF1DKD1PKVtOSF1bQ0BASF0yW0NIMl1bQ0gyXVtDQEhdKFtDSDJdMilTW0NIM10=

> <s_epik_cmdline>
J2VwaWtfcHl0aG9uJywgJy1waCcsICc3LjAnLCAnLXRuJywgJzgnLCAnLW1hJywgJzIwMCcsICctbWV0YWxfYmluZGluZycsICctaW1hZScsICc8aW5maWxlLm1hZT4nLCAnLW9tYWUnLCAnPG91dGZpbGUubWFlPic=

> <r_lp_tautomer_probability>
1

> <r_epik_Ionization_Penalty>
4.49964

> <r_epik_Ionization_Penalty_Charging>
4.32991

> <r_epik_Ionization_Penalty_Neutral>
0.169727

> <r_epik_State_Penalty>
4.32952

> <r_epik_Charging_Adjusted_Penalty>
8.65943

> <i_epik_Tot_Q>
-1

> <i_epik_Tot_abs_Q>
1

> <r_epik_Metal_State_Penalty>
0.740482

> <b_epik_Metal_Only>
1

> <s_lp_Force_Field>
OPLS_2005

> <r_lp_Energy>
9.75318

> <b_lp_Chiralities_Consistent>
1

> <s_lp_Variant>
AV-unprocessed.smi:672-8

> <Gold.Version>
5.8.1

> <Gold.Id.Protein>
6NUR|6NUR_protein|mol2

> <Gold.PLP.Fitness>
36.4596

> <Gold.PLP.PLP>
-34.7641

> <Gold.PLP.part.hbond>
-5.2506

> <Gold.PLP.part.metal>
0.0000

> <Gold.PLP.part.buried>
-2.8719

> <Gold.PLP.part.nonpolar>
-26.6452

> <Gold.PLP.part.repulsive>
0.0106

> <Gold.PLP.ligand.clash>
0.0000

> <Gold.PLP.ligand.torsion>
1.4380

> <Gold.PLP.Chemscore.Hbond>
1.4932

> <Gold.PLP.Chemscore.CHOScore>
0.0000

> <Gold.PLP.Chemscore.Metal>
0.0000

> <Gold.Chemscore.Hbonds>
donor molecule, donor type, donor heavy atom, donor atom, acceptor molecule, acceptor atom, score
      P1  H  6896  6908       L1     9  0.59
      P1  H  6931  6943       L1     4  0.27
      P1  H  6934  6947       L1     4  0.64

> <Gold.PLP.Chemscore.Internal.Correction>
0.0917

> <Gold.Rescore>
     Score         DG    S(hbond)    S(metal)    S(lipo)     H(rot)  DE(clash)    DE(int)     intcor
     12.38     -15.04       1.37        0.00      71.77       1.34       0.04       2.61       ----

> <Gold.Chemscore.Fitness>
12.3808

> <Gold.Chemscore.DG>
-15.0351

> <Gold.Chemscore.ZeroCoef>
-5.4800

> <Gold.Chemscore.Hbond>
1.3747

> <Gold.Chemscore.Metal>
0.0000

> <Gold.Chemscore.Lipo>
71.7657

> <Gold.Chemscore.Internal_Hbond>
0.0000

> <Gold.Chemscore.DEClash>
0.0407

> <Gold.Chemscore.DEInternal>
2.6136

> <Gold.Chemscore.Rot>
1.3410

> <Gold.Chemscore.Internal.Correction>
   9.000000E+99

> <Gold.Chemscore.Hbonds>
donor molecule, donor type, donor heavy atom, donor atom, acceptor molecule, acceptor atom, score
      P1  H  6896  6908       L1     9  0.34
      P1  H  6931  6943       L1     4  0.01
      P1  H  6934  6947       L1     4  0.07

> <Gold.Chemscore.Hbond.Weighted>
-4.5914

> <Gold.Chemscore.Metal.Weighted>
-0.0000

> <Gold.Chemscore.Lipo.Weighted>
-8.3966

> <Gold.Chemscore.Internal_Hbond.Weighted>
0.0000

> <Gold.Chemscore.DEClash.Weighted>
0.0407

> <Gold.Chemscore.DEInternal.Weighted>
2.6136

> <Gold.Chemscore.Rot.Weighted>
3.4329

> <Gold.Chemscore.Internal.Correction.Weighted>
   9.000000E+99

> <Gold.Protein.RotatedTorsions>
[ 6907 6896 6895 6894 ] final -121.47 input  -60.11 | X-H torsion
[ 7974 7965 7964 7962 ] final   53.50 input  175.53 | X-H torsion
[ 8008 7997 7996 7995 ] final  133.61 input   59.86 | X-H torsion
[ 10167 10162 10161 10158 ] final   24.11 input  -65.29 | X-H torsion
[ 10718 10713 10712 10709 ] final   53.62 input   66.30 | X-H torsion
[ 10763 10752 10751 10750 ] final -114.81 input  -60.55 | X-H torsion
[ 11005 11000 10999 10996 ] final -139.66 input  -57.11 | X-H torsion

> <Gold.Protein.ActiveResidues>
 VAL166  LYS551  ARG553  GLY616  TRP617  ASP618  TYR619  PRO620  LYS621  CYS622 
 ASP623  PHE694  ASN695  SER759  ASP760  ASP761  ALA762  ILE779  LEU786  VAL792 
 PHE793  MET794  SER795  GLU796  ALA797  LYS798  CYS799  TRP800  GLU811  SER814 

> <Gold.Protein.RotatedAtoms>
  150.8487  133.7821  159.3033 H   0  0  0  0  0  0  0  0  0  0  0  0  # atno 6907 bound_to 6896
  151.5500  135.1066  159.9957 H   0  0  0  0  0  0  0  0  0  0  0  0  # atno 6908 bound_to 6896
  152.4535  133.7632  159.6814 H   0  0  0  0  0  0  0  0  0  0  0  0  # atno 6909 bound_to 6896
  145.9706  139.4145  143.0193 H   0  0  0  0  0  0  0  0  0  0  0  0  # atno 7974 bound_to 7965
  156.2993  140.2517  156.3281 H   0  0  0  0  0  0  0  0  0  0  0  0  # atno 8008 bound_to 7997
  154.9171  140.0402  157.1997 H   0  0  0  0  0  0  0  0  0  0  0  0  # atno 8009 bound_to 7997
  154.8348  140.2881  155.5702 H   0  0  0  0  0  0  0  0  0  0  0  0  # atno 8010 bound_to 7997
  140.5214  143.9995  150.6419 H   0  0  0  0  0  0  0  0  0  0  0  0  # atno 10167 bound_to 10162
  157.5183  130.8547  149.8525 H   0  0  0  0  0  0  0  0  0  0  0  0  # atno 10718 bound_to 10713
  154.8456  135.4404  154.1565 H   0  0  0  0  0  0  0  0  0  0  0  0  # atno 10763 bound_to 10752
  153.2713  135.6945  153.7484 H   0  0  0  0  0  0  0  0  0  0  0  0  # atno 10764 bound_to 10752
  153.6724  135.3416  155.3132 H   0  0  0  0  0  0  0  0  0  0  0  0  # atno 10765 bound_to 10752
  140.8498  134.2300  157.4766 H   0  0  0  0  0  0  0  0  0  0  0  0  # atno 11005 bound_to 11000
  145.7912  140.9813  143.1048 LP  0  0  0  0  0  0  0  0  0  0  0  0  # atno 17320 bound_to 7965
  144.6836  139.9685  143.7481 LP  0  0  0  0  0  0  0  0  0  0  0  0  # atno 17321 bound_to 7965
  140.3345  143.3057  152.0652 LP  0  0  0  0  0  0  0  0  0  0  0  0  # atno 17342 bound_to 10162
  139.4925  144.6486  151.6725 LP  0  0  0  0  0  0  0  0  0  0  0  0  # atno 17343 bound_to 10162
  156.0335  130.3757  150.1622 LP  0  0  0  0  0  0  0  0  0  0  0  0  # atno 17370 bound_to 10713
  156.9810  130.9864  151.3437 LP  0  0  0  0  0  0  0  0  0  0  0  0  # atno 17371 bound_to 10713
  139.8704  134.9677  156.4607 LP  0  0  0  0  0  0  0  0  0  0  0  0  # atno 17394 bound_to 11000
  140.8803  133.7923  155.9459 LP  0  0  0  0  0  0  0  0  0  0  0  0  # atno 17395 bound_to 11000

$$$$
