AV-unprocessed.smi:3306|AV-procd|sdf|12703|dock1
  -GOLD-   2272019 33D 1   1.00000     0.00000
 Structure written by MMmdl.
 44 45  0  0  0  0  0  0  0  0  2 V2000
  151.7140  139.8736  156.0719 C   0  0  0  0  0  0  0  0  0  0  0  0
  150.7004  140.9390  155.5970 C   0  0  0  0  0  0  0  0  0  0  0  0
  150.5651  142.0019  156.7103 C   0  0  0  0  0  0  0  0  0  0  0  0
  149.3965  140.3376  155.2436 N   0  0  0  0  0  0  0  0  0  0  0  0
  149.5602  139.2313  154.2869 C   0  0  0  0  0  0  0  0  0  0  0  0
  148.2166  138.5449  153.9870 C   0  0  0  0  0  0  0  0  0  0  0  0
  147.2084  139.5356  153.3965 C   0  0  0  0  0  0  0  0  0  0  0  0
  145.9030  138.8713  153.1856 N   0  3  0  0  0  0  0  0  0  0  0  0
  145.9159  137.7424  152.2321 C   0  0  0  0  0  0  0  0  0  0  0  0
  145.8713  136.3988  152.9725 C   0  0  0  0  0  0  0  0  0  0  0  0
  145.6986  135.2259  152.0261 C   0  0  0  0  0  0  0  0  0  0  0  0
  144.5714  135.1402  151.1812 C   0  0  0  0  0  0  0  0  0  0  0  0
  144.4587  134.0276  150.3247 C   0  0  0  0  0  0  0  0  0  0  0  0
  145.4709  133.0490  150.3474 C   0  0  0  0  0  0  0  0  0  0  0  0
  146.5554  133.2262  151.2294 C   0  0  0  0  0  0  0  0  0  0  0  0
  146.6722  134.2883  152.0560 N   0  0  0  0  0  0  0  0  0  0  0  0
  147.1030  140.7297  154.3554 C   0  0  0  0  0  0  0  0  0  0  0  0
  148.4896  141.3309  154.6460 C   0  0  0  0  0  0  0  0  0  0  0  0
  152.6110  140.3411  156.4791 H   0  0  0  0  0  0  0  0  0  0  0  0
  152.0594  139.2328  155.2617 H   0  0  0  0  0  0  0  0  0  0  0  0
  151.2924  139.2416  156.8544 H   0  0  0  0  0  0  0  0  0  0  0  0
  151.1120  141.4277  154.7123 H   0  0  0  0  0  0  0  0  0  0  0  0
  151.5442  142.3151  157.0739 H   0  0  0  0  0  0  0  0  0  0  0  0
  150.0081  141.6167  157.5651 H   0  0  0  0  0  0  0  0  0  0  0  0
  150.0762  142.9111  156.3624 H   0  0  0  0  0  0  0  0  0  0  0  0
  150.0159  139.5966  153.3652 H   0  0  0  0  0  0  0  0  0  0  0  0
  150.2199  138.4642  154.6872 H   0  0  0  0  0  0  0  0  0  0  0  0
  148.3765  137.7182  153.2937 H   0  0  0  0  0  0  0  0  0  0  0  0
  147.8208  138.1067  154.9049 H   0  0  0  0  0  0  0  0  0  0  0  0
  147.5849  139.8763  152.4305 H   0  0  0  0  0  0  0  0  0  0  0  0
  145.5984  138.5091  154.0779 H   0  0  0  0  0  0  0  0  0  0  0  0
  145.0615  137.8206  151.5596 H   0  0  0  0  0  0  0  0  0  0  0  0
  146.8171  137.7959  151.6198 H   0  0  0  0  0  0  0  0  0  0  0  0
  146.7860  136.2603  153.5505 H   0  0  0  0  0  0  0  0  0  0  0  0
  145.0508  136.3945  153.6919 H   0  0  0  0  0  0  0  0  0  0  0  0
  143.8097  135.9058  151.1866 H   0  0  0  0  0  0  0  0  0  0  0  0
  143.6115  133.9266  149.6626 H   0  0  0  0  0  0  0  0  0  0  0  0
  145.4177  132.1829  149.7042 H   0  0  0  0  0  0  0  0  0  0  0  0
  147.3492  132.4953  151.2728 H   0  0  0  0  0  0  0  0  0  0  0  0
  146.4642  141.5050  153.9326 H   0  0  0  0  0  0  0  0  0  0  0  0
  146.6366  140.4200  155.2922 H   0  0  0  0  0  0  0  0  0  0  0  0
  148.3305  142.1689  155.3216 H   0  0  0  0  0  0  0  0  0  0  0  0
  148.9284  141.7354  153.7324 H   0  0  0  0  0  0  0  0  0  0  0  0
  145.2325  139.5600  152.8751 H   0  0  0  0  0  0  0  0  0  0  0  0
  1  2  1  0  0  0  0
  1 19  1  0  0  0  0
  1 20  1  0  0  0  0
  1 21  1  0  0  0  0
  2  3  1  0  0  0  0
  2  4  1  0  0  0  0
  2 22  1  0  0  0  0
  3 23  1  0  0  0  0
  3 24  1  0  0  0  0
  3 25  1  0  0  0  0
  4 18  1  0  0  0  0
  4  5  1  0  0  0  0
  5  6  1  0  0  0  0
  5 26  1  0  0  0  0
  5 27  1  0  0  0  0
  6  7  1  0  0  0  0
  6 28  1  0  0  0  0
  6 29  1  0  0  0  0
  7  8  1  0  0  0  0
  7 17  1  0  0  0  0
  7 30  1  0  0  0  0
  8  9  1  0  0  0  0
  8 31  1  0  0  0  0
  8 44  1  0  0  0  0
  9 10  1  0  0  0  0
  9 32  1  0  0  0  0
  9 33  1  0  0  0  0
 10 11  1  0  0  0  0
 10 34  1  0  0  0  0
 10 35  1  0  0  0  0
 11 16  1  0  0  0  0
 11 12  2  0  0  0  0
 12 13  1  0  0  0  0
 12 36  1  0  0  0  0
 13 14  2  0  0  0  0
 13 37  1  0  0  0  0
 14 15  1  0  0  0  0
 14 38  1  0  0  0  0
 15 16  2  0  0  0  0
 15 39  1  0  0  0  0
 17 18  1  0  0  0  0
 17 40  1  0  0  0  0
 17 41  1  0  0  0  0
 18 42  1  0  0  0  0
 18 43  1  0  0  0  0
M  CHG  1   8   1
M  END
> <s_m_source_file>
AV-unprocessed.smi

> <i_m_source_file_index>
3306

> <i_lp_mmshare_version>
43012

> <i_f3d_flags>
0

> <s_epik_input>
W0NIM11bQ0hdKFtDSDNdKU4xW0NIMl1bQ0gyXVtDSF0oW0NIMl1bQ0gyXTEpW05IXVtDSDJdW0NIMl1jMltjSF1bY0hdW2NIXVtjSF1uMg==

> <s_epik_cmdline>
J2VwaWtfcHl0aG9uJywgJy1waCcsICc3LjAnLCAnLXRuJywgJzgnLCAnLW1hJywgJzIwMCcsICctbWV0YWxfYmluZGluZycsICctaW1hZScsICc8aW5maWxlLm1hZT4nLCAnLW9tYWUnLCAnPG91dGZpbGUubWFlPic=

> <r_epik_Ionization_Penalty>
1.34673

> <r_epik_Ionization_Penalty_Charging>
0.000531593

> <r_epik_Ionization_Penalty_Neutral>
1.3462

> <r_epik_State_Penalty>
1.43277

> <r_epik_Charging_Adjusted_Penalty>
1.4333

> <i_epik_Tot_Q>
1

> <i_epik_Tot_abs_Q>
1

> <r_epik_Metal_State_Penalty>
1.43418

> <b_epik_Metal_Only>
0

> <s_lp_Force_Field>
OPLS_2005

> <r_lp_Energy>
21.3297

> <b_lp_Chiralities_Consistent>
1

> <s_lp_Variant>
AV-unprocessed.smi:3306-3

> <Gold.Version>
5.8.1

> <Gold.Id.Protein>
6NUR|6NUR_protein|mol2

> <Gold.PLP.Fitness>
40.7342

> <Gold.PLP.PLP>
-32.4246

> <Gold.PLP.part.hbond>
-1.0000

> <Gold.PLP.part.metal>
0.0000

> <Gold.PLP.part.buried>
-2.7908

> <Gold.PLP.part.nonpolar>
-30.2835

> <Gold.PLP.part.repulsive>
1.2048

> <Gold.PLP.ligand.clash>
0.0000

> <Gold.PLP.ligand.torsion>
0.3685

> <Gold.PLP.Chemscore.Hbond>
2.0000

> <Gold.PLP.Chemscore.CHOScore>
0.9971

> <Gold.PLP.Chemscore.Metal>
0.0000

> <Gold.Chemscore.Hbonds>
donor molecule, donor type, donor heavy atom, donor atom, acceptor molecule, acceptor atom, score
      L1  H     8    44       P1 10175  2.00
      L1  C    15    39       P1 10747  1.00

> <Gold.PLP.Chemscore.Internal.Correction>
0.0553

> <Gold.Rescore>
     Score         DG    S(hbond)    S(metal)    S(lipo)     H(rot)  DE(clash)    DE(int)     intcor
     15.54     -16.00       0.97        0.00      92.94       1.41       0.09       0.36       ----

> <Gold.Chemscore.Fitness>
15.5441

> <Gold.Chemscore.DG>
-15.9951

> <Gold.Chemscore.ZeroCoef>
-5.4800

> <Gold.Chemscore.Hbond>
0.9738

> <Gold.Chemscore.Metal>
0.0000

> <Gold.Chemscore.Lipo>
92.9383

> <Gold.Chemscore.Internal_Hbond>
0.0000

> <Gold.Chemscore.DEClash>
0.0862

> <Gold.Chemscore.DEInternal>
0.3648

> <Gold.Chemscore.Rot>
1.4106

> <Gold.Chemscore.Internal.Correction>
   9.000000E+99

> <Gold.Chemscore.Hbonds>
donor molecule, donor type, donor heavy atom, donor atom, acceptor molecule, acceptor atom, score
      L1  H     8    44       P1 10175  1.00

> <Gold.Chemscore.Hbond.Weighted>
-3.2525

> <Gold.Chemscore.Metal.Weighted>
-0.0000

> <Gold.Chemscore.Lipo.Weighted>
-10.8738

> <Gold.Chemscore.Internal_Hbond.Weighted>
0.0000

> <Gold.Chemscore.DEClash.Weighted>
0.0862

> <Gold.Chemscore.DEInternal.Weighted>
0.3648

> <Gold.Chemscore.Rot.Weighted>
3.6112

> <Gold.Chemscore.Internal.Correction.Weighted>
   9.000000E+99

> <Gold.Protein.RotatedTorsions>
[ 6907 6896 6895 6894 ] final  -54.48 input  -60.11 | X-H torsion
[ 7974 7965 7964 7962 ] final -123.70 input  175.53 | X-H torsion
[ 8008 7997 7996 7995 ] final  104.81 input   59.86 | X-H torsion
[ 10167 10162 10161 10158 ] final  -81.14 input  -65.29 | X-H torsion
[ 10718 10713 10712 10709 ] final  169.84 input   66.30 | X-H torsion
[ 10763 10752 10751 10750 ] final   19.09 input  -60.55 | X-H torsion
[ 11005 11000 10999 10996 ] final  161.40 input  -57.11 | X-H torsion

> <Gold.Protein.ActiveResidues>
 VAL166  LYS551  ARG553  GLY616  TRP617  ASP618  TYR619  PRO620  LYS621  CYS622 
 ASP623  PHE694  ASN695  SER759  ASP760  ASP761  ALA762  ILE779  LEU786  VAL792 
 PHE793  MET794  SER795  GLU796  ALA797  LYS798  CYS799  TRP800  GLU811  SER814 

> <Gold.Protein.RotatedAtoms>
  150.8335  134.7598  159.6872 H   0  0  0  0  0  0  0  0  0  0  0  0  # atno 6907 bound_to 6896
  152.4435  134.5538  159.9884 H   0  0  0  0  0  0  0  0  0  0  0  0  # atno 6908 bound_to 6896
  151.5694  133.3354  159.3022 H   0  0  0  0  0  0  0  0  0  0  0  0  # atno 6909 bound_to 6896
  145.0159  140.7946  143.4410 H   0  0  0  0  0  0  0  0  0  0  0  0  # atno 7974 bound_to 7965
  156.1605  140.3141  155.8800 H   0  0  0  0  0  0  0  0  0  0  0  0  # atno 8008 bound_to 7997
  155.3791  140.0486  157.3061 H   0  0  0  0  0  0  0  0  0  0  0  0  # atno 8009 bound_to 7997
  154.5142  140.2175  155.9108 H   0  0  0  0  0  0  0  0  0  0  0  0  # atno 8010 bound_to 7997
  140.4439  143.2505  151.8586 H   0  0  0  0  0  0  0  0  0  0  0  0  # atno 10167 bound_to 10162
  157.0168  131.0220  151.2786 H   0  0  0  0  0  0  0  0  0  0  0  0  # atno 10718 bound_to 10713
  153.1192  135.6715  153.9364 H   0  0  0  0  0  0  0  0  0  0  0  0  # atno 10763 bound_to 10752
  153.8885  135.3050  155.3448 H   0  0  0  0  0  0  0  0  0  0  0  0  # atno 10764 bound_to 10752
  154.7606  135.4990  153.9535 H   0  0  0  0  0  0  0  0  0  0  0  0  # atno 10765 bound_to 10752
  140.2154  134.8236  157.3165 H   0  0  0  0  0  0  0  0  0  0  0  0  # atno 11005 bound_to 11000
  145.1960  139.2276  143.5217 LP  0  0  0  0  0  0  0  0  0  0  0  0  # atno 17320 bound_to 7965
  146.3478  140.1767  142.8589 LP  0  0  0  0  0  0  0  0  0  0  0  0  # atno 17321 bound_to 7965
  139.4791  144.5197  151.8818 LP  0  0  0  0  0  0  0  0  0  0  0  0  # atno 17342 bound_to 10162
  140.4286  144.2146  150.5887 LP  0  0  0  0  0  0  0  0  0  0  0  0  # atno 17343 bound_to 10162
  157.5279  130.8040  149.7883 LP  0  0  0  0  0  0  0  0  0  0  0  0  # atno 17370 bound_to 10713
  156.0116  130.3831  150.2246 LP  0  0  0  0  0  0  0  0  0  0  0  0  # atno 17371 bound_to 10713
  140.1906  134.4377  155.7718 LP  0  0  0  0  0  0  0  0  0  0  0  0  # atno 17394 bound_to 11000
  141.2225  133.7025  156.8020 LP  0  0  0  0  0  0  0  0  0  0  0  0  # atno 17395 bound_to 11000

$$$$
