AV-unprocessed.smi:1661|AV-procd|sdf|6654|dock6
  -GOLD-   22720 7363D 1   1.00000     0.00000
 Structure written by MMmdl.
 38 39  0  0  0  0  0  0  0  0  2 V2000
  145.7285  132.1748  149.7286 C   0  0  0  0  0  0  0  0  0  0  0  0
  144.8713  131.5903  150.8648 C   0  0  2  0  0  0  0  0  0  0  0  0
  143.5293  132.3241  151.0377 C   0  0  0  0  0  0  0  0  0  0  0  0
  143.7007  133.7070  151.6917 C   0  0  0  0  0  0  0  0  0  0  0  0
  144.4098  133.6059  152.9938 N   0  3  2  0  0  0  0  0  0  0  0  0
  144.4696  134.9112  153.6994 C   0  0  0  0  0  0  0  0  0  0  0  0
  144.5876  136.1030  152.7288 C   0  0  0  0  0  0  0  0  0  0  0  0
  145.9215  136.6917  152.7597 N   0  0  0  0  0  0  0  0  0  0  0  0
  146.2289  137.8639  153.3336 C   0  0  0  0  0  0  0  0  0  0  0  0
  145.3971  138.5818  153.8892 O   0  0  0  0  0  0  0  0  0  0  0  0
  147.5404  138.1365  153.2165 N   0  0  0  0  0  0  0  0  0  0  0  0
  148.2469  139.2766  153.6834 C   0  0  0  0  0  0  0  0  0  0  0  0
  149.5372  139.2529  154.0523 N   0  0  0  0  0  0  0  0  0  0  0  0
  149.9809  140.5013  154.4698 N   0  0  0  0  0  0  0  0  0  0  0  0
  149.0093  141.4156  154.3992 C   0  0  0  0  0  0  0  0  0  0  0  0
  147.4569  140.8413  153.8157 S   0  0  0  0  0  0  0  0  0  0  0  0
  145.7400  132.9582  152.8419 C   0  0  0  0  0  0  0  0  0  0  0  0
  145.6119  131.5586  152.2138 C   0  0  0  0  0  0  0  0  0  0  0  0
  146.0087  133.2113  149.9138 H   0  0  0  0  0  0  0  0  0  0  0  0
  145.1922  132.1435  148.7798 H   0  0  0  0  0  0  0  0  0  0  0  0
  146.6486  131.6036  149.6013 H   0  0  0  0  0  0  0  0  0  0  0  0
  144.6503  130.5593  150.5855 H   0  0  0  0  0  0  0  0  0  0  0  0
  143.0266  132.4248  150.0751 H   0  0  0  0  0  0  0  0  0  0  0  0
  142.8690  131.7189  151.6606 H   0  0  0  0  0  0  0  0  0  0  0  0
  144.2448  134.3807  151.0285 H   0  0  0  0  0  0  0  0  0  0  0  0
  142.7148  134.1478  151.8444 H   0  0  0  0  0  0  0  0  0  0  0  0
  143.5989  135.0224  154.3472 H   0  0  0  0  0  0  0  0  0  0  0  0
  145.3414  134.9156  154.3550 H   0  0  0  0  0  0  0  0  0  0  0  0
  144.3424  135.7943  151.7110 H   0  0  0  0  0  0  0  0  0  0  0  0
  143.8844  136.8920  152.9918 H   0  0  0  0  0  0  0  0  0  0  0  0
  146.6648  136.1629  152.3263 H   0  0  0  0  0  0  0  0  0  0  0  0
  148.1011  137.4492  152.7352 H   0  0  0  0  0  0  0  0  0  0  0  0
  149.2077  142.4356  154.6933 H   0  0  0  0  0  0  0  0  0  0  0  0
  146.3891  133.5907  152.2351 H   0  0  0  0  0  0  0  0  0  0  0  0
  146.2251  132.8572  153.8118 H   0  0  0  0  0  0  0  0  0  0  0  0
  145.0697  130.9101  152.9034 H   0  0  0  0  0  0  0  0  0  0  0  0
  146.5989  131.1108  152.0922 H   0  0  0  0  0  0  0  0  0  0  0  0
  143.8482  132.9959  153.5708 H   0  0  0  0  0  0  0  0  0  0  0  0
  1  2  1  0  0  0  0
  1 19  1  0  0  0  0
  1 20  1  0  0  0  0
  1 21  1  0  0  0  0
  2 18  1  0  0  0  0
  2  3  1  0  0  0  0
  2 22  1  0  0  0  0
  3  4  1  0  0  0  0
  3 23  1  0  0  0  0
  3 24  1  0  0  0  0
  4  5  1  0  0  0  0
  4 25  1  0  0  0  0
  4 26  1  0  0  0  0
  5  6  1  0  0  0  0
  5 17  1  0  0  0  0
  5 38  1  0  0  0  0
  6  7  1  0  0  0  0
  6 27  1  0  0  0  0
  6 28  1  0  0  0  0
  7  8  1  0  0  0  0
  7 29  1  0  0  0  0
  7 30  1  0  0  0  0
  8  9  1  0  0  0  0
  8 31  1  0  0  0  0
  9 10  2  0  0  0  0
  9 11  1  0  0  0  0
 11 12  1  0  0  0  0
 11 32  1  0  0  0  0
 12 16  1  0  0  0  0
 12 13  2  0  0  0  0
 13 14  1  0  0  0  0
 14 15  2  0  0  0  0
 15 16  1  0  0  0  0
 15 33  1  0  0  0  0
 17 18  1  0  0  0  0
 17 34  1  0  0  0  0
 17 35  1  0  0  0  0
 18 36  1  0  0  0  0
 18 37  1  0  0  0  0
M  CHG  1   5   1
M  END
> <s_m_source_file>
AV-unprocessed.smi

> <i_m_source_file_index>
1661

> <i_lp_mmshare_version>
43012

> <i_f3d_flags>
0

> <s_epik_input>
W0NIM11bQ0hdMVtDSDJdW0NIMl1OKFtDSDJdW0NIMl0xKVtDSDJdW0NIMl1bTkhdQyg9TylbTkhdYzJubltjSF1zMg==

> <s_epik_cmdline>
J2VwaWtfcHl0aG9uJywgJy1waCcsICc3LjAnLCAnLXRuJywgJzgnLCAnLW1hJywgJzIwMCcsICctbWV0YWxfYmluZGluZycsICctaW1hZScsICc8aW5maWxlLm1hZT4nLCAnLW9tYWUnLCAnPG91dGZpbGUubWFlPic=

> <r_lp_tautomer_probability>
1

> <r_epik_Ionization_Penalty>
0.0053917

> <r_epik_Ionization_Penalty_Charging>
0.00168873

> <r_epik_Ionization_Penalty_Neutral>
0.00370297

> <r_epik_State_Penalty>
-0

> <r_epik_Charging_Adjusted_Penalty>
0.00168873

> <i_epik_Tot_Q>
1

> <i_epik_Tot_abs_Q>
1

> <r_epik_Metal_State_Penalty>
0.36997

> <b_epik_Metal_Only>
0

> <s_lp_Force_Field>
OPLS_2005

> <r_lp_Energy>
16.5964

> <b_lp_Chiralities_Consistent>
1

> <s_lp_Variant>
AV-unprocessed.smi:1661-2

> <Gold.Version>
5.8.1

> <Gold.Id.Protein>
6NUR|6NUR_protein|mol2

> <Gold.PLP.Fitness>
42.0463

> <Gold.PLP.PLP>
-28.7804

> <Gold.PLP.part.hbond>
-3.4398

> <Gold.PLP.part.metal>
0.0000

> <Gold.PLP.part.buried>
-5.9944

> <Gold.PLP.part.nonpolar>
-21.5929

> <Gold.PLP.part.repulsive>
0.9062

> <Gold.PLP.ligand.clash>
0.0000

> <Gold.PLP.ligand.torsion>
0.9783

> <Gold.PLP.Chemscore.Hbond>
4.1393

> <Gold.PLP.Chemscore.CHOScore>
0.9283

> <Gold.PLP.Chemscore.Metal>
0.0000

> <Gold.Chemscore.Hbonds>
donor molecule, donor type, donor heavy atom, donor atom, acceptor molecule, acceptor atom, score
      L1  H     5    38       P1 10957  1.72
      L1  H     8    31       P1  7948  0.24
      L1  H    11    32       P1  7948  1.00
      P1  H  7989  7998       L1    14  0.85
      L1  C    15    33       P1  8028  1.00

> <Gold.PLP.Chemscore.Internal.Correction>
0.0199

> <Gold.Rescore>
     Score         DG    S(hbond)    S(metal)    S(lipo)     H(rot)  DE(clash)    DE(int)     intcor
     15.29     -17.21       2.55        0.00      64.83       1.70       0.02       1.90       ----

> <Gold.Chemscore.Fitness>
15.2926

> <Gold.Chemscore.DG>
-17.2128

> <Gold.Chemscore.ZeroCoef>
-5.4800

> <Gold.Chemscore.Hbond>
2.5485

> <Gold.Chemscore.Metal>
0.0000

> <Gold.Chemscore.Lipo>
64.8253

> <Gold.Chemscore.Internal_Hbond>
0.0000

> <Gold.Chemscore.DEClash>
0.0185

> <Gold.Chemscore.DEInternal>
1.9018

> <Gold.Chemscore.Rot>
1.7046

> <Gold.Chemscore.Internal.Correction>
   9.000000E+99

> <Gold.Chemscore.Hbonds>
donor molecule, donor type, donor heavy atom, donor atom, acceptor molecule, acceptor atom, score
      L1  H     5    38       P1 10957  0.72
      L1  H     8    31       P1  7948  0.25
      L1  H    11    32       P1  7948  1.00
      P1  H  7989  7998       L1    14  0.47

> <Gold.Chemscore.Hbond.Weighted>
-8.5121

> <Gold.Chemscore.Metal.Weighted>
-0.0000

> <Gold.Chemscore.Lipo.Weighted>
-7.5846

> <Gold.Chemscore.Internal_Hbond.Weighted>
0.0000

> <Gold.Chemscore.DEClash.Weighted>
0.0185

> <Gold.Chemscore.DEInternal.Weighted>
1.9018

> <Gold.Chemscore.Rot.Weighted>
4.3638

> <Gold.Chemscore.Internal.Correction.Weighted>
   9.000000E+99

> <Gold.Protein.RotatedTorsions>
[ 6907 6896 6895 6894 ] final  -90.96 input  -60.11 | X-H torsion
[ 7974 7965 7964 7962 ] final -105.05 input  175.53 | X-H torsion
[ 8008 7997 7996 7995 ] final  -16.13 input   59.86 | X-H torsion
[ 10167 10162 10161 10158 ] final   58.95 input  -65.29 | X-H torsion
[ 10718 10713 10712 10709 ] final  154.73 input   66.30 | X-H torsion
[ 10763 10752 10751 10750 ] final  107.85 input  -60.55 | X-H torsion
[ 11005 11000 10999 10996 ] final  134.92 input  -57.11 | X-H torsion

> <Gold.Protein.ActiveResidues>
 VAL166  LYS551  ARG553  GLY616  TRP617  ASP618  TYR619  PRO620  LYS621  CYS622 
 ASP623  PHE694  ASN695  SER759  ASP760  ASP761  ALA762  ILE779  LEU786  VAL792 
 PHE793  MET794  SER795  GLU796  ALA797  LYS798  CYS799  TRP800  GLU811  SER814 

> <Gold.Protein.RotatedAtoms>
  150.6887  134.2351  159.4449 H   0  0  0  0  0  0  0  0  0  0  0  0  # atno 6907 bound_to 6896
  152.0299  134.9771  160.0581 H   0  0  0  0  0  0  0  0  0  0  0  0  # atno 6908 bound_to 6896
  152.1314  133.4375  159.4760 H   0  0  0  0  0  0  0  0  0  0  0  0  # atno 6909 bound_to 6896
  145.2354  140.9186  143.3180 H   0  0  0  0  0  0  0  0  0  0  0  0  # atno 7974 bound_to 7965
  154.5077  140.2178  155.9219 H   0  0  0  0  0  0  0  0  0  0  0  0  # atno 8008 bound_to 7997
  156.1513  140.3161  155.8620 H   0  0  0  0  0  0  0  0  0  0  0  0  # atno 8009 bound_to 7997
  155.3932  140.0479  157.3030 H   0  0  0  0  0  0  0  0  0  0  0  0  # atno 8010 bound_to 7997
  140.1817  144.4175  150.6612 H   0  0  0  0  0  0  0  0  0  0  0  0  # atno 10167 bound_to 10162
  157.2277  131.0732  151.1873 H   0  0  0  0  0  0  0  0  0  0  0  0  # atno 10718 bound_to 10713
  153.4125  135.3831  155.2059 H   0  0  0  0  0  0  0  0  0  0  0  0  # atno 10763 bound_to 10752
  154.8739  135.3797  154.4484 H   0  0  0  0  0  0  0  0  0  0  0  0  # atno 10764 bound_to 10752
  153.4994  135.7088  153.5902 H   0  0  0  0  0  0  0  0  0  0  0  0  # atno 10765 bound_to 10752
  139.9946  134.9502  156.9934 H   0  0  0  0  0  0  0  0  0  0  0  0  # atno 11005 bound_to 11000
  144.9638  139.3952  143.6343 LP  0  0  0  0  0  0  0  0  0  0  0  0  # atno 17320 bound_to 7965
  146.3342  139.8704  142.8841 LP  0  0  0  0  0  0  0  0  0  0  0  0  # atno 17321 bound_to 7965
  140.6515  143.2226  151.6066 LP  0  0  0  0  0  0  0  0  0  0  0  0  # atno 17342 bound_to 10162
  139.5293  144.2963  152.1110 LP  0  0  0  0  0  0  0  0  0  0  0  0  # atno 17343 bound_to 10162
  157.3511  130.7082  149.6441 LP  0  0  0  0  0  0  0  0  0  0  0  0  # atno 17370 bound_to 10713
  155.9677  130.4252  150.4644 LP  0  0  0  0  0  0  0  0  0  0  0  0  # atno 17371 bound_to 10713
  140.4843  134.1258  155.7222 LP  0  0  0  0  0  0  0  0  0  0  0  0  # atno 17394 bound_to 11000
  141.1594  133.8822  157.1890 LP  0  0  0  0  0  0  0  0  0  0  0  0  # atno 17395 bound_to 11000

$$$$
