AV-unprocessed.smi:2973|AV-procd|sdf|11343|dock7
  -GOLD-   2272016253D 1   1.00000     0.00000
 Structure written by MMmdl.
 50 52  0  0  0  0  0  0  0  0  2 V2000
  147.4632  134.9520  154.2575 C   0  0  0  0  0  0  0  0  0  0  0  0
  148.5387  133.8662  154.0415 C   0  0  2  0  0  0  0  0  0  0  0  0
  147.8692  132.5051  153.7517 C   0  0  0  0  0  0  0  0  0  0  0  0
  148.9019  131.4031  153.4661 C   0  0  0  0  0  0  0  0  0  0  0  0
  149.9050  131.2665  154.6195 C   0  0  0  0  0  0  0  0  0  0  0  0
  150.5939  132.6093  154.9068 C   0  0  0  0  0  0  0  0  0  0  0  0
  149.5728  133.7345  155.2020 C   0  0  2  0  0  0  0  0  0  0  0  0
  148.9358  133.5292  156.4923 N   0  0  0  0  0  0  0  0  0  0  0  0
  149.2473  134.4774  157.3853 C   0  0  0  0  0  0  0  0  0  0  0  0
  148.8567  134.5083  158.5509 O   0  0  0  0  0  0  0  0  0  0  0  0
  150.0561  135.3715  156.7877 N   0  0  0  0  0  0  0  0  0  0  0  0
  150.6581  136.5305  157.4586 C   0  0  0  0  0  0  0  0  0  0  0  0
  149.8452  137.8128  157.2358 C   0  0  0  0  0  0  0  0  0  0  0  0
  148.8572  137.8067  156.5000 O   0  0  0  0  0  0  0  0  0  0  0  0
  150.2705  138.9088  157.8834 N   0  0  0  0  0  0  0  0  0  0  0  0
  149.6205  140.2174  157.8477 C   0  0  0  0  0  0  0  0  0  0  0  0
  150.3331  141.2080  156.9040 C   0  0  0  0  0  0  0  0  0  0  0  0
  151.1779  142.2472  157.6219 C   0  0  0  0  0  0  0  0  0  0  0  0
  152.2801  141.8923  158.4300 C   0  0  0  0  0  0  0  0  0  0  0  0
  153.0045  142.9053  159.0915 C   0  0  0  0  0  0  0  0  0  0  0  0
  152.6132  144.2505  158.9318 C   0  0  0  0  0  0  0  0  0  0  0  0
  151.5083  144.5493  158.1091 C   0  0  0  0  0  0  0  0  0  0  0  0
  150.8412  143.5508  157.4895 N   0  3  0  0  0  0  0  0  0  0  0  0
  150.2997  135.0360  155.5133 C   0  0  0  0  0  0  0  0  0  0  0  0
  150.9998  135.6470  154.7053 O   0  0  0  0  0  0  0  0  0  0  0  0
  146.8565  134.7485  155.1400 H   0  0  0  0  0  0  0  0  0  0  0  0
  146.7879  135.0036  153.4031 H   0  0  0  0  0  0  0  0  0  0  0  0
  147.9032  135.9422  154.3750 H   0  0  0  0  0  0  0  0  0  0  0  0
  149.0908  134.1464  153.1426 H   0  0  0  0  0  0  0  0  0  0  0  0
  147.2471  132.2095  154.5977 H   0  0  0  0  0  0  0  0  0  0  0  0
  147.1975  132.5962  152.8972 H   0  0  0  0  0  0  0  0  0  0  0  0
  148.3946  130.4520  153.3014 H   0  0  0  0  0  0  0  0  0  0  0  0
  149.4355  131.6324  152.5429 H   0  0  0  0  0  0  0  0  0  0  0  0
  149.3921  130.9120  155.5143 H   0  0  0  0  0  0  0  0  0  0  0  0
  150.6524  130.5118  154.3734 H   0  0  0  0  0  0  0  0  0  0  0  0
  151.2878  132.4917  155.7411 H   0  0  0  0  0  0  0  0  0  0  0  0
  151.2024  132.8819  154.0431 H   0  0  0  0  0  0  0  0  0  0  0  0
  148.3393  132.7383  156.6874 H   0  0  0  0  0  0  0  0  0  0  0  0
  150.7495  136.3286  158.5276 H   0  0  0  0  0  0  0  0  0  0  0  0
  151.6743  136.6974  157.0985 H   0  0  0  0  0  0  0  0  0  0  0  0
  151.0973  138.8266  158.4579 H   0  0  0  0  0  0  0  0  0  0  0  0
  148.5929  140.0749  157.5132 H   0  0  0  0  0  0  0  0  0  0  0  0
  149.5535  140.6376  158.8526 H   0  0  0  0  0  0  0  0  0  0  0  0
  150.9690  140.6551  156.2112 H   0  0  0  0  0  0  0  0  0  0  0  0
  149.5943  141.7222  156.2881 H   0  0  0  0  0  0  0  0  0  0  0  0
  152.5601  140.8565  158.5556 H   0  0  0  0  0  0  0  0  0  0  0  0
  153.8441  142.6517  159.7217 H   0  0  0  0  0  0  0  0  0  0  0  0
  153.1502  145.0404  159.4364 H   0  0  0  0  0  0  0  0  0  0  0  0
  151.1384  145.5487  157.9323 H   0  0  0  0  0  0  0  0  0  0  0  0
  150.0394  143.7904  156.9057 H   0  0  0  0  0  0  0  0  0  0  0  0
  1  2  1  0  0  0  0
  1 26  1  0  0  0  0
  1 27  1  0  0  0  0
  1 28  1  0  0  0  0
  2  7  1  0  0  0  0
  2  3  1  0  0  0  0
  2 29  1  0  0  0  0
  3  4  1  0  0  0  0
  3 30  1  0  0  0  0
  3 31  1  0  0  0  0
  4  5  1  0  0  0  0
  4 32  1  0  0  0  0
  4 33  1  0  0  0  0
  5  6  1  0  0  0  0
  5 34  1  0  0  0  0
  5 35  1  0  0  0  0
  6  7  1  0  0  0  0
  6 36  1  0  0  0  0
  6 37  1  0  0  0  0
  7 24  1  0  0  0  0
  7  8  1  0  0  0  0
  8  9  1  0  0  0  0
  8 38  1  0  0  0  0
  9 10  2  0  0  0  0
  9 11  1  0  0  0  0
 11 12  1  0  0  0  0
 11 24  1  0  0  0  0
 12 13  1  0  0  0  0
 12 39  1  0  0  0  0
 12 40  1  0  0  0  0
 13 14  2  0  0  0  0
 13 15  1  0  0  0  0
 15 16  1  0  0  0  0
 15 41  1  0  0  0  0
 16 17  1  0  0  0  0
 16 42  1  0  0  0  0
 16 43  1  0  0  0  0
 17 18  1  0  0  0  0
 17 44  1  0  0  0  0
 17 45  1  0  0  0  0
 18 23  1  0  0  0  0
 18 19  2  0  0  0  0
 19 20  1  0  0  0  0
 19 46  1  0  0  0  0
 20 21  2  0  0  0  0
 20 47  1  0  0  0  0
 21 22  1  0  0  0  0
 21 48  1  0  0  0  0
 22 23  2  0  0  0  0
 22 49  1  0  0  0  0
 23 50  1  0  0  0  0
 24 25  2  0  0  0  0
M  CHG  1  23   1
M  END
> <s_m_source_file>
AV-unprocessed.smi

> <i_m_source_file_index>
2973

> <i_lp_mmshare_version>
43012

> <i_f3d_flags>
0

> <s_epik_input>
W0NIMl0xW0NIMl1bQ0gyXVtDSDJdW0NAQEhdKFtDSDNdKVtDQF0xMltOSF1DKD1PKU4oQzI9TylbQ0gyXUMoPU8pW05IXVtDSDJdW0NIMl1jM1tjSF1bY0hdW2NIXVtjSF1uMw==

> <s_epik_cmdline>
J2VwaWtfcHl0aG9uJywgJy1waCcsICc3LjAnLCAnLXRuJywgJzgnLCAnLW1hJywgJzIwMCcsICctbWV0YWxfYmluZGluZycsICctaW1hZScsICc8aW5maWxlLm1hZT4nLCAnLW9tYWUnLCAnPG91dGZpbGUubWFlPic=

> <r_lp_tautomer_probability>
1

> <r_epik_Ionization_Penalty>
1.90043

> <r_epik_Ionization_Penalty_Charging>
1.90039

> <r_epik_Ionization_Penalty_Neutral>
4.65525e-05

> <r_epik_State_Penalty>
2.02162

> <r_epik_Charging_Adjusted_Penalty>
3.922

> <i_epik_Tot_Q>
1

> <i_epik_Tot_abs_Q>
1

> <r_epik_Metal_State_Penalty>
2.06631

> <b_epik_Metal_Only>
0

> <s_lp_Force_Field>
OPLS_2005

> <r_lp_Energy>
26.4657

> <b_lp_Chiralities_Consistent>
1

> <s_lp_Variant>
AV-unprocessed.smi:2973-7

> <Gold.Version>
5.8.1

> <Gold.Id.Protein>
6NUR|6NUR_protein|mol2

> <Gold.PLP.Fitness>
47.8401

> <Gold.PLP.PLP>
-37.4150

> <Gold.PLP.part.hbond>
-3.0000

> <Gold.PLP.part.metal>
0.0000

> <Gold.PLP.part.buried>
-4.2198

> <Gold.PLP.part.nonpolar>
-29.1580

> <Gold.PLP.part.repulsive>
0.3058

> <Gold.PLP.ligand.clash>
0.0000

> <Gold.PLP.ligand.torsion>
0.8035

> <Gold.PLP.Chemscore.Hbond>
4.0000

> <Gold.PLP.Chemscore.CHOScore>
0.0000

> <Gold.PLP.Chemscore.Metal>
0.0000

> <Gold.Chemscore.Hbonds>
donor molecule, donor type, donor heavy atom, donor atom, acceptor molecule, acceptor atom, score
      L1  H    23    50       P1  8028  2.00
      P1  H  6896  6908       L1    10  0.87
      P1  H 10752 10763       L1    25  1.00

> <Gold.PLP.Chemscore.Internal.Correction>
0.0322

> <Gold.Rescore>
     Score         DG    S(hbond)    S(metal)    S(lipo)     H(rot)  DE(clash)    DE(int)     intcor
     18.17     -18.99       1.95        0.00     102.70       1.96       0.07       0.74       ----

> <Gold.Chemscore.Fitness>
18.1713

> <Gold.Chemscore.DG>
-18.9852

> <Gold.Chemscore.ZeroCoef>
-5.4800

> <Gold.Chemscore.Hbond>
1.9511

> <Gold.Chemscore.Metal>
0.0000

> <Gold.Chemscore.Lipo>
102.6994

> <Gold.Chemscore.Internal_Hbond>
0.0000

> <Gold.Chemscore.DEClash>
0.0714

> <Gold.Chemscore.DEInternal>
0.7425

> <Gold.Chemscore.Rot>
1.9638

> <Gold.Chemscore.Internal.Correction>
   9.000000E+99

> <Gold.Chemscore.Hbonds>
donor molecule, donor type, donor heavy atom, donor atom, acceptor molecule, acceptor atom, score
      L1  H    23    50       P1  8028  0.98
      P1  H  6896  6908       L1    10  0.21
      P1  H 10752 10763       L1    25  0.97

> <Gold.Chemscore.Hbond.Weighted>
-6.5168

> <Gold.Chemscore.Metal.Weighted>
-0.0000

> <Gold.Chemscore.Lipo.Weighted>
-12.0158

> <Gold.Chemscore.Internal_Hbond.Weighted>
0.0000

> <Gold.Chemscore.DEClash.Weighted>
0.0714

> <Gold.Chemscore.DEInternal.Weighted>
0.7425

> <Gold.Chemscore.Rot.Weighted>
5.0274

> <Gold.Chemscore.Internal.Correction.Weighted>
   9.000000E+99

> <Gold.Protein.RotatedTorsions>
[ 6907 6896 6895 6894 ] final  171.17 input  -60.11 | X-H torsion
[ 7974 7965 7964 7962 ] final  162.70 input  175.53 | X-H torsion
[ 8008 7997 7996 7995 ] final -132.62 input   59.86 | X-H torsion
[ 10167 10162 10161 10158 ] final -116.21 input  -65.29 | X-H torsion
[ 10718 10713 10712 10709 ] final  138.07 input   66.30 | X-H torsion
[ 10763 10752 10751 10750 ] final   46.00 input  -60.55 | X-H torsion
[ 11005 11000 10999 10996 ] final -165.93 input  -57.11 | X-H torsion

> <Gold.Protein.ActiveResidues>
 VAL166  LYS551  ARG553  GLY616  TRP617  ASP618  TYR619  PRO620  LYS621  CYS622 
 ASP623  PHE694  ASN695  SER759  ASP760  ASP761  ALA762  ILE779  LEU786  VAL792 
 PHE793  MET794  SER795  GLU796  ALA797  LYS798  CYS799  TRP800  GLU811  SER814 

> <Gold.Protein.RotatedAtoms>
  151.8044  133.3374  159.3536 H   0  0  0  0  0  0  0  0  0  0  0  0  # atno 6907 bound_to 6896
  150.7347  134.5723  159.5906 H   0  0  0  0  0  0  0  0  0  0  0  0  # atno 6908 bound_to 6896
  152.3120  134.7487  160.0385 H   0  0  0  0  0  0  0  0  0  0  0  0  # atno 6909 bound_to 6896
  144.7624  139.8077  143.6327 H   0  0  0  0  0  0  0  0  0  0  0  0  # atno 7974 bound_to 7965
  155.3319  140.0467  157.3043 H   0  0  0  0  0  0  0  0  0  0  0  0  # atno 8008 bound_to 7997
  154.5324  140.2261  155.8747 H   0  0  0  0  0  0  0  0  0  0  0  0  # atno 8009 bound_to 7997
  156.1801  140.3076  155.9139 H   0  0  0  0  0  0  0  0  0  0  0  0  # atno 8010 bound_to 7997
  140.0816  143.4782  152.1922 H   0  0  0  0  0  0  0  0  0  0  0  0  # atno 10167 bound_to 10162
  157.4293  131.1047  151.0268 H   0  0  0  0  0  0  0  0  0  0  0  0  # atno 10718 bound_to 10713
  152.9816  135.6022  154.3529 H   0  0  0  0  0  0  0  0  0  0  0  0  # atno 10763 bound_to 10752
  154.3217  135.2769  155.2518 H   0  0  0  0  0  0  0  0  0  0  0  0  # atno 10764 bound_to 10752
  154.4682  135.5948  153.6358 H   0  0  0  0  0  0  0  0  0  0  0  0  # atno 10765 bound_to 10752
  140.5702  134.5245  157.5160 H   0  0  0  0  0  0  0  0  0  0  0  0  # atno 11005 bound_to 11000
  146.1700  139.4847  142.9933 LP  0  0  0  0  0  0  0  0  0  0  0  0  # atno 17320 bound_to 7965
  145.6576  141.0248  143.1726 LP  0  0  0  0  0  0  0  0  0  0  0  0  # atno 17321 bound_to 7965
  139.5776  144.7495  151.3724 LP  0  0  0  0  0  0  0  0  0  0  0  0  # atno 17342 bound_to 10162
  140.7074  143.7477  150.7507 LP  0  0  0  0  0  0  0  0  0  0  0  0  # atno 17343 bound_to 10162
  157.1170  130.6045  149.5495 LP  0  0  0  0  0  0  0  0  0  0  0  0  # atno 17370 bound_to 10713
  155.9907  130.4960  150.7270 LP  0  0  0  0  0  0  0  0  0  0  0  0  # atno 17371 bound_to 10713
  139.9365  134.7865  156.0788 LP  0  0  0  0  0  0  0  0  0  0  0  0  # atno 17394 bound_to 11000
  141.1061  133.6659  156.2867 LP  0  0  0  0  0  0  0  0  0  0  0  0  # atno 17395 bound_to 11000

$$$$
