AV-unprocessed.smi:1191|AV-procd|sdf|4986|dock6
  -GOLD-   22720 3583D 1   1.00000     0.00000
 Structure written by MMmdl.
 47 48  0  0  0  0  0  0  0  0  2 V2000
  153.9814  140.9925  161.1118 C   0  0  0  0  0  0  0  0  0  0  0  0
  153.1248  141.7910  160.1739 C   0  0  0  0  0  0  0  0  0  0  0  0
  152.9706  143.2039  160.1065 C   0  0  0  0  0  0  0  0  0  0  0  0
  152.0852  143.3989  159.0840 C   0  0  0  0  0  0  0  0  0  0  0  0
  151.5246  144.6645  158.5231 C   0  0  0  0  0  0  0  0  0  0  0  0
  151.7521  142.1470  158.5977 N   0  0  0  0  0  0  0  0  0  0  0  0
  150.8558  141.7938  157.5076 C   0  0  0  0  0  0  0  0  0  0  0  0
  149.4479  141.4952  158.0246 C   0  0  0  0  0  0  0  0  0  0  0  0
  148.9173  140.4120  157.7798 O   0  0  0  0  0  0  0  0  0  0  0  0
  148.8559  142.4618  158.7431 N   0  0  0  0  0  0  0  0  0  0  0  0
  147.5323  142.3659  159.3449 C   0  0  0  0  0  0  0  0  0  0  0  0
  146.4336  142.2544  158.2708 C   0  0  0  0  0  0  0  0  0  0  0  0
  145.4183  143.3297  158.3947 N   0  3  1  0  0  0  0  0  0  0  0  0
  144.5050  143.3824  157.2243 C   0  0  0  0  0  0  0  0  0  0  0  0
  143.5746  144.6030  157.3041 C   0  0  0  0  0  0  0  0  0  0  0  0
  142.7857  144.6113  158.6212 C   0  0  0  0  0  0  0  0  0  0  0  0
  143.7238  144.4897  159.8367 C   0  0  2  0  0  0  0  0  0  0  0  0
  144.4977  145.7878  160.1266 C   0  0  0  0  0  0  0  0  0  0  0  0
  144.6628  143.2766  159.6758 C   0  0  0  0  0  0  0  0  0  0  0  0
  152.3943  141.1640  159.2667 N   0  0  0  0  0  0  0  0  0  0  0  0
  154.4645  141.6348  161.8484 H   0  0  0  0  0  0  0  0  0  0  0  0
  154.7647  140.4612  160.5709 H   0  0  0  0  0  0  0  0  0  0  0  0
  153.3895  140.2545  161.6537 H   0  0  0  0  0  0  0  0  0  0  0  0
  153.4397  143.9609  160.7174 H   0  0  0  0  0  0  0  0  0  0  0  0
  151.9233  145.5330  159.0479 H   0  0  0  0  0  0  0  0  0  0  0  0
  150.4388  144.6855  158.6190 H   0  0  0  0  0  0  0  0  0  0  0  0
  151.7754  144.7674  157.4673 H   0  0  0  0  0  0  0  0  0  0  0  0
  150.8204  142.6114  156.7855 H   0  0  0  0  0  0  0  0  0  0  0  0
  151.2560  140.9260  156.9824 H   0  0  0  0  0  0  0  0  0  0  0  0
  149.3691  143.3189  158.8940 H   0  0  0  0  0  0  0  0  0  0  0  0
  147.5349  141.4906  159.9931 H   0  0  0  0  0  0  0  0  0  0  0  0
  147.3525  143.2289  159.9886 H   0  0  0  0  0  0  0  0  0  0  0  0
  146.9063  142.3229  157.2900 H   0  0  0  0  0  0  0  0  0  0  0  0
  145.9485  141.2777  158.3084 H   0  0  0  0  0  0  0  0  0  0  0  0
  145.0854  143.4406  156.3025 H   0  0  0  0  0  0  0  0  0  0  0  0
  143.9203  142.4624  157.1746 H   0  0  0  0  0  0  0  0  0  0  0  0
  144.1602  145.5184  157.2139 H   0  0  0  0  0  0  0  0  0  0  0  0
  142.8845  144.5985  156.4599 H   0  0  0  0  0  0  0  0  0  0  0  0
  142.1780  145.5139  158.6938 H   0  0  0  0  0  0  0  0  0  0  0  0
  142.0878  143.7729  158.6219 H   0  0  0  0  0  0  0  0  0  0  0  0
  143.0981  144.3045  160.7109 H   0  0  0  0  0  0  0  0  0  0  0  0
  145.1771  146.0482  159.3151 H   0  0  0  0  0  0  0  0  0  0  0  0
  145.0931  145.6926  161.0351 H   0  0  0  0  0  0  0  0  0  0  0  0
  143.8156  146.6264  160.2704 H   0  0  0  0  0  0  0  0  0  0  0  0
  144.0801  142.3543  159.7056 H   0  0  0  0  0  0  0  0  0  0  0  0
  145.3453  143.2358  160.5241 H   0  0  0  0  0  0  0  0  0  0  0  0
  145.9282  144.2017  158.3889 H   0  0  0  0  0  0  0  0  0  0  0  0
  1  2  1  0  0  0  0
  1 21  1  0  0  0  0
  1 22  1  0  0  0  0
  1 23  1  0  0  0  0
  2 20  2  0  0  0  0
  2  3  1  0  0  0  0
  3  4  2  0  0  0  0
  3 24  1  0  0  0  0
  4  5  1  0  0  0  0
  4  6  1  0  0  0  0
  5 25  1  0  0  0  0
  5 26  1  0  0  0  0
  5 27  1  0  0  0  0
  6  7  1  0  0  0  0
  6 20  1  0  0  0  0
  7  8  1  0  0  0  0
  7 28  1  0  0  0  0
  7 29  1  0  0  0  0
  8  9  2  0  0  0  0
  8 10  1  0  0  0  0
 10 11  1  0  0  0  0
 10 30  1  0  0  0  0
 11 12  1  0  0  0  0
 11 31  1  0  0  0  0
 11 32  1  0  0  0  0
 12 13  1  0  0  0  0
 12 33  1  0  0  0  0
 12 34  1  0  0  0  0
 13 19  1  0  0  0  0
 13 14  1  0  0  0  0
 13 47  1  0  0  0  0
 14 15  1  0  0  0  0
 14 35  1  0  0  0  0
 14 36  1  0  0  0  0
 15 16  1  0  0  0  0
 15 37  1  0  0  0  0
 15 38  1  0  0  0  0
 16 17  1  0  0  0  0
 16 39  1  0  0  0  0
 16 40  1  0  0  0  0
 17 18  1  0  0  0  0
 17 19  1  0  0  0  0
 17 41  1  0  0  0  0
 18 42  1  0  0  0  0
 18 43  1  0  0  0  0
 18 44  1  0  0  0  0
 19 45  1  0  0  0  0
 19 46  1  0  0  0  0
M  CHG  1  13   1
M  END
> <s_m_source_file>
AV-unprocessed.smi

> <i_m_source_file_index>
1191

> <i_lp_mmshare_version>
43012

> <i_f3d_flags>
0

> <s_epik_input>
W0NIM11jMVtjSF1jKFtDSDNdKW4objEpW0NIMl1DKD1PKVtOSF1bQ0gyXVtDSDJdTjJbQ0gyXVtDSDJdW0NIMl1bQ0BASF0oW0NIM10pW0NIMl0y

> <s_epik_cmdline>
J2VwaWtfcHl0aG9uJywgJy1waCcsICc3LjAnLCAnLXRuJywgJzgnLCAnLW1hJywgJzIwMCcsICctbWV0YWxfYmluZGluZycsICctaW1hZScsICc8aW5maWxlLm1hZT4nLCAnLW9tYWUnLCAnPG91dGZpbGUubWFlPic=

> <r_lp_tautomer_probability>
1

> <r_epik_Ionization_Penalty>
0.00249932

> <r_epik_Ionization_Penalty_Charging>
0.00230623

> <r_epik_Ionization_Penalty_Neutral>
0.000193092

> <r_epik_State_Penalty>
-0

> <r_epik_Charging_Adjusted_Penalty>
0.00230623

> <i_epik_Tot_Q>
1

> <i_epik_Tot_abs_Q>
1

> <r_epik_Metal_State_Penalty>
-0

> <b_epik_Metal_Only>
0

> <s_lp_Force_Field>
OPLS_2005

> <r_lp_Energy>
16.3649

> <b_lp_Chiralities_Consistent>
1

> <s_lp_Variant>
AV-unprocessed.smi:1191-3

> <Gold.Version>
5.8.1

> <Gold.Id.Protein>
6NUR|6NUR_protein|mol2

> <Gold.PLP.Fitness>
41.4995

> <Gold.PLP.PLP>
-37.0551

> <Gold.PLP.part.hbond>
-1.1186

> <Gold.PLP.part.metal>
0.0000

> <Gold.PLP.part.buried>
-4.4842

> <Gold.PLP.part.nonpolar>
-30.6701

> <Gold.PLP.part.repulsive>
0.1445

> <Gold.PLP.ligand.clash>
0.0000

> <Gold.PLP.ligand.torsion>
0.7921

> <Gold.PLP.Chemscore.Hbond>
2.0000

> <Gold.PLP.Chemscore.CHOScore>
0.0000

> <Gold.PLP.Chemscore.Metal>
0.0000

> <Gold.PLP.Chemscore.Internal.Correction>
0.0285

> <Gold.Rescore>
     Score         DG    S(hbond)    S(metal)    S(lipo)     H(rot)  DE(clash)    DE(int)     intcor
     14.82     -15.66       0.96        0.00      95.99       1.67       0.06       0.79       ----

> <Gold.Chemscore.Fitness>
14.8151

> <Gold.Chemscore.DG>
-15.6622

> <Gold.Chemscore.ZeroCoef>
-5.4800

> <Gold.Chemscore.Hbond>
0.9628

> <Gold.Chemscore.Metal>
0.0000

> <Gold.Chemscore.Lipo>
95.9866

> <Gold.Chemscore.Internal_Hbond>
0.0000

> <Gold.Chemscore.DEClash>
0.0588

> <Gold.Chemscore.DEInternal>
0.7883

> <Gold.Chemscore.Rot>
1.6657

> <Gold.Chemscore.Internal.Correction>
   9.000000E+99

> <Gold.Chemscore.Hbond.Weighted>
-3.2158

> <Gold.Chemscore.Metal.Weighted>
-0.0000

> <Gold.Chemscore.Lipo.Weighted>
-11.2304

> <Gold.Chemscore.Internal_Hbond.Weighted>
0.0000

> <Gold.Chemscore.DEClash.Weighted>
0.0588

> <Gold.Chemscore.DEInternal.Weighted>
0.7883

> <Gold.Chemscore.Rot.Weighted>
4.2641

> <Gold.Chemscore.Internal.Correction.Weighted>
   9.000000E+99

> <Gold.Protein.RotatedTorsions>
[ 6907 6896 6895 6894 ] final   27.12 input  -60.11 | X-H torsion
[ 7974 7965 7964 7962 ] final -139.55 input  175.53 | X-H torsion
[ 8008 7997 7996 7995 ] final   68.07 input   59.86 | X-H torsion
[ 10167 10162 10161 10158 ] final  -77.21 input  -65.29 | X-H torsion
[ 10718 10713 10712 10709 ] final   69.05 input   66.30 | X-H torsion
[ 10763 10752 10751 10750 ] final   88.84 input  -60.55 | X-H torsion
[ 11005 11000 10999 10996 ] final  179.30 input  -57.11 | X-H torsion

> <Gold.Protein.ActiveResidues>
 VAL166  LYS551  ARG553  GLY616  TRP617  ASP618  TYR619  PRO620  LYS621  CYS622 
 ASP623  PHE694  ASN695  SER759  ASP760  ASP761  ALA762  ILE779  LEU786  VAL792 
 PHE793  MET794  SER795  GLU796  ALA797  LYS798  CYS799  TRP800  GLU811  SER814 

> <Gold.Protein.RotatedAtoms>
  151.9975  134.9946  160.0563 H   0  0  0  0  0  0  0  0  0  0  0  0  # atno 6907 bound_to 6896
  152.1550  133.4541  159.4841 H   0  0  0  0  0  0  0  0  0  0  0  0  # atno 6908 bound_to 6896
  150.6880  134.2059  159.4383 H   0  0  0  0  0  0  0  0  0  0  0  0  # atno 6909 bound_to 6896
  144.8668  140.6305  143.5293 H   0  0  0  0  0  0  0  0  0  0  0  0  # atno 7974 bound_to 7965
  155.7027  140.3495  155.4940 H   0  0  0  0  0  0  0  0  0  0  0  0  # atno 8008 bound_to 7997
  155.9426  140.1104  157.1065 H   0  0  0  0  0  0  0  0  0  0  0  0  # atno 8009 bound_to 7997
  154.4105  140.1210  156.4934 H   0  0  0  0  0  0  0  0  0  0  0  0  # atno 8010 bound_to 7997
  140.4790  143.2407  151.8088 H   0  0  0  0  0  0  0  0  0  0  0  0  # atno 10167 bound_to 10162
  157.6324  130.9406  150.0461 H   0  0  0  0  0  0  0  0  0  0  0  0  # atno 10718 bound_to 10713
  153.1809  135.4492  155.0027 H   0  0  0  0  0  0  0  0  0  0  0  0  # atno 10763 bound_to 10752
  154.8029  135.3263  154.7506 H   0  0  0  0  0  0  0  0  0  0  0  0  # atno 10764 bound_to 10752
  153.7970  135.6965  153.4917 H   0  0  0  0  0  0  0  0  0  0  0  0  # atno 10765 bound_to 10752
  140.4046  134.6746  157.4581 H   0  0  0  0  0  0  0  0  0  0  0  0  # atno 11005 bound_to 11000
  145.4206  139.1564  143.4076 LP  0  0  0  0  0  0  0  0  0  0  0  0  # atno 17320 bound_to 7965
  146.2901  140.4317  142.8742 LP  0  0  0  0  0  0  0  0  0  0  0  0  # atno 17321 bound_to 7965
  139.4830  144.4797  151.9322 LP  0  0  0  0  0  0  0  0  0  0  0  0  # atno 17342 bound_to 10162
  140.3882  144.2649  150.5902 LP  0  0  0  0  0  0  0  0  0  0  0  0  # atno 17343 bound_to 10162
  156.1537  130.3643  149.9400 LP  0  0  0  0  0  0  0  0  0  0  0  0  # atno 17370 bound_to 10713
  156.7413  130.9080  151.3632 LP  0  0  0  0  0  0  0  0  0  0  0  0  # atno 17371 bound_to 10713
  140.0311  134.6404  155.9105 LP  0  0  0  0  0  0  0  0  0  0  0  0  # atno 17394 bound_to 11000
  141.1844  133.6553  156.5155 LP  0  0  0  0  0  0  0  0  0  0  0  0  # atno 17395 bound_to 11000

$$$$
