AV-unprocessed.smi:3128|AV-procd|sdf|11920|dock8
  -GOLD-   2272017303D 1   1.00000     0.00000
 Structure written by MMmdl.
 39 39  0  0  0  0  0  0  0  0  1 V2000
  149.9649  141.4379  155.6512 C   0  0  0  0  0  0  0  0  0  0  0  0
  149.2206  141.0291  154.3672 C   0  0  0  0  0  0  0  0  0  0  0  0
  147.9154  141.8409  154.2531 C   0  0  0  0  0  0  0  0  0  0  0  0
  148.9715  139.4995  154.2897 C   0  0  2  0  0  0  0  0  0  0  0  0
  150.2701  138.6688  154.3113 C   0  0  0  0  0  0  0  0  0  0  0  0
  148.2260  139.1717  153.0757 N   0  0  0  0  0  0  0  0  0  0  0  0
  147.0110  138.6031  153.0356 C   0  0  0  0  0  0  0  0  0  0  0  0
  146.3616  138.3163  154.0408 O   0  0  0  0  0  0  0  0  0  0  0  0
  146.4482  138.2830  151.6476 C   0  0  0  0  0  0  0  0  0  0  0  0
  145.1399  137.6172  151.7044 N   0  0  0  0  0  0  0  0  0  0  0  0
  145.2312  136.1645  151.8168 C   0  0  0  0  0  0  0  0  0  0  0  0
  144.6035  135.5024  150.5803 C   0  0  0  0  0  0  0  0  0  0  0  0
  144.7097  134.0551  150.6376 N   0  0  0  0  0  0  0  0  0  0  0  0
  143.6965  133.1198  150.6507 C   0  0  0  0  0  0  0  0  0  0  0  0
  144.2813  131.8889  150.7373 C   0  0  0  0  0  0  0  0  0  0  0  0
  145.6741  132.1781  150.7724 C   0  0  0  0  0  0  0  0  0  0  0  0
  145.9278  133.4753  150.7116 N   0  0  0  0  0  0  0  0  0  0  0  0
  149.4188  141.1256  156.5419 H   0  0  0  0  0  0  0  0  0  0  0  0
  150.0914  142.5198  155.7032 H   0  0  0  0  0  0  0  0  0  0  0  0
  150.9626  141.0029  155.6992 H   0  0  0  0  0  0  0  0  0  0  0  0
  149.8501  141.3117  153.5224 H   0  0  0  0  0  0  0  0  0  0  0  0
  147.2150  141.5747  155.0454 H   0  0  0  0  0  0  0  0  0  0  0  0
  147.4155  141.6793  153.2981 H   0  0  0  0  0  0  0  0  0  0  0  0
  148.1108  142.9108  154.3306 H   0  0  0  0  0  0  0  0  0  0  0  0
  148.3688  139.2148  155.1543 H   0  0  0  0  0  0  0  0  0  0  0  0
  150.8079  138.7822  155.2518 H   0  0  0  0  0  0  0  0  0  0  0  0
  150.9411  138.9591  153.5022 H   0  0  0  0  0  0  0  0  0  0  0  0
  150.0607  137.6045  154.1977 H   0  0  0  0  0  0  0  0  0  0  0  0
  148.6837  139.3661  152.1971 H   0  0  0  0  0  0  0  0  0  0  0  0
  146.3329  139.2243  151.1096 H   0  0  0  0  0  0  0  0  0  0  0  0
  147.1507  137.6804  151.0693 H   0  0  0  0  0  0  0  0  0  0  0  0
  144.5586  137.8563  150.9141 H   0  0  0  0  0  0  0  0  0  0  0  0
  146.2828  135.8900  151.9023 H   0  0  0  0  0  0  0  0  0  0  0  0
  144.7357  135.7838  152.7096 H   0  0  0  0  0  0  0  0  0  0  0  0
  143.5539  135.7801  150.4758 H   0  0  0  0  0  0  0  0  0  0  0  0
  145.1095  135.8475  149.6777 H   0  0  0  0  0  0  0  0  0  0  0  0
  142.6561  133.4060  150.6054 H   0  0  0  0  0  0  0  0  0  0  0  0
  143.7888  130.9286  150.7742 H   0  0  0  0  0  0  0  0  0  0  0  0
  146.5027  131.4888  150.8412 H   0  0  0  0  0  0  0  0  0  0  0  0
  1  2  1  0  0  0  0
  1 18  1  0  0  0  0
  1 19  1  0  0  0  0
  1 20  1  0  0  0  0
  2  3  1  0  0  0  0
  2  4  1  0  0  0  0
  2 21  1  0  0  0  0
  3 22  1  0  0  0  0
  3 23  1  0  0  0  0
  3 24  1  0  0  0  0
  4  5  1  0  0  0  0
  4  6  1  0  0  0  0
  4 25  1  0  0  0  0
  5 26  1  0  0  0  0
  5 27  1  0  0  0  0
  5 28  1  0  0  0  0
  6  7  1  0  0  0  0
  6 29  1  0  0  0  0
  7  8  2  0  0  0  0
  7  9  1  0  0  0  0
  9 10  1  0  0  0  0
  9 30  1  0  0  0  0
  9 31  1  0  0  0  0
 10 11  1  0  0  0  0
 10 32  1  0  0  0  0
 11 12  1  0  0  0  0
 11 33  1  0  0  0  0
 11 34  1  0  0  0  0
 12 13  1  0  0  0  0
 12 35  1  0  0  0  0
 12 36  1  0  0  0  0
 13 17  1  0  0  0  0
 13 14  1  0  0  0  0
 14 15  2  0  0  0  0
 14 37  1  0  0  0  0
 15 16  1  0  0  0  0
 15 38  1  0  0  0  0
 16 17  2  0  0  0  0
 16 39  1  0  0  0  0
M  END
> <s_m_source_file>
AV-unprocessed.smi

> <i_m_source_file_index>
3128

> <i_lp_mmshare_version>
43012

> <i_f3d_flags>
0

> <s_epik_input>
W0NIM11bQ0hdKFtDSDNdKVtDQEhdKFtDSDNdKVtOSF1DKD1PKVtDSDJdW05IXVtDSDJdW0NIMl1uMVtjSF1bY0hdW2NIXW4x

> <s_epik_cmdline>
J2VwaWtfcHl0aG9uJywgJy1waCcsICc3LjAnLCAnLXRuJywgJzgnLCAnLW1hJywgJzIwMCcsICctbWV0YWxfYmluZGluZycsICctaW1hZScsICc8aW5maWxlLm1hZT4nLCAnLW9tYWUnLCAnPG91dGZpbGUubWFlPic=

> <r_lp_tautomer_probability>
1

> <r_epik_Ionization_Penalty>
0.724947

> <r_epik_Ionization_Penalty_Charging>
0

> <r_epik_Ionization_Penalty_Neutral>
0.724947

> <r_epik_State_Penalty>
0.747959

> <r_epik_Charging_Adjusted_Penalty>
0.747959

> <i_epik_Tot_Q>
0

> <i_epik_Tot_abs_Q>
0

> <r_epik_Metal_State_Penalty>
0.746178

> <b_epik_Metal_Only>
0

> <s_lp_Force_Field>
OPLS_2005

> <r_lp_Energy>
7.88811

> <b_lp_Chiralities_Consistent>
1

> <s_lp_Variant>
AV-unprocessed.smi:3128-3

> <Gold.Version>
5.8.1

> <Gold.Id.Protein>
6NUR|6NUR_protein|mol2

> <Gold.PLP.Fitness>
50.1377

> <Gold.PLP.PLP>
-39.1764

> <Gold.PLP.part.hbond>
-2.3202

> <Gold.PLP.part.metal>
0.0000

> <Gold.PLP.part.buried>
-3.7439

> <Gold.PLP.part.nonpolar>
-35.0912

> <Gold.PLP.part.repulsive>
0.4086

> <Gold.PLP.ligand.clash>
0.0000

> <Gold.PLP.ligand.torsion>
0.5572

> <Gold.PLP.Chemscore.Hbond>
1.9913

> <Gold.PLP.Chemscore.CHOScore>
2.0000

> <Gold.PLP.Chemscore.Metal>
0.0000

> <Gold.Chemscore.Hbonds>
donor molecule, donor type, donor heavy atom, donor atom, acceptor molecule, acceptor atom, score
      L1  H     6    29       P1  7957  0.99
      L1  H    10    32       P1 10171  0.91
      L1  C    14    37       P1 10186  1.00
      L1  C    16    39       P1 10747  0.80

> <Gold.PLP.Chemscore.Internal.Correction>
0.1019

> <Gold.Rescore>
     Score         DG    S(hbond)    S(metal)    S(lipo)     H(rot)  DE(clash)    DE(int)     intcor
     16.08     -16.62       1.98        0.00      85.77       2.15       0.01       0.53       ----

> <Gold.Chemscore.Fitness>
16.0825

> <Gold.Chemscore.DG>
-16.6243

> <Gold.Chemscore.ZeroCoef>
-5.4800

> <Gold.Chemscore.Hbond>
1.9790

> <Gold.Chemscore.Metal>
0.0000

> <Gold.Chemscore.Lipo>
85.7727

> <Gold.Chemscore.Internal_Hbond>
0.0000

> <Gold.Chemscore.DEClash>
0.0129

> <Gold.Chemscore.DEInternal>
0.5290

> <Gold.Chemscore.Rot>
2.1488

> <Gold.Chemscore.Internal.Correction>
   9.000000E+99

> <Gold.Chemscore.Hbonds>
donor molecule, donor type, donor heavy atom, donor atom, acceptor molecule, acceptor atom, score
      L1  H     6    29       P1  7957  0.93
      L1  H    10    32       P1 10171  0.87

> <Gold.Chemscore.Hbond.Weighted>
-6.6100

> <Gold.Chemscore.Metal.Weighted>
-0.0000

> <Gold.Chemscore.Lipo.Weighted>
-10.0354

> <Gold.Chemscore.Internal_Hbond.Weighted>
0.0000

> <Gold.Chemscore.DEClash.Weighted>
0.0129

> <Gold.Chemscore.DEInternal.Weighted>
0.5290

> <Gold.Chemscore.Rot.Weighted>
5.5010

> <Gold.Chemscore.Internal.Correction.Weighted>
   9.000000E+99

> <Gold.Protein.RotatedTorsions>
[ 6907 6896 6895 6894 ] final   -9.05 input  -60.11 | X-H torsion
[ 7974 7965 7964 7962 ] final   36.42 input  175.53 | X-H torsion
[ 8008 7997 7996 7995 ] final   33.60 input   59.86 | X-H torsion
[ 10167 10162 10161 10158 ] final   96.56 input  -65.29 | X-H torsion
[ 10718 10713 10712 10709 ] final   80.85 input   66.30 | X-H torsion
[ 10763 10752 10751 10750 ] final -147.76 input  -60.55 | X-H torsion
[ 11005 11000 10999 10996 ] final  -15.89 input  -57.11 | X-H torsion

> <Gold.Protein.ActiveResidues>
 VAL166  LYS551  ARG553  GLY616  TRP617  ASP618  TYR619  PRO620  LYS621  CYS622 
 ASP623  PHE694  ASN695  SER759  ASP760  ASP761  ALA762  ILE779  LEU786  VAL792 
 PHE793  MET794  SER795  GLU796  ALA797  LYS798  CYS799  TRP800  GLU811  SER814 

> <Gold.Protein.RotatedAtoms>
  151.4239  135.1001  159.9621 H   0  0  0  0  0  0  0  0  0  0  0  0  # atno 6907 bound_to 6896
  152.4979  133.8681  159.7295 H   0  0  0  0  0  0  0  0  0  0  0  0  # atno 6908 bound_to 6896
  150.9203  133.6831  159.2861 H   0  0  0  0  0  0  0  0  0  0  0  0  # atno 6909 bound_to 6896
  146.1213  139.6020  142.9288 H   0  0  0  0  0  0  0  0  0  0  0  0  # atno 7974 bound_to 7965
  155.1412  140.3266  155.4451 H   0  0  0  0  0  0  0  0  0  0  0  0  # atno 8008 bound_to 7997
  156.2604  140.1993  156.6477 H   0  0  0  0  0  0  0  0  0  0  0  0  # atno 8009 bound_to 7997
  154.6541  140.0555  156.9975 H   0  0  0  0  0  0  0  0  0  0  0  0  # atno 8010 bound_to 7997
  139.7883  144.6862  150.9927 H   0  0  0  0  0  0  0  0  0  0  0  0  # atno 10167 bound_to 10162
  157.6817  130.9978  150.2140 H   0  0  0  0  0  0  0  0  0  0  0  0  # atno 10718 bound_to 10713
  154.8269  135.3352  154.6868 H   0  0  0  0  0  0  0  0  0  0  0  0  # atno 10763 bound_to 10752
  153.7493  135.6940  153.4954 H   0  0  0  0  0  0  0  0  0  0  0  0  # atno 10764 bound_to 10752
  153.2188  135.4456  155.0415 H   0  0  0  0  0  0  0  0  0  0  0  0  # atno 10765 bound_to 10752
  140.8012  133.8212  155.9472 H   0  0  0  0  0  0  0  0  0  0  0  0  # atno 11005 bound_to 11000
  145.5461  141.0417  143.2304 LP  0  0  0  0  0  0  0  0  0  0  0  0  # atno 17320 bound_to 7965
  144.7599  139.6981  143.7238 LP  0  0  0  0  0  0  0  0  0  0  0  0  # atno 17321 bound_to 7965
  140.7820  143.4408  151.0554 LP  0  0  0  0  0  0  0  0  0  0  0  0  # atno 17342 bound_to 10162
  139.8086  143.7983  152.3169 LP  0  0  0  0  0  0  0  0  0  0  0  0  # atno 17343 bound_to 10162
  156.2805  130.3733  149.7940 LP  0  0  0  0  0  0  0  0  0  0  0  0  # atno 17370 bound_to 10713
  156.5629  130.8391  151.3334 LP  0  0  0  0  0  0  0  0  0  0  0  0  # atno 17371 bound_to 10713
  140.9292  134.2043  157.4875 LP  0  0  0  0  0  0  0  0  0  0  0  0  # atno 17394 bound_to 11000
  139.8721  134.9826  156.5162 LP  0  0  0  0  0  0  0  0  0  0  0  0  # atno 17395 bound_to 11000

$$$$
