AV-unprocessed.smi:1983|AV-procd|sdf|8035|dock2
  -GOLD-   2272010233D 1   1.00000     0.00000
 Structure written by MMmdl.
 50 51  0  0  0  0  0  0  0  0  2 V2000
  146.0779  134.7422  155.4376 C   0  0  0  0  0  0  0  0  0  0  0  0
  147.5935  134.8433  155.2043 C   0  0  1  0  0  0  0  0  0  0  0  0
  148.2088  133.5613  154.6051 C   0  0  0  0  0  0  0  0  0  0  0  0
  148.2345  133.6096  153.1928 O   0  0  0  0  0  0  0  0  0  0  0  0
  147.9051  136.0120  154.3845 N   0  0  0  0  0  0  0  0  0  0  0  0
  147.6311  137.2834  154.7078 C   0  0  0  0  0  0  0  0  0  0  0  0
  147.0722  137.6284  155.7493 O   0  0  0  0  0  0  0  0  0  0  0  0
  148.0479  138.1386  153.7635 N   0  0  0  0  0  0  0  0  0  0  0  0
  147.8854  139.5876  153.8258 C   0  0  0  0  0  0  0  0  0  0  0  0
  148.8204  140.2799  154.8076 C   0  0  0  0  0  0  0  0  0  0  0  0
  149.6449  139.5124  155.6586 C   0  0  0  0  0  0  0  0  0  0  0  0
  150.5102  140.1630  156.5619 C   0  0  0  0  0  0  0  0  0  0  0  0
  150.5350  141.5765  156.6017 C   0  0  0  0  0  0  0  0  0  0  0  0
  151.3603  142.3124  157.4619 N   0  0  0  0  0  0  0  0  0  0  0  0
  152.1202  141.4910  158.3951 C   0  0  0  0  0  0  0  0  0  0  0  0
  153.0832  142.3739  159.2101 C   0  0  2  0  0  0  0  0  0  0  0  0
  153.8410  141.5719  160.2733 C   0  0  0  0  0  0  0  0  0  0  0  0
  152.3301  143.3912  159.8668 O   0  0  0  0  0  0  0  0  0  0  0  0
  151.6429  144.2445  158.9538 C   0  0  2  0  0  0  0  0  0  0  0  0
  150.9322  145.3377  159.7583 C   0  0  0  0  0  0  0  0  0  0  0  0
  150.6559  143.4025  158.1226 C   0  0  0  0  0  0  0  0  0  0  0  0
  149.7205  142.2738  155.7796 N   0  3  0  0  0  0  0  0  0  0  0  0
  148.8788  141.6886  154.9000 C   0  0  0  0  0  0  0  0  0  0  0  0
  145.8357  133.8862  156.0679 H   0  0  0  0  0  0  0  0  0  0  0  0
  145.5311  134.6308  154.5005 H   0  0  0  0  0  0  0  0  0  0  0  0
  145.6990  135.6346  155.9366 H   0  0  0  0  0  0  0  0  0  0  0  0
  148.0516  134.9962  156.1835 H   0  0  0  0  0  0  0  0  0  0  0  0
  149.2194  133.3946  154.9794 H   0  0  0  0  0  0  0  0  0  0  0  0
  147.6180  132.6944  154.9023 H   0  0  0  0  0  0  0  0  0  0  0  0
  148.4350  134.4939  152.9265 H   0  0  0  0  0  0  0  0  0  0  0  0
  148.3725  135.8343  153.5074 H   0  0  0  0  0  0  0  0  0  0  0  0
  148.4952  137.7614  152.9406 H   0  0  0  0  0  0  0  0  0  0  0  0
  148.0713  139.9943  152.8317 H   0  0  0  0  0  0  0  0  0  0  0  0
  146.8477  139.8245  154.0678 H   0  0  0  0  0  0  0  0  0  0  0  0
  149.6200  138.4332  155.6183 H   0  0  0  0  0  0  0  0  0  0  0  0
  151.1423  139.5789  157.2147 H   0  0  0  0  0  0  0  0  0  0  0  0
  151.4405  140.9672  159.0686 H   0  0  0  0  0  0  0  0  0  0  0  0
  152.6790  140.7330  157.8444 H   0  0  0  0  0  0  0  0  0  0  0  0
  153.8104  142.8406  158.5431 H   0  0  0  0  0  0  0  0  0  0  0  0
  154.4418  140.7849  159.8170 H   0  0  0  0  0  0  0  0  0  0  0  0
  153.1547  141.1031  160.9792 H   0  0  0  0  0  0  0  0  0  0  0  0
  154.5134  142.2161  160.8405 H   0  0  0  0  0  0  0  0  0  0  0  0
  152.3705  144.7179  158.2919 H   0  0  0  0  0  0  0  0  0  0  0  0
  150.3958  146.0232  159.1015 H   0  0  0  0  0  0  0  0  0  0  0  0
  151.6480  145.9235  160.3356 H   0  0  0  0  0  0  0  0  0  0  0  0
  150.2119  144.9104  160.4566 H   0  0  0  0  0  0  0  0  0  0  0  0
  150.1649  144.0292  157.3768 H   0  0  0  0  0  0  0  0  0  0  0  0
  149.8751  142.9955  158.7671 H   0  0  0  0  0  0  0  0  0  0  0  0
  148.2856  142.3631  154.2998 H   0  0  0  0  0  0  0  0  0  0  0  0
  149.7450  143.2929  155.8218 H   0  0  0  0  0  0  0  0  0  0  0  0
  1  2  1  0  0  0  0
  1 24  1  0  0  0  0
  1 25  1  0  0  0  0
  1 26  1  0  0  0  0
  2  3  1  0  0  0  0
  2  5  1  0  0  0  0
  2 27  1  0  0  0  0
  3  4  1  0  0  0  0
  3 28  1  0  0  0  0
  3 29  1  0  0  0  0
  4 30  1  0  0  0  0
  5  6  1  0  0  0  0
  5 31  1  0  0  0  0
  6  7  2  0  0  0  0
  6  8  1  0  0  0  0
  8  9  1  0  0  0  0
  8 32  1  0  0  0  0
  9 10  1  0  0  0  0
  9 33  1  0  0  0  0
  9 34  1  0  0  0  0
 10 23  1  0  0  0  0
 10 11  2  0  0  0  0
 11 12  1  0  0  0  0
 11 35  1  0  0  0  0
 12 13  2  0  0  0  0
 12 36  1  0  0  0  0
 13 14  1  0  0  0  0
 13 22  1  0  0  0  0
 14 21  1  0  0  0  0
 14 15  1  0  0  0  0
 15 16  1  0  0  0  0
 15 37  1  0  0  0  0
 15 38  1  0  0  0  0
 16 17  1  0  0  0  0
 16 18  1  0  0  0  0
 16 39  1  0  0  0  0
 17 40  1  0  0  0  0
 17 41  1  0  0  0  0
 17 42  1  0  0  0  0
 18 19  1  0  0  0  0
 19 20  1  0  0  0  0
 19 21  1  0  0  0  0
 19 43  1  0  0  0  0
 20 44  1  0  0  0  0
 20 45  1  0  0  0  0
 20 46  1  0  0  0  0
 21 47  1  0  0  0  0
 21 48  1  0  0  0  0
 22 23  2  0  0  0  0
 22 50  1  0  0  0  0
 23 49  1  0  0  0  0
M  CHG  1  22   1
M  END
> <s_m_source_file>
AV-unprocessed.smi

> <i_m_source_file_index>
1983

> <i_lp_mmshare_version>
43012

> <i_f3d_flags>
0

> <s_epik_input>
W09IXVtDSDJdW0NAQEhdKFtDSDNdKVtOSF1DKD1PKVtOSF1bQ0gyXWMxW2NIXVtjSF1jKG5bY0hdMSlOMltDSDJdW0NAQEhdKFtDSDNdKU9bQ0BASF0oW0NIM10pW0NIMl0y

> <s_epik_cmdline>
J2VwaWtfcHl0aG9uJywgJy1waCcsICc3LjAnLCAnLXRuJywgJzgnLCAnLW1hJywgJzIwMCcsICctbWV0YWxfYmluZGluZycsICctaW1hZScsICc8aW5maWxlLm1hZT4nLCAnLW9tYWUnLCAnPG91dGZpbGUubWFlPic=

> <r_lp_tautomer_probability>
0.999994

> <r_epik_Ionization_Penalty>
2.55677

> <r_epik_Ionization_Penalty_Charging>
2.55673

> <r_epik_Ionization_Penalty_Neutral>
3.71772e-05

> <r_epik_State_Penalty>
2.72571

> <r_epik_Charging_Adjusted_Penalty>
5.28244

> <i_epik_Tot_Q>
1

> <i_epik_Tot_abs_Q>
1

> <r_epik_Metal_State_Penalty>
2.73364

> <b_epik_Metal_Only>
0

> <s_lp_Force_Field>
OPLS_2005

> <r_lp_Energy>
22.1941

> <b_lp_Chiralities_Consistent>
1

> <s_lp_Variant>
AV-unprocessed.smi:1983-8

> <Gold.Version>
5.8.1

> <Gold.Id.Protein>
6NUR|6NUR_protein|mol2

> <Gold.PLP.Fitness>
49.8442

> <Gold.PLP.PLP>
-36.3438

> <Gold.PLP.part.hbond>
-4.0000

> <Gold.PLP.part.metal>
0.0000

> <Gold.PLP.part.buried>
-5.2421

> <Gold.PLP.part.nonpolar>
-28.6964

> <Gold.PLP.part.repulsive>
0.2392

> <Gold.PLP.ligand.clash>
0.0000

> <Gold.PLP.ligand.torsion>
0.7133

> <Gold.PLP.Chemscore.Hbond>
4.9120

> <Gold.PLP.Chemscore.CHOScore>
0.0000

> <Gold.PLP.Chemscore.Metal>
0.0000

> <Gold.Chemscore.Hbonds>
donor molecule, donor type, donor heavy atom, donor atom, acceptor molecule, acceptor atom, score
      L1  H     4    30       P1  7948  0.93
      L1  H     5    31       P1  7948  1.00
      L1  H     8    32       P1  7948  1.00
      L1  H    22    50       P1  8028  1.89

> <Gold.PLP.Chemscore.Internal.Correction>
0.1909

> <Gold.Rescore>
     Score         DG    S(hbond)    S(metal)    S(lipo)     H(rot)  DE(clash)    DE(int)     intcor
     19.41     -20.15       3.13        0.00      94.31       2.66       0.03       0.71       ----

> <Gold.Chemscore.Fitness>
19.4069

> <Gold.Chemscore.DG>
-20.1456

> <Gold.Chemscore.ZeroCoef>
-5.4800

> <Gold.Chemscore.Hbond>
3.1288

> <Gold.Chemscore.Metal>
0.0000

> <Gold.Chemscore.Lipo>
94.3130

> <Gold.Chemscore.Internal_Hbond>
0.0000

> <Gold.Chemscore.DEClash>
0.0275

> <Gold.Chemscore.DEInternal>
0.7112

> <Gold.Chemscore.Rot>
2.6637

> <Gold.Chemscore.Internal.Correction>
   9.000000E+99

> <Gold.Chemscore.Hbonds>
donor molecule, donor type, donor heavy atom, donor atom, acceptor molecule, acceptor atom, score
      L1  H     4    30       P1  7948  0.23
      L1  H     5    31       P1  7948  0.99
      L1  H     8    32       P1  7948  0.94
      L1  H    22    50       P1  8028  0.91

> <Gold.Chemscore.Hbond.Weighted>
-10.4500

> <Gold.Chemscore.Metal.Weighted>
-0.0000

> <Gold.Chemscore.Lipo.Weighted>
-11.0346

> <Gold.Chemscore.Internal_Hbond.Weighted>
0.0000

> <Gold.Chemscore.DEClash.Weighted>
0.0275

> <Gold.Chemscore.DEInternal.Weighted>
0.7112

> <Gold.Chemscore.Rot.Weighted>
6.8191

> <Gold.Chemscore.Internal.Correction.Weighted>
   9.000000E+99

> <Gold.Protein.RotatedTorsions>
[ 6907 6896 6895 6894 ] final   99.39 input  -60.11 | X-H torsion
[ 7974 7965 7964 7962 ] final   47.97 input  175.53 | X-H torsion
[ 8008 7997 7996 7995 ] final  -18.25 input   59.86 | X-H torsion
[ 10167 10162 10161 10158 ] final  -23.18 input  -65.29 | X-H torsion
[ 10718 10713 10712 10709 ] final   96.92 input   66.30 | X-H torsion
[ 10763 10752 10751 10750 ] final -108.79 input  -60.55 | X-H torsion
[ 11005 11000 10999 10996 ] final  161.62 input  -57.11 | X-H torsion

> <Gold.Protein.ActiveResidues>
 VAL166  LYS551  ARG553  GLY616  TRP617  ASP618  TYR619  PRO620  LYS621  CYS622 
 ASP623  PHE694  ASN695  SER759  ASP760  ASP761  ALA762  ILE779  LEU786  VAL792 
 PHE793  MET794  SER795  GLU796  ALA797  LYS798  CYS799  TRP800  GLU811  SER814 

> <Gold.Protein.RotatedAtoms>
  152.5393  134.0436  159.8078 H   0  0  0  0  0  0  0  0  0  0  0  0  # atno 6907 bound_to 6896
  151.0588  133.5554  159.2643 H   0  0  0  0  0  0  0  0  0  0  0  0  # atno 6908 bound_to 6896
  151.2461  135.0613  159.9097 H   0  0  0  0  0  0  0  0  0  0  0  0  # atno 6909 bound_to 6896
  146.0248  139.4693  142.9875 H   0  0  0  0  0  0  0  0  0  0  0  0  # atno 7974 bound_to 7965
  154.4920  140.2121  155.9528 H   0  0  0  0  0  0  0  0  0  0  0  0  # atno 8008 bound_to 7997
  156.1318  140.3195  155.8329 H   0  0  0  0  0  0  0  0  0  0  0  0  # atno 8009 bound_to 7997
  155.4282  140.0501  157.3011 H   0  0  0  0  0  0  0  0  0  0  0  0  # atno 8010 bound_to 7997
  140.7287  143.4467  151.0577 H   0  0  0  0  0  0  0  0  0  0  0  0  # atno 10167 bound_to 10162
  157.6920  131.0593  150.4565 H   0  0  0  0  0  0  0  0  0  0  0  0  # atno 10718 bound_to 10713
  154.8156  135.4625  154.0634 H   0  0  0  0  0  0  0  0  0  0  0  0  # atno 10763 bound_to 10752
  153.2030  135.6871  153.8214 H   0  0  0  0  0  0  0  0  0  0  0  0  # atno 10764 bound_to 10752
  153.7692  135.3272  155.3326 H   0  0  0  0  0  0  0  0  0  0  0  0  # atno 10765 bound_to 10752
  140.2176  134.8220  157.3187 H   0  0  0  0  0  0  0  0  0  0  0  0  # atno 11005 bound_to 11000
  145.7136  141.0098  143.1440 LP  0  0  0  0  0  0  0  0  0  0  0  0  # atno 17320 bound_to 7965
  144.7005  139.8786  143.7445 LP  0  0  0  0  0  0  0  0  0  0  0  0  # atno 17321 bound_to 7965
  139.8139  143.7913  152.3173 LP  0  0  0  0  0  0  0  0  0  0  0  0  # atno 17342 bound_to 10162
  139.7972  144.7388  150.9874 LP  0  0  0  0  0  0  0  0  0  0  0  0  # atno 17343 bound_to 10162
  156.4912  130.4096  149.6405 LP  0  0  0  0  0  0  0  0  0  0  0  0  # atno 17370 bound_to 10713
  156.3415  130.7384  151.2330 LP  0  0  0  0  0  0  0  0  0  0  0  0  # atno 17371 bound_to 10713
  140.1884  134.4402  155.7730 LP  0  0  0  0  0  0  0  0  0  0  0  0  # atno 17394 bound_to 11000
  141.2224  133.7015  156.7986 LP  0  0  0  0  0  0  0  0  0  0  0  0  # atno 17395 bound_to 11000

$$$$
