AV-unprocessed.smi:2978|AV-procd|sdf|11368|dock8
  -GOLD-   2272016283D 1   1.00000     0.00000
 Structure written by MMmdl.
 32 33  0  0  0  0  0  0  0  0  1 V2000
  150.8422  140.8499  155.1965 O   0  0  0  0  0  0  0  0  0  0  0  0
  149.8530  140.7364  155.9220 C   0  0  0  0  0  0  0  0  0  0  0  0
  150.0065  140.3972  157.4119 C   0  0  0  0  0  0  0  0  0  0  0  0
  150.4458  141.5394  158.2272 N   0  0  0  0  0  0  0  0  0  0  0  0
  149.7514  142.7105  157.9783 N   0  0  0  0  0  0  0  0  0  0  0  0
  150.0390  143.7728  158.6483 C   0  0  0  0  0  0  0  0  0  0  0  0
  151.0737  143.7900  159.6587 C   0  0  0  0  0  0  0  0  0  0  0  0
  151.4140  145.2457  160.5261 Cl  0  0  0  0  0  0  0  0  0  0  0  0
  151.7535  142.6388  159.8895 C   0  0  0  0  0  0  0  0  0  0  0  0
  153.0077  142.5822  161.0803 Cl  0  0  0  0  0  0  0  0  0  0  0  0
  151.4533  141.4082  159.1445 C   0  0  0  0  0  0  0  0  0  0  0  0
  152.0489  140.3447  159.3223 O   0  0  0  0  0  0  0  0  0  0  0  0
  148.5945  140.8721  155.4773 N   0  0  0  0  0  0  0  0  0  0  0  0
  148.2091  141.1817  154.1042 C   0  0  0  0  0  0  0  0  0  0  0  0
  146.7186  141.5458  153.9973 C   0  0  2  0  0  0  0  0  0  0  0  0
  146.4276  143.0264  153.7459 C   0  0  0  0  0  0  0  0  0  0  0  0
  145.0310  143.1620  154.3065 C   0  0  0  0  0  0  0  0  0  0  0  0
  145.1002  142.2562  155.5323 C   0  0  0  0  0  0  0  0  0  0  0  0
  146.0504  141.2405  155.2187 O   0  0  0  0  0  0  0  0  0  0  0  0
  149.0636  140.0052  157.7981 H   0  0  0  0  0  0  0  0  0  0  0  0
  150.7204  139.5761  157.4971 H   0  0  0  0  0  0  0  0  0  0  0  0
  149.5176  144.7166  158.4884 H   0  0  0  0  0  0  0  0  0  0  0  0
  147.8438  140.7548  156.1424 H   0  0  0  0  0  0  0  0  0  0  0  0
  148.8123  142.0285  153.7759 H   0  0  0  0  0  0  0  0  0  0  0  0
  148.4518  140.3582  153.4305 H   0  0  0  0  0  0  0  0  0  0  0  0
  146.2465  140.9507  153.2135 H   0  0  0  0  0  0  0  0  0  0  0  0
  147.1164  143.6564  154.3105 H   0  0  0  0  0  0  0  0  0  0  0  0
  146.4951  143.3023  152.6933 H   0  0  0  0  0  0  0  0  0  0  0  0
  144.7632  144.1903  154.5507 H   0  0  0  0  0  0  0  0  0  0  0  0
  144.3017  142.7767  153.5927 H   0  0  0  0  0  0  0  0  0  0  0  0
  145.4637  142.8131  156.3967 H   0  0  0  0  0  0  0  0  0  0  0  0
  144.1303  141.8292  155.7883 H   0  0  0  0  0  0  0  0  0  0  0  0
  1  2  2  0  0  0  0
  2  3  1  0  0  0  0
  2 13  1  0  0  0  0
  3  4  1  0  0  0  0
  3 20  1  0  0  0  0
  3 21  1  0  0  0  0
  4 11  1  0  0  0  0
  4  5  1  0  0  0  0
  5  6  2  0  0  0  0
  6  7  1  0  0  0  0
  6 22  1  0  0  0  0
  7  8  1  0  0  0  0
  7  9  2  0  0  0  0
  9 10  1  0  0  0  0
  9 11  1  0  0  0  0
 11 12  2  0  0  0  0
 13 14  1  0  0  0  0
 13 23  1  0  0  0  0
 14 15  1  0  0  0  0
 14 24  1  0  0  0  0
 14 25  1  0  0  0  0
 15 19  1  0  0  0  0
 15 16  1  0  0  0  0
 15 26  1  0  0  0  0
 16 17  1  0  0  0  0
 16 27  1  0  0  0  0
 16 28  1  0  0  0  0
 17 18  1  0  0  0  0
 17 29  1  0  0  0  0
 17 30  1  0  0  0  0
 18 19  1  0  0  0  0
 18 31  1  0  0  0  0
 18 32  1  0  0  0  0
M  END
> <s_m_source_file>
AV-unprocessed.smi

> <i_m_source_file_index>
2978

> <i_lp_mmshare_version>
43012

> <i_f3d_flags>
0

> <s_epik_input>
TzFbQ0gyXVtDSDJdW0NIMl1bQ0BIXTFbQ0gyXVtOSF1DKD1PKVtDSDJdbjJuW2NIXWMoQ2wpYyhDbCljMj1P

> <s_epik_cmdline>
J2VwaWtfcHl0aG9uJywgJy1waCcsICc3LjAnLCAnLXRuJywgJzgnLCAnLW1hJywgJzIwMCcsICctbWV0YWxfYmluZGluZycsICctaW1hZScsICc8aW5maWxlLm1hZT4nLCAnLW9tYWUnLCAnPG91dGZpbGUubWFlPic=

> <r_lp_tautomer_probability>
1

> <r_epik_Ionization_Penalty>
2.68881e-08

> <r_epik_Ionization_Penalty_Charging>
2.90862e-11

> <r_epik_Ionization_Penalty_Neutral>
2.6859e-08

> <r_epik_State_Penalty>
-0

> <r_epik_Charging_Adjusted_Penalty>
2.90862e-11

> <i_epik_Tot_Q>
0

> <i_epik_Tot_abs_Q>
0

> <r_epik_Metal_State_Penalty>
-0

> <b_epik_Metal_Only>
0

> <s_lp_Force_Field>
OPLS_2005

> <r_lp_Energy>
31.3125

> <b_lp_Chiralities_Consistent>
1

> <s_lp_Variant>
AV-unprocessed.smi:2978-1

> <Gold.Version>
5.8.1

> <Gold.Id.Protein>
6NUR|6NUR_protein|mol2

> <Gold.PLP.Fitness>
40.6566

> <Gold.PLP.PLP>
-37.1490

> <Gold.PLP.part.hbond>
-1.0000

> <Gold.PLP.part.metal>
0.0000

> <Gold.PLP.part.buried>
-5.2727

> <Gold.PLP.part.nonpolar>
-31.1734

> <Gold.PLP.part.repulsive>
0.3927

> <Gold.PLP.ligand.clash>
0.0000

> <Gold.PLP.ligand.torsion>
1.0938

> <Gold.PLP.Chemscore.Hbond>
0.8480

> <Gold.PLP.Chemscore.CHOScore>
1.0478

> <Gold.PLP.Chemscore.Metal>
0.0000

> <Gold.Chemscore.Hbonds>
donor molecule, donor type, donor heavy atom, donor atom, acceptor molecule, acceptor atom, score
      P1  H  7989  7998       L1     1  0.80
      L1  C     6    22       P1  8028  0.01
      L1  C     6    22       P1  8029  1.00

> <Gold.PLP.Chemscore.Internal.Correction>
0.0076

> <Gold.Rescore>
     Score         DG    S(hbond)    S(metal)    S(lipo)     H(rot)  DE(clash)    DE(int)     intcor
     12.66     -13.91       0.97        0.00      84.50       1.83       0.02       1.24       ----

> <Gold.Chemscore.Fitness>
12.6600

> <Gold.Chemscore.DG>
-13.9136

> <Gold.Chemscore.ZeroCoef>
-5.4800

> <Gold.Chemscore.Hbond>
0.9693

> <Gold.Chemscore.Metal>
0.0000

> <Gold.Chemscore.Lipo>
84.4973

> <Gold.Chemscore.Internal_Hbond>
0.0000

> <Gold.Chemscore.DEClash>
0.0180

> <Gold.Chemscore.DEInternal>
1.2356

> <Gold.Chemscore.Rot>
1.8320

> <Gold.Chemscore.Internal.Correction>
   9.000000E+99

> <Gold.Chemscore.Hbonds>
donor molecule, donor type, donor heavy atom, donor atom, acceptor molecule, acceptor atom, score
      P1  H  7989  7998       L1     1  0.80

> <Gold.Chemscore.Hbond.Weighted>
-3.2373

> <Gold.Chemscore.Metal.Weighted>
-0.0000

> <Gold.Chemscore.Lipo.Weighted>
-9.8862

> <Gold.Chemscore.Internal_Hbond.Weighted>
0.0000

> <Gold.Chemscore.DEClash.Weighted>
0.0180

> <Gold.Chemscore.DEInternal.Weighted>
1.2356

> <Gold.Chemscore.Rot.Weighted>
4.6900

> <Gold.Chemscore.Internal.Correction.Weighted>
   9.000000E+99

> <Gold.Protein.RotatedTorsions>
[ 6907 6896 6895 6894 ] final  121.45 input  -60.11 | X-H torsion
[ 7974 7965 7964 7962 ] final   21.91 input  175.53 | X-H torsion
[ 8008 7997 7996 7995 ] final  -61.52 input   59.86 | X-H torsion
[ 10167 10162 10161 10158 ] final   30.74 input  -65.29 | X-H torsion
[ 10718 10713 10712 10709 ] final  179.98 input   66.30 | X-H torsion
[ 10763 10752 10751 10750 ] final  -84.18 input  -60.55 | X-H torsion
[ 11005 11000 10999 10996 ] final  -85.49 input  -57.11 | X-H torsion

> <Gold.Protein.ActiveResidues>
 VAL166  LYS551  ARG553  GLY616  TRP617  ASP618  TYR619  PRO620  LYS621  CYS622 
 ASP623  PHE694  ASN695  SER759  ASP760  ASP761  ALA762  ILE779  LEU786  VAL792 
 PHE793  MET794  SER795  GLU796  ALA797  LYS798  CYS799  TRP800  GLU811  SER814 

> <Gold.Protein.RotatedAtoms>
  152.4321  133.7295  159.6579 H   0  0  0  0  0  0  0  0  0  0  0  0  # atno 6907 bound_to 6896
  150.8201  133.8258  159.3149 H   0  0  0  0  0  0  0  0  0  0  0  0  # atno 6908 bound_to 6896
  151.5943  135.1054  160.0097 H   0  0  0  0  0  0  0  0  0  0  0  0  # atno 6909 bound_to 6896
  146.2051  139.7960  142.8732 H   0  0  0  0  0  0  0  0  0  0  0  0  # atno 7974 bound_to 7965
  154.4452  140.1016  156.6443 H   0  0  0  0  0  0  0  0  0  0  0  0  # atno 8008 bound_to 7997
  155.5467  140.3485  155.4440 H   0  0  0  0  0  0  0  0  0  0  0  0  # atno 8009 bound_to 7997
  156.0558  140.1314  156.9987 H   0  0  0  0  0  0  0  0  0  0  0  0  # atno 8010 bound_to 7997
  140.4650  144.0848  150.6222 H   0  0  0  0  0  0  0  0  0  0  0  0  # atno 10167 bound_to 10162
  156.8677  130.9773  151.3076 H   0  0  0  0  0  0  0  0  0  0  0  0  # atno 10718 bound_to 10713
  154.5965  135.5529  153.7331 H   0  0  0  0  0  0  0  0  0  0  0  0  # atno 10763 bound_to 10752
  153.0137  135.6356  154.1775 H   0  0  0  0  0  0  0  0  0  0  0  0  # atno 10764 bound_to 10752
  154.1715  135.2892  155.3059 H   0  0  0  0  0  0  0  0  0  0  0  0  # atno 10765 bound_to 10752
  141.1640  133.7402  156.9022 H   0  0  0  0  0  0  0  0  0  0  0  0  # atno 11005 bound_to 11000
  145.3346  141.0274  143.3427 LP  0  0  0  0  0  0  0  0  0  0  0  0  # atno 17320 bound_to 7965
  144.8774  139.4951  143.6739 LP  0  0  0  0  0  0  0  0  0  0  0  0  # atno 17321 bound_to 7965
  140.4046  143.2686  151.9906 LP  0  0  0  0  0  0  0  0  0  0  0  0  # atno 17342 bound_to 10162
  139.4811  144.5968  151.7676 LP  0  0  0  0  0  0  0  0  0  0  0  0  # atno 17343 bound_to 10162
  157.6213  130.8657  149.9114 LP  0  0  0  0  0  0  0  0  0  0  0  0  # atno 17370 bound_to 10713
  156.0743  130.3681  150.0711 LP  0  0  0  0  0  0  0  0  0  0  0  0  # atno 17371 bound_to 10713
  140.1574  134.9188  157.2671 LP  0  0  0  0  0  0  0  0  0  0  0  0  # atno 17394 bound_to 11000
  140.2651  134.3526  155.7393 LP  0  0  0  0  0  0  0  0  0  0  0  0  # atno 17395 bound_to 11000

$$$$
