AV-unprocessed.smi:1601|AV-procd|sdf|6438|dock10
  -GOLD-   22720 7 83D 1   1.00000     0.00000
 Structure written by MMmdl.
 42 43  0  0  0  0  0  0  0  0  2 V2000
  147.9433  138.1788  154.1715 C   0  0  0  0  0  0  0  0  0  0  0  0
  146.8217  138.7940  153.2982 C   0  0  1  0  0  0  0  0  0  0  0  0
  145.7040  137.7530  153.0243 C   0  0  0  0  0  0  0  0  0  0  0  0
  146.2137  136.4954  152.4822 N   0  0  0  0  0  0  0  0  0  0  0  0
  145.4687  135.4305  152.1432 C   0  0  0  0  0  0  0  0  0  0  0  0
  144.2438  135.3990  152.2673 O   0  0  0  0  0  0  0  0  0  0  0  0
  146.2333  134.2186  151.5878 C   0  0  1  0  0  0  0  0  0  0  0  0
  147.1901  133.5925  152.6188 C   0  0  0  0  0  0  0  0  0  0  0  0
  145.3055  133.2231  151.0671 N   0  0  0  0  0  0  0  0  0  0  0  0
  144.3812  133.3460  150.0474 C   0  0  0  0  0  0  0  0  0  0  0  0
  143.7353  132.1487  149.9338 C   0  0  0  0  0  0  0  0  0  0  0  0
  144.3351  131.3448  150.9425 C   0  0  0  0  0  0  0  0  0  0  0  0
  145.2719  131.9898  151.6186 N   0  0  0  0  0  0  0  0  0  0  0  0
  146.2319  140.0434  153.8852 N   0  3  0  0  0  0  0  0  0  0  0  0
  145.7104  139.9179  155.2752 C   0  0  0  0  0  0  0  0  0  0  0  0
  145.1044  141.2444  155.7656 C   0  0  0  0  0  0  0  0  0  0  0  0
  146.0718  142.2793  155.6789 O   0  0  0  0  0  0  0  0  0  0  0  0
  146.4897  142.4864  154.3382 C   0  0  0  0  0  0  0  0  0  0  0  0
  147.1569  141.2077  153.8060 C   0  0  0  0  0  0  0  0  0  0  0  0
  148.3533  137.2726  153.7274 H   0  0  0  0  0  0  0  0  0  0  0  0
  147.5770  137.9190  155.1652 H   0  0  0  0  0  0  0  0  0  0  0  0
  148.7938  138.8510  154.2832 H   0  0  0  0  0  0  0  0  0  0  0  0
  147.2819  139.0623  152.3459 H   0  0  0  0  0  0  0  0  0  0  0  0
  145.1252  137.5822  153.9335 H   0  0  0  0  0  0  0  0  0  0  0  0
  144.9945  138.1222  152.2865 H   0  0  0  0  0  0  0  0  0  0  0  0
  147.2121  136.4313  152.3421 H   0  0  0  0  0  0  0  0  0  0  0  0
  146.8440  134.5793  150.7576 H   0  0  0  0  0  0  0  0  0  0  0  0
  147.9001  134.3287  152.9971 H   0  0  0  0  0  0  0  0  0  0  0  0
  147.7673  132.7837  152.1699 H   0  0  0  0  0  0  0  0  0  0  0  0
  146.6521  133.1780  153.4721 H   0  0  0  0  0  0  0  0  0  0  0  0
  144.2622  134.2661  149.4940 H   0  0  0  0  0  0  0  0  0  0  0  0
  142.9513  131.8880  149.2387 H   0  0  0  0  0  0  0  0  0  0  0  0
  144.1183  130.3193  151.2029 H   0  0  0  0  0  0  0  0  0  0  0  0
  144.9245  139.1652  155.3300 H   0  0  0  0  0  0  0  0  0  0  0  0
  146.5151  139.6041  155.9422 H   0  0  0  0  0  0  0  0  0  0  0  0
  144.2193  141.5070  155.1837 H   0  0  0  0  0  0  0  0  0  0  0  0
  144.7836  141.1484  156.8031 H   0  0  0  0  0  0  0  0  0  0  0  0
  145.6411  142.7746  153.7155 H   0  0  0  0  0  0  0  0  0  0  0  0
  147.1971  143.3154  154.3152 H   0  0  0  0  0  0  0  0  0  0  0  0
  148.0586  140.9964  154.3832 H   0  0  0  0  0  0  0  0  0  0  0  0
  147.4748  141.3915  152.7817 H   0  0  0  0  0  0  0  0  0  0  0  0
  145.4295  140.2683  153.3142 H   0  0  0  0  0  0  0  0  0  0  0  0
  1  2  1  0  0  0  0
  1 20  1  0  0  0  0
  1 21  1  0  0  0  0
  1 22  1  0  0  0  0
  2  3  1  0  0  0  0
  2 14  1  0  0  0  0
  2 23  1  0  0  0  0
  3  4  1  0  0  0  0
  3 24  1  0  0  0  0
  3 25  1  0  0  0  0
  4  5  1  0  0  0  0
  4 26  1  0  0  0  0
  5  6  2  0  0  0  0
  5  7  1  0  0  0  0
  7  8  1  0  0  0  0
  7  9  1  0  0  0  0
  7 27  1  0  0  0  0
  8 28  1  0  0  0  0
  8 29  1  0  0  0  0
  8 30  1  0  0  0  0
  9 13  1  0  0  0  0
  9 10  1  0  0  0  0
 10 11  2  0  0  0  0
 10 31  1  0  0  0  0
 11 12  1  0  0  0  0
 11 32  1  0  0  0  0
 12 13  2  0  0  0  0
 12 33  1  0  0  0  0
 14 19  1  0  0  0  0
 14 15  1  0  0  0  0
 14 42  1  0  0  0  0
 15 16  1  0  0  0  0
 15 34  1  0  0  0  0
 15 35  1  0  0  0  0
 16 17  1  0  0  0  0
 16 36  1  0  0  0  0
 16 37  1  0  0  0  0
 17 18  1  0  0  0  0
 18 19  1  0  0  0  0
 18 38  1  0  0  0  0
 18 39  1  0  0  0  0
 19 40  1  0  0  0  0
 19 41  1  0  0  0  0
M  CHG  1  14   1
M  END
> <s_m_source_file>
AV-unprocessed.smi

> <i_m_source_file_index>
1601

> <i_lp_mmshare_version>
43012

> <i_f3d_flags>
0

> <s_epik_input>
W0NIMl0xW0NIMl1PW0NIMl1bQ0gyXU4xW0NASF0oW0NIM10pW0NIMl1bTkhdQyg9TylbQ0BIXShbQ0gzXSluMltjSF1bY0hdW2NIXW4y

> <s_epik_cmdline>
J2VwaWtfcHl0aG9uJywgJy1waCcsICc3LjAnLCAnLXRuJywgJzgnLCAnLW1hJywgJzIwMCcsICctbWV0YWxfYmluZGluZycsICctaW1hZScsICc8aW5maWxlLm1hZT4nLCAnLW9tYWUnLCAnPG91dGZpbGUubWFlPic=

> <r_lp_tautomer_probability>
1

> <r_epik_Ionization_Penalty>
0.732551

> <r_epik_Ionization_Penalty_Charging>
0.732531

> <r_epik_Ionization_Penalty_Neutral>
2.04647e-05

> <r_epik_State_Penalty>
0.757939

> <r_epik_Charging_Adjusted_Penalty>
1.49047

> <i_epik_Tot_Q>
1

> <i_epik_Tot_abs_Q>
1

> <r_epik_Metal_State_Penalty>
0.757952

> <b_epik_Metal_Only>
0

> <s_lp_Force_Field>
OPLS_2005

> <r_lp_Energy>
25.2472

> <b_lp_Chiralities_Consistent>
1

> <s_lp_Variant>
AV-unprocessed.smi:1601-8

> <Gold.Version>
5.8.1

> <Gold.Id.Protein>
6NUR|6NUR_protein|mol2

> <Gold.PLP.Fitness>
42.0260

> <Gold.PLP.PLP>
-31.1244

> <Gold.PLP.part.hbond>
-2.0000

> <Gold.PLP.part.metal>
0.0000

> <Gold.PLP.part.buried>
-4.1715

> <Gold.PLP.part.nonpolar>
-26.1021

> <Gold.PLP.part.repulsive>
0.4379

> <Gold.PLP.ligand.clash>
0.0000

> <Gold.PLP.ligand.torsion>
0.2939

> <Gold.PLP.Chemscore.Hbond>
3.0000

> <Gold.PLP.Chemscore.CHOScore>
0.7898

> <Gold.PLP.Chemscore.Metal>
0.0000

> <Gold.Chemscore.Hbonds>
donor molecule, donor type, donor heavy atom, donor atom, acceptor molecule, acceptor atom, score
      L1  H     4    26       P1  7948  1.00
      L1  H    14    42       P1 10175  2.00
      L1  C    10    31       P1  7921  0.44

> <Gold.PLP.Chemscore.Internal.Correction>
0.1200

> <Gold.Rescore>
     Score         DG    S(hbond)    S(metal)    S(lipo)     H(rot)  DE(clash)    DE(int)     intcor
     15.17     -16.18       2.00        0.00      75.17       1.86       0.19       0.82       ----

> <Gold.Chemscore.Fitness>
15.1699

> <Gold.Chemscore.DG>
-16.1765

> <Gold.Chemscore.ZeroCoef>
-5.4800

> <Gold.Chemscore.Hbond>
1.9975

> <Gold.Chemscore.Metal>
0.0000

> <Gold.Chemscore.Lipo>
75.1667

> <Gold.Chemscore.Internal_Hbond>
0.0000

> <Gold.Chemscore.DEClash>
0.1912

> <Gold.Chemscore.DEInternal>
0.8153

> <Gold.Chemscore.Rot>
1.8631

> <Gold.Chemscore.Internal.Correction>
   9.000000E+99

> <Gold.Chemscore.Hbonds>
donor molecule, donor type, donor heavy atom, donor atom, acceptor molecule, acceptor atom, score
      L1  H     4    26       P1  7948  1.00
      L1  H    14    42       P1 10175  0.98

> <Gold.Chemscore.Hbond.Weighted>
-6.6716

> <Gold.Chemscore.Metal.Weighted>
-0.0000

> <Gold.Chemscore.Lipo.Weighted>
-8.7945

> <Gold.Chemscore.Internal_Hbond.Weighted>
0.0000

> <Gold.Chemscore.DEClash.Weighted>
0.1912

> <Gold.Chemscore.DEInternal.Weighted>
0.8153

> <Gold.Chemscore.Rot.Weighted>
4.7697

> <Gold.Chemscore.Internal.Correction.Weighted>
   9.000000E+99

> <Gold.Protein.RotatedTorsions>
[ 6907 6896 6895 6894 ] final  145.36 input  -60.11 | X-H torsion
[ 7974 7965 7964 7962 ] final   17.39 input  175.53 | X-H torsion
[ 8008 7997 7996 7995 ] final  -93.21 input   59.86 | X-H torsion
[ 10167 10162 10161 10158 ] final   39.01 input  -65.29 | X-H torsion
[ 10718 10713 10712 10709 ] final  109.40 input   66.30 | X-H torsion
[ 10763 10752 10751 10750 ] final   77.58 input  -60.55 | X-H torsion
[ 11005 11000 10999 10996 ] final -161.70 input  -57.11 | X-H torsion

> <Gold.Protein.ActiveResidues>
 VAL166  LYS551  ARG553  GLY616  TRP617  ASP618  TYR619  PRO620  LYS621  CYS622 
 ASP623  PHE694  ASN695  SER759  ASP760  ASP761  ALA762  ILE779  LEU786  VAL792 
 PHE793  MET794  SER795  GLU796  ALA797  LYS798  CYS799  TRP800  GLU811  SER814 

> <Gold.Protein.RotatedAtoms>
  152.1818  133.4713  159.4961 H   0  0  0  0  0  0  0  0  0  0  0  0  # atno 6907 bound_to 6896
  150.6936  134.1823  159.4262 H   0  0  0  0  0  0  0  0  0  0  0  0  # atno 6908 bound_to 6896
  151.9735  135.0064  160.0604 H   0  0  0  0  0  0  0  0  0  0  0  0  # atno 6909 bound_to 6896
  146.2220  139.8609  142.8605 H   0  0  0  0  0  0  0  0  0  0  0  0  # atno 7974 bound_to 7965
  154.7328  140.0501  157.0741 H   0  0  0  0  0  0  0  0  0  0  0  0  # atno 8008 bound_to 7997
  155.0280  140.3154  155.4750 H   0  0  0  0  0  0  0  0  0  0  0  0  # atno 8009 bound_to 7997
  156.2845  140.2155  156.5400 H   0  0  0  0  0  0  0  0  0  0  0  0  # atno 8010 bound_to 7997
  140.3881  144.1889  150.6130 H   0  0  0  0  0  0  0  0  0  0  0  0  # atno 10167 bound_to 10162
  157.6543  131.0913  150.6448 H   0  0  0  0  0  0  0  0  0  0  0  0  # atno 10718 bound_to 10713
  153.0809  135.4909  154.8501 H   0  0  0  0  0  0  0  0  0  0  0  0  # atno 10763 bound_to 10752
  154.7149  135.3027  154.9141 H   0  0  0  0  0  0  0  0  0  0  0  0  # atno 10764 bound_to 10752
  153.9823  135.6788  153.4803 H   0  0  0  0  0  0  0  0  0  0  0  0  # atno 10765 bound_to 10752
  140.6174  134.4786  157.5221 H   0  0  0  0  0  0  0  0  0  0  0  0  # atno 11005 bound_to 11000
  145.2705  141.0107  143.3774 LP  0  0  0  0  0  0  0  0  0  0  0  0  # atno 17320 bound_to 7965
  144.9227  139.4392  143.6533 LP  0  0  0  0  0  0  0  0  0  0  0  0  # atno 17321 bound_to 7965
  140.4868  143.2360  151.8876 LP  0  0  0  0  0  0  0  0  0  0  0  0  # atno 17342 bound_to 10162
  139.4791  144.5209  151.8802 LP  0  0  0  0  0  0  0  0  0  0  0  0  # atno 17343 bound_to 10162
  156.6756  130.4552  149.5643 LP  0  0  0  0  0  0  0  0  0  0  0  0  # atno 17370 bound_to 10713
  156.1966  130.6593  151.1121 LP  0  0  0  0  0  0  0  0  0  0  0  0  # atno 17371 bound_to 10713
  139.9167  134.8232  156.1343 LP  0  0  0  0  0  0  0  0  0  0  0  0  # atno 17394 bound_to 11000
  141.0766  133.6773  156.2249 LP  0  0  0  0  0  0  0  0  0  0  0  0  # atno 17395 bound_to 11000

$$$$
