AV-unprocessed.smi:803|AV-procd|sdf|3793|dock6
  -GOLD-   22720 1233D 1   1.00000     0.00000
 Structure written by MMmdl.
 37 38  0  0  0  0  0  0  0  0  1 V2000
  146.2167  137.8410  152.5692 C   0  0  0  0  0  0  0  0  0  0  0  0
  146.8067  139.1991  152.1696 C   0  0  0  0  0  0  0  0  0  0  0  0
  147.7062  139.7163  153.1824 N   0  0  0  0  0  0  0  0  0  0  0  0
  147.8205  141.0141  153.6402 C   0  0  0  0  0  0  0  0  0  0  0  0
  148.8053  140.9863  154.5867 C   0  0  0  0  0  0  0  0  0  0  0  0
  149.3226  142.0425  155.3782 N   0  0  0  0  0  0  0  0  0  0  0  0
  150.3014  141.9704  156.2950 C   0  0  0  0  0  0  0  0  0  0  0  0
  150.9049  140.9434  156.6068 O   0  0  0  0  0  0  0  0  0  0  0  0
  150.5415  143.1699  156.8438 N   0  0  0  0  0  0  0  0  0  0  0  0
  151.5321  143.4404  157.8814 C   0  0  0  0  0  0  0  0  0  0  0  0
  151.5122  142.3269  158.9489 C   0  0  0  0  0  0  0  0  0  0  0  0
  152.4888  142.6307  160.0964 C   0  0  0  0  0  0  0  0  0  0  0  0
  152.2032  144.0039  160.7244 C   0  0  0  0  0  0  0  0  0  0  0  0
  152.2304  145.1154  159.6638 C   0  0  0  0  0  0  0  0  0  0  0  0
  151.2517  144.8153  158.5170 C   0  0  0  0  0  0  0  0  0  0  0  0
  149.2432  139.6382  154.6508 C   0  0  0  0  0  0  0  0  0  0  0  0
  148.5770  138.8769  153.7961 N   0  0  0  0  0  0  0  0  0  0  0  0
  145.5308  137.4767  151.8043 H   0  0  0  0  0  0  0  0  0  0  0  0
  145.6635  137.9131  153.5062 H   0  0  0  0  0  0  0  0  0  0  0  0
  146.9982  137.0915  152.6976 H   0  0  0  0  0  0  0  0  0  0  0  0
  147.3513  139.1159  151.2282 H   0  0  0  0  0  0  0  0  0  0  0  0
  146.0067  139.9229  152.0105 H   0  0  0  0  0  0  0  0  0  0  0  0
  147.2026  141.8138  153.2592 H   0  0  0  0  0  0  0  0  0  0  0  0
  148.8997  142.9477  155.2336 H   0  0  0  0  0  0  0  0  0  0  0  0
  149.9950  143.9560  156.5238 H   0  0  0  0  0  0  0  0  0  0  0  0
  152.5257  143.4757  157.4301 H   0  0  0  0  0  0  0  0  0  0  0  0
  150.5041  142.2199  159.3524 H   0  0  0  0  0  0  0  0  0  0  0  0
  151.7669  141.3674  158.4969 H   0  0  0  0  0  0  0  0  0  0  0  0
  152.4212  141.8529  160.8577 H   0  0  0  0  0  0  0  0  0  0  0  0
  153.5122  142.6067  159.7198 H   0  0  0  0  0  0  0  0  0  0  0  0
  151.2273  143.9872  161.2111 H   0  0  0  0  0  0  0  0  0  0  0  0
  152.9348  144.2159  161.5047 H   0  0  0  0  0  0  0  0  0  0  0  0
  151.9829  146.0728  160.1227 H   0  0  0  0  0  0  0  0  0  0  0  0
  153.2410  145.2161  159.2653 H   0  0  0  0  0  0  0  0  0  0  0  0
  151.3232  145.5980  157.7609 H   0  0  0  0  0  0  0  0  0  0  0  0
  150.2299  144.8464  158.8984 H   0  0  0  0  0  0  0  0  0  0  0  0
  150.0064  139.1958  155.2737 H   0  0  0  0  0  0  0  0  0  0  0  0
  1  2  1  0  0  0  0
  1 18  1  0  0  0  0
  1 19  1  0  0  0  0
  1 20  1  0  0  0  0
  2  3  1  0  0  0  0
  2 21  1  0  0  0  0
  2 22  1  0  0  0  0
  3 17  1  0  0  0  0
  3  4  1  0  0  0  0
  4  5  2  0  0  0  0
  4 23  1  0  0  0  0
  5  6  1  0  0  0  0
  5 16  1  0  0  0  0
  6  7  1  0  0  0  0
  6 24  1  0  0  0  0
  7  8  2  0  0  0  0
  7  9  1  0  0  0  0
  9 10  1  0  0  0  0
  9 25  1  0  0  0  0
 10 15  1  0  0  0  0
 10 11  1  0  0  0  0
 10 26  1  0  0  0  0
 11 12  1  0  0  0  0
 11 27  1  0  0  0  0
 11 28  1  0  0  0  0
 12 13  1  0  0  0  0
 12 29  1  0  0  0  0
 12 30  1  0  0  0  0
 13 14  1  0  0  0  0
 13 31  1  0  0  0  0
 13 32  1  0  0  0  0
 14 15  1  0  0  0  0
 14 33  1  0  0  0  0
 14 34  1  0  0  0  0
 15 35  1  0  0  0  0
 15 36  1  0  0  0  0
 16 17  2  0  0  0  0
 16 37  1  0  0  0  0
M  END
> <s_m_source_file>
AV-unprocessed.smi

> <i_m_source_file_index>
803

> <i_lp_mmshare_version>
43012

> <i_f3d_flags>
0

> <s_epik_input>
W0NIM11bQ0gyXW4xW2NIXWMoW2NIXW4xKVtOSF1DKD1PKVtOSF1bQ0hdMltDSDJdW0NIMl1bQ0gyXVtDSDJdW0NIMl0y

> <s_epik_cmdline>
J2VwaWtfcHl0aG9uJywgJy1waCcsICc3LjAnLCAnLXRuJywgJzgnLCAnLW1hJywgJzIwMCcsICctbWV0YWxfYmluZGluZycsICctaW1hZScsICc8aW5maWxlLm1hZT4nLCAnLW9tYWUnLCAnPG91dGZpbGUubWFlPic=

> <r_lp_tautomer_probability>
1

> <r_epik_Ionization_Penalty>
0.000191435

> <r_epik_Ionization_Penalty_Charging>
0

> <r_epik_Ionization_Penalty_Neutral>
0.000191435

> <r_epik_State_Penalty>
-0

> <r_epik_Charging_Adjusted_Penalty>
0

> <i_epik_Tot_Q>
0

> <i_epik_Tot_abs_Q>
0

> <r_epik_Metal_State_Penalty>
-0

> <b_epik_Metal_Only>
0

> <s_lp_Force_Field>
OPLS_2005

> <r_lp_Energy>
12.5011

> <b_lp_Chiralities_Consistent>
1

> <s_lp_Variant>
AV-unprocessed.smi:803-1

> <Gold.Version>
5.8.1

> <Gold.Id.Protein>
6NUR|6NUR_protein|mol2

> <Gold.PLP.Fitness>
43.8183

> <Gold.PLP.PLP>
-38.8288

> <Gold.PLP.part.hbond>
-2.0000

> <Gold.PLP.part.metal>
0.0000

> <Gold.PLP.part.buried>
-1.1389

> <Gold.PLP.part.nonpolar>
-36.5099

> <Gold.PLP.part.repulsive>
0.9609

> <Gold.PLP.ligand.clash>
0.0000

> <Gold.PLP.ligand.torsion>
0.4708

> <Gold.PLP.Chemscore.Hbond>
1.9760

> <Gold.PLP.Chemscore.CHOScore>
0.0000

> <Gold.PLP.Chemscore.Metal>
0.0000

> <Gold.Chemscore.Hbonds>
donor molecule, donor type, donor heavy atom, donor atom, acceptor molecule, acceptor atom, score
      L1  H     6    24       P1  8028  0.98
      L1  H     9    25       P1  8028  1.00

> <Gold.PLP.Chemscore.Internal.Correction>
0.0032

> <Gold.Rescore>
     Score         DG    S(hbond)    S(metal)    S(lipo)     H(rot)  DE(clash)    DE(int)     intcor
     17.30     -21.14       1.96        0.00     103.36       1.17       0.77       3.07       ----

> <Gold.Chemscore.Fitness>
17.3029

> <Gold.Chemscore.DG>
-21.1445

> <Gold.Chemscore.ZeroCoef>
-5.4800

> <Gold.Chemscore.Hbond>
1.9635

> <Gold.Chemscore.Metal>
0.0000

> <Gold.Chemscore.Lipo>
103.3592

> <Gold.Chemscore.Internal_Hbond>
0.0000

> <Gold.Chemscore.DEClash>
0.7730

> <Gold.Chemscore.DEInternal>
3.0686

> <Gold.Chemscore.Rot>
1.1667

> <Gold.Chemscore.Internal.Correction>
   9.000000E+99

> <Gold.Chemscore.Hbonds>
donor molecule, donor type, donor heavy atom, donor atom, acceptor molecule, acceptor atom, score
      L1  H     6    24       P1  8028  0.92
      L1  H     9    25       P1  8028  0.97

> <Gold.Chemscore.Hbond.Weighted>
-6.5581

> <Gold.Chemscore.Metal.Weighted>
-0.0000

> <Gold.Chemscore.Lipo.Weighted>
-12.0930

> <Gold.Chemscore.Internal_Hbond.Weighted>
0.0000

> <Gold.Chemscore.DEClash.Weighted>
0.7730

> <Gold.Chemscore.DEInternal.Weighted>
3.0686

> <Gold.Chemscore.Rot.Weighted>
2.9867

> <Gold.Chemscore.Internal.Correction.Weighted>
   9.000000E+99

> <Gold.Protein.RotatedTorsions>
[ 6907 6896 6895 6894 ] final -128.27 input  -60.11 | X-H torsion
[ 7974 7965 7964 7962 ] final  101.04 input  175.53 | X-H torsion
[ 8008 7997 7996 7995 ] final -124.70 input   59.86 | X-H torsion
[ 10167 10162 10161 10158 ] final  -48.37 input  -65.29 | X-H torsion
[ 10718 10713 10712 10709 ] final  -14.77 input   66.30 | X-H torsion
[ 10763 10752 10751 10750 ] final  112.97 input  -60.55 | X-H torsion
[ 11005 11000 10999 10996 ] final  155.11 input  -57.11 | X-H torsion

> <Gold.Protein.ActiveResidues>
 VAL166  LYS551  ARG553  GLY616  TRP617  ASP618  TYR619  PRO620  LYS621  CYS622 
 ASP623  PHE694  ASN695  SER759  ASP760  ASP761  ALA762  ILE779  LEU786  VAL792 
 PHE793  MET794  SER795  GLU796  ALA797  LYS798  CYS799  TRP800  GLU811  SER814 

> <Gold.Protein.RotatedAtoms>
  150.9161  133.6937  159.2842 H   0  0  0  0  0  0  0  0  0  0  0  0  # atno 6907 bound_to 6896
  151.4408  135.1018  159.9679 H   0  0  0  0  0  0  0  0  0  0  0  0  # atno 6908 bound_to 6896
  152.4955  133.8570  159.7286 H   0  0  0  0  0  0  0  0  0  0  0  0  # atno 6909 bound_to 6896
  145.3776  139.2386  143.3421 H   0  0  0  0  0  0  0  0  0  0  0  0  # atno 7974 bound_to 7965
  155.2011  140.0416  157.2917 H   0  0  0  0  0  0  0  0  0  0  0  0  # atno 8008 bound_to 7997
  154.6074  140.2468  155.7685 H   0  0  0  0  0  0  0  0  0  0  0  0  # atno 8009 bound_to 7997
  156.2358  140.2922  156.0319 H   0  0  0  0  0  0  0  0  0  0  0  0  # atno 8010 bound_to 7997
  140.6734  143.2743  151.4061 H   0  0  0  0  0  0  0  0  0  0  0  0  # atno 10167 bound_to 10162
  156.6112  130.4850  149.6201 H   0  0  0  0  0  0  0  0  0  0  0  0  # atno 10718 bound_to 10713
  153.4857  135.3669  155.2465 H   0  0  0  0  0  0  0  0  0  0  0  0  # atno 10763 bound_to 10752
  154.8754  135.3965  154.3648 H   0  0  0  0  0  0  0  0  0  0  0  0  # atno 10764 bound_to 10752
  153.4259  135.7081  153.6328 H   0  0  0  0  0  0  0  0  0  0  0  0  # atno 10765 bound_to 10752
  140.1551  134.8648  157.2503 H   0  0  0  0  0  0  0  0  0  0  0  0  # atno 11005 bound_to 11000
  146.2857  140.4438  142.8759 LP  0  0  0  0  0  0  0  0  0  0  0  0  # atno 17320 bound_to 7965
  144.8531  140.7030  143.6155 LP  0  0  0  0  0  0  0  0  0  0  0  0  # atno 17321 bound_to 7965
  139.6013  144.1289  152.2201 LP  0  0  0  0  0  0  0  0  0  0  0  0  # atno 17342 bound_to 10162
  140.0674  144.5807  150.7217 LP  0  0  0  0  0  0  0  0  0  0  0  0  # atno 17343 bound_to 10162
  156.2388  130.6839  151.1536 LP  0  0  0  0  0  0  0  0  0  0  0  0  # atno 17370 bound_to 10713
  157.7254  131.0653  150.5956 LP  0  0  0  0  0  0  0  0  0  0  0  0  # atno 17371 bound_to 10713
  140.2558  134.3630  155.7425 LP  0  0  0  0  0  0  0  0  0  0  0  0  # atno 17394 bound_to 11000
  141.2203  133.7341  156.9004 LP  0  0  0  0  0  0  0  0  0  0  0  0  # atno 17395 bound_to 11000

$$$$
