AV-unprocessed.smi:623|AV-procd|sdf|3097|dock2
  -GOLD-   22720 0 13D 1   1.00000     0.00000
 Structure written by MMmdl.
 44 46  0  0  0  0  0  0  0  0  2 V2000
  147.6338  140.0183  155.8602 C   0  0  0  0  0  0  0  0  0  0  0  0
  149.0700  140.5903  155.6937 C   0  0  0  0  0  0  0  0  0  0  0  0
  149.0259  141.4200  154.3796 C   0  0  0  0  0  0  0  0  0  0  0  0
  149.5882  141.3694  156.9192 C   0  0  2  0  0  0  0  0  0  0  0  0
  151.0432  141.7212  156.5344 C   0  0  0  0  0  0  0  0  0  0  0  0
  151.4893  140.4770  155.7377 C   0  0  0  0  0  0  0  0  0  0  0  0
  150.2357  139.5662  155.7950 C   0  0  2  0  0  0  0  0  0  0  0  0
  150.2579  138.4605  154.7201 C   0  0  0  0  0  0  0  0  0  0  0  0
  150.1799  139.0556  157.2674 C   0  0  2  0  0  0  0  0  0  0  0  0
  149.3244  137.8856  157.4247 N   0  0  0  0  0  0  0  0  0  0  0  0
  149.2474  137.0836  158.4974 C   0  0  0  0  0  0  0  0  0  0  0  0
  149.9379  137.2428  159.5033 O   0  0  0  0  0  0  0  0  0  0  0  0
  148.2252  135.9338  158.4508 C   0  0  0  0  0  0  0  0  0  0  0  0
  147.6366  135.5955  159.7610 N   0  0  0  0  0  0  0  0  0  0  0  0
  147.7936  134.2751  160.2187 C   0  0  0  0  0  0  0  0  0  0  0  0
  147.3373  133.8805  161.4225 C   0  0  0  0  0  0  0  0  0  0  0  0
  146.6628  134.8638  162.2604 C   0  0  0  0  0  0  0  0  0  0  0  0
  146.2423  134.5228  163.3641 O   0  0  0  0  0  0  0  0  0  0  0  0
  146.5324  136.1316  161.7715 N   0  5  0  0  0  0  0  0  0  0  0  0
  147.0052  136.5197  160.5468 C   0  0  0  0  0  0  0  0  0  0  0  0
  146.8950  137.6741  160.1338 O   0  0  0  0  0  0  0  0  0  0  0  0
  149.6687  140.2990  158.0316 C   0  0  0  0  0  0  0  0  0  0  0  0
  146.8961  140.8207  155.8359 H   0  0  0  0  0  0  0  0  0  0  0  0
  147.4522  139.4786  156.7851 H   0  0  0  0  0  0  0  0  0  0  0  0
  147.3895  139.3357  155.0454 H   0  0  0  0  0  0  0  0  0  0  0  0
  149.9636  141.8939  154.0986 H   0  0  0  0  0  0  0  0  0  0  0  0
  148.2891  142.2203  154.4561 H   0  0  0  0  0  0  0  0  0  0  0  0
  148.7310  140.7936  153.5372 H   0  0  0  0  0  0  0  0  0  0  0  0
  148.9917  142.2383  157.1984 H   0  0  0  0  0  0  0  0  0  0  0  0
  151.0898  142.6215  155.9215 H   0  0  0  0  0  0  0  0  0  0  0  0
  151.6716  141.8965  157.4084 H   0  0  0  0  0  0  0  0  0  0  0  0
  151.7543  140.7414  154.7138 H   0  0  0  0  0  0  0  0  0  0  0  0
  152.3720  140.0067  156.1724 H   0  0  0  0  0  0  0  0  0  0  0  0
  151.0915  137.7768  154.8831 H   0  0  0  0  0  0  0  0  0  0  0  0
  150.3679  138.8812  153.7207 H   0  0  0  0  0  0  0  0  0  0  0  0
  149.3417  137.8695  154.7241 H   0  0  0  0  0  0  0  0  0  0  0  0
  151.1770  138.7767  157.6137 H   0  0  0  0  0  0  0  0  0  0  0  0
  148.7225  137.6655  156.6439 H   0  0  0  0  0  0  0  0  0  0  0  0
  147.4443  136.1921  157.7339 H   0  0  0  0  0  0  0  0  0  0  0  0
  148.7174  135.0564  158.0288 H   0  0  0  0  0  0  0  0  0  0  0  0
  148.3138  133.6136  159.5414 H   0  0  0  0  0  0  0  0  0  0  0  0
  147.4724  132.8642  161.7618 H   0  0  0  0  0  0  0  0  0  0  0  0
  150.3478  140.5878  158.8344 H   0  0  0  0  0  0  0  0  0  0  0  0
  148.6951  140.1311  158.4927 H   0  0  0  0  0  0  0  0  0  0  0  0
  1  2  1  0  0  0  0
  1 23  1  0  0  0  0
  1 24  1  0  0  0  0
  1 25  1  0  0  0  0
  2  7  1  0  0  0  0
  2  3  1  0  0  0  0
  2  4  1  0  0  0  0
  3 26  1  0  0  0  0
  3 27  1  0  0  0  0
  3 28  1  0  0  0  0
  4 22  1  0  0  0  0
  4  5  1  0  0  0  0
  4 29  1  0  0  0  0
  5  6  1  0  0  0  0
  5 30  1  0  0  0  0
  5 31  1  0  0  0  0
  6  7  1  0  0  0  0
  6 32  1  0  0  0  0
  6 33  1  0  0  0  0
  7  8  1  0  0  0  0
  7  9  1  0  0  0  0
  8 34  1  0  0  0  0
  8 35  1  0  0  0  0
  8 36  1  0  0  0  0
  9 10  1  0  0  0  0
  9 22  1  0  0  0  0
  9 37  1  0  0  0  0
 10 11  1  0  0  0  0
 10 38  1  0  0  0  0
 11 12  2  0  0  0  0
 11 13  1  0  0  0  0
 13 14  1  0  0  0  0
 13 39  1  0  0  0  0
 13 40  1  0  0  0  0
 14 20  1  0  0  0  0
 14 15  1  0  0  0  0
 15 16  2  0  0  0  0
 15 41  1  0  0  0  0
 16 17  1  0  0  0  0
 16 42  1  0  0  0  0
 17 18  2  0  0  0  0
 17 19  1  0  0  0  0
 19 20  1  0  0  0  0
 20 21  2  0  0  0  0
 22 43  1  0  0  0  0
 22 44  1  0  0  0  0
M  CHG  1  19  -1
M  END
> <s_m_source_file>
AV-unprocessed.smi

> <i_m_source_file_index>
623

> <i_lp_mmshare_version>
43012

> <i_f3d_flags>
0

> <s_epik_input>
W0NIM11bQ0BdMTJDKFtDSDNdKShbQ0gzXSlbQ0BIXShbQ0gyXVtDSDJdMSlbQ0gyXVtDQEBIXTJbTkhdQyg9TylbQ0gyXW4zW2NIXVtjSF1jKD1PKVtuSF1jMz1P

> <s_epik_cmdline>
J2VwaWtfcHl0aG9uJywgJy1waCcsICc3LjAnLCAnLXRuJywgJzgnLCAnLW1hJywgJzIwMCcsICctbWV0YWxfYmluZGluZycsICctaW1hZScsICc8aW5maWxlLm1hZT4nLCAnLW9tYWUnLCAnPG91dGZpbGUubWFlPic=

> <r_lp_tautomer_probability>
0.999537

> <r_epik_Ionization_Penalty>
3.12624

> <r_epik_Ionization_Penalty_Charging>
3.01273e-08

> <r_epik_Ionization_Penalty_Neutral>
3.12624

> <r_epik_State_Penalty>
3.12534

> <r_epik_Charging_Adjusted_Penalty>
3.12534

> <i_epik_Tot_Q>
-1

> <i_epik_Tot_abs_Q>
1

> <r_epik_Metal_State_Penalty>
0.46406

> <b_epik_Metal_Only>
1

> <s_lp_Force_Field>
OPLS_2005

> <r_lp_Energy>
63.0451

> <b_lp_Chiralities_Consistent>
1

> <s_lp_Variant>
AV-unprocessed.smi:623-7

> <Gold.Version>
5.8.1

> <Gold.Id.Protein>
6NUR|6NUR_protein|mol2

> <Gold.PLP.Fitness>
34.6078

> <Gold.PLP.PLP>
-32.7120

> <Gold.PLP.part.hbond>
-3.0000

> <Gold.PLP.part.metal>
0.0000

> <Gold.PLP.part.buried>
-4.1556

> <Gold.PLP.part.nonpolar>
-25.0920

> <Gold.PLP.part.repulsive>
0.0535

> <Gold.PLP.ligand.clash>
0.0000

> <Gold.PLP.ligand.torsion>
0.5589

> <Gold.PLP.Chemscore.Hbond>
1.0000

> <Gold.PLP.Chemscore.CHOScore>
0.0000

> <Gold.PLP.Chemscore.Metal>
0.0000

> <Gold.Chemscore.Hbonds>
donor molecule, donor type, donor heavy atom, donor atom, acceptor molecule, acceptor atom, score
      P1  H  6934  6947       L1    21  1.00

> <Gold.PLP.Chemscore.Internal.Correction>
0.0135

> <Gold.Rescore>
     Score         DG    S(hbond)    S(metal)    S(lipo)     H(rot)  DE(clash)    DE(int)     intcor
     10.35     -12.30       0.98        0.00      65.91       1.63       0.17       1.78       ----

> <Gold.Chemscore.Fitness>
10.3461

> <Gold.Chemscore.DG>
-12.2951

> <Gold.Chemscore.ZeroCoef>
-5.4800

> <Gold.Chemscore.Hbond>
0.9826

> <Gold.Chemscore.Metal>
0.0000

> <Gold.Chemscore.Lipo>
65.9113

> <Gold.Chemscore.Internal_Hbond>
0.0000

> <Gold.Chemscore.DEClash>
0.1728

> <Gold.Chemscore.DEInternal>
1.7762

> <Gold.Chemscore.Rot>
1.6322

> <Gold.Chemscore.Internal.Correction>
   9.000000E+99

> <Gold.Chemscore.Hbonds>
donor molecule, donor type, donor heavy atom, donor atom, acceptor molecule, acceptor atom, score
      P1  H  6896  6909       L1    12  0.01
      P1  H  6934  6947       L1    21  0.97

> <Gold.Chemscore.Hbond.Weighted>
-3.2818

> <Gold.Chemscore.Metal.Weighted>
-0.0000

> <Gold.Chemscore.Lipo.Weighted>
-7.7116

> <Gold.Chemscore.Internal_Hbond.Weighted>
0.0000

> <Gold.Chemscore.DEClash.Weighted>
0.1728

> <Gold.Chemscore.DEInternal.Weighted>
1.7762

> <Gold.Chemscore.Rot.Weighted>
4.1783

> <Gold.Chemscore.Internal.Correction.Weighted>
   9.000000E+99

> <Gold.Protein.RotatedTorsions>
[ 6907 6896 6895 6894 ] final   99.30 input  -60.11 | X-H torsion
[ 7974 7965 7964 7962 ] final   64.89 input  175.53 | X-H torsion
[ 8008 7997 7996 7995 ] final   -3.76 input   59.86 | X-H torsion
[ 10167 10162 10161 10158 ] final -119.15 input  -65.29 | X-H torsion
[ 10718 10713 10712 10709 ] final -166.72 input   66.30 | X-H torsion
[ 10763 10752 10751 10750 ] final -153.75 input  -60.55 | X-H torsion
[ 11005 11000 10999 10996 ] final  -52.29 input  -57.11 | X-H torsion

> <Gold.Protein.ActiveResidues>
 VAL166  LYS551  ARG553  GLY616  TRP617  ASP618  TYR619  PRO620  LYS621  CYS622 
 ASP623  PHE694  ASN695  SER759  ASP760  ASP761  ALA762  ILE779  LEU786  VAL792 
 PHE793  MET794  SER795  GLU796  ALA797  LYS798  CYS799  TRP800  GLU811  SER814 

> <Gold.Protein.RotatedAtoms>
  152.5394  134.0449  159.8083 H   0  0  0  0  0  0  0  0  0  0  0  0  # atno 6907 bound_to 6896
  151.0599  133.5545  159.2642 H   0  0  0  0  0  0  0  0  0  0  0  0  # atno 6908 bound_to 6896
  151.2447  135.0609  159.9093 H   0  0  0  0  0  0  0  0  0  0  0  0  # atno 6909 bound_to 6896
  145.8449  139.3218  143.0909 H   0  0  0  0  0  0  0  0  0  0  0  0  # atno 7974 bound_to 7965
  154.6215  140.2501  155.7544 H   0  0  0  0  0  0  0  0  0  0  0  0  # atno 8008 bound_to 7997
  156.2429  140.2926  156.0444 H   0  0  0  0  0  0  0  0  0  0  0  0  # atno 8009 bound_to 7997
  155.1890  140.0391  157.2887 H   0  0  0  0  0  0  0  0  0  0  0  0  # atno 8010 bound_to 7997
  140.0497  143.5072  152.2088 H   0  0  0  0  0  0  0  0  0  0  0  0  # atno 10167 bound_to 10162
  156.6720  130.9088  151.3045 H   0  0  0  0  0  0  0  0  0  0  0  0  # atno 10718 bound_to 10713
  154.7906  135.3206  154.7785 H   0  0  0  0  0  0  0  0  0  0  0  0  # atno 10763 bound_to 10752
  153.8474  135.6865  153.4800 H   0  0  0  0  0  0  0  0  0  0  0  0  # atno 10764 bound_to 10752
  153.1575  135.4674  154.9666 H   0  0  0  0  0  0  0  0  0  0  0  0  # atno 10765 bound_to 10752
  141.0916  133.6631  156.4003 H   0  0  0  0  0  0  0  0  0  0  0  0  # atno 11005 bound_to 11000
  145.9423  140.8970  143.0301 LP  0  0  0  0  0  0  0  0  0  0  0  0  # atno 17320 bound_to 7965
  144.6731  140.1566  143.7426 LP  0  0  0  0  0  0  0  0  0  0  0  0  # atno 17321 bound_to 7965
  139.5961  144.7567  151.3284 LP  0  0  0  0  0  0  0  0  0  0  0  0  # atno 17342 bound_to 10162
  140.7222  143.7103  150.7774 LP  0  0  0  0  0  0  0  0  0  0  0  0  # atno 17343 bound_to 10162
  157.7074  130.9400  150.0975 LP  0  0  0  0  0  0  0  0  0  0  0  0  # atno 17370 bound_to 10713
  156.1931  130.3656  149.8884 LP  0  0  0  0  0  0  0  0  0  0  0  0  # atno 17371 bound_to 10713
  140.5237  134.6279  157.5327 LP  0  0  0  0  0  0  0  0  0  0  0  0  # atno 17394 bound_to 11000
  139.9744  134.7240  155.9979 LP  0  0  0  0  0  0  0  0  0  0  0  0  # atno 17395 bound_to 11000

$$$$
