AV-unprocessed.smi:1521|AV-procd|sdf|6131|dock5
  -GOLD-   22720 6273D 1   1.00000     0.00000
 Structure written by MMmdl.
 36 37  0  0  0  0  0  0  0  0  1 V2000
  149.9743  134.5966  157.4215 O   0  0  0  0  0  0  0  0  0  0  0  0
  149.2276  135.5742  157.4561 C   0  0  0  0  0  0  0  0  0  0  0  0
  149.1877  136.5046  156.4919 N   0  0  0  0  0  0  0  0  0  0  0  0
  149.9823  136.4835  155.2680 C   0  0  0  0  0  0  0  0  0  0  0  0
  150.8493  137.7473  155.1369 C   0  0  1  0  0  0  0  0  0  0  0  0
  150.0148  138.9801  154.7351 C   0  0  0  0  0  0  0  0  0  0  0  0
  150.8642  140.1178  154.6597 O   0  0  0  0  0  0  0  0  0  0  0  0
  151.4861  140.3819  155.9100 C   0  0  0  0  0  0  0  0  0  0  0  0
  152.3159  139.1566  156.3260 C   0  0  0  0  0  0  0  0  0  0  0  0
  151.4615  138.0230  156.3928 O   0  0  0  0  0  0  0  0  0  0  0  0
  148.3369  135.8519  158.4259 N   0  0  0  0  0  0  0  0  0  0  0  0
  148.0596  135.1465  159.6093 C   0  0  0  0  0  0  0  0  0  0  0  0
  147.9167  133.7980  159.6965 C   0  0  0  0  0  0  0  0  0  0  0  0
  147.6407  133.1310  160.9578 C   0  0  0  0  0  0  0  0  0  0  0  0
  147.4051  131.6303  161.0264 C   0  0  0  0  0  0  0  0  0  0  0  0
  148.3434  131.0587  161.7800 F   0  0  0  0  0  0  0  0  0  0  0  0
  146.2154  131.3480  161.5589 F   0  0  0  0  0  0  0  0  0  0  0  0
  147.4601  131.0840  159.8119 F   0  0  0  0  0  0  0  0  0  0  0  0
  147.5244  133.9206  162.0415 C   0  0  0  0  0  0  0  0  0  0  0  0
  147.6906  135.3051  161.9643 N   0  0  0  0  0  0  0  0  0  0  0  0
  147.9535  135.9766  160.8208 C   0  0  0  0  0  0  0  0  0  0  0  0
  148.0868  137.1998  160.8359 O   0  0  0  0  0  0  0  0  0  0  0  0
  147.6023  135.8266  162.8246 H   0  0  0  0  0  0  0  0  0  0  0  0
  148.5418  137.2727  156.5999 H   0  0  0  0  0  0  0  0  0  0  0  0
  150.6238  135.6031  155.3111 H   0  0  0  0  0  0  0  0  0  0  0  0
  149.3475  136.3575  154.3890 H   0  0  0  0  0  0  0  0  0  0  0  0
  151.6216  137.5726  154.3851 H   0  0  0  0  0  0  0  0  0  0  0  0
  149.5504  138.8243  153.7611 H   0  0  0  0  0  0  0  0  0  0  0  0
  149.2093  139.1593  155.4494 H   0  0  0  0  0  0  0  0  0  0  0  0
  152.1266  141.2586  155.8126 H   0  0  0  0  0  0  0  0  0  0  0  0
  150.7327  140.6153  156.6641 H   0  0  0  0  0  0  0  0  0  0  0  0
  153.1278  138.9764  155.6197 H   0  0  0  0  0  0  0  0  0  0  0  0
  152.7696  139.3192  157.3038 H   0  0  0  0  0  0  0  0  0  0  0  0
  147.7492  136.6586  158.2738 H   0  0  0  0  0  0  0  0  0  0  0  0
  148.0250  133.1692  158.8281 H   0  0  0  0  0  0  0  0  0  0  0  0
  147.2942  133.5626  163.0341 H   0  0  0  0  0  0  0  0  0  0  0  0
  1  2  2  0  0  0  0
  2  3  1  0  0  0  0
  2 11  1  0  0  0  0
  3  4  1  0  0  0  0
  3 24  1  0  0  0  0
  4  5  1  0  0  0  0
  4 25  1  0  0  0  0
  4 26  1  0  0  0  0
  5 10  1  0  0  0  0
  5  6  1  0  0  0  0
  5 27  1  0  0  0  0
  6  7  1  0  0  0  0
  6 28  1  0  0  0  0
  6 29  1  0  0  0  0
  7  8  1  0  0  0  0
  8  9  1  0  0  0  0
  8 30  1  0  0  0  0
  8 31  1  0  0  0  0
  9 10  1  0  0  0  0
  9 32  1  0  0  0  0
  9 33  1  0  0  0  0
 11 12  1  0  0  0  0
 11 34  1  0  0  0  0
 12 21  1  0  0  0  0
 12 13  2  0  0  0  0
 13 14  1  0  0  0  0
 13 35  1  0  0  0  0
 14 15  1  0  0  0  0
 14 19  2  0  0  0  0
 15 16  1  0  0  0  0
 15 17  1  0  0  0  0
 15 18  1  0  0  0  0
 19 20  1  0  0  0  0
 19 36  1  0  0  0  0
 20 23  1  0  0  0  0
 20 21  1  0  0  0  0
 21 22  2  0  0  0  0
M  END
> <s_m_source_file>
AV-unprocessed.smi

> <i_m_source_file_index>
1521

> <i_lp_mmshare_version>
43012

> <i_f3d_flags>
0

> <s_epik_input>
Tz1jMVtuSF1bY0hdYyhDKEYpKEYpRilbY0hdYzFbTkhdQyg9TylbTkhdW0NIMl1bQ0BASF0yW0NIMl1PW0NIMl1bQ0gyXU8y

> <s_epik_cmdline>
J2VwaWtfcHl0aG9uJywgJy1waCcsICc3LjAnLCAnLXRuJywgJzgnLCAnLW1hJywgJzIwMCcsICctbWV0YWxfYmluZGluZycsICctaW1hZScsICc8aW5maWxlLm1hZT4nLCAnLW9tYWUnLCAnPG91dGZpbGUubWFlPic=

> <r_lp_tautomer_probability>
1

> <r_epik_Ionization_Penalty>
0.00396636

> <r_epik_Ionization_Penalty_Charging>
0.00394789

> <r_epik_Ionization_Penalty_Neutral>
1.84676e-05

> <r_epik_State_Penalty>
-0

> <r_epik_Charging_Adjusted_Penalty>
0.00394789

> <i_epik_Tot_Q>
0

> <i_epik_Tot_abs_Q>
0

> <r_epik_Metal_State_Penalty>
0.372669

> <b_epik_Metal_Only>
0

> <s_lp_Force_Field>
OPLS_2005

> <r_lp_Energy>
19.2224

> <b_lp_Chiralities_Consistent>
1

> <s_lp_Variant>
AV-unprocessed.smi:1521-2

> <Gold.Version>
5.8.1

> <Gold.Id.Protein>
6NUR|6NUR_protein|mol2

> <Gold.PLP.Fitness>
41.4353

> <Gold.PLP.PLP>
-32.0240

> <Gold.PLP.part.hbond>
-4.0000

> <Gold.PLP.part.metal>
0.0000

> <Gold.PLP.part.buried>
-4.9305

> <Gold.PLP.part.nonpolar>
-24.3293

> <Gold.PLP.part.repulsive>
0.2547

> <Gold.PLP.ligand.clash>
0.0000

> <Gold.PLP.ligand.torsion>
0.5536

> <Gold.PLP.Chemscore.Hbond>
3.4960

> <Gold.PLP.Chemscore.CHOScore>
0.0000

> <Gold.PLP.Chemscore.Metal>
0.0000

> <Gold.Chemscore.Hbonds>
donor molecule, donor type, donor heavy atom, donor atom, acceptor molecule, acceptor atom, score
      P1  H  6896  6909       L1     1  0.70
      P1  H  6931  6943       L1    22  0.88
      P1  H  6934  6947       L1    22  0.70
      P1  H  7989  7998       L1     7  1.00

> <Gold.PLP.Chemscore.Internal.Correction>
0.0305

> <Gold.Rescore>
     Score         DG    S(hbond)    S(metal)    S(lipo)     H(rot)  DE(clash)    DE(int)     intcor
     19.45     -20.14       3.64        0.00      51.56       1.37       0.00       0.69       ----

> <Gold.Chemscore.Fitness>
19.4549

> <Gold.Chemscore.DG>
-20.1448

> <Gold.Chemscore.ZeroCoef>
-5.4800

> <Gold.Chemscore.Hbond>
3.6373

> <Gold.Chemscore.Metal>
0.0000

> <Gold.Chemscore.Lipo>
51.5597

> <Gold.Chemscore.Internal_Hbond>
0.0000

> <Gold.Chemscore.DEClash>
0.0044

> <Gold.Chemscore.DEInternal>
0.6855

> <Gold.Chemscore.Rot>
1.3735

> <Gold.Chemscore.Internal.Correction>
   9.000000E+99

> <Gold.Chemscore.Hbonds>
donor molecule, donor type, donor heavy atom, donor atom, acceptor molecule, acceptor atom, score
      P1  H  6896  6909       L1     1  0.50
      P1  H  6931  6943       L1    22  0.87
      P1  H  6934  6947       L1    22  0.65
      P1  H  7989  7998       L1     7  0.73

> <Gold.Chemscore.Hbond.Weighted>
-12.1485

> <Gold.Chemscore.Metal.Weighted>
-0.0000

> <Gold.Chemscore.Lipo.Weighted>
-6.0325

> <Gold.Chemscore.Internal_Hbond.Weighted>
0.0000

> <Gold.Chemscore.DEClash.Weighted>
0.0044

> <Gold.Chemscore.DEInternal.Weighted>
0.6855

> <Gold.Chemscore.Rot.Weighted>
3.5162

> <Gold.Chemscore.Internal.Correction.Weighted>
   9.000000E+99

> <Gold.Protein.RotatedTorsions>
[ 6907 6896 6895 6894 ] final   23.76 input  -60.11 | X-H torsion
[ 7974 7965 7964 7962 ] final  178.60 input  175.53 | X-H torsion
[ 8008 7997 7996 7995 ] final  174.66 input   59.86 | X-H torsion
[ 10167 10162 10161 10158 ] final  -49.20 input  -65.29 | X-H torsion
[ 10718 10713 10712 10709 ] final  -59.87 input   66.30 | X-H torsion
[ 10763 10752 10751 10750 ] final  -24.21 input  -60.55 | X-H torsion
[ 11005 11000 10999 10996 ] final   25.84 input  -57.11 | X-H torsion

> <Gold.Protein.ActiveResidues>
 VAL166  LYS551  ARG553  GLY616  TRP617  ASP618  TYR619  PRO620  LYS621  CYS622 
 ASP623  PHE694  ASN695  SER759  ASP760  ASP761  ALA762  ILE779  LEU786  VAL792 
 PHE793  MET794  SER795  GLU796  ALA797  LYS798  CYS799  TRP800  GLU811  SER814 

> <Gold.Protein.RotatedAtoms>
  151.9472  135.0186  160.0539 H   0  0  0  0  0  0  0  0  0  0  0  0  # atno 6907 bound_to 6896
  152.1984  133.4819  159.5054 H   0  0  0  0  0  0  0  0  0  0  0  0  # atno 6908 bound_to 6896
  150.6949  134.1539  159.4193 H   0  0  0  0  0  0  0  0  0  0  0  0  # atno 6909 bound_to 6896
  144.7154  140.0422  143.6437 H   0  0  0  0  0  0  0  0  0  0  0  0  # atno 7974 bound_to 7965
  156.0951  140.1429  156.9541 H   0  0  0  0  0  0  0  0  0  0  0  0  # atno 8008 bound_to 7997
  154.4666  140.0924  156.7084 H   0  0  0  0  0  0  0  0  0  0  0  0  # atno 8009 bound_to 7997
  155.4854  140.3446  155.4348 H   0  0  0  0  0  0  0  0  0  0  0  0  # atno 8010 bound_to 7997
  140.6696  143.2708  151.4181 H   0  0  0  0  0  0  0  0  0  0  0  0  # atno 10167 bound_to 10162
  156.1030  130.4184  150.0776 H   0  0  0  0  0  0  0  0  0  0  0  0  # atno 10718 bound_to 10713
  153.6802  135.6967  153.5120 H   0  0  0  0  0  0  0  0  0  0  0  0  # atno 10763 bound_to 10752
  153.2491  135.4281  155.0777 H   0  0  0  0  0  0  0  0  0  0  0  0  # atno 10764 bound_to 10752
  154.8402  135.3527  154.6345 H   0  0  0  0  0  0  0  0  0  0  0  0  # atno 10765 bound_to 10752
  140.3435  134.2307  155.7687 H   0  0  0  0  0  0  0  0  0  0  0  0  # atno 11005 bound_to 11000
  146.0014  139.3094  143.0925 LP  0  0  0  0  0  0  0  0  0  0  0  0  # atno 17320 bound_to 7965
  145.8789  140.9375  143.0611 LP  0  0  0  0  0  0  0  0  0  0  0  0  # atno 17321 bound_to 7965
  139.5959  144.1399  152.2142 LP  0  0  0  0  0  0  0  0  0  0  0  0  # atno 17342 bound_to 10162
  140.0768  144.5733  150.7151 LP  0  0  0  0  0  0  0  0  0  0  0  0  # atno 17343 bound_to 10162
  156.8758  130.9540  151.3604 LP  0  0  0  0  0  0  0  0  0  0  0  0  # atno 17370 bound_to 10713
  157.6203  130.8650  149.9098 LP  0  0  0  0  0  0  0  0  0  0  0  0  # atno 17371 bound_to 10713
  141.2032  133.7918  157.0352 LP  0  0  0  0  0  0  0  0  0  0  0  0  # atno 17394 bound_to 11000
  140.0762  134.9674  157.1549 LP  0  0  0  0  0  0  0  0  0  0  0  0  # atno 17395 bound_to 11000

$$$$
