AV-unprocessed.smi:1046|AV-procd|sdf|4557|dock9
  -GOLD-   22720 2593D 1   1.00000     0.00000
 Structure written by MMmdl.
 54 56  0  0  0  0  0  0  0  0  3 V2000
  146.9183  134.1064  162.4973 C   0  0  0  0  0  0  0  0  0  0  0  0
  147.2033  134.6940  161.1263 C   0  0  0  0  0  0  0  0  0  0  0  0
  146.9457  136.0647  160.8991 C   0  0  0  0  0  0  0  0  0  0  0  0
  147.1976  136.6497  159.6391 C   0  0  0  0  0  0  0  0  0  0  0  0
  147.0168  137.9495  159.1988 N   0  0  0  0  0  0  0  0  0  0  0  0
  147.4308  137.8667  157.9383 C   0  0  0  0  0  0  0  0  0  0  0  0
  147.8486  136.6618  157.5048 N   0  0  0  0  0  0  0  0  0  0  0  0
  148.3253  136.3320  156.1742 C   0  0  0  0  0  0  0  0  0  0  0  0
  147.2079  136.4067  155.1154 C   0  0  1  0  0  0  0  0  0  0  0  0
  147.6832  137.1870  154.0373 O   0  0  0  0  0  0  0  0  0  0  0  0
  146.7722  135.0264  154.5752 C   0  0  0  0  0  0  0  0  0  0  0  0
  146.7094  134.9909  153.0916 N   0  3  2  0  0  0  0  0  0  0  0  0
  145.5376  135.7148  152.5339 C   0  0  0  0  0  0  0  0  0  0  0  0
  145.5703  135.7176  150.9942 C   0  0  0  0  0  0  0  0  0  0  0  0
  145.6442  134.3421  150.4416 N   0  3  2  0  0  0  0  0  0  0  0  0
  144.3478  133.6128  150.4855 C   0  0  0  0  0  0  0  0  0  0  0  0
  144.1918  132.6202  149.3208 C   0  0  0  0  0  0  0  0  0  0  0  0
  142.8632  132.1455  149.2694 O   0  0  0  0  0  0  0  0  0  0  0  0
  146.7979  133.5994  151.0133 C   0  0  0  0  0  0  0  0  0  0  0  0
  146.7929  133.6089  152.5562 C   0  0  0  0  0  0  0  0  0  0  0  0
  147.7191  135.8194  158.6042 C   0  0  0  0  0  0  0  0  0  0  0  0
  147.9799  134.4542  158.8181 C   0  0  0  0  0  0  0  0  0  0  0  0
  147.7220  133.8858  160.0829 C   0  0  0  0  0  0  0  0  0  0  0  0
  148.0085  132.4113  160.3053 C   0  0  0  0  0  0  0  0  0  0  0  0
  146.5367  134.8629  163.1837 H   0  0  0  0  0  0  0  0  0  0  0  0
  147.8275  133.6897  162.9311 H   0  0  0  0  0  0  0  0  0  0  0  0
  146.1733  133.3137  162.4260 H   0  0  0  0  0  0  0  0  0  0  0  0
  146.5512  136.6805  161.6941 H   0  0  0  0  0  0  0  0  0  0  0  0
  147.4226  138.7302  157.2891 H   0  0  0  0  0  0  0  0  0  0  0  0
  149.1321  137.0221  155.9222 H   0  0  0  0  0  0  0  0  0  0  0  0
  148.7661  135.3345  156.1985 H   0  0  0  0  0  0  0  0  0  0  0  0
  146.3584  136.9288  155.5546 H   0  0  0  0  0  0  0  0  0  0  0  0
  148.2254  136.6443  153.4845 H   0  0  0  0  0  0  0  0  0  0  0  0
  147.4779  134.2767  154.9368 H   0  0  0  0  0  0  0  0  0  0  0  0
  145.7974  134.7367  154.9686 H   0  0  0  0  0  0  0  0  0  0  0  0
  144.6163  135.2523  152.8917 H   0  0  0  0  0  0  0  0  0  0  0  0
  145.5257  136.7452  152.8869 H   0  0  0  0  0  0  0  0  0  0  0  0
  144.7051  136.2451  150.5908 H   0  0  0  0  0  0  0  0  0  0  0  0
  146.4463  136.2712  150.6532 H   0  0  0  0  0  0  0  0  0  0  0  0
  144.2372  133.0937  151.4374 H   0  0  0  0  0  0  0  0  0  0  0  0
  143.5230  134.3253  150.4355 H   0  0  0  0  0  0  0  0  0  0  0  0
  144.4630  133.0614  148.3622 H   0  0  0  0  0  0  0  0  0  0  0  0
  144.8536  131.7669  149.4724 H   0  0  0  0  0  0  0  0  0  0  0  0
  142.2751  132.8840  149.3290 H   0  0  0  0  0  0  0  0  0  0  0  0
  146.8290  132.5767  150.6395 H   0  0  0  0  0  0  0  0  0  0  0  0
  147.7125  134.0753  150.6569 H   0  0  0  0  0  0  0  0  0  0  0  0
  147.7061  133.1341  152.9172 H   0  0  0  0  0  0  0  0  0  0  0  0
  145.9616  133.0177  152.9423 H   0  0  0  0  0  0  0  0  0  0  0  0
  148.3770  133.8491  158.0166 H   0  0  0  0  0  0  0  0  0  0  0  0
  148.3817  131.9368  159.3974 H   0  0  0  0  0  0  0  0  0  0  0  0
  147.1026  131.8862  160.6087 H   0  0  0  0  0  0  0  0  0  0  0  0
  148.7611  132.2823  161.0837 H   0  0  0  0  0  0  0  0  0  0  0  0
  147.5374  135.4706  152.7660 H   0  0  0  0  0  0  0  0  0  0  0  0
  145.8358  134.4560  149.4556 H   0  0  0  0  0  0  0  0  0  0  0  0
  1  2  1  0  0  0  0
  1 25  1  0  0  0  0
  1 26  1  0  0  0  0
  1 27  1  0  0  0  0
  2 23  1  0  0  0  0
  2  3  2  0  0  0  0
  3  4  1  0  0  0  0
  3 28  1  0  0  0  0
  4 21  2  0  0  0  0
  4  5  1  0  0  0  0
  5  6  2  0  0  0  0
  6  7  1  0  0  0  0
  6 29  1  0  0  0  0
  7  8  1  0  0  0  0
  7 21  1  0  0  0  0
  8  9  1  0  0  0  0
  8 30  1  0  0  0  0
  8 31  1  0  0  0  0
  9 10  1  0  0  0  0
  9 11  1  0  0  0  0
  9 32  1  0  0  0  0
 10 33  1  0  0  0  0
 11 12  1  0  0  0  0
 11 34  1  0  0  0  0
 11 35  1  0  0  0  0
 12 20  1  0  0  0  0
 12 13  1  0  0  0  0
 12 53  1  0  0  0  0
 13 14  1  0  0  0  0
 13 36  1  0  0  0  0
 13 37  1  0  0  0  0
 14 15  1  0  0  0  0
 14 38  1  0  0  0  0
 14 39  1  0  0  0  0
 15 16  1  0  0  0  0
 15 19  1  0  0  0  0
 15 54  1  0  0  0  0
 16 17  1  0  0  0  0
 16 40  1  0  0  0  0
 16 41  1  0  0  0  0
 17 18  1  0  0  0  0
 17 42  1  0  0  0  0
 17 43  1  0  0  0  0
 18 44  1  0  0  0  0
 19 20  1  0  0  0  0
 19 45  1  0  0  0  0
 19 46  1  0  0  0  0
 20 47  1  0  0  0  0
 20 48  1  0  0  0  0
 21 22  1  0  0  0  0
 22 23  2  0  0  0  0
 22 49  1  0  0  0  0
 23 24  1  0  0  0  0
 24 50  1  0  0  0  0
 24 51  1  0  0  0  0
 24 52  1  0  0  0  0
M  CHG  1  12   1
M  CHG  1  15   1
M  END
> <s_m_source_file>
AV-unprocessed.smi

> <i_m_source_file_index>
1046

> <i_lp_mmshare_version>
43012

> <i_f3d_flags>
0

> <s_epik_input>
W0NIM11jKFtjSF0xKWMoW0NIM10pW2NIXWMoYzEyKW4oW2NIXW4yKVtDSDJdW0NASF0oW09IXSlbQ0gyXU4zW0NIMl1bQ0gyXU4oW0NIMl1bQ0gyXTMpW0NIMl1bQ0gyXVtPSF0=

> <s_epik_cmdline>
J2VwaWtfcHl0aG9uJywgJy1waCcsICc3LjAnLCAnLXRuJywgJzgnLCAnLW1hJywgJzIwMCcsICctbWV0YWxfYmluZGluZycsICctaW1hZScsICc8aW5maWxlLm1hZT4nLCAnLW9tYWUnLCAnPG91dGZpbGUubWFlPic=

> <r_epik_Ionization_Penalty>
3.17398

> <r_epik_Ionization_Penalty_Charging>
3.09061

> <r_epik_Ionization_Penalty_Neutral>
0.0833726

> <r_epik_State_Penalty>
2.17606

> <r_epik_Charging_Adjusted_Penalty>
5.26667

> <i_epik_Tot_Q>
2

> <i_epik_Tot_abs_Q>
2

> <r_epik_Metal_State_Penalty>
2.08587

> <b_epik_Metal_Only>
0

> <s_lp_Force_Field>
OPLS_2005

> <r_lp_Energy>
29.1343

> <b_lp_Chiralities_Consistent>
1

> <s_lp_Variant>
AV-unprocessed.smi:1046-10

> <Gold.Version>
5.8.1

> <Gold.Id.Protein>
6NUR|6NUR_protein|mol2

> <Gold.PLP.Fitness>
53.7178

> <Gold.PLP.PLP>
-37.8130

> <Gold.PLP.part.hbond>
-6.9678

> <Gold.PLP.part.metal>
0.0000

> <Gold.PLP.part.buried>
-7.2071

> <Gold.PLP.part.nonpolar>
-23.5348

> <Gold.PLP.part.repulsive>
0.0701

> <Gold.PLP.ligand.clash>
0.0000

> <Gold.PLP.ligand.torsion>
1.9399

> <Gold.PLP.Chemscore.Hbond>
6.5578

> <Gold.PLP.Chemscore.CHOScore>
0.0000

> <Gold.PLP.Chemscore.Metal>
0.0000

> <Gold.Chemscore.Hbonds>
donor molecule, donor type, donor heavy atom, donor atom, acceptor molecule, acceptor atom, score
      L1  H    10    33       P1  7948  1.00
      L1  H    12    53       P1  7948  2.00
      L1  H    15    54       P1  7921  1.00
      L1  H    18    44       P1 10186  1.00
      P1  H  6934  6947       L1     5  0.61
      P1  H 10785 10796       L1    18  0.83

> <Gold.PLP.Chemscore.Internal.Correction>
0.1113

> <Gold.Rescore>
     Score         DG    S(hbond)    S(metal)    S(lipo)     H(rot)  DE(clash)    DE(int)     intcor
     21.65     -23.65       5.22        0.00      78.24       3.28       0.03       1.98       ----

> <Gold.Chemscore.Fitness>
21.6493

> <Gold.Chemscore.DG>
-23.6549

> <Gold.Chemscore.ZeroCoef>
-5.4800

> <Gold.Chemscore.Hbond>
5.2170

> <Gold.Chemscore.Metal>
0.0000

> <Gold.Chemscore.Lipo>
78.2406

> <Gold.Chemscore.Internal_Hbond>
0.0000

> <Gold.Chemscore.DEClash>
0.0285

> <Gold.Chemscore.DEInternal>
1.9771

> <Gold.Chemscore.Rot>
3.2828

> <Gold.Chemscore.Internal.Correction>
   9.000000E+99

> <Gold.Chemscore.Hbonds>
donor molecule, donor type, donor heavy atom, donor atom, acceptor molecule, acceptor atom, score
      L1  H    10    33       P1  7948  0.96
      L1  H    12    53       P1  7948  1.00
      L1  H    15    54       P1  7921  0.70
      L1  H    18    44       P1 10186  0.97
      P1  H  6934  6947       L1     5  0.26
      P1  H 10785 10796       L1    18  0.25

> <Gold.Chemscore.Hbond.Weighted>
-17.4246

> <Gold.Chemscore.Metal.Weighted>
-0.0000

> <Gold.Chemscore.Lipo.Weighted>
-9.1542

> <Gold.Chemscore.Internal_Hbond.Weighted>
0.0000

> <Gold.Chemscore.DEClash.Weighted>
0.0285

> <Gold.Chemscore.DEInternal.Weighted>
1.9771

> <Gold.Chemscore.Rot.Weighted>
8.4039

> <Gold.Chemscore.Internal.Correction.Weighted>
   9.000000E+99

> <Gold.Protein.RotatedTorsions>
[ 6907 6896 6895 6894 ] final   52.48 input  -60.11 | X-H torsion
[ 7974 7965 7964 7962 ] final  123.13 input  175.53 | X-H torsion
[ 8008 7997 7996 7995 ] final  -52.73 input   59.86 | X-H torsion
[ 10167 10162 10161 10158 ] final  -14.73 input  -65.29 | X-H torsion
[ 10718 10713 10712 10709 ] final -103.27 input   66.30 | X-H torsion
[ 10763 10752 10751 10750 ] final   73.00 input  -60.55 | X-H torsion
[ 11005 11000 10999 10996 ] final   60.49 input  -57.11 | X-H torsion

> <Gold.Protein.ActiveResidues>
 VAL166  LYS551  ARG553  GLY616  TRP617  ASP618  TYR619  PRO620  LYS621  CYS622 
 ASP623  PHE694  ASN695  SER759  ASP760  ASP761  ALA762  ILE779  LEU786  VAL792 
 PHE793  MET794  SER795  GLU796  ALA797  LYS798  CYS799  TRP800  GLU811  SER814 

> <Gold.Protein.RotatedAtoms>
  152.3237  134.7348  160.0307 H   0  0  0  0  0  0  0  0  0  0  0  0  # atno 6907 bound_to 6896
  151.7788  133.3342  159.3473 H   0  0  0  0  0  0  0  0  0  0  0  0  # atno 6908 bound_to 6896
  150.7384  134.5882  159.6018 H   0  0  0  0  0  0  0  0  0  0  0  0  # atno 6909 bound_to 6896
  145.0995  139.3528  143.4819 H   0  0  0  0  0  0  0  0  0  0  0  0  # atno 7974 bound_to 7965
  154.4114  140.1217  156.5039 H   0  0  0  0  0  0  0  0  0  0  0  0  # atno 8008 bound_to 7997
  155.6867  140.3495  155.4857 H   0  0  0  0  0  0  0  0  0  0  0  0  # atno 8009 bound_to 7997
  155.9505  140.1104  157.0971 H   0  0  0  0  0  0  0  0  0  0  0  0  # atno 8010 bound_to 7997
  140.7206  143.5291  150.9541 H   0  0  0  0  0  0  0  0  0  0  0  0  # atno 10167 bound_to 10162
  156.0259  130.5459  150.7228 H   0  0  0  0  0  0  0  0  0  0  0  0  # atno 10718 bound_to 10713
  153.0494  135.5079  154.7829 H   0  0  0  0  0  0  0  0  0  0  0  0  # atno 10763 bound_to 10752
  154.6703  135.2952  154.9753 H   0  0  0  0  0  0  0  0  0  0  0  0  # atno 10764 bound_to 10752
  154.0574  135.6695  153.4860 H   0  0  0  0  0  0  0  0  0  0  0  0  # atno 10765 bound_to 10752
  140.0228  134.6128  155.9615 H   0  0  0  0  0  0  0  0  0  0  0  0  # atno 11005 bound_to 11000
  146.3530  140.0866  142.8615 LP  0  0  0  0  0  0  0  0  0  0  0  0  # atno 17320 bound_to 7965
  145.0972  140.9322  143.4734 LP  0  0  0  0  0  0  0  0  0  0  0  0  # atno 17321 bound_to 7965
  139.9011  143.6835  152.3131 LP  0  0  0  0  0  0  0  0  0  0  0  0  # atno 17342 bound_to 10162
  139.7184  144.7607  151.0995 LP  0  0  0  0  0  0  0  0  0  0  0  0  # atno 17343 bound_to 10162
  157.4840  131.0905  151.0504 LP  0  0  0  0  0  0  0  0  0  0  0  0  # atno 17370 bound_to 10713
  157.0929  130.5950  149.5443 LP  0  0  0  0  0  0  0  0  0  0  0  0  # atno 17371 bound_to 10713
  141.1784  133.6543  156.4921 LP  0  0  0  0  0  0  0  0  0  0  0  0  # atno 17394 bound_to 11000
  140.4358  134.7060  157.4966 LP  0  0  0  0  0  0  0  0  0  0  0  0  # atno 17395 bound_to 11000

$$$$
