AV-unprocessed.smi:1768|AV-procd|sdf|7148|dock7
  -GOLD-   22720 8383D 1   1.00000     0.00000
 Structure written by MMmdl.
 32 33  0  0  0  0  0  0  0  0  2 V2000
  146.9773  133.9351  162.4690 C   0  0  0  0  0  0  0  0  0  0  0  0
  147.4740  135.0784  161.6525 C   0  0  0  0  0  0  0  0  0  0  0  0
  147.5101  136.3316  162.1120 N   0  0  0  0  0  0  0  0  0  0  0  0
  148.0094  137.2191  161.1696 N   0  0  0  0  0  0  0  0  0  0  0  0
  148.3313  136.6291  160.0097 C   0  0  0  0  0  0  0  0  0  0  0  0
  148.8337  137.3137  158.9689 N   0  5  0  0  0  0  0  0  0  0  0  0
  150.1494  137.6262  158.9365 C   0  0  0  0  0  0  0  0  0  0  0  0
  151.0728  136.9450  159.3881 O   0  0  0  0  0  0  0  0  0  0  0  0
  150.4104  138.7997  158.3424 N   0  0  0  0  0  0  0  0  0  0  0  0
  151.7290  139.4033  158.1624 C   0  0  1  0  0  0  0  0  0  0  0  0
  151.9225  139.7948  156.6863 C   0  0  0  0  0  0  0  0  0  0  0  0
  151.8615  140.6134  159.1068 C   0  0  2  0  0  0  0  0  0  0  0  0
  151.2303  141.9066  158.5869 C   0  0  0  0  0  0  0  0  0  0  0  0
  152.0215  143.0036  159.2834 C   0  0  0  0  0  0  0  0  0  0  0  0
  153.2429  142.2790  159.8541 C   0  0  0  0  0  0  0  0  0  0  0  0
  153.2218  140.9936  159.2513 O   0  0  0  0  0  0  0  0  0  0  0  0
  148.0549  134.8872  160.0070 S   0  0  0  0  0  0  0  0  0  0  0  0
  145.8875  133.9404  162.4916 H   0  0  0  0  0  0  0  0  0  0  0  0
  147.3514  134.0093  163.4905 H   0  0  0  0  0  0  0  0  0  0  0  0
  147.3144  132.9900  162.0430 H   0  0  0  0  0  0  0  0  0  0  0  0
  149.6217  139.3237  157.9930 H   0  0  0  0  0  0  0  0  0  0  0  0
  152.4941  138.6737  158.4343 H   0  0  0  0  0  0  0  0  0  0  0  0
  152.9144  140.2117  156.5125 H   0  0  0  0  0  0  0  0  0  0  0  0
  151.1885  140.5385  156.3745 H   0  0  0  0  0  0  0  0  0  0  0  0
  151.8177  138.9301  156.0305 H   0  0  0  0  0  0  0  0  0  0  0  0
  151.4565  140.3744  160.0925 H   0  0  0  0  0  0  0  0  0  0  0  0
  151.3699  141.9869  157.5080 H   0  0  0  0  0  0  0  0  0  0  0  0
  150.1609  141.9627  158.7920 H   0  0  0  0  0  0  0  0  0  0  0  0
  152.3101  143.7812  158.5756 H   0  0  0  0  0  0  0  0  0  0  0  0
  151.4438  143.4726  160.0806 H   0  0  0  0  0  0  0  0  0  0  0  0
  154.1771  142.7986  159.6405 H   0  0  0  0  0  0  0  0  0  0  0  0
  153.1535  142.1689  160.9356 H   0  0  0  0  0  0  0  0  0  0  0  0
  1  2  1  0  0  0  0
  1 18  1  0  0  0  0
  1 19  1  0  0  0  0
  1 20  1  0  0  0  0
  2 17  1  0  0  0  0
  2  3  2  0  0  0  0
  3  4  1  0  0  0  0
  4  5  2  0  0  0  0
  5  6  1  0  0  0  0
  5 17  1  0  0  0  0
  6  7  1  0  0  0  0
  7  8  2  0  0  0  0
  7  9  1  0  0  0  0
  9 10  1  0  0  0  0
  9 21  1  0  0  0  0
 10 11  1  0  0  0  0
 10 12  1  0  0  0  0
 10 22  1  0  0  0  0
 11 23  1  0  0  0  0
 11 24  1  0  0  0  0
 11 25  1  0  0  0  0
 12 16  1  0  0  0  0
 12 13  1  0  0  0  0
 12 26  1  0  0  0  0
 13 14  1  0  0  0  0
 13 27  1  0  0  0  0
 13 28  1  0  0  0  0
 14 15  1  0  0  0  0
 14 29  1  0  0  0  0
 14 30  1  0  0  0  0
 15 16  1  0  0  0  0
 15 31  1  0  0  0  0
 15 32  1  0  0  0  0
M  CHG  1   6  -1
M  END
> <s_m_source_file>
AV-unprocessed.smi

> <i_m_source_file_index>
1768

> <i_lp_mmshare_version>
43012

> <i_f3d_flags>
0

> <s_epik_input>
W0NIM11jMW5uYyhzMSlbTkhdQyg9TylbTkhdW0NASF0oW0NIM10pW0NAQEhdMltDSDJdW0NIMl1bQ0gyXU8y

> <s_epik_cmdline>
J2VwaWtfcHl0aG9uJywgJy1waCcsICc3LjAnLCAnLXRuJywgJzgnLCAnLW1hJywgJzIwMCcsICctbWV0YWxfYmluZGluZycsICctaW1hZScsICc8aW5maWxlLm1hZT4nLCAnLW9tYWUnLCAnPG91dGZpbGUubWFlPic=

> <r_lp_tautomer_probability>
1

> <r_epik_Ionization_Penalty>
4.3376

> <r_epik_Ionization_Penalty_Charging>
4.19392

> <r_epik_Ionization_Penalty_Neutral>
0.143681

> <r_epik_State_Penalty>
4.19342

> <r_epik_Charging_Adjusted_Penalty>
8.38735

> <i_epik_Tot_Q>
-1

> <i_epik_Tot_abs_Q>
1

> <r_epik_Metal_State_Penalty>
0.686065

> <b_epik_Metal_Only>
1

> <s_lp_Force_Field>
OPLS_2005

> <r_lp_Energy>
16.4206

> <b_lp_Chiralities_Consistent>
1

> <s_lp_Variant>
AV-unprocessed.smi:1768-6

> <Gold.Version>
5.8.1

> <Gold.Id.Protein>
6NUR|6NUR_protein|mol2

> <Gold.PLP.Fitness>
36.5637

> <Gold.PLP.PLP>
-31.1975

> <Gold.PLP.part.hbond>
-3.0000

> <Gold.PLP.part.metal>
0.0000

> <Gold.PLP.part.buried>
-4.5352

> <Gold.PLP.part.nonpolar>
-23.7697

> <Gold.PLP.part.repulsive>
0.1326

> <Gold.PLP.ligand.clash>
0.0000

> <Gold.PLP.ligand.torsion>
1.3914

> <Gold.PLP.Chemscore.Hbond>
2.7040

> <Gold.PLP.Chemscore.CHOScore>
0.0000

> <Gold.PLP.Chemscore.Metal>
0.0000

> <Gold.Chemscore.Hbonds>
donor molecule, donor type, donor heavy atom, donor atom, acceptor molecule, acceptor atom, score
      P1  H  6896  6908       L1     8  1.00
      P1  H  6931  6943       L1     4  0.99
      P1  H  6934  6947       L1     4  0.70

> <Gold.PLP.Chemscore.Internal.Correction>
0.0369

> <Gold.Rescore>
     Score         DG    S(hbond)    S(metal)    S(lipo)     H(rot)  DE(clash)    DE(int)     intcor
     16.78     -18.09       2.42        0.00      66.71       1.28       0.01       1.30       ----

> <Gold.Chemscore.Fitness>
16.7762

> <Gold.Chemscore.DG>
-18.0937

> <Gold.Chemscore.ZeroCoef>
-5.4800

> <Gold.Chemscore.Hbond>
2.4189

> <Gold.Chemscore.Metal>
0.0000

> <Gold.Chemscore.Lipo>
66.7113

> <Gold.Chemscore.Internal_Hbond>
0.0000

> <Gold.Chemscore.DEClash>
0.0133

> <Gold.Chemscore.DEInternal>
1.3042

> <Gold.Chemscore.Rot>
1.2776

> <Gold.Chemscore.Internal.Correction>
   9.000000E+99

> <Gold.Chemscore.Hbonds>
donor molecule, donor type, donor heavy atom, donor atom, acceptor molecule, acceptor atom, score
      P1  H  6896  6908       L1     8  0.95
      P1  H  6931  6943       L1     4  0.65
      P1  H  6934  6947       L1     4  0.57

> <Gold.Chemscore.Hbond.Weighted>
-8.0791

> <Gold.Chemscore.Metal.Weighted>
-0.0000

> <Gold.Chemscore.Lipo.Weighted>
-7.8052

> <Gold.Chemscore.Internal_Hbond.Weighted>
0.0000

> <Gold.Chemscore.DEClash.Weighted>
0.0133

> <Gold.Chemscore.DEInternal.Weighted>
1.3042

> <Gold.Chemscore.Rot.Weighted>
3.2706

> <Gold.Chemscore.Internal.Correction.Weighted>
   9.000000E+99

> <Gold.Protein.RotatedTorsions>
[ 6907 6896 6895 6894 ] final -118.27 input  -60.11 | X-H torsion
[ 7974 7965 7964 7962 ] final   28.88 input  175.53 | X-H torsion
[ 8008 7997 7996 7995 ] final  -98.93 input   59.86 | X-H torsion
[ 10167 10162 10161 10158 ] final   92.56 input  -65.29 | X-H torsion
[ 10718 10713 10712 10709 ] final  154.00 input   66.30 | X-H torsion
[ 10763 10752 10751 10750 ] final   29.70 input  -60.55 | X-H torsion
[ 11005 11000 10999 10996 ] final  178.90 input  -57.11 | X-H torsion

> <Gold.Protein.ActiveResidues>
 VAL166  LYS551  ARG553  GLY616  TRP617  ASP618  TYR619  PRO620  LYS621  CYS622 
 ASP623  PHE694  ASN695  SER759  ASP760  ASP761  ALA762  ILE779  LEU786  VAL792 
 PHE793  MET794  SER795  GLU796  ALA797  LYS798  CYS799  TRP800  GLU811  SER814 

> <Gold.Protein.RotatedAtoms>
  150.8206  133.8260  159.3140 H   0  0  0  0  0  0  0  0  0  0  0  0  # atno 6907 bound_to 6896
  151.6019  135.1045  160.0071 H   0  0  0  0  0  0  0  0  0  0  0  0  # atno 6908 bound_to 6896
  152.4295  133.7212  159.6591 H   0  0  0  0  0  0  0  0  0  0  0  0  # atno 6909 bound_to 6896
  146.1703  139.6996  142.8972 H   0  0  0  0  0  0  0  0  0  0  0  0  # atno 7974 bound_to 7965
  154.8080  140.0451  157.1321 H   0  0  0  0  0  0  0  0  0  0  0  0  # atno 8008 bound_to 7997
  154.9402  140.3051  155.5104 H   0  0  0  0  0  0  0  0  0  0  0  0  # atno 8009 bound_to 7997
  156.2969  140.2307  156.4470 H   0  0  0  0  0  0  0  0  0  0  0  0  # atno 8010 bound_to 7997
  139.8265  144.6707  150.9454 H   0  0  0  0  0  0  0  0  0  0  0  0  # atno 10167 bound_to 10162
  157.2374  131.0752  151.1814 H   0  0  0  0  0  0  0  0  0  0  0  0  # atno 10718 bound_to 10713
  153.0415  135.6482  154.0931 H   0  0  0  0  0  0  0  0  0  0  0  0  # atno 10763 bound_to 10752
  154.0637  135.2886  155.3322 H   0  0  0  0  0  0  0  0  0  0  0  0  # atno 10764 bound_to 10752
  154.6640  135.5381  153.8119 H   0  0  0  0  0  0  0  0  0  0  0  0  # atno 10765 bound_to 10752
  140.4002  134.6784  157.4557 H   0  0  0  0  0  0  0  0  0  0  0  0  # atno 11005 bound_to 11000
  145.4357  141.0418  143.2885 LP  0  0  0  0  0  0  0  0  0  0  0  0  # atno 17320 bound_to 7965
  144.8153  139.5887  143.7011 LP  0  0  0  0  0  0  0  0  0  0  0  0  # atno 17321 bound_to 7965
  140.7810  143.4042  151.1099 LP  0  0  0  0  0  0  0  0  0  0  0  0  # atno 17342 bound_to 10162
  139.7699  143.8510  152.3118 LP  0  0  0  0  0  0  0  0  0  0  0  0  # atno 17343 bound_to 10162
  157.3415  130.7035  149.6384 LP  0  0  0  0  0  0  0  0  0  0  0  0  # atno 17370 bound_to 10713
  155.9672  130.4278  150.4762 LP  0  0  0  0  0  0  0  0  0  0  0  0  # atno 17371 bound_to 10713
  140.0342  134.6361  155.9066 LP  0  0  0  0  0  0  0  0  0  0  0  0  # atno 17394 bound_to 11000
  141.1859  133.6556  156.5219 LP  0  0  0  0  0  0  0  0  0  0  0  0  # atno 17395 bound_to 11000

$$$$
