#       Name:                AV-unprocessed.smi:1535
#       Creating user name   scv26
#       Creation time:       Fri Mar 27 06:34:03 2020


#       File generated by GOLD software.
#

@<TRIPOS>MOLECULE
AV-unprocessed.smi:1535
    51    52     1
SMALL
NO_CHARGES


@<TRIPOS>ATOM
      1 ****        -5.3099   1.2713   2.1941 C.3            1 S1                 0.0000
      2 ****        -4.0658   1.4486   1.3414 C.ar           1 S1                 0.0000
      3 ****        -4.2080   1.8485  -0.0066 C.ar           1 S1                 0.0000
      4 ****        -3.0768   2.0236  -0.8335 C.ar           1 S1                 0.0000
      5 ****        -2.9826   2.4048  -2.1611 N.2            1 S1                 0.0000
      6 ****        -1.6670   2.3828  -2.3540 C.2            1 S1                 0.0000
      7 ****        -0.8963   2.0275  -1.3076 N.pl3          1 S1                 0.0000
      8 ****         0.5518   1.9272  -1.2745 C.3            1 S1                 0.0000
      9 ****         1.0381   0.4654  -1.2987 C.3            1 S1                 0.0000
     10 ****         0.5999  -0.1559  -2.4923 O.3            1 S1                 0.0000
     11 ****         2.5744   0.3644  -1.2226 C.3            1 S1                 0.0000
     12 ****         3.0292  -1.0399  -1.0618 N.4            1 S1                 1.0000
     13 ****         4.3756  -1.2619  -1.6371 C.3            1 S1                 0.0000
     14 ****         2.9189  -1.5384   0.3342 C.3            1 S1                 0.0000
     15 ****         2.6430  -3.0518   0.3893 C.3            1 S1                 0.0000
     16 ****         1.2632  -3.4101  -0.1835 C.3            1 S1                 0.0000
     17 ****         2.7734  -3.5500   1.7677 C.1            1 S1                 0.0000
     18 ****         2.8762  -3.9403   2.8515 N.1            1 S1                 0.0000
     19 ****        -1.7893   1.7840  -0.2702 C.ar           1 S1                 0.0000
     20 ****        -1.6344   1.3880   1.0700 C.ar           1 S1                 0.0000
     21 ****        -2.7750   1.2202   1.8827 C.ar           1 S1                 0.0000
     22 ****        -2.5970   0.7954   3.3298 C.3            1 S1                 0.0000
     23 ****        -6.2180   1.4215   1.6095 H              1 S1                 0.0000
     24 ****        -5.3157   1.9908   3.0132 H              1 S1                 0.0000
     25 ****        -5.3470   0.2664   2.6149 H              1 S1                 0.0000
     26 ****        -5.1909   2.0248  -0.4184 H              1 S1                 0.0000
     27 ****        -1.2390   2.6360  -3.3132 H              1 S1                 0.0000
     28 ****         0.9631   2.4836  -2.1182 H              1 S1                 0.0000
     29 ****         0.9029   2.4263  -0.3705 H              1 S1                 0.0000
     30 ****         0.5848  -0.0663  -0.4622 H              1 S1                 0.0000
     31 ****         0.9021   0.3534  -3.2293 H              1 S1                 0.0000
     32 ****         2.9969   0.7958  -2.1319 H              1 S1                 0.0000
     33 ****         2.9626   0.9625  -0.3963 H              1 S1                 0.0000
     34 ****         5.1248  -0.6579  -1.1234 H              1 S1                 0.0000
     35 ****         4.3905  -0.9966  -2.6947 H              1 S1                 0.0000
     36 ****         4.6697  -2.3084  -1.5602 H              1 S1                 0.0000
     37 ****         3.8347  -1.2971   0.8766 H              1 S1                 0.0000
     38 ****         2.1192  -1.0239   0.8675 H              1 S1                 0.0000
     39 ****         3.4055  -3.5823  -0.1807 H              1 S1                 0.0000
     40 ****         1.0834  -4.4835  -0.1220 H              1 S1                 0.0000
     41 ****         1.1779  -3.1235  -1.2320 H              1 S1                 0.0000
     42 ****         0.4655  -2.9090   0.3658 H              1 S1                 0.0000
     43 ****        -0.6460   1.2156   1.4693 H              1 S1                 0.0000
     44 ****        -1.5428   0.7555   3.6054 H              1 S1                 0.0000
     45 ****        -3.0249  -0.1943   3.4911 H              1 S1                 0.0000
     46 ****        -3.0893   1.5000   4.0005 H              1 S1                 0.0000
     47 ****         2.3897  -1.5917  -1.6165 H              1 S1                 0.0000
     48 ****        -3.7118   2.6358  -2.8053 LP             1 S1                 0.0000
     49 ****        -0.3991  -0.2000  -2.5012 LP             1 S1                 0.0000
     50 ****         0.9749  -1.0814  -2.5468 LP             1 S1                 0.0000
     51 ****         2.9651  -4.2778   3.7886 LP             1 S1                 0.0000
@<TRIPOS>BOND
    1    1    2 1     
    2    1   23 1     
    3    1   24 1     
    4    1   25 1     
    5    2   21 ar    
    6    2    3 ar    
    7    3    4 ar    
    8    3   26 1     
    9    4   19 ar    
   10    4    5 1     
   11    5    6 2     
   12    6    7 1     
   13    6   27 1     
   14    7    8 1     
   15    7   19 1     
   16    8    9 1     
   17    8   28 1     
   18    8   29 1     
   19    9   10 1     
   20    9   11 1     
   21    9   30 1     
   22   10   31 1     
   23   11   12 1     
   24   11   32 1     
   25   11   33 1     
   26   12   13 1     
   27   12   14 1     
   28   12   47 1     
   29   13   34 1     
   30   13   35 1     
   31   13   36 1     
   32   14   15 1     
   33   14   37 1     
   34   14   38 1     
   35   15   16 1     
   36   15   17 1     
   37   15   39 1     
   38   16   40 1     
   39   16   41 1     
   40   16   42 1     
   41   17   18 3     
   42   19   20 ar    
   43   20   21 ar    
   44   20   43 1     
   45   21   22 1     
   46   22   44 1     
   47   22   45 1     
   48   22   46 1     
   49    5   48 1     
   50   10   49 1     
   51   10   50 1     
   52   18   51 1     
@<TRIPOS>SUBSTRUCTURE
      1 S1             1
@<TRIPOS>SET
LONE_PAIRS      STATIC     ATOMS    <user>   **** ""
4 48 49 50 51
DONOR_HYDROGENS      STATIC     ATOMS    <user>   **** ""
2 31 47
ATOM$BLUE        STATIC     ATOMS    COLORGROUP SYSTEM
4 48 49 50 51
ATOM$RED        STATIC     ATOMS    COLORGROUP SYSTEM
2 31 47
