#       Name:                AV-unprocessed.smi:3321
#       Creating user name   scv26
#       Creation time:       Fri Mar 27 19:11:13 2020


#       File generated by GOLD software.
#

@<TRIPOS>MOLECULE
AV-unprocessed.smi:3321
    44    45     1
SMALL
NO_CHARGES


@<TRIPOS>ATOM
      1 ****        -0.7878  -1.3413   3.0001 C.3            1 S1                 0.0000
      2 ****        -0.3285  -0.7013   1.6795 C.3            1 S1                 0.0000
      3 ****         1.1512  -0.7428   1.6059 N.4            1 S1                 1.0000
      4 ****         1.7584   0.1837   0.6265 C.3            1 S1                 0.0000
      5 ****         3.2874   0.0450   0.6172 C.3            1 S1                 0.0000
      6 ****         3.9055   0.9370  -0.3445 N.pl3          1 S1                 0.0000
      7 ****         4.5534   0.6176  -1.5193 C.2            1 S1                 0.0000
      8 ****         4.9771   1.7880  -2.0803 C.2            1 S1                 0.0000
      9 ****         4.5385   2.7819  -1.1612 C.2            1 S1                 0.0000
     10 ****         3.8993   2.2690  -0.1220 N.2            1 S1                 0.0000
     11 ****        -0.9822  -1.4237   0.4815 C.2            1 S1                 0.0000
     12 ****        -0.3414  -2.3186  -0.0734 O.2            1 S1                 0.0000
     13 ****        -2.2257  -1.0702   0.0690 N.am           1 S1                 0.0000
     14 ****        -3.0671  -0.0146   0.6500 C.3            1 S1                 0.0000
     15 ****        -3.1224   1.1677  -0.3337 C.3            1 S1                 0.0000
     16 ****        -3.6485   0.7090  -1.7074 C.3            1 S1                 0.0000
     17 ****        -2.8991  -0.5363  -2.2199 C.3            1 S1                 0.0000
     18 ****        -2.8433  -1.6332  -1.1397 C.3            1 S1                 0.0000
     19 ****        -1.8727  -1.3169   3.1073 H              1 S1                 0.0000
     20 ****        -0.3667  -0.8135   3.8562 H              1 S1                 0.0000
     21 ****        -0.4745  -2.3840   3.0684 H              1 S1                 0.0000
     22 ****        -0.6034   0.3532   1.6816 H              1 S1                 0.0000
     23 ****         1.5157  -0.5031   2.5166 H              1 S1                 0.0000
     24 ****         1.3656  -0.0205  -0.3702 H              1 S1                 0.0000
     25 ****         1.4743   1.2058   0.8807 H              1 S1                 0.0000
     26 ****         3.6991   0.2629   1.6037 H              1 S1                 0.0000
     27 ****         3.5728  -0.9790   0.3728 H              1 S1                 0.0000
     28 ****         4.6591  -0.4037  -1.8552 H              1 S1                 0.0000
     29 ****         5.5198   1.9152  -3.0052 H              1 S1                 0.0000
     30 ****         4.6666   3.8528  -1.2165 H              1 S1                 0.0000
     31 ****        -4.0724  -0.4079   0.8088 H              1 S1                 0.0000
     32 ****        -2.7426   0.3243   1.6314 H              1 S1                 0.0000
     33 ****        -3.7594   1.9584   0.0637 H              1 S1                 0.0000
     34 ****        -2.1261   1.5977  -0.4459 H              1 S1                 0.0000
     35 ****        -4.7097   0.4729  -1.6201 H              1 S1                 0.0000
     36 ****        -3.5730   1.5207  -2.4318 H              1 S1                 0.0000
     37 ****        -3.3822  -0.9185  -3.1195 H              1 S1                 0.0000
     38 ****        -1.8842  -0.2583  -2.5079 H              1 S1                 0.0000
     39 ****        -2.3124  -2.5045  -1.5255 H              1 S1                 0.0000
     40 ****        -3.8501  -1.9824  -0.9057 H              1 S1                 0.0000
     41 ****         1.4316  -1.6878   1.3841 H              1 S1                 0.0000
     42 ****         3.5010   2.7581   0.6540 LP             1 S1                 0.0000
     43 ****         0.5726  -2.5567   0.2552 LP             1 S1                 0.0000
     44 ****        -0.7355  -2.8066  -0.8522 LP             1 S1                 0.0000
@<TRIPOS>BOND
    1    1    2 1     
    2    1   19 1     
    3    1   20 1     
    4    1   21 1     
    5    2    3 1     
    6    2   11 1     
    7    2   22 1     
    8    3    4 1     
    9    3   23 1     
   10    3   41 1     
   11    4    5 1     
   12    4   24 1     
   13    4   25 1     
   14    5    6 1     
   15    5   26 1     
   16    5   27 1     
   17    6   10 1     
   18    6    7 1     
   19    7    8 2     
   20    7   28 1     
   21    8    9 1     
   22    8   29 1     
   23    9   10 2     
   24    9   30 1     
   25   11   12 2     
   26   11   13 am    
   27   13   18 1     
   28   13   14 1     
   29   14   15 1     
   30   14   31 1     
   31   14   32 1     
   32   15   16 1     
   33   15   33 1     
   34   15   34 1     
   35   16   17 1     
   36   16   35 1     
   37   16   36 1     
   38   17   18 1     
   39   17   37 1     
   40   17   38 1     
   41   18   39 1     
   42   18   40 1     
   43   10   42 1     
   44   12   43 1     
   45   12   44 1     
@<TRIPOS>SUBSTRUCTURE
      1 S1             1
@<TRIPOS>SET
LONE_PAIRS      STATIC     ATOMS    <user>   **** ""
3 42 43 44
DONOR_HYDROGENS      STATIC     ATOMS    <user>   **** ""
2 23 41
ATOM$BLUE        STATIC     ATOMS    COLORGROUP SYSTEM
3 42 43 44
ATOM$RED        STATIC     ATOMS    COLORGROUP SYSTEM
2 23 41
