#       Name:                AV-unprocessed.smi:1664
#       Creating user name   scv26
#       Creation time:       Fri Mar 27 07:37:48 2020


#       File generated by GOLD software.
#

@<TRIPOS>MOLECULE
AV-unprocessed.smi:1664
    42    43     1
SMALL
NO_CHARGES


@<TRIPOS>ATOM
      1 ****        -2.4295  -1.1467   2.4376 C.3            1 S1                 0.0000
      2 ****        -1.9087  -0.5150   1.1314 C.3            1 S1                 0.0000
      3 ****        -2.3567   0.8920   1.0614 C.1            1 S1                 0.0000
      4 ****        -2.7071   1.9941   1.0068 N.1            1 S1                 0.0000
      5 ****        -0.4469  -0.5899   1.1058 N.am           1 S1                 0.0000
      6 ****         0.4218   0.0952   1.8690 C.2            1 S1                 0.0000
      7 ****         0.0846   0.8786   2.7552 O.2            1 S1                 0.0000
      8 ****         1.9072  -0.1351   1.5746 C.3            1 S1                 0.0000
      9 ****         2.3395   0.5976   0.3738 N.am           1 S1                 0.0000
     10 ****         2.3156  -0.1084  -0.8456 C.2            1 S1                 0.0000
     11 ****         2.6708   0.4639  -2.0124 C.2            1 S1                 0.0000
     12 ****         2.6266  -0.2744  -3.2556 N.pl3          1 S1                 1.0000
     13 ****         3.0043   0.2796  -4.2829 O.2            1 S1                 0.0000
     14 ****         2.2125  -1.4299  -3.2470 O.2            1 S1                -1.0000
     15 ****         3.0920   1.8510  -1.9819 C.2            1 S1                 0.0000
     16 ****         3.1141   2.5330  -0.8198 C.2            1 S1                 0.0000
     17 ****         2.7196   1.9101   0.4480 C.2            1 S1                 0.0000
     18 ****         2.7303   2.5310   1.5106 O.2            1 S1                 0.0000
     19 ****        -2.4862  -1.2929  -0.0494 C.3            1 S1                 0.0000
     20 ****        -2.6694  -0.6793  -1.4199 C.3            1 S1                 0.0000
     21 ****        -3.8783  -1.0464  -0.5870 C.3            1 S1                 0.0000
     22 ****        -3.5197  -1.1475   2.4633 H              1 S1                 0.0000
     23 ****        -2.0900  -0.6006   3.3181 H              1 S1                 0.0000
     24 ****        -2.0973  -2.1803   2.5405 H              1 S1                 0.0000
     25 ****        -0.0540  -1.2089   0.4117 H              1 S1                 0.0000
     26 ****         2.4988   0.1601   2.4432 H              1 S1                 0.0000
     27 ****         2.0870  -1.2054   1.4614 H              1 S1                 0.0000
     28 ****         1.9818  -1.1328  -0.7632 H              1 S1                 0.0000
     29 ****         3.3915   2.3532  -2.8901 H              1 S1                 0.0000
     30 ****         3.4297   3.5660  -0.8201 H              1 S1                 0.0000
     31 ****        -2.1754  -2.3366  -0.0534 H              1 S1                 0.0000
     32 ****        -2.4486   0.3783  -1.5476 H              1 S1                 0.0000
     33 ****        -2.4442  -1.3047  -2.2813 H              1 S1                 0.0000
     34 ****        -4.4557  -1.9153  -0.8960 H              1 S1                 0.0000
     35 ****        -4.4604  -0.2326  -0.1597 H              1 S1                 0.0000
     36 ****        -3.0097   2.9460   0.9597 LP             1 S1                 0.0000
     37 ****        -0.8853   1.0353   2.9416 LP             1 S1                 0.0000
     38 ****         0.7804   1.3588   3.2893 LP             1 S1                 0.0000
     39 ****         3.3342   1.2230  -4.2499 LP             1 S1                 0.0000
     40 ****         2.9823  -0.2123  -5.1533 LP             1 S1                 0.0000
     41 ****         2.4551   2.0767   2.3579 LP             1 S1                 0.0000
     42 ****         3.0142   3.4897   1.5267 LP             1 S1                 0.0000
@<TRIPOS>BOND
    1    1    2 1     
    2    1   22 1     
    3    1   23 1     
    4    1   24 1     
    5    2    3 1     
    6    2    5 1     
    7    2   19 1     
    8    3    4 3     
    9    5    6 am    
   10    5   25 1     
   11    6    7 2     
   12    6    8 1     
   13    8    9 1     
   14    8   26 1     
   15    8   27 1     
   16    9   17 am    
   17    9   10 1     
   18   10   11 2     
   19   10   28 1     
   20   11   12 1     
   21   11   15 1     
   22   12   13 2     
   23   12   14 1     
   24   15   16 2     
   25   15   29 1     
   26   16   17 1     
   27   16   30 1     
   28   17   18 2     
   29   19   21 1     
   30   19   20 1     
   31   19   31 1     
   32   20   21 1     
   33   20   32 1     
   34   20   33 1     
   35   21   34 1     
   36   21   35 1     
   37    4   36 1     
   38    7   37 1     
   39    7   38 1     
   40   13   39 1     
   41   13   40 1     
   42   18   41 1     
   43   18   42 1     
@<TRIPOS>SUBSTRUCTURE
      1 S1             1
@<TRIPOS>SET
LONE_PAIRS      STATIC     ATOMS    <user>   **** ""
8 36 37 38 39 40 14 41 42
DONOR_HYDROGENS      STATIC     ATOMS    <user>   **** ""
1 25
ATOM$BLUE        STATIC     ATOMS    COLORGROUP SYSTEM
8 36 37 38 39 40 14 41 42
ATOM$RED        STATIC     ATOMS    COLORGROUP SYSTEM
1 25
