AV-unprocessed.smi:1855|AV-procd|sdf|7531|dock9
  -GOLD-   22720 9243D 1   1.00000     0.00000
 Structure written by MMmdl.
 43 45  0  0  0  0  0  0  0  0  1 V2000
  155.0798  133.0470  160.0578 C   0  0  0  0  0  0  0  0  0  0  0  0
  154.5376  134.3587  160.0753 O   0  0  0  0  0  0  0  0  0  0  0  0
  154.5443  135.0561  161.2660 C   0  0  0  0  0  0  0  0  0  0  0  0
  155.0865  134.5482  162.4736 C   0  0  0  0  0  0  0  0  0  0  0  0
  155.0554  135.3200  163.6496 C   0  0  0  0  0  0  0  0  0  0  0  0
  154.4838  136.6038  163.6331 C   0  0  0  0  0  0  0  0  0  0  0  0
  153.9424  137.1172  162.4407 C   0  0  0  0  0  0  0  0  0  0  0  0
  153.9690  136.3473  161.2511 C   0  0  0  0  0  0  0  0  0  0  0  0
  153.4609  136.7825  160.0468 O   0  0  0  0  0  0  0  0  0  0  0  0
  152.5697  137.8883  160.0343 C   0  0  0  0  0  0  0  0  0  0  0  0
  153.3709  139.1608  159.7242 C   0  0  0  0  0  0  0  0  0  0  0  0
  152.6365  140.0691  158.8534 N   0  0  0  0  0  0  0  0  0  0  0  0
  151.9790  139.7821  157.7014 C   0  0  0  0  0  0  0  0  0  0  0  0
  151.9118  138.3914  157.1403 C   0  0  0  0  0  0  0  0  0  0  0  0
  152.6671  138.3378  155.8924 N   0  0  0  0  0  0  0  0  0  0  0  0
  152.4235  139.0896  154.8094 C   0  0  0  0  0  0  0  0  0  0  0  0
  151.5313  139.9326  154.7321 O   0  0  0  0  0  0  0  0  0  0  0  0
  151.3971  140.8162  157.0926 N   0  0  0  0  0  0  0  0  0  0  0  0
  151.7057  141.8732  157.9260 C   0  0  0  0  0  0  0  0  0  0  0  0
  151.3792  143.2447  157.8279 C   0  0  0  0  0  0  0  0  0  0  0  0
  151.8205  144.1555  158.8102 C   0  0  0  0  0  0  0  0  0  0  0  0
  152.5911  143.7087  159.9028 C   0  0  0  0  0  0  0  0  0  0  0  0
  152.9222  142.3454  160.0223 C   0  0  0  0  0  0  0  0  0  0  0  0
  152.4812  141.4402  159.0382 C   0  0  0  0  0  0  0  0  0  0  0  0
  154.9906  132.6369  159.0520 H   0  0  0  0  0  0  0  0  0  0  0  0
  154.5397  132.3828  160.7334 H   0  0  0  0  0  0  0  0  0  0  0  0
  156.1384  133.0497  160.3205 H   0  0  0  0  0  0  0  0  0  0  0  0
  155.5337  133.5671  162.5239 H   0  0  0  0  0  0  0  0  0  0  0  0
  155.4716  134.9261  164.5651 H   0  0  0  0  0  0  0  0  0  0  0  0
  154.4608  137.1968  164.5356 H   0  0  0  0  0  0  0  0  0  0  0  0
  153.5135  138.1073  162.4632 H   0  0  0  0  0  0  0  0  0  0  0  0
  151.7967  137.7462  159.2777 H   0  0  0  0  0  0  0  0  0  0  0  0
  152.0811  137.9894  161.0042 H   0  0  0  0  0  0  0  0  0  0  0  0
  153.6417  139.6736  160.6464 H   0  0  0  0  0  0  0  0  0  0  0  0
  154.3101  138.8991  159.2357 H   0  0  0  0  0  0  0  0  0  0  0  0
  152.3049  137.6775  157.8662 H   0  0  0  0  0  0  0  0  0  0  0  0
  150.8745  138.1128  156.9546 H   0  0  0  0  0  0  0  0  0  0  0  0
  153.4262  137.6738  155.8474 H   0  0  0  0  0  0  0  0  0  0  0  0
  153.1300  138.8502  153.9997 H   0  0  0  0  0  0  0  0  0  0  0  0
  150.7912  143.5967  156.9932 H   0  0  0  0  0  0  0  0  0  0  0  0
  151.5680  145.2020  158.7235 H   0  0  0  0  0  0  0  0  0  0  0  0
  152.9296  144.4128  160.6487 H   0  0  0  0  0  0  0  0  0  0  0  0
  153.5168  142.0012  160.8554 H   0  0  0  0  0  0  0  0  0  0  0  0
  1  2  1  0  0  0  0
  1 25  1  0  0  0  0
  1 26  1  0  0  0  0
  1 27  1  0  0  0  0
  2  3  1  0  0  0  0
  3  8  1  0  0  0  0
  3  4  2  0  0  0  0
  4  5  1  0  0  0  0
  4 28  1  0  0  0  0
  5  6  2  0  0  0  0
  5 29  1  0  0  0  0
  6  7  1  0  0  0  0
  6 30  1  0  0  0  0
  7  8  2  0  0  0  0
  7 31  1  0  0  0  0
  8  9  1  0  0  0  0
  9 10  1  0  0  0  0
 10 11  1  0  0  0  0
 10 32  1  0  0  0  0
 10 33  1  0  0  0  0
 11 12  1  0  0  0  0
 11 34  1  0  0  0  0
 11 35  1  0  0  0  0
 12 24  1  0  0  0  0
 12 13  1  0  0  0  0
 13 14  1  0  0  0  0
 13 18  2  0  0  0  0
 14 15  1  0  0  0  0
 14 36  1  0  0  0  0
 14 37  1  0  0  0  0
 15 16  1  0  0  0  0
 15 38  1  0  0  0  0
 16 17  2  0  0  0  0
 16 39  1  0  0  0  0
 18 19  1  0  0  0  0
 19 24  2  0  0  0  0
 19 20  1  0  0  0  0
 20 21  2  0  0  0  0
 20 40  1  0  0  0  0
 21 22  1  0  0  0  0
 21 41  1  0  0  0  0
 22 23  2  0  0  0  0
 22 42  1  0  0  0  0
 23 24  1  0  0  0  0
 23 43  1  0  0  0  0
M  END
> <s_m_source_file>
AV-unprocessed.smi

> <i_m_source_file_index>
1855

> <i_lp_mmshare_version>
43012

> <i_f3d_flags>
0

> <s_epik_input>
W0NIM11PYzFbY0hdW2NIXVtjSF1bY0hdYzFPW0NIMl1bQ0gyXW4oYyhuMilbQ0gyXVtOSF1bQ0hdPU8pYyhjMjMpW2NIXVtjSF1bY0hdW2NIXTM=

> <s_epik_cmdline>
J2VwaWtfcHl0aG9uJywgJy1waCcsICc3LjAnLCAnLXRuJywgJzgnLCAnLW1hJywgJzIwMCcsICctbWV0YWxfYmluZGluZycsICctaW1hZScsICc8aW5maWxlLm1hZT4nLCAnLW9tYWUnLCAnPG91dGZpbGUubWFlPic=

> <r_lp_tautomer_probability>
1

> <r_epik_Ionization_Penalty>
0.0587233

> <r_epik_Ionization_Penalty_Charging>
0

> <r_epik_Ionization_Penalty_Neutral>
0.0587233

> <r_epik_State_Penalty>
0.0508012

> <r_epik_Charging_Adjusted_Penalty>
0.0508012

> <i_epik_Tot_Q>
0

> <i_epik_Tot_abs_Q>
0

> <r_epik_Metal_State_Penalty>
0.0461886

> <b_epik_Metal_Only>
0

> <s_lp_Force_Field>
OPLS_2005

> <r_lp_Energy>
14.9723

> <b_lp_Chiralities_Consistent>
1

> <s_lp_Variant>
AV-unprocessed.smi:1855-1

> <Gold.Version>
5.8.1

> <Gold.Id.Protein>
6NUR|6NUR_protein|mol2

> <Gold.PLP.Fitness>
51.2687

> <Gold.PLP.PLP>
-47.3715

> <Gold.PLP.part.hbond>
-1.9439

> <Gold.PLP.part.metal>
0.0000

> <Gold.PLP.part.buried>
-6.6881

> <Gold.PLP.part.nonpolar>
-39.1298

> <Gold.PLP.part.repulsive>
0.2316

> <Gold.PLP.ligand.clash>
0.0000

> <Gold.PLP.ligand.torsion>
0.9288

> <Gold.PLP.Chemscore.Hbond>
1.8938

> <Gold.PLP.Chemscore.CHOScore>
0.0000

> <Gold.PLP.Chemscore.Metal>
0.0000

> <Gold.Chemscore.Hbonds>
donor molecule, donor type, donor heavy atom, donor atom, acceptor molecule, acceptor atom, score
      P1  H  6896  6908       L1     2  0.65
      P1  H  7989  7998       L1    17  1.00

> <Gold.PLP.Chemscore.Internal.Correction>
0.0735

> <Gold.Rescore>
     Score         DG    S(hbond)    S(metal)    S(lipo)     H(rot)  DE(clash)    DE(int)     intcor
     15.65     -18.91       1.60        0.00     129.06       2.74       0.03       3.23       ----

> <Gold.Chemscore.Fitness>
15.6494

> <Gold.Chemscore.DG>
-18.9100

> <Gold.Chemscore.ZeroCoef>
-5.4800

> <Gold.Chemscore.Hbond>
1.5987

> <Gold.Chemscore.Metal>
0.0000

> <Gold.Chemscore.Lipo>
129.0638

> <Gold.Chemscore.Internal_Hbond>
0.0000

> <Gold.Chemscore.DEClash>
0.0294

> <Gold.Chemscore.DEInternal>
3.2312

> <Gold.Chemscore.Rot>
2.7383

> <Gold.Chemscore.Internal.Correction>
   9.000000E+99

> <Gold.Chemscore.Hbonds>
donor molecule, donor type, donor heavy atom, donor atom, acceptor molecule, acceptor atom, score
      P1  H  6896  6908       L1     2  0.05
      P1  H  7989  7998       L1    17  0.84

> <Gold.Chemscore.Hbond.Weighted>
-5.3397

> <Gold.Chemscore.Metal.Weighted>
-0.0000

> <Gold.Chemscore.Lipo.Weighted>
-15.1005

> <Gold.Chemscore.Internal_Hbond.Weighted>
0.0000

> <Gold.Chemscore.DEClash.Weighted>
0.0294

> <Gold.Chemscore.DEInternal.Weighted>
3.2312

> <Gold.Chemscore.Rot.Weighted>
7.0102

> <Gold.Chemscore.Internal.Correction.Weighted>
   9.000000E+99

> <Gold.Protein.RotatedTorsions>
[ 6907 6896 6895 6894 ] final  -42.46 input  -60.11 | X-H torsion
[ 7974 7965 7964 7962 ] final  144.14 input  175.53 | X-H torsion
[ 8008 7997 7996 7995 ] final  117.51 input   59.86 | X-H torsion
[ 10167 10162 10161 10158 ] final   29.01 input  -65.29 | X-H torsion
[ 10718 10713 10712 10709 ] final  113.15 input   66.30 | X-H torsion
[ 10763 10752 10751 10750 ] final  -16.86 input  -60.55 | X-H torsion
[ 11005 11000 10999 10996 ] final  161.94 input  -57.11 | X-H torsion

> <Gold.Protein.ActiveResidues>
 VAL166  LYS551  ARG553  GLY616  TRP617  ASP618  TYR619  PRO620  LYS621  CYS622 
 ASP623  PHE694  ASN695  SER759  ASP760  ASP761  ALA762  ILE779  LEU786  VAL792 
 PHE793  MET794  SER795  GLU796  ALA797  LYS798  CYS799  TRP800  GLU811  SER814 

> <Gold.Protein.RotatedAtoms>
  150.9550  134.8945  159.7695 H   0  0  0  0  0  0  0  0  0  0  0  0  # atno 6907 bound_to 6896
  152.5134  134.3753  159.9342 H   0  0  0  0  0  0  0  0  0  0  0  0  # atno 6908 bound_to 6896
  151.3767  133.3795  159.2740 H   0  0  0  0  0  0  0  0  0  0  0  0  # atno 6909 bound_to 6896
  144.8861  139.5627  143.5820 H   0  0  0  0  0  0  0  0  0  0  0  0  # atno 7974 bound_to 7965
  156.2498  140.2894  156.0690 H   0  0  0  0  0  0  0  0  0  0  0  0  # atno 8008 bound_to 7997
  155.1692  140.0401  157.2876 H   0  0  0  0  0  0  0  0  0  0  0  0  # atno 8009 bound_to 7997
  154.6338  140.2506  155.7409 H   0  0  0  0  0  0  0  0  0  0  0  0  # atno 8010 bound_to 7997
  140.4803  144.0626  150.6263 H   0  0  0  0  0  0  0  0  0  0  0  0  # atno 10167 bound_to 10162
  157.6354  131.0979  150.6999 H   0  0  0  0  0  0  0  0  0  0  0  0  # atno 10718 bound_to 10713
  153.5650  135.7009  153.5530 H   0  0  0  0  0  0  0  0  0  0  0  0  # atno 10763 bound_to 10752
  153.3395  135.4025  155.1560 H   0  0  0  0  0  0  0  0  0  0  0  0  # atno 10764 bound_to 10752
  154.8642  135.3738  154.5169 H   0  0  0  0  0  0  0  0  0  0  0  0  # atno 10765 bound_to 10752
  140.2208  134.8197  157.3218 H   0  0  0  0  0  0  0  0  0  0  0  0  # atno 11005 bound_to 11000
  146.3025  139.7472  142.9081 LP  0  0  0  0  0  0  0  0  0  0  0  0  # atno 17320 bound_to 7965
  145.3867  141.0366  143.3147 LP  0  0  0  0  0  0  0  0  0  0  0  0  # atno 17321 bound_to 7965
  140.3866  143.2774  152.0109 LP  0  0  0  0  0  0  0  0  0  0  0  0  # atno 17342 bound_to 10162
  139.4832  144.6111  151.7431 LP  0  0  0  0  0  0  0  0  0  0  0  0  # atno 17343 bound_to 10162
  156.7331  130.4716  149.5495 LP  0  0  0  0  0  0  0  0  0  0  0  0  # atno 17370 bound_to 10713
  156.1589  130.6360  151.0693 LP  0  0  0  0  0  0  0  0  0  0  0  0  # atno 17371 bound_to 10713
  140.1852  134.4440  155.7748 LP  0  0  0  0  0  0  0  0  0  0  0  0  # atno 17394 bound_to 11000
  141.2223  133.7001  156.7935 LP  0  0  0  0  0  0  0  0  0  0  0  0  # atno 17395 bound_to 11000

$$$$
