AV-unprocessed.smi:1207|AV-procd|sdf|5049|dock8
  -GOLD-   22720 4 73D 1   1.00000     0.00000
 Structure written by MMmdl.
 51 53  0  0  0  0  0  0  0  0  1 V2000
  153.5164  141.9360  161.3414 C   0  0  0  0  0  0  0  0  0  0  0  0
  152.7638  141.8896  160.0233 C   0  0  0  0  0  0  0  0  0  0  0  0
  153.0416  140.8482  159.1096 C   0  0  0  0  0  0  0  0  0  0  0  0
  152.3642  140.7693  157.8730 C   0  0  0  0  0  0  0  0  0  0  0  0
  152.4784  139.8511  156.8431 N   0  0  0  0  0  0  0  0  0  0  0  0
  151.5875  140.3147  155.9715 C   0  0  0  0  0  0  0  0  0  0  0  0
  150.9080  141.4255  156.3151 N   0  0  0  0  0  0  0  0  0  0  0  0
  149.8943  142.1055  155.5281 C   0  0  0  0  0  0  0  0  0  0  0  0
  149.0138  141.1278  154.7271 C   0  0  2  0  0  0  0  0  0  0  0  0
  149.6431  140.8359  153.4946 O   0  0  0  0  0  0  0  0  0  0  0  0
  147.6238  141.7292  154.4324 C   0  0  0  0  0  0  0  0  0  0  0  0
  146.6098  141.5184  155.4688 N   0  0  0  0  0  0  0  0  0  0  0  0
  145.2833  141.8186  154.9364 C   0  0  0  0  0  0  0  0  0  0  0  0
  146.8737  142.3002  156.6811 C   0  0  0  0  0  0  0  0  0  0  0  0
  146.2498  141.6979  157.9146 C   0  0  0  0  0  0  0  0  0  0  0  0
  145.5100  140.4860  158.0230 C   0  0  0  0  0  0  0  0  0  0  0  0
  145.1706  139.5009  156.9418 C   0  0  0  0  0  0  0  0  0  0  0  0
  145.1036  140.2642  159.2621 N   0  0  0  0  0  0  0  0  0  0  0  0
  145.5716  141.3435  160.0179 O   0  0  0  0  0  0  0  0  0  0  0  0
  146.2481  142.1832  159.1935 C   0  0  0  0  0  0  0  0  0  0  0  0
  146.8320  143.4084  159.8121 C   0  0  0  0  0  0  0  0  0  0  0  0
  151.3912  141.7675  157.5738 C   0  0  0  0  0  0  0  0  0  0  0  0
  151.1069  142.8091  158.4745 C   0  0  0  0  0  0  0  0  0  0  0  0
  151.7947  142.8746  159.7044 C   0  0  0  0  0  0  0  0  0  0  0  0
  151.4826  144.0058  160.6678 C   0  0  0  0  0  0  0  0  0  0  0  0
  154.2017  141.0937  161.4388 H   0  0  0  0  0  0  0  0  0  0  0  0
  152.8212  141.8994  162.1804 H   0  0  0  0  0  0  0  0  0  0  0  0
  154.1008  142.8534  161.4148 H   0  0  0  0  0  0  0  0  0  0  0  0
  153.7807  140.0987  159.3513 H   0  0  0  0  0  0  0  0  0  0  0  0
  151.4183  139.8190  155.0268 H   0  0  0  0  0  0  0  0  0  0  0  0
  149.2768  142.6939  156.2079 H   0  0  0  0  0  0  0  0  0  0  0  0
  150.3855  142.8162  154.8618 H   0  0  0  0  0  0  0  0  0  0  0  0
  148.9293  140.2031  155.2957 H   0  0  0  0  0  0  0  0  0  0  0  0
  149.0624  140.2892  152.9875 H   0  0  0  0  0  0  0  0  0  0  0  0
  147.7253  142.7996  154.2467 H   0  0  0  0  0  0  0  0  0  0  0  0
  147.2733  141.3006  153.4921 H   0  0  0  0  0  0  0  0  0  0  0  0
  144.5034  141.6009  155.6661 H   0  0  0  0  0  0  0  0  0  0  0  0
  145.0742  141.2135  154.0537 H   0  0  0  0  0  0  0  0  0  0  0  0
  145.2010  142.8690  154.6539 H   0  0  0  0  0  0  0  0  0  0  0  0
  147.9456  142.3794  156.8489 H   0  0  0  0  0  0  0  0  0  0  0  0
  146.5330  143.3255  156.5318 H   0  0  0  0  0  0  0  0  0  0  0  0
  144.4544  139.9265  156.2392 H   0  0  0  0  0  0  0  0  0  0  0  0
  144.7350  138.5876  157.3482 H   0  0  0  0  0  0  0  0  0  0  0  0
  146.0605  139.2193  156.3791 H   0  0  0  0  0  0  0  0  0  0  0  0
  146.6413  144.2833  159.1902 H   0  0  0  0  0  0  0  0  0  0  0  0
  147.9113  143.3043  159.9242 H   0  0  0  0  0  0  0  0  0  0  0  0
  146.4048  143.5948  160.7976 H   0  0  0  0  0  0  0  0  0  0  0  0
  150.3681  143.5538  158.2171 H   0  0  0  0  0  0  0  0  0  0  0  0
  150.7370  144.6856  160.2546 H   0  0  0  0  0  0  0  0  0  0  0  0
  152.3808  144.5854  160.8812 H   0  0  0  0  0  0  0  0  0  0  0  0
  151.0929  143.6110  161.6063 H   0  0  0  0  0  0  0  0  0  0  0  0
  1  2  1  0  0  0  0
  1 26  1  0  0  0  0
  1 27  1  0  0  0  0
  1 28  1  0  0  0  0
  2 24  1  0  0  0  0
  2  3  2  0  0  0  0
  3  4  1  0  0  0  0
  3 29  1  0  0  0  0
  4 22  2  0  0  0  0
  4  5  1  0  0  0  0
  5  6  2  0  0  0  0
  6  7  1  0  0  0  0
  6 30  1  0  0  0  0
  7  8  1  0  0  0  0
  7 22  1  0  0  0  0
  8  9  1  0  0  0  0
  8 31  1  0  0  0  0
  8 32  1  0  0  0  0
  9 10  1  0  0  0  0
  9 11  1  0  0  0  0
  9 33  1  0  0  0  0
 10 34  1  0  0  0  0
 11 12  1  0  0  0  0
 11 35  1  0  0  0  0
 11 36  1  0  0  0  0
 12 13  1  0  0  0  0
 12 14  1  0  0  0  0
 13 37  1  0  0  0  0
 13 38  1  0  0  0  0
 13 39  1  0  0  0  0
 14 15  1  0  0  0  0
 14 40  1  0  0  0  0
 14 41  1  0  0  0  0
 15 20  2  0  0  0  0
 15 16  1  0  0  0  0
 16 17  1  0  0  0  0
 16 18  2  0  0  0  0
 17 42  1  0  0  0  0
 17 43  1  0  0  0  0
 17 44  1  0  0  0  0
 18 19  1  0  0  0  0
 19 20  1  0  0  0  0
 20 21  1  0  0  0  0
 21 45  1  0  0  0  0
 21 46  1  0  0  0  0
 21 47  1  0  0  0  0
 22 23  1  0  0  0  0
 23 24  2  0  0  0  0
 23 48  1  0  0  0  0
 24 25  1  0  0  0  0
 25 49  1  0  0  0  0
 25 50  1  0  0  0  0
 25 51  1  0  0  0  0
M  END
> <s_m_source_file>
AV-unprocessed.smi

> <i_m_source_file_index>
1207

> <i_lp_mmshare_version>
43012

> <i_f3d_flags>
0

> <s_epik_input>
W0NIM11jKFtjSF0xKWMoW0NIM10pW2NIXWMoYzEyKW4oW2NIXW4yKVtDSDJdW0NASF0oW09IXSlbQ0gyXU4oW0NIM10pW0NIMl1jM2MoW0NIM10pbm9jM1tDSDNd

> <s_epik_cmdline>
J2VwaWtfcHl0aG9uJywgJy1waCcsICc3LjAnLCAnLXRuJywgJzgnLCAnLW1hJywgJzIwMCcsICctbWV0YWxfYmluZGluZycsICctaW1hZScsICc8aW5maWxlLm1hZT4nLCAnLW9tYWUnLCAnPG91dGZpbGUubWFlPic=

> <r_epik_Ionization_Penalty>
0.374039

> <r_epik_Ionization_Penalty_Charging>
0

> <r_epik_Ionization_Penalty_Neutral>
0.374039

> <r_epik_State_Penalty>
0.350767

> <r_epik_Charging_Adjusted_Penalty>
0.350767

> <i_epik_Tot_Q>
0

> <i_epik_Tot_abs_Q>
0

> <r_epik_Metal_State_Penalty>
0.343187

> <b_epik_Metal_Only>
0

> <s_lp_Force_Field>
OPLS_2005

> <r_lp_Energy>
17.2157

> <b_lp_Chiralities_Consistent>
1

> <s_lp_Variant>
AV-unprocessed.smi:1207-1

> <Gold.Version>
5.8.1

> <Gold.Id.Protein>
6NUR|6NUR_protein|mol2

> <Gold.PLP.Fitness>
50.9609

> <Gold.PLP.PLP>
-43.3647

> <Gold.PLP.part.hbond>
-5.8198

> <Gold.PLP.part.metal>
0.0000

> <Gold.PLP.part.buried>
-1.6142

> <Gold.PLP.part.nonpolar>
-35.5471

> <Gold.PLP.part.repulsive>
0.1104

> <Gold.PLP.ligand.clash>
0.0000

> <Gold.PLP.ligand.torsion>
1.2799

> <Gold.PLP.Chemscore.Hbond>
3.3420

> <Gold.PLP.Chemscore.CHOScore>
0.0000

> <Gold.PLP.Chemscore.Metal>
0.0000

> <Gold.Chemscore.Hbonds>
donor molecule, donor type, donor heavy atom, donor atom, acceptor molecule, acceptor atom, score
      L1  H    10    34       P1  7957  0.29
      P1  H  6934  6946       L1    19  0.64
      P1  H  7989  7998       L1    10  0.32
      P1  H  7997  8010       L1     5  1.00
      P1  H  8011  8017       L1    10  1.00

> <Gold.PLP.Chemscore.Internal.Correction>
0.1300

> <Gold.Rescore>
     Score         DG    S(hbond)    S(metal)    S(lipo)     H(rot)  DE(clash)    DE(int)     intcor
     14.03     -18.15       1.76        0.00     109.95       2.38       1.48       2.64       ----

> <Gold.Chemscore.Fitness>
14.0342

> <Gold.Chemscore.DG>
-18.1484

> <Gold.Chemscore.ZeroCoef>
-5.4800

> <Gold.Chemscore.Hbond>
1.7623

> <Gold.Chemscore.Metal>
0.0000

> <Gold.Chemscore.Lipo>
109.9484

> <Gold.Chemscore.Internal_Hbond>
0.0000

> <Gold.Chemscore.DEClash>
1.4778

> <Gold.Chemscore.DEInternal>
2.6364

> <Gold.Chemscore.Rot>
2.3756

> <Gold.Chemscore.Internal.Correction>
   9.000000E+99

> <Gold.Chemscore.Hbonds>
donor molecule, donor type, donor heavy atom, donor atom, acceptor molecule, acceptor atom, score
      L1  H    10    34       P1  7957  0.28
      P1  H  6934  6946       L1    19  0.03
      P1  H  7989  7998       L1    10  0.30
      P1  H  7997  8010       L1     5  0.24
      P1  H  8011  8017       L1    10  0.25

> <Gold.Chemscore.Hbond.Weighted>
-5.8860

> <Gold.Chemscore.Metal.Weighted>
-0.0000

> <Gold.Chemscore.Lipo.Weighted>
-12.8640

> <Gold.Chemscore.Internal_Hbond.Weighted>
0.0000

> <Gold.Chemscore.DEClash.Weighted>
1.4778

> <Gold.Chemscore.DEInternal.Weighted>
2.6364

> <Gold.Chemscore.Rot.Weighted>
6.0816

> <Gold.Chemscore.Internal.Correction.Weighted>
   9.000000E+99

> <Gold.Protein.RotatedTorsions>
[ 6907 6896 6895 6894 ] final -113.79 input  -60.11 | X-H torsion
[ 7974 7965 7964 7962 ] final   61.65 input  175.53 | X-H torsion
[ 8008 7997 7996 7995 ] final   82.67 input   59.86 | X-H torsion
[ 10167 10162 10161 10158 ] final -102.00 input  -65.29 | X-H torsion
[ 10718 10713 10712 10709 ] final   22.66 input   66.30 | X-H torsion
[ 10763 10752 10751 10750 ] final  -32.76 input  -60.55 | X-H torsion
[ 11005 11000 10999 10996 ] final  -92.76 input  -57.11 | X-H torsion

> <Gold.Protein.ActiveResidues>
 VAL166  LYS551  ARG553  GLY616  TRP617  ASP618  TYR619  PRO620  LYS621  CYS622 
 ASP623  PHE694  ASN695  SER759  ASP760  ASP761  ALA762  ILE779  LEU786  VAL792 
 PHE793  MET794  SER795  GLU796  ALA797  LYS798  CYS799  TRP800  GLU811  SER814 

> <Gold.Protein.RotatedAtoms>
  150.7855  133.8894  159.3308 H   0  0  0  0  0  0  0  0  0  0  0  0  # atno 6907 bound_to 6896
  151.6745  135.0969  160.0214 H   0  0  0  0  0  0  0  0  0  0  0  0  # atno 6908 bound_to 6896
  152.3917  133.6650  159.6279 H   0  0  0  0  0  0  0  0  0  0  0  0  # atno 6909 bound_to 6896
  145.8823  139.3452  143.0698 H   0  0  0  0  0  0  0  0  0  0  0  0  # atno 7974 bound_to 7965
  155.9138  140.3426  155.6119 H   0  0  0  0  0  0  0  0  0  0  0  0  # atno 8008 bound_to 7997
  155.7356  140.0801  157.2288 H   0  0  0  0  0  0  0  0  0  0  0  0  # atno 8009 bound_to 7997
  154.4059  140.1580  156.2545 H   0  0  0  0  0  0  0  0  0  0  0  0  # atno 8010 bound_to 7997
  140.2354  143.3577  152.0850 H   0  0  0  0  0  0  0  0  0  0  0  0  # atno 10167 bound_to 10162
  157.1553  130.6693  149.6025 H   0  0  0  0  0  0  0  0  0  0  0  0  # atno 10718 bound_to 10713
  153.8190  135.6876  153.4830 H   0  0  0  0  0  0  0  0  0  0  0  0  # atno 10763 bound_to 10752
  153.1581  135.4591  154.9731 H   0  0  0  0  0  0  0  0  0  0  0  0  # atno 10764 bound_to 10752
  154.7935  135.3310  154.7664 H   0  0  0  0  0  0  0  0  0  0  0  0  # atno 10765 bound_to 10752
  141.1514  133.7842  157.0066 H   0  0  0  0  0  0  0  0  0  0  0  0  # atno 11005 bound_to 11000
  145.9008  140.9244  143.0504 LP  0  0  0  0  0  0  0  0  0  0  0  0  # atno 17320 bound_to 7965
  144.6727  140.1030  143.7459 LP  0  0  0  0  0  0  0  0  0  0  0  0  # atno 17321 bound_to 7965
  139.5095  144.6869  151.5863 LP  0  0  0  0  0  0  0  0  0  0  0  0  # atno 17342 bound_to 10162
  140.6154  143.9358  150.6484 LP  0  0  0  0  0  0  0  0  0  0  0  0  # atno 17343 bound_to 10162
  155.9763  130.4730  150.6519 LP  0  0  0  0  0  0  0  0  0  0  0  0  # atno 17370 bound_to 10713
  157.4182  131.0833  151.1156 LP  0  0  0  0  0  0  0  0  0  0  0  0  # atno 17371 bound_to 10713
  140.0905  134.9595  157.1769 LP  0  0  0  0  0  0  0  0  0  0  0  0  # atno 17394 bound_to 11000
  140.3452  134.2659  155.7206 LP  0  0  0  0  0  0  0  0  0  0  0  0  # atno 17395 bound_to 11000

$$$$
