AV-unprocessed.smi:3330|AV-procd|sdf|12816|dock3
  -GOLD-   2272019183D 1   1.00000     0.00000
 Structure written by MMmdl.
 37 38  0  0  0  0  0  0  0  0  2 V2000
  144.8137  134.2763  153.9706 C   0  0  0  0  0  0  0  0  0  0  0  0
  145.7197  135.1070  153.0409 C   0  0  1  0  0  0  0  0  0  0  0  0
  147.0175  134.4465  152.9324 N   0  0  0  0  0  0  0  0  0  0  0  0
  147.6817  134.3285  154.2224 C   0  0  0  0  0  0  0  0  0  0  0  0
  149.0608  133.6724  154.0362 C   0  0  0  0  0  0  0  0  0  0  0  0
  149.6011  133.1633  155.3041 N   0  0  0  0  0  0  0  0  0  0  0  0
  149.9980  131.9028  155.5063 C   0  0  0  0  0  0  0  0  0  0  0  0
  149.9967  130.9699  154.7027 O   0  0  0  0  0  0  0  0  0  0  0  0
  150.4817  131.8004  156.9341 C   0  0  0  0  0  0  0  0  0  0  0  0
  150.3070  133.1508  157.4173 N   0  5  0  0  0  0  0  0  0  0  0  0
  149.7879  133.9001  156.4164 C   0  0  0  0  0  0  0  0  0  0  0  0
  149.5088  135.0978  156.4650 O   0  0  0  0  0  0  0  0  0  0  0  0
  145.1333  135.2755  151.6124 C   0  0  1  0  0  0  0  0  0  0  0  0
  145.8706  136.3430  150.7825 C   0  0  0  0  0  0  0  0  0  0  0  0
  145.1193  134.0110  150.8824 N   0  0  0  0  0  0  0  0  0  0  0  0
  144.0268  133.3125  150.4112 C   0  0  0  0  0  0  0  0  0  0  0  0
  144.4945  132.1847  149.8006 C   0  0  0  0  0  0  0  0  0  0  0  0
  145.9059  132.2791  149.9518 C   0  0  0  0  0  0  0  0  0  0  0  0
  146.2775  133.3751  150.5921 N   0  0  0  0  0  0  0  0  0  0  0  0
  143.8546  134.7662  154.1347 H   0  0  0  0  0  0  0  0  0  0  0  0
  145.2613  134.1365  154.9542 H   0  0  0  0  0  0  0  0  0  0  0  0
  144.6162  133.2886  153.5530 H   0  0  0  0  0  0  0  0  0  0  0  0
  145.8564  136.1012  153.4693 H   0  0  0  0  0  0  0  0  0  0  0  0
  147.6072  135.0102  152.3356 H   0  0  0  0  0  0  0  0  0  0  0  0
  147.7981  135.3069  154.6905 H   0  0  0  0  0  0  0  0  0  0  0  0
  147.0700  133.7216  154.8897 H   0  0  0  0  0  0  0  0  0  0  0  0
  148.9686  132.8415  153.3352 H   0  0  0  0  0  0  0  0  0  0  0  0
  149.7573  134.3690  153.5662 H   0  0  0  0  0  0  0  0  0  0  0  0
  149.8820  131.0688  157.4763 H   0  0  0  0  0  0  0  0  0  0  0  0
  151.5190  131.4665  156.9554 H   0  0  0  0  0  0  0  0  0  0  0  0
  144.0945  135.5963  151.7072 H   0  0  0  0  0  0  0  0  0  0  0  0
  145.7521  137.3383  151.2092 H   0  0  0  0  0  0  0  0  0  0  0  0
  145.4799  136.3845  149.7654 H   0  0  0  0  0  0  0  0  0  0  0  0
  146.9385  136.1313  150.7191 H   0  0  0  0  0  0  0  0  0  0  0  0
  143.0173  133.6692  150.5535 H   0  0  0  0  0  0  0  0  0  0  0  0
  143.9163  131.4060  149.3260 H   0  0  0  0  0  0  0  0  0  0  0  0
  146.6660  131.5880  149.6184 H   0  0  0  0  0  0  0  0  0  0  0  0
  1  2  1  0  0  0  0
  1 20  1  0  0  0  0
  1 21  1  0  0  0  0
  1 22  1  0  0  0  0
  2  3  1  0  0  0  0
  2 13  1  0  0  0  0
  2 23  1  0  0  0  0
  3  4  1  0  0  0  0
  3 24  1  0  0  0  0
  4  5  1  0  0  0  0
  4 25  1  0  0  0  0
  4 26  1  0  0  0  0
  5  6  1  0  0  0  0
  5 27  1  0  0  0  0
  5 28  1  0  0  0  0
  6 11  1  0  0  0  0
  6  7  1  0  0  0  0
  7  8  2  0  0  0  0
  7  9  1  0  0  0  0
  9 10  1  0  0  0  0
  9 29  1  0  0  0  0
  9 30  1  0  0  0  0
 10 11  1  0  0  0  0
 11 12  2  0  0  0  0
 13 14  1  0  0  0  0
 13 15  1  0  0  0  0
 13 31  1  0  0  0  0
 14 32  1  0  0  0  0
 14 33  1  0  0  0  0
 14 34  1  0  0  0  0
 15 19  1  0  0  0  0
 15 16  1  0  0  0  0
 16 17  2  0  0  0  0
 16 35  1  0  0  0  0
 17 18  1  0  0  0  0
 17 36  1  0  0  0  0
 18 19  2  0  0  0  0
 18 37  1  0  0  0  0
M  CHG  1  10  -1
M  END
> <s_m_source_file>
AV-unprocessed.smi

> <i_m_source_file_index>
3330

> <i_lp_mmshare_version>
43012

> <i_f3d_flags>
0

> <s_epik_input>
bjFbY0hdW2NIXVtjSF1uMVtDQEBIXShbQ0gzXSlbQ0BIXShbQ0gzXSlbTkhdW0NIMl1bQ0gyXU4yQyg9TylbQ0gyXVtOSF1DMj1P

> <s_epik_cmdline>
J2VwaWtfcHl0aG9uJywgJy1waCcsICc3LjAnLCAnLXRuJywgJzgnLCAnLW1hJywgJzIwMCcsICctbWV0YWxfYmluZGluZycsICctaW1hZScsICc8aW5maWxlLm1hZT4nLCAnLW9tYWUnLCAnPG91dGZpbGUubWFlPic=

> <r_lp_tautomer_probability>
1

> <r_epik_Ionization_Penalty>
8.77477

> <r_epik_Ionization_Penalty_Charging>
6.28461

> <r_epik_Ionization_Penalty_Neutral>
2.49016

> <r_epik_State_Penalty>
8.73376

> <r_epik_Charging_Adjusted_Penalty>
15.0184

> <i_epik_Tot_Q>
-1

> <i_epik_Tot_abs_Q>
1

> <r_epik_Metal_State_Penalty>
4.73175

> <b_epik_Metal_Only>
1

> <s_lp_Force_Field>
OPLS_2005

> <r_lp_Energy>
23.0712

> <b_lp_Chiralities_Consistent>
1

> <s_lp_Variant>
AV-unprocessed.smi:3330-16

> <Gold.Version>
5.8.1

> <Gold.Id.Protein>
6NUR|6NUR_protein|mol2

> <Gold.PLP.Fitness>
45.8109

> <Gold.PLP.PLP>
-31.1441

> <Gold.PLP.part.hbond>
-2.0000

> <Gold.PLP.part.metal>
0.0000

> <Gold.PLP.part.buried>
-3.7634

> <Gold.PLP.part.nonpolar>
-26.0392

> <Gold.PLP.part.repulsive>
0.2653

> <Gold.PLP.ligand.clash>
0.0000

> <Gold.PLP.ligand.torsion>
0.2159

> <Gold.PLP.Chemscore.Hbond>
3.0000

> <Gold.PLP.Chemscore.CHOScore>
2.0000

> <Gold.PLP.Chemscore.Metal>
0.0000

> <Gold.Chemscore.Hbonds>
donor molecule, donor type, donor heavy atom, donor atom, acceptor molecule, acceptor atom, score
      L1  H     3    24       P1  7948  1.00
      P1  H  6896  6909       L1    10  2.00
      L1  C    16    35       P1 10186  1.00
      L1  C    18    37       P1 10747  1.00

> <Gold.PLP.Chemscore.Internal.Correction>
0.0986

> <Gold.Rescore>
     Score         DG    S(hbond)    S(metal)    S(lipo)     H(rot)  DE(clash)    DE(int)     intcor
     10.71     -12.44       1.94        0.00      59.07       2.52       0.00       1.73       ----

> <Gold.Chemscore.Fitness>
10.7119

> <Gold.Chemscore.DG>
-12.4400

> <Gold.Chemscore.ZeroCoef>
-5.4800

> <Gold.Chemscore.Hbond>
1.9431

> <Gold.Chemscore.Metal>
0.0000

> <Gold.Chemscore.Lipo>
59.0703

> <Gold.Chemscore.Internal_Hbond>
0.0000

> <Gold.Chemscore.DEClash>
0.0004

> <Gold.Chemscore.DEInternal>
1.7277

> <Gold.Chemscore.Rot>
2.5160

> <Gold.Chemscore.Internal.Correction>
   9.000000E+99

> <Gold.Chemscore.Hbonds>
donor molecule, donor type, donor heavy atom, donor atom, acceptor molecule, acceptor atom, score
      L1  H     3    24       P1  7948  0.95
      P1  H  6896  6909       L1    10  0.79

> <Gold.Chemscore.Hbond.Weighted>
-6.4898

> <Gold.Chemscore.Metal.Weighted>
-0.0000

> <Gold.Chemscore.Lipo.Weighted>
-6.9112

> <Gold.Chemscore.Internal_Hbond.Weighted>
0.0000

> <Gold.Chemscore.DEClash.Weighted>
0.0004

> <Gold.Chemscore.DEInternal.Weighted>
1.7277

> <Gold.Chemscore.Rot.Weighted>
6.4410

> <Gold.Chemscore.Internal.Correction.Weighted>
   9.000000E+99

> <Gold.Protein.RotatedTorsions>
[ 6907 6896 6895 6894 ] final  -29.08 input  -60.11 | X-H torsion
[ 7974 7965 7964 7962 ] final  113.96 input  175.53 | X-H torsion
[ 8008 7997 7996 7995 ] final -130.09 input   59.86 | X-H torsion
[ 10167 10162 10161 10158 ] final   89.11 input  -65.29 | X-H torsion
[ 10718 10713 10712 10709 ] final -117.36 input   66.30 | X-H torsion
[ 10763 10752 10751 10750 ] final  -51.37 input  -60.55 | X-H torsion
[ 11005 11000 10999 10996 ] final  154.53 input  -57.11 | X-H torsion

> <Gold.Protein.ActiveResidues>
 VAL166  LYS551  ARG553  GLY616  TRP617  ASP618  TYR619  PRO620  LYS621  CYS622 
 ASP623  PHE694  ASN695  SER759  ASP760  ASP761  ALA762  ILE779  LEU786  VAL792 
 PHE793  MET794  SER795  GLU796  ALA797  LYS798  CYS799  TRP800  GLU811  SER814 

> <Gold.Protein.RotatedAtoms>
  151.1241  135.0095  159.8551 H   0  0  0  0  0  0  0  0  0  0  0  0  # atno 6907 bound_to 6896
  152.5449  134.1688  159.8598 H   0  0  0  0  0  0  0  0  0  0  0  0  # atno 6908 bound_to 6896
  151.1749  133.4716  159.2627 H   0  0  0  0  0  0  0  0  0  0  0  0  # atno 6909 bound_to 6896
  145.2104  139.2909  143.4271 H   0  0  0  0  0  0  0  0  0  0  0  0  # atno 7974 bound_to 7965
  155.2900  140.0448  157.3022 H   0  0  0  0  0  0  0  0  0  0  0  0  # atno 8008 bound_to 7997
  154.5547  140.2328  155.8397 H   0  0  0  0  0  0  0  0  0  0  0  0  # atno 8009 bound_to 7997
  156.1997  140.3029  155.9508 H   0  0  0  0  0  0  0  0  0  0  0  0  # atno 8010 bound_to 7997
  139.8605  144.6546  150.9063 H   0  0  0  0  0  0  0  0  0  0  0  0  # atno 10167 bound_to 10162
  156.1028  130.6186  150.9154 H   0  0  0  0  0  0  0  0  0  0  0  0  # atno 10718 bound_to 10713
  154.1254  135.6528  153.4911 H   0  0  0  0  0  0  0  0  0  0  0  0  # atno 10763 bound_to 10752
  153.0212  135.5280  154.7054 H   0  0  0  0  0  0  0  0  0  0  0  0  # atno 10764 bound_to 10752
  154.6274  135.2972  155.0227 H   0  0  0  0  0  0  0  0  0  0  0  0  # atno 10765 bound_to 10752
  140.1498  134.8682  157.2439 H   0  0  0  0  0  0  0  0  0  0  0  0  # atno 11005 bound_to 11000
  146.3398  140.2378  142.8595 LP  0  0  0  0  0  0  0  0  0  0  0  0  # atno 17320 bound_to 7965
  144.9861  140.8504  143.5368 LP  0  0  0  0  0  0  0  0  0  0  0  0  # atno 17321 bound_to 7965
  140.7775  143.3748  151.1583 LP  0  0  0  0  0  0  0  0  0  0  0  0  # atno 17342 bound_to 10162
  139.7378  143.8972  152.3040 LP  0  0  0  0  0  0  0  0  0  0  0  0  # atno 17343 bound_to 10162
  157.6201  131.0930  150.8638 LP  0  0  0  0  0  0  0  0  0  0  0  0  # atno 17370 bound_to 10713
  156.8763  130.5163  149.5293 LP  0  0  0  0  0  0  0  0  0  0  0  0  # atno 17371 bound_to 10713
  140.2619  134.3561  155.7403 LP  0  0  0  0  0  0  0  0  0  0  0  0  # atno 17394 bound_to 11000
  141.2197  133.7374  156.9092 LP  0  0  0  0  0  0  0  0  0  0  0  0  # atno 17395 bound_to 11000

$$$$
