#       Name:                AV-unprocessed.smi:2172
#       Creating user name   scv26
#       Creation time:       Fri Mar 27 12:02:54 2020


#       File generated by GOLD software.
#

@<TRIPOS>MOLECULE
AV-unprocessed.smi:2172
    41    43     1
SMALL
NO_CHARGES


@<TRIPOS>ATOM
      1 ****        -0.9423   3.0806  -1.8931 O.3            1 S1                 0.0000
      2 ****        -1.4287   2.7053  -0.6223 C.3            1 S1                 0.0000
      3 ****        -2.0238   1.3301  -0.6133 C.2            1 S1                 0.0000
      4 ****        -3.3422   1.1328  -0.6403 N.2            1 S1                 0.0000
      5 ****        -3.4438  -0.2447  -0.6328 C.ar           1 S1                 0.0000
      6 ****        -4.5828  -1.0812  -0.6537 C.ar           1 S1                 0.0000
      7 ****        -4.4385  -2.4840  -0.6400 C.ar           1 S1                 0.0000
      8 ****        -3.1562  -3.0695  -0.6057 C.ar           1 S1                 0.0000
      9 ****        -2.0082  -2.2541  -0.5848 C.ar           1 S1                 0.0000
     10 ****        -2.1576  -0.8542  -0.5987 C.ar           1 S1                 0.0000
     11 ****        -1.2597   0.2091  -0.5846 N.pl3          1 S1                 0.0000
     12 ****         0.1935   0.1119  -0.5521 C.3            1 S1                 0.0000
     13 ****         0.7686   0.1840   0.8768 C.3            1 S1                 0.0000
     14 ****         0.2344  -0.8589   1.6697 O.3            1 S1                 0.0000
     15 ****         2.2894   0.1771   0.8547 C.ar           1 S1                 0.0000
     16 ****         3.0079  -1.0367   0.7733 C.ar           1 S1                 0.0000
     17 ****         4.4160  -1.0272   0.7406 C.ar           1 S1                 0.0000
     18 ****         5.1141   0.1951   0.7845 C.ar           1 S1                 0.0000
     19 ****         6.8389   0.2066   0.7425 Cl             1 S1                 0.0000
     20 ****         4.4029   1.4082   0.8603 C.ar           1 S1                 0.0000
     21 ****         2.9950   1.3989   0.8945 C.ar           1 S1                 0.0000
     22 ****        -0.6093   3.9632  -1.8383 H              1 S1                 0.0000
     23 ****        -0.6216   2.7675   0.1067 H              1 S1                 0.0000
     24 ****        -2.1852   3.4271  -0.3123 H              1 S1                 0.0000
     25 ****        -5.5692  -0.6424  -0.6809 H              1 S1                 0.0000
     26 ****        -5.3158  -3.1138  -0.6555 H              1 S1                 0.0000
     27 ****        -3.0542  -4.1448  -0.5950 H              1 S1                 0.0000
     28 ****        -1.0246  -2.6989  -0.5551 H              1 S1                 0.0000
     29 ****         0.4899  -0.8217  -1.0320 H              1 S1                 0.0000
     30 ****         0.6104   0.9093  -1.1677 H              1 S1                 0.0000
     31 ****         0.4459   1.1146   1.3438 H              1 S1                 0.0000
     32 ****         0.5198  -0.7332   2.5617 H              1 S1                 0.0000
     33 ****         2.4825  -1.9796   0.7319 H              1 S1                 0.0000
     34 ****         4.9593  -1.9589   0.6798 H              1 S1                 0.0000
     35 ****         4.9356   2.3474   0.8902 H              1 S1                 0.0000
     36 ****         2.4580   2.3347   0.9482 H              1 S1                 0.0000
     37 ****        -1.6835   3.0408  -2.5632 LP             1 S1                 0.0000
     38 ****        -0.2087   2.4600  -2.1703 LP             1 S1                 0.0000
     39 ****        -4.0750   1.8129  -0.6609 LP             1 S1                 0.0000
     40 ****         0.5619  -1.7413   1.3318 LP             1 S1                 0.0000
     41 ****        -0.7645  -0.8362   1.6286 LP             1 S1                 0.0000
@<TRIPOS>BOND
    1    1    2 1     
    2    1   22 1     
    3    2    3 1     
    4    2   23 1     
    5    2   24 1     
    6    3   11 1     
    7    3    4 2     
    8    4    5 1     
    9    5   10 ar    
   10    5    6 ar    
   11    6    7 ar    
   12    6   25 1     
   13    7    8 ar    
   14    7   26 1     
   15    8    9 ar    
   16    8   27 1     
   17    9   10 ar    
   18    9   28 1     
   19   10   11 1     
   20   11   12 1     
   21   12   13 1     
   22   12   29 1     
   23   12   30 1     
   24   13   14 1     
   25   13   15 1     
   26   13   31 1     
   27   14   32 1     
   28   15   21 ar    
   29   15   16 ar    
   30   16   17 ar    
   31   16   33 1     
   32   17   18 ar    
   33   17   34 1     
   34   18   19 1     
   35   18   20 ar    
   36   20   21 ar    
   37   20   35 1     
   38   21   36 1     
   39    1   37 1     
   40    1   38 1     
   41    4   39 1     
   42   14   40 1     
   43   14   41 1     
@<TRIPOS>SUBSTRUCTURE
      1 S1             1
@<TRIPOS>SET
LONE_PAIRS      STATIC     ATOMS    <user>   **** ""
5 37 38 39 40 41
DONOR_HYDROGENS      STATIC     ATOMS    <user>   **** ""
2 22 32
ATOM$BLUE        STATIC     ATOMS    COLORGROUP SYSTEM
5 37 38 39 40 41
ATOM$RED        STATIC     ATOMS    COLORGROUP SYSTEM
2 22 32
