AV-unprocessed.smi:2739|AV-procd|sdf|10551|dock5
  -GOLD-   2272015 03D 1   1.00000     0.00000
 Structure written by MMmdl.
 35 35  0  0  0  0  0  0  0  0  1 V2000
  152.8066  144.0336  158.5709 C   0  0  0  0  0  0  0  0  0  0  0  0
  151.5685  143.9381  157.6675 C   0  0  0  0  0  0  0  0  0  0  0  0
  151.3014  142.5185  157.1200 C   0  0  1  0  0  0  0  0  0  0  0  0
  151.1780  141.4707  158.2404 C   0  0  0  0  0  0  0  0  0  0  0  0
  150.1580  142.4632  156.2055 N   0  0  0  0  0  0  0  0  0  0  0  0
  149.8882  141.5172  155.2888 C   0  0  0  0  0  0  0  0  0  0  0  0
  150.5848  140.5198  155.1046 O   0  0  0  0  0  0  0  0  0  0  0  0
  148.6339  141.7349  154.4425 C   0  0  0  0  0  0  0  0  0  0  0  0
  147.8041  140.5439  154.4286 N   0  0  0  0  0  0  0  0  0  0  0  0
  147.3211  139.8240  155.5002 C   0  0  0  0  0  0  0  0  0  0  0  0
  146.5989  138.7815  154.9950 C   0  0  0  0  0  0  0  0  0  0  0  0
  146.6981  138.9431  153.5822 C   0  0  0  0  0  0  0  0  0  0  0  0
  146.0975  138.0915  152.4940 C   0  0  2  0  0  0  0  0  0  0  0  0
  146.4533  138.6271  151.1004 C   0  0  0  0  0  0  0  0  0  0  0  0
  144.6904  138.0144  152.5930 O   0  0  0  0  0  0  0  0  0  0  0  0
  147.4210  140.0036  153.2515 N   0  0  0  0  0  0  0  0  0  0  0  0
  152.9150  145.0426  158.9695 H   0  0  0  0  0  0  0  0  0  0  0  0
  153.7204  143.7964  158.0259 H   0  0  0  0  0  0  0  0  0  0  0  0
  152.7312  143.3487  159.4158 H   0  0  0  0  0  0  0  0  0  0  0  0
  150.6989  144.2642  158.2391 H   0  0  0  0  0  0  0  0  0  0  0  0
  151.6652  144.6495  156.8469 H   0  0  0  0  0  0  0  0  0  0  0  0
  152.1653  142.2363  156.5171 H   0  0  0  0  0  0  0  0  0  0  0  0
  152.0906  141.4283  158.8353 H   0  0  0  0  0  0  0  0  0  0  0  0
  151.0082  140.4749  157.8299 H   0  0  0  0  0  0  0  0  0  0  0  0
  150.3557  141.6964  158.9196 H   0  0  0  0  0  0  0  0  0  0  0  0
  149.5116  143.2371  156.2628 H   0  0  0  0  0  0  0  0  0  0  0  0
  148.0502  142.5635  154.8457 H   0  0  0  0  0  0  0  0  0  0  0  0
  148.9100  142.0031  153.4213 H   0  0  0  0  0  0  0  0  0  0  0  0
  147.5312  140.1099  156.5205 H   0  0  0  0  0  0  0  0  0  0  0  0
  146.0774  138.0168  155.5514 H   0  0  0  0  0  0  0  0  0  0  0  0
  146.4762  137.0722  152.5811 H   0  0  0  0  0  0  0  0  0  0  0  0
  147.5337  138.6524  150.9541 H   0  0  0  0  0  0  0  0  0  0  0  0
  146.0747  139.6398  150.9562 H   0  0  0  0  0  0  0  0  0  0  0  0
  146.0308  137.9978  150.3166 H   0  0  0  0  0  0  0  0  0  0  0  0
  144.3237  138.8173  152.2553 H   0  0  0  0  0  0  0  0  0  0  0  0
  1  2  1  0  0  0  0
  1 17  1  0  0  0  0
  1 18  1  0  0  0  0
  1 19  1  0  0  0  0
  2  3  1  0  0  0  0
  2 20  1  0  0  0  0
  2 21  1  0  0  0  0
  3  4  1  0  0  0  0
  3  5  1  0  0  0  0
  3 22  1  0  0  0  0
  4 23  1  0  0  0  0
  4 24  1  0  0  0  0
  4 25  1  0  0  0  0
  5  6  1  0  0  0  0
  5 26  1  0  0  0  0
  6  7  2  0  0  0  0
  6  8  1  0  0  0  0
  8  9  1  0  0  0  0
  8 27  1  0  0  0  0
  8 28  1  0  0  0  0
  9 16  1  0  0  0  0
  9 10  1  0  0  0  0
 10 11  2  0  0  0  0
 10 29  1  0  0  0  0
 11 12  1  0  0  0  0
 11 30  1  0  0  0  0
 12 13  1  0  0  0  0
 12 16  2  0  0  0  0
 13 14  1  0  0  0  0
 13 15  1  0  0  0  0
 13 31  1  0  0  0  0
 14 32  1  0  0  0  0
 14 33  1  0  0  0  0
 14 34  1  0  0  0  0
 15 35  1  0  0  0  0
M  END
> <s_m_source_file>
AV-unprocessed.smi

> <i_m_source_file_index>
2739

> <i_lp_mmshare_version>
43012

> <i_f3d_flags>
0

> <s_epik_input>
W0NIM11bQ0gyXVtDQEhdKFtDSDNdKVtOSF1DKD1PKVtDSDJdbjFbY0hdW2NIXWMobjEpW0NASF0oW0NIM10pW09IXQ==

> <s_epik_cmdline>
J2VwaWtfcHl0aG9uJywgJy1waCcsICc3LjAnLCAnLXRuJywgJzgnLCAnLW1hJywgJzIwMCcsICctbWV0YWxfYmluZGluZycsICctaW1hZScsICc8aW5maWxlLm1hZT4nLCAnLW9tYWUnLCAnPG91dGZpbGUubWFlPic=

> <r_lp_tautomer_probability>
1

> <r_epik_Ionization_Penalty>
5.22246e-06

> <r_epik_Ionization_Penalty_Charging>
0

> <r_epik_Ionization_Penalty_Neutral>
5.22246e-06

> <r_epik_State_Penalty>
-0

> <r_epik_Charging_Adjusted_Penalty>
0

> <i_epik_Tot_Q>
0

> <i_epik_Tot_abs_Q>
0

> <r_epik_Metal_State_Penalty>
-0

> <b_epik_Metal_Only>
0

> <s_lp_Force_Field>
OPLS_2005

> <r_lp_Energy>
1.58762

> <b_lp_Chiralities_Consistent>
1

> <s_lp_Variant>
AV-unprocessed.smi:2739-2

> <Gold.Version>
5.8.1

> <Gold.Id.Protein>
6NUR|6NUR_protein|mol2

> <Gold.PLP.Fitness>
39.4462

> <Gold.PLP.PLP>
-31.0634

> <Gold.PLP.part.hbond>
-4.0000

> <Gold.PLP.part.metal>
0.0000

> <Gold.PLP.part.buried>
-0.3626

> <Gold.PLP.part.nonpolar>
-27.0772

> <Gold.PLP.part.repulsive>
1.2727

> <Gold.PLP.ligand.clash>
0.0000

> <Gold.PLP.ligand.torsion>
0.3592

> <Gold.PLP.Chemscore.Hbond>
2.9920

> <Gold.PLP.Chemscore.CHOScore>
0.0000

> <Gold.PLP.Chemscore.Metal>
0.0000

> <Gold.Chemscore.Hbonds>
donor molecule, donor type, donor heavy atom, donor atom, acceptor molecule, acceptor atom, score
      L1  H     5    26       P1  8028  1.00
      L1  H    15    35       P1 10175  1.00
      P1  H  7989  7998       L1     7  0.99

> <Gold.PLP.Chemscore.Internal.Correction>
0.1251

> <Gold.Rescore>
     Score         DG    S(hbond)    S(metal)    S(lipo)     H(rot)  DE(clash)    DE(int)     intcor
     15.48     -17.47       2.68        0.00      77.29       2.34       1.60       0.39       ----

> <Gold.Chemscore.Fitness>
15.4763

> <Gold.Chemscore.DG>
-17.4677

> <Gold.Chemscore.ZeroCoef>
-5.4800

> <Gold.Chemscore.Hbond>
2.6790

> <Gold.Chemscore.Metal>
0.0000

> <Gold.Chemscore.Lipo>
77.2866

> <Gold.Chemscore.Internal_Hbond>
0.0000

> <Gold.Chemscore.DEClash>
1.6003

> <Gold.Chemscore.DEInternal>
0.3910

> <Gold.Chemscore.Rot>
2.3448

> <Gold.Chemscore.Internal.Correction>
   9.000000E+99

> <Gold.Chemscore.Hbonds>
donor molecule, donor type, donor heavy atom, donor atom, acceptor molecule, acceptor atom, score
      L1  H     5    26       P1  8028  0.95
      L1  H    15    35       P1 10175  0.97
      P1  H  7989  7998       L1     7  0.52

> <Gold.Chemscore.Hbond.Weighted>
-8.9479

> <Gold.Chemscore.Metal.Weighted>
-0.0000

> <Gold.Chemscore.Lipo.Weighted>
-9.0425

> <Gold.Chemscore.Internal_Hbond.Weighted>
0.0000

> <Gold.Chemscore.DEClash.Weighted>
1.6003

> <Gold.Chemscore.DEInternal.Weighted>
0.3910

> <Gold.Chemscore.Rot.Weighted>
6.0027

> <Gold.Chemscore.Internal.Correction.Weighted>
   9.000000E+99

> <Gold.Protein.RotatedTorsions>
[ 6907 6896 6895 6894 ] final -139.57 input  -60.11 | X-H torsion
[ 7974 7965 7964 7962 ] final   65.74 input  175.53 | X-H torsion
[ 8008 7997 7996 7995 ] final   36.96 input   59.86 | X-H torsion
[ 10167 10162 10161 10158 ] final  131.18 input  -65.29 | X-H torsion
[ 10718 10713 10712 10709 ] final -160.42 input   66.30 | X-H torsion
[ 10763 10752 10751 10750 ] final   74.25 input  -60.55 | X-H torsion
[ 11005 11000 10999 10996 ] final  111.90 input  -57.11 | X-H torsion

> <Gold.Protein.ActiveResidues>
 VAL166  LYS551  ARG553  GLY616  TRP617  ASP618  TYR619  PRO620  LYS621  CYS622 
 ASP623  PHE694  ASN695  SER759  ASP760  ASP761  ALA762  ILE779  LEU786  VAL792 
 PHE793  MET794  SER795  GLU796  ALA797  LYS798  CYS799  TRP800  GLU811  SER814 

> <Gold.Protein.RotatedAtoms>
  151.0495  133.5636  159.2643 H   0  0  0  0  0  0  0  0  0  0  0  0  # atno 6907 bound_to 6896
  151.2652  135.0666  159.9123 H   0  0  0  0  0  0  0  0  0  0  0  0  # atno 6908 bound_to 6896
  152.5379  134.0234  159.8046 H   0  0  0  0  0  0  0  0  0  0  0  0  # atno 6909 bound_to 6896
  145.8349  139.3161  143.0966 H   0  0  0  0  0  0  0  0  0  0  0  0  # atno 7974 bound_to 7965
  155.1959  140.3312  155.4351 H   0  0  0  0  0  0  0  0  0  0  0  0  # atno 8008 bound_to 7997
  156.2425  140.1902  156.6999 H   0  0  0  0  0  0  0  0  0  0  0  0  # atno 8009 bound_to 7997
  154.6174  140.0600  156.9557 H   0  0  0  0  0  0  0  0  0  0  0  0  # atno 8010 bound_to 7997
  139.5396  144.6717  151.4670 H   0  0  0  0  0  0  0  0  0  0  0  0  # atno 10167 bound_to 10162
  156.5819  130.8733  151.2867 H   0  0  0  0  0  0  0  0  0  0  0  0  # atno 10718 bound_to 10713
  153.0574  135.5032  154.8014 H   0  0  0  0  0  0  0  0  0  0  0  0  # atno 10763 bound_to 10752
  154.6829  135.2971  154.9590 H   0  0  0  0  0  0  0  0  0  0  0  0  # atno 10764 bound_to 10752
  154.0370  135.6722  153.4839 H   0  0  0  0  0  0  0  0  0  0  0  0  # atno 10765 bound_to 10752
  139.8914  134.9518  156.6504 H   0  0  0  0  0  0  0  0  0  0  0  0  # atno 11005 bound_to 11000
  145.9530  140.8894  143.0249 LP  0  0  0  0  0  0  0  0  0  0  0  0  # atno 17320 bound_to 7965
  144.6737  140.1706  143.7414 LP  0  0  0  0  0  0  0  0  0  0  0  0  # atno 17321 bound_to 7965
  140.6619  143.8480  150.6898 LP  0  0  0  0  0  0  0  0  0  0  0  0  # atno 17342 bound_to 10162
  140.1877  143.4062  152.1886 LP  0  0  0  0  0  0  0  0  0  0  0  0  # atno 17343 bound_to 10162
  157.7324  130.9715  150.1928 LP  0  0  0  0  0  0  0  0  0  0  0  0  # atno 17370 bound_to 10713
  156.2624  130.3712  149.8116 LP  0  0  0  0  0  0  0  0  0  0  0  0  # atno 17371 bound_to 10713
  140.7525  133.8885  155.8357 LP  0  0  0  0  0  0  0  0  0  0  0  0  # atno 17394 bound_to 11000
  140.9989  134.1177  157.4337 LP  0  0  0  0  0  0  0  0  0  0  0  0  # atno 17395 bound_to 11000

$$$$
