AV-unprocessed.smi:784|AV-procd|sdf|3718|dock3
  -GOLD-   22720 1143D 1   1.00000     0.00000
 Structure written by MMmdl.
 38 39  0  0  0  0  0  0  0  0  1 V2000
  154.9596  135.2101  163.4609 C   0  0  0  0  0  0  0  0  0  0  0  0
  154.4287  135.7941  162.1852 C   0  0  0  0  0  0  0  0  0  0  0  0
  153.8782  137.0867  161.9659 C   0  0  0  0  0  0  0  0  0  0  0  0
  153.5679  137.0830  160.6357 C   0  0  0  0  0  0  0  0  0  0  0  0
  152.9671  138.1025  159.7292 C   0  0  0  0  0  0  0  0  0  0  0  0
  154.0872  139.5624  159.6255 S   0  0  0  0  0  0  0  0  0  0  0  0
  154.4554  139.9618  160.9924 O   0  0  0  0  0  0  0  0  0  0  0  0
  155.1337  139.2903  158.6283 O   0  0  0  0  0  0  0  0  0  0  0  0
  153.0597  140.7942  158.9903 N   0  0  0  0  0  0  0  0  0  0  0  0
  153.1281  142.1719  159.4836 C   0  0  0  0  0  0  0  0  0  0  0  0
  152.4676  142.2378  160.8752 C   0  0  0  0  0  0  0  0  0  0  0  0
  152.7804  143.5410  161.6293 C   0  0  0  0  0  0  0  0  0  0  0  0
  151.8366  144.7205  161.3357 C   0  0  0  0  0  0  0  0  0  0  0  0
  151.3914  144.8994  159.8732 C   0  0  0  0  0  0  0  0  0  0  0  0
  152.4629  144.5917  158.8146 C   0  0  0  0  0  0  0  0  0  0  0  0
  152.5069  143.1038  158.4269 C   0  0  0  0  0  0  0  0  0  0  0  0
  153.8960  135.8882  160.0809 O   0  0  0  0  0  0  0  0  0  0  0  0
  154.4450  135.0730  161.0767 N   0  0  0  0  0  0  0  0  0  0  0  0
  154.6311  135.7883  164.3246 H   0  0  0  0  0  0  0  0  0  0  0  0
  156.0496  135.2019  163.4623 H   0  0  0  0  0  0  0  0  0  0  0  0
  154.6171  134.1842  163.6006 H   0  0  0  0  0  0  0  0  0  0  0  0
  153.7382  137.8915  162.6718 H   0  0  0  0  0  0  0  0  0  0  0  0
  152.8249  137.6943  158.7288 H   0  0  0  0  0  0  0  0  0  0  0  0
  151.9983  138.4316  160.1042 H   0  0  0  0  0  0  0  0  0  0  0  0
  152.8177  140.6861  158.0055 H   0  0  0  0  0  0  0  0  0  0  0  0
  154.1803  142.4365  159.5965 H   0  0  0  0  0  0  0  0  0  0  0  0
  151.3911  142.0739  160.8105 H   0  0  0  0  0  0  0  0  0  0  0  0
  152.8588  141.4133  161.4734 H   0  0  0  0  0  0  0  0  0  0  0  0
  152.7448  143.3452  162.7016 H   0  0  0  0  0  0  0  0  0  0  0  0
  153.8107  143.8378  161.4295 H   0  0  0  0  0  0  0  0  0  0  0  0
  150.9423  144.6245  161.9524 H   0  0  0  0  0  0  0  0  0  0  0  0
  152.3252  145.6350  161.6735 H   0  0  0  0  0  0  0  0  0  0  0  0
  150.5088  144.2873  159.6832 H   0  0  0  0  0  0  0  0  0  0  0  0
  151.0554  145.9294  159.7490 H   0  0  0  0  0  0  0  0  0  0  0  0
  152.2166  145.1580  157.9157 H   0  0  0  0  0  0  0  0  0  0  0  0
  153.4443  144.9472  159.1305 H   0  0  0  0  0  0  0  0  0  0  0  0
  153.0827  143.0098  157.5053 H   0  0  0  0  0  0  0  0  0  0  0  0
  151.5002  142.7651  158.1787 H   0  0  0  0  0  0  0  0  0  0  0  0
  1  2  1  0  0  0  0
  1 19  1  0  0  0  0
  1 20  1  0  0  0  0
  1 21  1  0  0  0  0
  2 18  2  0  0  0  0
  2  3  1  0  0  0  0
  3  4  2  0  0  0  0
  3 22  1  0  0  0  0
  4  5  1  0  0  0  0
  4 17  1  0  0  0  0
  5  6  1  0  0  0  0
  5 23  1  0  0  0  0
  5 24  1  0  0  0  0
  6  7  2  0  0  0  0
  6  8  2  0  0  0  0
  6  9  1  0  0  0  0
  9 10  1  0  0  0  0
  9 25  1  0  0  0  0
 10 16  1  0  0  0  0
 10 11  1  0  0  0  0
 10 26  1  0  0  0  0
 11 12  1  0  0  0  0
 11 27  1  0  0  0  0
 11 28  1  0  0  0  0
 12 13  1  0  0  0  0
 12 29  1  0  0  0  0
 12 30  1  0  0  0  0
 13 14  1  0  0  0  0
 13 31  1  0  0  0  0
 13 32  1  0  0  0  0
 14 15  1  0  0  0  0
 14 33  1  0  0  0  0
 14 34  1  0  0  0  0
 15 16  1  0  0  0  0
 15 35  1  0  0  0  0
 15 36  1  0  0  0  0
 16 37  1  0  0  0  0
 16 38  1  0  0  0  0
 17 18  1  0  0  0  0
M  END
> <s_m_source_file>
AV-unprocessed.smi

> <i_m_source_file_index>
784

> <i_lp_mmshare_version>
43012

> <i_f3d_flags>
0

> <s_epik_input>
W0NIM11jMVtjSF1jKG9uMSlbQ0gyXVMoPU8pKD1PKVtOSF1bQ0hdMltDSDJdW0NIMl1bQ0gyXVtDSDJdW0NIMl1bQ0gyXTI=

> <s_epik_cmdline>
J2VwaWtfcHl0aG9uJywgJy1waCcsICc3LjAnLCAnLXRuJywgJzgnLCAnLW1hJywgJzIwMCcsICctbWV0YWxfYmluZGluZycsICctaW1hZScsICc8aW5maWxlLm1hZT4nLCAnLW9tYWUnLCAnPG91dGZpbGUubWFlPic=

> <r_lp_tautomer_probability>
1

> <r_epik_Ionization_Penalty>
4.92328e-05

> <r_epik_Ionization_Penalty_Charging>
0

> <r_epik_Ionization_Penalty_Neutral>
4.92328e-05

> <r_epik_State_Penalty>
-0

> <r_epik_Charging_Adjusted_Penalty>
0

> <i_epik_Tot_Q>
0

> <i_epik_Tot_abs_Q>
0

> <r_epik_Metal_State_Penalty>
0.0438012

> <b_epik_Metal_Only>
0

> <s_lp_Force_Field>
OPLS_2005

> <r_lp_Energy>
5.5121

> <b_lp_Chiralities_Consistent>
1

> <s_lp_Variant>
AV-unprocessed.smi:784-1

> <Gold.Version>
5.8.1

> <Gold.Id.Protein>
6NUR|6NUR_protein|mol2

> <Gold.PLP.Fitness>
44.0717

> <Gold.PLP.PLP>
-39.2710

> <Gold.PLP.part.hbond>
-2.0000

> <Gold.PLP.part.metal>
0.0000

> <Gold.PLP.part.buried>
-3.1760

> <Gold.PLP.part.nonpolar>
-33.6341

> <Gold.PLP.part.repulsive>
0.0979

> <Gold.PLP.ligand.clash>
0.0000

> <Gold.PLP.ligand.torsion>
1.1550

> <Gold.PLP.Chemscore.Hbond>
2.0000

> <Gold.PLP.Chemscore.CHOScore>
0.0000

> <Gold.PLP.Chemscore.Metal>
0.0000

> <Gold.Chemscore.Hbonds>
donor molecule, donor type, donor heavy atom, donor atom, acceptor molecule, acceptor atom, score
      P1  H  6896  6908       L1    17  0.45
      P1  H  7997  8010       L1     8  0.84

> <Gold.PLP.Chemscore.Internal.Correction>
1.1107

> <Gold.Rescore>
     Score         DG    S(hbond)    S(metal)    S(lipo)     H(rot)  DE(clash)    DE(int)     intcor
     19.82     -20.85       1.87        0.00     108.08       1.37       0.10       0.93       ----

> <Gold.Chemscore.Fitness>
19.8229

> <Gold.Chemscore.DG>
-20.8522

> <Gold.Chemscore.ZeroCoef>
-5.4800

> <Gold.Chemscore.Hbond>
1.8693

> <Gold.Chemscore.Metal>
0.0000

> <Gold.Chemscore.Lipo>
108.0814

> <Gold.Chemscore.Internal_Hbond>
0.0000

> <Gold.Chemscore.DEClash>
0.0954

> <Gold.Chemscore.DEInternal>
0.9339

> <Gold.Chemscore.Rot>
1.3738

> <Gold.Chemscore.Internal.Correction>
   9.000000E+99

> <Gold.Chemscore.Hbonds>
donor molecule, donor type, donor heavy atom, donor atom, acceptor molecule, acceptor atom, score
      P1  H  6896  6908       L1    17  0.01
      P1  H  7997  8010       L1     8  0.81

> <Gold.Chemscore.Hbond.Weighted>
-6.2436

> <Gold.Chemscore.Metal.Weighted>
-0.0000

> <Gold.Chemscore.Lipo.Weighted>
-12.6455

> <Gold.Chemscore.Internal_Hbond.Weighted>
0.0000

> <Gold.Chemscore.DEClash.Weighted>
0.0954

> <Gold.Chemscore.DEInternal.Weighted>
0.9339

> <Gold.Chemscore.Rot.Weighted>
3.5168

> <Gold.Chemscore.Internal.Correction.Weighted>
   9.000000E+99

> <Gold.Protein.RotatedTorsions>
[ 6907 6896 6895 6894 ] final  -67.12 input  -60.11 | X-H torsion
[ 7974 7965 7964 7962 ] final  178.96 input  175.53 | X-H torsion
[ 8008 7997 7996 7995 ] final   -3.09 input   59.86 | X-H torsion
[ 10167 10162 10161 10158 ] final  -28.50 input  -65.29 | X-H torsion
[ 10718 10713 10712 10709 ] final  -72.48 input   66.30 | X-H torsion
[ 10763 10752 10751 10750 ] final  -16.20 input  -60.55 | X-H torsion
[ 11005 11000 10999 10996 ] final  154.13 input  -57.11 | X-H torsion

> <Gold.Protein.ActiveResidues>
 VAL166  LYS551  ARG553  GLY616  TRP617  ASP618  TYR619  PRO620  LYS621  CYS622 
 ASP623  PHE694  ASN695  SER759  ASP760  ASP761  ALA762  ILE779  LEU786  VAL792 
 PHE793  MET794  SER795  GLU796  ALA797  LYS798  CYS799  TRP800  GLU811  SER814 

> <Gold.Protein.RotatedAtoms>
  150.7427  134.5925  159.5994 H   0  0  0  0  0  0  0  0  0  0  0  0  # atno 6907 bound_to 6896
  152.3309  134.7258  160.0299 H   0  0  0  0  0  0  0  0  0  0  0  0  # atno 6908 bound_to 6896
  151.7742  133.3308  159.3489 H   0  0  0  0  0  0  0  0  0  0  0  0  # atno 6909 bound_to 6896
  144.7150  140.0475  143.6436 H   0  0  0  0  0  0  0  0  0  0  0  0  # atno 7974 bound_to 7965
  154.6286  140.2518  155.7461 H   0  0  0  0  0  0  0  0  0  0  0  0  # atno 8008 bound_to 7997
  156.2467  140.2911  156.0547 H   0  0  0  0  0  0  0  0  0  0  0  0  # atno 8009 bound_to 7997
  155.1781  140.0388  157.2867 H   0  0  0  0  0  0  0  0  0  0  0  0  # atno 8010 bound_to 7997
  140.7269  143.4005  151.1273 H   0  0  0  0  0  0  0  0  0  0  0  0  # atno 10167 bound_to 10162
  156.0319  130.4373  150.2598 H   0  0  0  0  0  0  0  0  0  0  0  0  # atno 10718 bound_to 10713
  153.5549  135.7011  153.5574 H   0  0  0  0  0  0  0  0  0  0  0  0  # atno 10763 bound_to 10752
  153.3481  135.4002  155.1625 H   0  0  0  0  0  0  0  0  0  0  0  0  # atno 10764 bound_to 10752
  154.8656  135.3759  154.5063 H   0  0  0  0  0  0  0  0  0  0  0  0  # atno 10765 bound_to 10752
  140.1461  134.8706  157.2394 H   0  0  0  0  0  0  0  0  0  0  0  0  # atno 11005 bound_to 11000
  145.9972  139.3061  143.0949 LP  0  0  0  0  0  0  0  0  0  0  0  0  # atno 17320 bound_to 7965
  145.8835  140.9348  143.0589 LP  0  0  0  0  0  0  0  0  0  0  0  0  # atno 17321 bound_to 7965
  139.7624  143.8616  152.3103 LP  0  0  0  0  0  0  0  0  0  0  0  0  # atno 17342 bound_to 10162
  139.8506  144.7166  150.9219 LP  0  0  0  0  0  0  0  0  0  0  0  0  # atno 17343 bound_to 10162
  157.0700  131.0114  151.3193 LP  0  0  0  0  0  0  0  0  0  0  0  0  # atno 17370 bound_to 10713
  157.5006  130.7878  149.7601 LP  0  0  0  0  0  0  0  0  0  0  0  0  # atno 17371 bound_to 10713
  140.2662  134.3513  155.7389 LP  0  0  0  0  0  0  0  0  0  0  0  0  # atno 17394 bound_to 11000
  141.2193  133.7397  156.9154 LP  0  0  0  0  0  0  0  0  0  0  0  0  # atno 17395 bound_to 11000

$$$$
