#       Name:                AV-unprocessed.smi:2752
#       Creating user name   scv26
#       Creation time:       Fri Mar 27 15:06:07 2020


#       File generated by GOLD software.
#

@<TRIPOS>MOLECULE
AV-unprocessed.smi:2752
    39    40     1
SMALL
NO_CHARGES


@<TRIPOS>ATOM
      1 ****        -2.6176   3.6213   1.5535 C.3            1 S1                 0.0000
      2 ****        -1.9254   2.4267   1.8795 O.3            1 S1                 0.0000
      3 ****        -0.6249   2.3456   1.3121 C.3            1 S1                 0.0000
      4 ****         0.3739   3.2670   2.0261 C.3            1 S1                 0.0000
      5 ****         1.7117   2.5472   1.9027 C.3            1 S1                 0.0000
      6 ****         1.3498   1.0725   2.0682 C.3            1 S1                 0.0000
      7 ****        -0.0633   0.9159   1.4714 C.3            1 S1                 0.0000
      8 ****        -0.0192   0.2344   0.1799 N.am           1 S1                 0.0000
      9 ****         0.0699  -1.0924   0.0103 C.2            1 S1                 0.0000
     10 ****         0.1340  -1.8930   0.9437 O.2            1 S1                 0.0000
     11 ****         0.0800  -1.4151  -1.2950 N.am           1 S1                 0.0000
     12 ****         0.1821  -2.7052  -1.8802 C.ar           1 S1                 0.0000
     13 ****         0.1468  -2.7255  -3.2932 C.ar           1 S1                 0.0000
     14 ****         0.2434  -3.9563  -3.9714 C.ar           1 S1                 0.0000
     15 ****         0.3740  -5.1352  -3.2165 C.ar           1 S1                 0.0000
     16 ****         0.4702  -6.3416  -3.8241 F              1 S1                 0.0000
     17 ****         0.4016  -5.0288  -1.8138 C.ar           1 S1                 0.0000
     18 ****         0.3083  -3.8498  -1.1626 N.ar           1 S1                 0.0000
     19 ****        -3.6068   3.6044   2.0105 H              1 S1                 0.0000
     20 ****        -2.7491   3.7184   0.4753 H              1 S1                 0.0000
     21 ****        -2.0950   4.5039   1.9236 H              1 S1                 0.0000
     22 ****        -0.6602   2.6106   0.2530 H              1 S1                 0.0000
     23 ****         0.3975   4.2715   1.6027 H              1 S1                 0.0000
     24 ****         0.1097   3.3561   3.0810 H              1 S1                 0.0000
     25 ****         2.1314   2.7157   0.9102 H              1 S1                 0.0000
     26 ****         2.4419   2.8857   2.6381 H              1 S1                 0.0000
     27 ****         2.0927   0.4149   1.6149 H              1 S1                 0.0000
     28 ****         1.3166   0.8301   3.1312 H              1 S1                 0.0000
     29 ****        -0.6853   0.3440   2.1631 H              1 S1                 0.0000
     30 ****        -0.0675   0.8182  -0.6419 H              1 S1                 0.0000
     31 ****         0.0118  -0.6473  -1.9462 H              1 S1                 0.0000
     32 ****         0.0464  -1.8091  -3.8565 H              1 S1                 0.0000
     33 ****         0.2181  -3.9936  -5.0504 H              1 S1                 0.0000
     34 ****         0.5013  -5.9105  -1.1982 H              1 S1                 0.0000
     35 ****        -2.4626   1.6506   1.5492 LP             1 S1                 0.0000
     36 ****        -1.8394   2.3733   2.8743 LP             1 S1                 0.0000
     37 ****         0.1209  -1.5628   1.8875 LP             1 S1                 0.0000
     38 ****         0.1993  -2.8734   0.7579 LP             1 S1                 0.0000
     39 ****         0.3320  -3.8205  -0.1633 LP             1 S1                 0.0000
@<TRIPOS>BOND
    1    1    2 1     
    2    1   19 1     
    3    1   20 1     
    4    1   21 1     
    5    2    3 1     
    6    3    7 1     
    7    3    4 1     
    8    3   22 1     
    9    4    5 1     
   10    4   23 1     
   11    4   24 1     
   12    5    6 1     
   13    5   25 1     
   14    5   26 1     
   15    6    7 1     
   16    6   27 1     
   17    6   28 1     
   18    7    8 1     
   19    7   29 1     
   20    8    9 am    
   21    8   30 1     
   22    9   10 2     
   23    9   11 am    
   24   11   12 1     
   25   11   31 1     
   26   12   18 ar    
   27   12   13 ar    
   28   13   14 ar    
   29   13   32 1     
   30   14   15 ar    
   31   14   33 1     
   32   15   16 1     
   33   15   17 ar    
   34   17   18 ar    
   35   17   34 1     
   36    2   35 1     
   37    2   36 1     
   38   10   37 1     
   39   10   38 1     
   40   18   39 1     
@<TRIPOS>SUBSTRUCTURE
      1 S1             1
@<TRIPOS>SET
LONE_PAIRS      STATIC     ATOMS    <user>   **** ""
5 35 36 37 38 39
DONOR_HYDROGENS      STATIC     ATOMS    <user>   **** ""
2 30 31
ATOM$BLUE        STATIC     ATOMS    COLORGROUP SYSTEM
5 35 36 37 38 39
ATOM$RED        STATIC     ATOMS    COLORGROUP SYSTEM
2 30 31
