AV-unprocessed.smi:1427|AV-procd|sdf|5809|dock7
  -GOLD-   22720 5463D 1   1.00000     0.00000
 Structure written by MMmdl.
 33 34  0  0  0  0  0  0  0  0  1 V2000
  154.3443  140.7306  161.6140 C   0  0  0  0  0  0  0  0  0  0  0  0
  153.6404  141.4812  160.4737 C   0  0  2  0  0  0  0  0  0  0  0  0
  152.7609  142.6303  161.0047 C   0  0  0  0  0  0  0  0  0  0  0  0
  152.2014  143.4358  159.9322 N   0  0  0  0  0  0  0  0  0  0  0  0
  152.8683  144.1122  158.9328 C   0  0  0  0  0  0  0  0  0  0  0  0
  151.9247  144.7092  158.1468 C   0  0  0  0  0  0  0  0  0  0  0  0
  150.6930  144.3344  158.7524 C   0  0  0  0  0  0  0  0  0  0  0  0
  150.8619  143.5756  159.8229 N   0  0  0  0  0  0  0  0  0  0  0  0
  152.8215  140.5569  159.6953 N   0  0  0  0  0  0  0  0  0  0  0  0
  153.2756  139.6033  158.8659 C   0  0  0  0  0  0  0  0  0  0  0  0
  154.4718  139.3418  158.7411 O   0  0  0  0  0  0  0  0  0  0  0  0
  152.2387  138.8180  158.0390 C   0  0  2  0  0  0  0  0  0  0  0  0
  152.8595  137.7961  157.0662 C   0  0  0  0  0  0  0  0  0  0  0  0
  152.8227  138.4812  155.6935 C   0  0  0  0  0  0  0  0  0  0  0  0
  151.7390  139.5312  155.8784 C   0  0  0  0  0  0  0  0  0  0  0  0
  151.2381  140.1624  154.9511 O   0  0  0  0  0  0  0  0  0  0  0  0
  151.4240  139.6561  157.1686 N   0  0  0  0  0  0  0  0  0  0  0  0
  154.9708  141.4055  162.1975 H   0  0  0  0  0  0  0  0  0  0  0  0
  154.9875  139.9391  161.2282 H   0  0  0  0  0  0  0  0  0  0  0  0
  153.6237  140.2740  162.2932 H   0  0  0  0  0  0  0  0  0  0  0  0
  154.4059  141.9152  159.8277 H   0  0  0  0  0  0  0  0  0  0  0  0
  151.9479  142.2417  161.6209 H   0  0  0  0  0  0  0  0  0  0  0  0
  153.3494  143.2874  161.6460 H   0  0  0  0  0  0  0  0  0  0  0  0
  153.9461  144.1089  158.8634 H   0  0  0  0  0  0  0  0  0  0  0  0
  152.0897  145.3188  157.2709 H   0  0  0  0  0  0  0  0  0  0  0  0
  149.6885  144.5893  158.4485 H   0  0  0  0  0  0  0  0  0  0  0  0
  151.8226  140.7017  159.7329 H   0  0  0  0  0  0  0  0  0  0  0  0
  151.5821  138.3042  158.7421 H   0  0  0  0  0  0  0  0  0  0  0  0
  153.8708  137.4950  157.3436 H   0  0  0  0  0  0  0  0  0  0  0  0
  152.2506  136.8911  157.0411 H   0  0  0  0  0  0  0  0  0  0  0  0
  153.7678  138.9773  155.4698 H   0  0  0  0  0  0  0  0  0  0  0  0
  152.5863  137.7869  154.8868 H   0  0  0  0  0  0  0  0  0  0  0  0
  150.7271  140.2950  157.5233 H   0  0  0  0  0  0  0  0  0  0  0  0
  1  2  1  0  0  0  0
  1 18  1  0  0  0  0
  1 19  1  0  0  0  0
  1 20  1  0  0  0  0
  2  3  1  0  0  0  0
  2  9  1  0  0  0  0
  2 21  1  0  0  0  0
  3  4  1  0  0  0  0
  3 22  1  0  0  0  0
  3 23  1  0  0  0  0
  4  8  1  0  0  0  0
  4  5  1  0  0  0  0
  5  6  2  0  0  0  0
  5 24  1  0  0  0  0
  6  7  1  0  0  0  0
  6 25  1  0  0  0  0
  7  8  2  0  0  0  0
  7 26  1  0  0  0  0
  9 10  1  0  0  0  0
  9 27  1  0  0  0  0
 10 11  2  0  0  0  0
 10 12  1  0  0  0  0
 12 17  1  0  0  0  0
 12 13  1  0  0  0  0
 12 28  1  0  0  0  0
 13 14  1  0  0  0  0
 13 29  1  0  0  0  0
 13 30  1  0  0  0  0
 14 15  1  0  0  0  0
 14 31  1  0  0  0  0
 14 32  1  0  0  0  0
 15 16  2  0  0  0  0
 15 17  1  0  0  0  0
 17 33  1  0  0  0  0
M  END
> <s_m_source_file>
AV-unprocessed.smi

> <i_m_source_file_index>
1427

> <i_lp_mmshare_version>
43012

> <i_f3d_flags>
0

> <s_epik_input>
bjFbY0hdW2NIXVtjSF1uMVtDSDJdW0NAQEhdKFtDSDNdKVtOSF1DKD1PKVtDQEBIXTJbQ0gyXVtDSDJdQyg9TylbTkhdMg==

> <s_epik_cmdline>
J2VwaWtfcHl0aG9uJywgJy1waCcsICc3LjAnLCAnLXRuJywgJzgnLCAnLW1hJywgJzIwMCcsICctbWV0YWxfYmluZGluZycsICctaW1hZScsICc8aW5maWxlLm1hZT4nLCAnLW9tYWUnLCAnPG91dGZpbGUubWFlPic=

> <r_lp_tautomer_probability>
1

> <r_epik_Ionization_Penalty>
0.000310707

> <r_epik_Ionization_Penalty_Charging>
0

> <r_epik_Ionization_Penalty_Neutral>
0.000310707

> <r_epik_State_Penalty>
-0

> <r_epik_Charging_Adjusted_Penalty>
0

> <i_epik_Tot_Q>
0

> <i_epik_Tot_abs_Q>
0

> <r_epik_Metal_State_Penalty>
-0

> <b_epik_Metal_Only>
0

> <s_lp_Force_Field>
OPLS_2005

> <r_lp_Energy>
13.3236

> <b_lp_Chiralities_Consistent>
1

> <s_lp_Variant>
AV-unprocessed.smi:1427-1

> <Gold.Version>
5.8.1

> <Gold.Id.Protein>
6NUR|6NUR_protein|mol2

> <Gold.PLP.Fitness>
47.1837

> <Gold.PLP.PLP>
-38.1643

> <Gold.PLP.part.hbond>
-2.0783

> <Gold.PLP.part.metal>
0.0000

> <Gold.PLP.part.buried>
-4.9574

> <Gold.PLP.part.nonpolar>
-31.6360

> <Gold.PLP.part.repulsive>
0.3135

> <Gold.PLP.ligand.clash>
0.0000

> <Gold.PLP.ligand.torsion>
0.1710

> <Gold.PLP.Chemscore.Hbond>
2.0000

> <Gold.PLP.Chemscore.CHOScore>
1.1130

> <Gold.PLP.Chemscore.Metal>
0.0000

> <Gold.Chemscore.Hbonds>
donor molecule, donor type, donor heavy atom, donor atom, acceptor molecule, acceptor atom, score
      P1  H  7989  7998       L1    16  1.00
      P1  H  7997  8010       L1    11  1.00
      L1  C     7    26       P1  8028  0.04
      L1  C     7    26       P1  8029  1.00

> <Gold.PLP.Chemscore.Internal.Correction>
0.0225

> <Gold.Rescore>
     Score         DG    S(hbond)    S(metal)    S(lipo)     H(rot)  DE(clash)    DE(int)     intcor
     17.16     -17.32       1.97        0.00      86.20       1.88       0.01       0.14       ----

> <Gold.Chemscore.Fitness>
17.1624

> <Gold.Chemscore.DG>
-17.3157

> <Gold.Chemscore.ZeroCoef>
-5.4800

> <Gold.Chemscore.Hbond>
1.9667

> <Gold.Chemscore.Metal>
0.0000

> <Gold.Chemscore.Lipo>
86.1968

> <Gold.Chemscore.Internal_Hbond>
0.0000

> <Gold.Chemscore.DEClash>
0.0137

> <Gold.Chemscore.DEInternal>
0.1397

> <Gold.Chemscore.Rot>
1.8821

> <Gold.Chemscore.Internal.Correction>
   9.000000E+99

> <Gold.Chemscore.Hbonds>
donor molecule, donor type, donor heavy atom, donor atom, acceptor molecule, acceptor atom, score
      P1  H  7989  7998       L1    16  0.99
      P1  H  7997  8010       L1    11  0.82

> <Gold.Chemscore.Hbond.Weighted>
-6.5688

> <Gold.Chemscore.Metal.Weighted>
-0.0000

> <Gold.Chemscore.Lipo.Weighted>
-10.0850

> <Gold.Chemscore.Internal_Hbond.Weighted>
0.0000

> <Gold.Chemscore.DEClash.Weighted>
0.0137

> <Gold.Chemscore.DEInternal.Weighted>
0.1397

> <Gold.Chemscore.Rot.Weighted>
4.8181

> <Gold.Chemscore.Internal.Correction.Weighted>
   9.000000E+99

> <Gold.Protein.RotatedTorsions>
[ 6907 6896 6895 6894 ] final  -89.08 input  -60.11 | X-H torsion
[ 7974 7965 7964 7962 ] final   57.46 input  175.53 | X-H torsion
[ 8008 7997 7996 7995 ] final   -2.00 input   59.86 | X-H torsion
[ 10167 10162 10161 10158 ] final  143.08 input  -65.29 | X-H torsion
[ 10718 10713 10712 10709 ] final  -70.11 input   66.30 | X-H torsion
[ 10763 10752 10751 10750 ] final  -88.49 input  -60.55 | X-H torsion
[ 11005 11000 10999 10996 ] final -177.69 input  -57.11 | X-H torsion

> <Gold.Protein.ActiveResidues>
 VAL166  LYS551  ARG553  GLY616  TRP617  ASP618  TYR619  PRO620  LYS621  CYS622 
 ASP623  PHE694  ASN695  SER759  ASP760  ASP761  ALA762  ILE779  LEU786  VAL792 
 PHE793  MET794  SER795  GLU796  ALA797  LYS798  CYS799  TRP800  GLU811  SER814 

> <Gold.Protein.RotatedAtoms>
  150.6872  134.2642  159.4561 H   0  0  0  0  0  0  0  0  0  0  0  0  # atno 6907 bound_to 6896
  152.0570  134.9616  160.0584 H   0  0  0  0  0  0  0  0  0  0  0  0  # atno 6908 bound_to 6896
  152.1058  133.4239  159.4645 H   0  0  0  0  0  0  0  0  0  0  0  0  # atno 6909 bound_to 6896
  145.9288  139.3790  143.0434 H   0  0  0  0  0  0  0  0  0  0  0  0  # atno 7974 bound_to 7965
  154.6405  140.2545  155.7327 H   0  0  0  0  0  0  0  0  0  0  0  0  # atno 8008 bound_to 7997
  156.2526  140.2888  156.0717 H   0  0  0  0  0  0  0  0  0  0  0  0  # atno 8009 bound_to 7997
  155.1603  140.0384  157.2831 H   0  0  0  0  0  0  0  0  0  0  0  0  # atno 8010 bound_to 7997
  139.4978  144.6064  151.6369 H   0  0  0  0  0  0  0  0  0  0  0  0  # atno 10167 bound_to 10162
  156.0423  130.4325  150.2247 H   0  0  0  0  0  0  0  0  0  0  0  0  # atno 10718 bound_to 10713
  154.6451  135.5375  153.7835 H   0  0  0  0  0  0  0  0  0  0  0  0  # atno 10763 bound_to 10752
  153.0355  135.6469  154.1101 H   0  0  0  0  0  0  0  0  0  0  0  0  # atno 10764 bound_to 10752
  154.1022  135.2932  155.3229 H   0  0  0  0  0  0  0  0  0  0  0  0  # atno 10765 bound_to 10752
  140.4381  134.6456  157.4744 H   0  0  0  0  0  0  0  0  0  0  0  0  # atno 11005 bound_to 11000
  145.8453  140.9558  143.0778 LP  0  0  0  0  0  0  0  0  0  0  0  0  # atno 17320 bound_to 7965
  144.6762  140.0337  143.7482 LP  0  0  0  0  0  0  0  0  0  0  0  0  # atno 17321 bound_to 7965
  140.5727  144.0082  150.6225 LP  0  0  0  0  0  0  0  0  0  0  0  0  # atno 17342 bound_to 10162
  140.3204  143.3140  152.0789 LP  0  0  0  0  0  0  0  0  0  0  0  0  # atno 17343 bound_to 10162
  157.0341  131.0016  151.3303 LP  0  0  0  0  0  0  0  0  0  0  0  0  # atno 17370 bound_to 10713
  157.5257  130.8026  149.7859 LP  0  0  0  0  0  0  0  0  0  0  0  0  # atno 17371 bound_to 10713
  140.0088  134.6722  155.9413 LP  0  0  0  0  0  0  0  0  0  0  0  0  # atno 17394 bound_to 11000
  141.1717  133.6538  156.4676 LP  0  0  0  0  0  0  0  0  0  0  0  0  # atno 17395 bound_to 11000

$$$$
