AV-unprocessed.smi:2375|AV-procd|sdf|9443|dock6
  -GOLD-   2272013 73D 1   1.00000     0.00000
 Structure written by MMmdl.
 37 38  0  0  0  0  0  0  0  0  1 V2000
  147.5338  141.3010  152.9805 C   0  0  0  0  0  0  0  0  0  0  0  0
  148.7455  140.8097  153.6965 C   0  0  0  0  0  0  0  0  0  0  0  0
  149.7376  141.5577  154.2801 C   0  0  0  0  0  0  0  0  0  0  0  0
  150.7347  140.7943  154.8907 N   0  0  0  0  0  0  0  0  0  0  0  0
  150.5116  139.4815  154.7827 C   0  0  0  0  0  0  0  0  0  0  0  0
  151.3986  138.4326  155.3834 C   0  0  1  0  0  0  0  0  0  0  0  0
  152.8757  138.6462  155.0250 C   0  0  0  0  0  0  0  0  0  0  0  0
  151.1684  138.2406  156.8985 C   0  0  0  0  0  0  0  0  0  0  0  0
  151.1785  139.5044  157.6285 N   0  0  0  0  0  0  0  0  0  0  0  0
  152.2409  140.0283  158.2609 C   0  0  0  0  0  0  0  0  0  0  0  0
  153.3656  139.5330  158.2217 O   0  0  0  0  0  0  0  0  0  0  0  0
  151.9801  141.1521  158.9525 N   0  0  0  0  0  0  0  0  0  0  0  0
  152.9157  141.9565  159.7413 C   0  0  0  0  0  0  0  0  0  0  0  0
  153.4887  141.1632  160.9404 C   0  0  0  0  0  0  0  0  0  0  0  0
  153.4215  142.1437  162.0805 C   0  0  0  0  0  0  0  0  0  0  0  0
  152.7627  143.2546  161.7570 C   0  0  0  0  0  0  0  0  0  0  0  0
  152.2621  143.2292  160.3396 C   0  0  0  0  0  0  0  0  0  0  0  0
  149.0446  139.1023  153.8869 S   0  0  0  0  0  0  0  0  0  0  0  0
  147.5634  142.3837  152.8558 H   0  0  0  0  0  0  0  0  0  0  0  0
  146.6304  141.0506  153.5368 H   0  0  0  0  0  0  0  0  0  0  0  0
  147.4588  140.8502  151.9909 H   0  0  0  0  0  0  0  0  0  0  0  0
  149.8095  142.6347  154.3155 H   0  0  0  0  0  0  0  0  0  0  0  0
  151.1094  137.4931  154.9104 H   0  0  0  0  0  0  0  0  0  0  0  0
  153.0164  138.6759  153.9442 H   0  0  0  0  0  0  0  0  0  0  0  0
  153.4941  137.8386  155.4172 H   0  0  0  0  0  0  0  0  0  0  0  0
  153.2517  139.5831  155.4369 H   0  0  0  0  0  0  0  0  0  0  0  0
  150.2394  137.6986  157.0827 H   0  0  0  0  0  0  0  0  0  0  0  0
  151.9689  137.6271  157.3129 H   0  0  0  0  0  0  0  0  0  0  0  0
  150.2964  139.9889  157.7079 H   0  0  0  0  0  0  0  0  0  0  0  0
  151.0423  141.5189  158.8775 H   0  0  0  0  0  0  0  0  0  0  0  0
  153.7579  142.2563  159.1148 H   0  0  0  0  0  0  0  0  0  0  0  0
  152.8880  140.2867  161.1875 H   0  0  0  0  0  0  0  0  0  0  0  0
  154.5150  140.8412  160.7606 H   0  0  0  0  0  0  0  0  0  0  0  0
  153.8487  141.9320  163.0495 H   0  0  0  0  0  0  0  0  0  0  0  0
  152.5706  144.0844  162.4214 H   0  0  0  0  0  0  0  0  0  0  0  0
  152.5564  144.1301  159.8006 H   0  0  0  0  0  0  0  0  0  0  0  0
  151.1734  143.1704  160.3523 H   0  0  0  0  0  0  0  0  0  0  0  0
  1  2  1  0  0  0  0
  1 19  1  0  0  0  0
  1 20  1  0  0  0  0
  1 21  1  0  0  0  0
  2 18  1  0  0  0  0
  2  3  2  0  0  0  0
  3  4  1  0  0  0  0
  3 22  1  0  0  0  0
  4  5  2  0  0  0  0
  5  6  1  0  0  0  0
  5 18  1  0  0  0  0
  6  7  1  0  0  0  0
  6  8  1  0  0  0  0
  6 23  1  0  0  0  0
  7 24  1  0  0  0  0
  7 25  1  0  0  0  0
  7 26  1  0  0  0  0
  8  9  1  0  0  0  0
  8 27  1  0  0  0  0
  8 28  1  0  0  0  0
  9 10  1  0  0  0  0
  9 29  1  0  0  0  0
 10 11  2  0  0  0  0
 10 12  1  0  0  0  0
 12 13  1  0  0  0  0
 12 30  1  0  0  0  0
 13 17  1  0  0  0  0
 13 14  1  0  0  0  0
 13 31  1  0  0  0  0
 14 15  1  0  0  0  0
 14 32  1  0  0  0  0
 14 33  1  0  0  0  0
 15 16  2  0  0  0  0
 15 34  1  0  0  0  0
 16 17  1  0  0  0  0
 16 35  1  0  0  0  0
 17 36  1  0  0  0  0
 17 37  1  0  0  0  0
M  END
> <s_m_source_file>
AV-unprocessed.smi

> <i_m_source_file_index>
2375

> <i_lp_mmshare_version>
43012

> <i_f3d_flags>
0

> <s_epik_input>
W0NIM11jMVtjSF1uYyhzMSlbQ0BIXShbQ0gzXSlbQ0gyXVtOSF1DKD1PKVtOSF1bQ0hdMltDSDJdW0NIXT1bQ0hdW0NIMl0y

> <s_epik_cmdline>
J2VwaWtfcHl0aG9uJywgJy1waCcsICc3LjAnLCAnLXRuJywgJzgnLCAnLW1hJywgJzIwMCcsICctbWV0YWxfYmluZGluZycsICctaW1hZScsICc8aW5maWxlLm1hZT4nLCAnLW9tYWUnLCAnPG91dGZpbGUubWFlPic=

> <r_epik_Ionization_Penalty>
0.000644205

> <r_epik_Ionization_Penalty_Charging>
0

> <r_epik_Ionization_Penalty_Neutral>
0.000644205

> <r_epik_State_Penalty>
0.000370883

> <r_epik_Charging_Adjusted_Penalty>
0.000370883

> <i_epik_Tot_Q>
0

> <i_epik_Tot_abs_Q>
0

> <r_epik_Metal_State_Penalty>
-0

> <b_epik_Metal_Only>
0

> <s_lp_Force_Field>
OPLS_2005

> <r_lp_Energy>
15.8173

> <b_lp_Chiralities_Consistent>
1

> <s_lp_Variant>
AV-unprocessed.smi:2375-2

> <Gold.Version>
5.8.1

> <Gold.Id.Protein>
6NUR|6NUR_protein|mol2

> <Gold.PLP.Fitness>
48.0123

> <Gold.PLP.PLP>
-41.6504

> <Gold.PLP.part.hbond>
-2.0000

> <Gold.PLP.part.metal>
0.0000

> <Gold.PLP.part.buried>
-3.1601

> <Gold.PLP.part.nonpolar>
-36.1192

> <Gold.PLP.part.repulsive>
0.2637

> <Gold.PLP.ligand.clash>
0.0000

> <Gold.PLP.ligand.torsion>
0.6653

> <Gold.PLP.Chemscore.Hbond>
1.5280

> <Gold.PLP.Chemscore.CHOScore>
1.0000

> <Gold.PLP.Chemscore.Metal>
0.0000

> <Gold.Chemscore.Hbonds>
donor molecule, donor type, donor heavy atom, donor atom, acceptor molecule, acceptor atom, score
      P1  H  7989  7998       L1     4  0.29
      P1  H  7997  8010       L1    11  1.00
      L1  C     3    22       P1  8028  0.76

> <Gold.PLP.Chemscore.Internal.Correction>
0.1084

> <Gold.Rescore>
     Score         DG    S(hbond)    S(metal)    S(lipo)     H(rot)  DE(clash)    DE(int)     intcor
     17.30     -18.23       1.18        0.00     108.21       1.50       0.06       0.87       ----

> <Gold.Chemscore.Fitness>
17.2990

> <Gold.Chemscore.DG>
-18.2293

> <Gold.Chemscore.ZeroCoef>
-5.4800

> <Gold.Chemscore.Hbond>
1.1773

> <Gold.Chemscore.Metal>
0.0000

> <Gold.Chemscore.Lipo>
108.2050

> <Gold.Chemscore.Internal_Hbond>
0.0000

> <Gold.Chemscore.DEClash>
0.0649

> <Gold.Chemscore.DEInternal>
0.8655

> <Gold.Chemscore.Rot>
1.5012

> <Gold.Chemscore.Internal.Correction>
   9.000000E+99

> <Gold.Chemscore.Hbonds>
donor molecule, donor type, donor heavy atom, donor atom, acceptor molecule, acceptor atom, score
      P1  H  7997  8010       L1    11  1.00

> <Gold.Chemscore.Hbond.Weighted>
-3.9323

> <Gold.Chemscore.Metal.Weighted>
-0.0000

> <Gold.Chemscore.Lipo.Weighted>
-12.6600

> <Gold.Chemscore.Internal_Hbond.Weighted>
0.0000

> <Gold.Chemscore.DEClash.Weighted>
0.0649

> <Gold.Chemscore.DEInternal.Weighted>
0.8655

> <Gold.Chemscore.Rot.Weighted>
3.8429

> <Gold.Chemscore.Internal.Correction.Weighted>
   9.000000E+99

> <Gold.Protein.RotatedTorsions>
[ 6907 6896 6895 6894 ] final  161.86 input  -60.11 | X-H torsion
[ 7974 7965 7964 7962 ] final   34.28 input  175.53 | X-H torsion
[ 8008 7997 7996 7995 ] final   25.60 input   59.86 | X-H torsion
[ 10167 10162 10161 10158 ] final  -62.05 input  -65.29 | X-H torsion
[ 10718 10713 10712 10709 ] final   86.81 input   66.30 | X-H torsion
[ 10763 10752 10751 10750 ] final   66.26 input  -60.55 | X-H torsion
[ 11005 11000 10999 10996 ] final  -28.93 input  -57.11 | X-H torsion

> <Gold.Protein.ActiveResidues>
 VAL166  LYS551  ARG553  GLY616  TRP617  ASP618  TYR619  PRO620  LYS621  CYS622 
 ASP623  PHE694  ASN695  SER759  ASP760  ASP761  ALA762  ILE779  LEU786  VAL792 
 PHE793  MET794  SER795  GLU796  ALA797  LYS798  CYS799  TRP800  GLU811  SER814 

> <Gold.Protein.RotatedAtoms>
  151.9492  133.3661  159.3993 H   0  0  0  0  0  0  0  0  0  0  0  0  # atno 6907 bound_to 6896
  150.6984  134.4358  159.5278 H   0  0  0  0  0  0  0  0  0  0  0  0  # atno 6908 bound_to 6896
  152.2028  134.8572  160.0557 H   0  0  0  0  0  0  0  0  0  0  0  0  # atno 6909 bound_to 6896
  146.1363  139.6289  142.9193 H   0  0  0  0  0  0  0  0  0  0  0  0  # atno 7974 bound_to 7965
  155.0142  140.3140  155.4818 H   0  0  0  0  0  0  0  0  0  0  0  0  # atno 8008 bound_to 7997
  156.2903  140.2209  156.5200 H   0  0  0  0  0  0  0  0  0  0  0  0  # atno 8009 bound_to 7997
  154.7508  140.0466  157.0879 H   0  0  0  0  0  0  0  0  0  0  0  0  # atno 8010 bound_to 7997
  140.5965  143.2352  151.6025 H   0  0  0  0  0  0  0  0  0  0  0  0  # atno 10167 bound_to 10162
  157.6933  131.0230  150.3028 H   0  0  0  0  0  0  0  0  0  0  0  0  # atno 10718 bound_to 10713
  153.0132  135.5327  154.6795 H   0  0  0  0  0  0  0  0  0  0  0  0  # atno 10763 bound_to 10752
  154.5959  135.2863  155.0589 H   0  0  0  0  0  0  0  0  0  0  0  0  # atno 10764 bound_to 10752
  154.1664  135.6539  153.5051 H   0  0  0  0  0  0  0  0  0  0  0  0  # atno 10765 bound_to 10752
  140.9252  133.7373  156.0857 H   0  0  0  0  0  0  0  0  0  0  0  0  # atno 11005 bound_to 11000
  145.5148  141.0434  143.2468 LP  0  0  0  0  0  0  0  0  0  0  0  0  # atno 17320 bound_to 7965
  144.7744  139.6663  143.7181 LP  0  0  0  0  0  0  0  0  0  0  0  0  # atno 17321 bound_to 7965
  139.5261  144.3054  152.1038 LP  0  0  0  0  0  0  0  0  0  0  0  0  # atno 17342 bound_to 10162
  140.2227  144.4449  150.6335 LP  0  0  0  0  0  0  0  0  0  0  0  0  # atno 17343 bound_to 10162
  156.3542  130.3836  149.7304 LP  0  0  0  0  0  0  0  0  0  0  0  0  # atno 17370 bound_to 10713
  156.4772  130.8024  151.3040 LP  0  0  0  0  0  0  0  0  0  0  0  0  # atno 17371 bound_to 10713
  140.7935  134.3590  157.5458 LP  0  0  0  0  0  0  0  0  0  0  0  0  # atno 17394 bound_to 11000
  139.8784  134.9155  156.3132 LP  0  0  0  0  0  0  0  0  0  0  0  0  # atno 17395 bound_to 11000

$$$$
