AV-unprocessed.smi:2627|AV-procd|sdf|10241|dock5
  -GOLD-   2272014253D 1   1.00000     0.00000
 Structure written by MMmdl.
 40 42  0  0  0  0  0  0  0  0  2 V2000
  145.9121  137.7308  152.8923 C   0  0  0  0  0  0  0  0  0  0  0  0
  146.5914  138.9767  152.3101 C   0  0  2  0  0  0  0  0  0  0  0  0
  147.0148  138.6886  150.9936 O   0  0  0  0  0  0  0  0  0  0  0  0
  147.7228  139.4248  153.1828 C   0  0  0  0  0  0  0  0  0  0  0  0
  148.8250  138.6901  153.5077 N   0  3  0  0  0  0  0  0  0  0  0  0
  149.6607  139.4327  154.3423 C   0  0  0  0  0  0  0  0  0  0  0  0
  150.8854  139.1156  154.9217 C   0  0  0  0  0  0  0  0  0  0  0  0
  151.4817  140.1099  155.7249 C   0  0  0  0  0  0  0  0  0  0  0  0
  150.8626  141.3611  155.9248 C   0  0  0  0  0  0  0  0  0  0  0  0
  149.6201  141.6707  155.3328 C   0  0  0  0  0  0  0  0  0  0  0  0
  149.0359  140.6804  154.5434 C   0  0  0  0  0  0  0  0  0  0  0  0
  147.8387  140.6252  153.8210 N   0  0  0  0  0  0  0  0  0  0  0  0
  146.9355  141.7829  153.8347 C   0  0  0  0  0  0  0  0  0  0  0  0
  145.7844  141.5948  154.8295 C   0  0  0  0  0  0  0  0  0  0  0  0
  145.8178  142.6660  155.7610 O   0  0  0  0  0  0  0  0  0  0  0  0
  145.0811  143.7965  155.4809 C   0  0  0  0  0  0  0  0  0  0  0  0
  144.8817  144.1084  154.1201 C   0  0  0  0  0  0  0  0  0  0  0  0
  144.1434  145.2461  153.7414 C   0  0  0  0  0  0  0  0  0  0  0  0
  143.5926  146.0867  154.7261 C   0  0  0  0  0  0  0  0  0  0  0  0
  143.7821  145.7868  156.0880 C   0  0  0  0  0  0  0  0  0  0  0  0
  144.5215  144.6493  156.4665 C   0  0  0  0  0  0  0  0  0  0  0  0
  145.5255  137.9268  153.8929 H   0  0  0  0  0  0  0  0  0  0  0  0
  146.6078  136.8938  152.9623 H   0  0  0  0  0  0  0  0  0  0  0  0
  145.0723  137.4153  152.2722 H   0  0  0  0  0  0  0  0  0  0  0  0
  145.8604  139.7829  152.2430 H   0  0  0  0  0  0  0  0  0  0  0  0
  147.8965  139.0115  150.8838 H   0  0  0  0  0  0  0  0  0  0  0  0
  151.3624  138.1584  154.7689 H   0  0  0  0  0  0  0  0  0  0  0  0
  152.4331  139.9095  156.1963 H   0  0  0  0  0  0  0  0  0  0  0  0
  151.3503  142.0990  156.5456 H   0  0  0  0  0  0  0  0  0  0  0  0
  149.1562  142.6329  155.4916 H   0  0  0  0  0  0  0  0  0  0  0  0
  147.5249  142.6600  154.1032 H   0  0  0  0  0  0  0  0  0  0  0  0
  146.5625  141.9615  152.8260 H   0  0  0  0  0  0  0  0  0  0  0  0
  144.8304  141.5820  154.3000 H   0  0  0  0  0  0  0  0  0  0  0  0
  145.9010  140.6416  155.3480 H   0  0  0  0  0  0  0  0  0  0  0  0
  145.3019  143.4687  153.3579 H   0  0  0  0  0  0  0  0  0  0  0  0
  144.0005  145.4733  152.6954 H   0  0  0  0  0  0  0  0  0  0  0  0
  143.0254  146.9593  154.4377 H   0  0  0  0  0  0  0  0  0  0  0  0
  143.3592  146.4308  156.8448 H   0  0  0  0  0  0  0  0  0  0  0  0
  144.6439  144.4524  157.5206 H   0  0  0  0  0  0  0  0  0  0  0  0
  148.9891  137.7485  153.1750 H   0  0  0  0  0  0  0  0  0  0  0  0
  1  2  1  0  0  0  0
  1 22  1  0  0  0  0
  1 23  1  0  0  0  0
  1 24  1  0  0  0  0
  2  3  1  0  0  0  0
  2  4  1  0  0  0  0
  2 25  1  0  0  0  0
  3 26  1  0  0  0  0
  4 12  1  0  0  0  0
  4  5  2  0  0  0  0
  5  6  1  0  0  0  0
  5 40  1  0  0  0  0
  6 11  2  0  0  0  0
  6  7  1  0  0  0  0
  7  8  2  0  0  0  0
  7 27  1  0  0  0  0
  8  9  1  0  0  0  0
  8 28  1  0  0  0  0
  9 10  2  0  0  0  0
  9 29  1  0  0  0  0
 10 11  1  0  0  0  0
 10 30  1  0  0  0  0
 11 12  1  0  0  0  0
 12 13  1  0  0  0  0
 13 14  1  0  0  0  0
 13 31  1  0  0  0  0
 13 32  1  0  0  0  0
 14 15  1  0  0  0  0
 14 33  1  0  0  0  0
 14 34  1  0  0  0  0
 15 16  1  0  0  0  0
 16 21  1  0  0  0  0
 16 17  2  0  0  0  0
 17 18  1  0  0  0  0
 17 35  1  0  0  0  0
 18 19  2  0  0  0  0
 18 36  1  0  0  0  0
 19 20  1  0  0  0  0
 19 37  1  0  0  0  0
 20 21  2  0  0  0  0
 20 38  1  0  0  0  0
 21 39  1  0  0  0  0
M  CHG  1   5   1
M  END
> <s_m_source_file>
AV-unprocessed.smi

> <i_m_source_file_index>
2627

> <i_lp_mmshare_version>
43012

> <i_f3d_flags>
0

> <s_epik_input>
W2NIXTFbY0hdW2NIXVtjSF1jKGMxMiluKGMobjIpW0NASF0oW0NIM10pW09IXSlbQ0gyXVtDSDJdT2MzW2NIXVtjSF1bY0hdW2NIXVtjSF0z

> <s_epik_cmdline>
J2VwaWtfcHl0aG9uJywgJy1waCcsICc3LjAnLCAnLXRuJywgJzgnLCAnLW1hJywgJzIwMCcsICctbWV0YWxfYmluZGluZycsICctaW1hZScsICc8aW5maWxlLm1hZT4nLCAnLW9tYWUnLCAnPG91dGZpbGUubWFlPic=

> <r_lp_tautomer_probability>
1

> <r_epik_Ionization_Penalty>
1.52183

> <r_epik_Ionization_Penalty_Charging>
1.5218

> <r_epik_Ionization_Penalty_Neutral>
2.92192e-05

> <r_epik_State_Penalty>
1.61369

> <r_epik_Charging_Adjusted_Penalty>
3.13549

> <i_epik_Tot_Q>
1

> <i_epik_Tot_abs_Q>
1

> <r_epik_Metal_State_Penalty>
5.66625

> <b_epik_Metal_Only>
0

> <s_lp_Force_Field>
OPLS_2005

> <r_lp_Energy>
19.9406

> <b_lp_Chiralities_Consistent>
1

> <s_lp_Variant>
AV-unprocessed.smi:2627-3

> <Gold.Version>
5.8.1

> <Gold.Id.Protein>
6NUR|6NUR_protein|mol2

> <Gold.PLP.Fitness>
53.1718

> <Gold.PLP.PLP>
-46.5793

> <Gold.PLP.part.hbond>
-4.4473

> <Gold.PLP.part.metal>
0.0000

> <Gold.PLP.part.buried>
-1.6895

> <Gold.PLP.part.nonpolar>
-40.6511

> <Gold.PLP.part.repulsive>
0.2086

> <Gold.PLP.ligand.clash>
0.0000

> <Gold.PLP.ligand.torsion>
1.2488

> <Gold.PLP.Chemscore.Hbond>
3.0000

> <Gold.PLP.Chemscore.CHOScore>
0.0000

> <Gold.PLP.Chemscore.Metal>
0.0000

> <Gold.Chemscore.Hbonds>
donor molecule, donor type, donor heavy atom, donor atom, acceptor molecule, acceptor atom, score
      L1  H     3    26       P1  7957  0.90
      L1  H     5    40       P1  7948  2.00

> <Gold.PLP.Chemscore.Internal.Correction>
0.0901

> <Gold.Rescore>
     Score         DG    S(hbond)    S(metal)    S(lipo)     H(rot)  DE(clash)    DE(int)     intcor
     14.67     -16.55       1.46        0.00      99.65       2.13       0.28       1.60       ----

> <Gold.Chemscore.Fitness>
14.6680

> <Gold.Chemscore.DG>
-16.5483

> <Gold.Chemscore.ZeroCoef>
-5.4800

> <Gold.Chemscore.Hbond>
1.4555

> <Gold.Chemscore.Metal>
0.0000

> <Gold.Chemscore.Lipo>
99.6530

> <Gold.Chemscore.Internal_Hbond>
0.0000

> <Gold.Chemscore.DEClash>
0.2832

> <Gold.Chemscore.DEInternal>
1.5971

> <Gold.Chemscore.Rot>
2.1299

> <Gold.Chemscore.Internal.Correction>
   9.000000E+99

> <Gold.Chemscore.Hbonds>
donor molecule, donor type, donor heavy atom, donor atom, acceptor molecule, acceptor atom, score
      L1  H     3    26       P1  7957  0.18
      L1  H     5    40       P1  7948  0.96

> <Gold.Chemscore.Hbond.Weighted>
-4.8615

> <Gold.Chemscore.Metal.Weighted>
-0.0000

> <Gold.Chemscore.Lipo.Weighted>
-11.6594

> <Gold.Chemscore.Internal_Hbond.Weighted>
0.0000

> <Gold.Chemscore.DEClash.Weighted>
0.2832

> <Gold.Chemscore.DEInternal.Weighted>
1.5971

> <Gold.Chemscore.Rot.Weighted>
5.4526

> <Gold.Chemscore.Internal.Correction.Weighted>
   9.000000E+99

> <Gold.Protein.RotatedTorsions>
[ 6907 6896 6895 6894 ] final   13.18 input  -60.11 | X-H torsion
[ 7974 7965 7964 7962 ] final   27.43 input  175.53 | X-H torsion
[ 8008 7997 7996 7995 ] final -176.25 input   59.86 | X-H torsion
[ 10167 10162 10161 10158 ] final -166.49 input  -65.29 | X-H torsion
[ 10718 10713 10712 10709 ] final -168.27 input   66.30 | X-H torsion
[ 10763 10752 10751 10750 ] final  106.49 input  -60.55 | X-H torsion
[ 11005 11000 10999 10996 ] final  125.11 input  -57.11 | X-H torsion

> <Gold.Protein.ActiveResidues>
 VAL166  LYS551  ARG553  GLY616  TRP617  ASP618  TYR619  PRO620  LYS621  CYS622 
 ASP623  PHE694  ASN695  SER759  ASP760  ASP761  ALA762  ILE779  LEU786  VAL792 
 PHE793  MET794  SER795  GLU796  ALA797  LYS798  CYS799  TRP800  GLU811  SER814 

> <Gold.Protein.RotatedAtoms>
  151.7821  135.0758  160.0375 H   0  0  0  0  0  0  0  0  0  0  0  0  # atno 6907 bound_to 6896
  152.3215  133.5855  159.5756 H   0  0  0  0  0  0  0  0  0  0  0  0  # atno 6908 bound_to 6896
  150.7372  133.9919  159.3652 H   0  0  0  0  0  0  0  0  0  0  0  0  # atno 6909 bound_to 6896
  146.1784  139.7192  142.8917 H   0  0  0  0  0  0  0  0  0  0  0  0  # atno 7974 bound_to 7965
  155.9925  140.1204  157.0624 H   0  0  0  0  0  0  0  0  0  0  0  0  # atno 8008 bound_to 7997
  154.4216  140.1123  156.5654 H   0  0  0  0  0  0  0  0  0  0  0  0  # atno 8009 bound_to 7997
  155.6323  140.3473  155.4689 H   0  0  0  0  0  0  0  0  0  0  0  0  # atno 8010 bound_to 7997
  139.6111  144.0812  152.1843 H   0  0  0  0  0  0  0  0  0  0  0  0  # atno 10167 bound_to 10162
  156.6945  130.9172  151.3073 H   0  0  0  0  0  0  0  0  0  0  0  0  # atno 10718 bound_to 10713
  153.3937  135.3875  155.1941 H   0  0  0  0  0  0  0  0  0  0  0  0  # atno 10763 bound_to 10752
  154.8722  135.3754  154.4705 H   0  0  0  0  0  0  0  0  0  0  0  0  # atno 10764 bound_to 10752
  153.5194  135.7087  153.5800 H   0  0  0  0  0  0  0  0  0  0  0  0  # atno 10765 bound_to 10752
  139.9391  134.9637  156.8510 H   0  0  0  0  0  0  0  0  0  0  0  0  # atno 11005 bound_to 11000
  145.4145  141.0400  143.2998 LP  0  0  0  0  0  0  0  0  0  0  0  0  # atno 17320 bound_to 7965
  144.8275  139.5685  143.6959 LP  0  0  0  0  0  0  0  0  0  0  0  0  # atno 17321 bound_to 7965
  140.0431  144.5991  150.7395 LP  0  0  0  0  0  0  0  0  0  0  0  0  # atno 17342 bound_to 10162
  140.7320  143.2700  151.3919 LP  0  0  0  0  0  0  0  0  0  0  0  0  # atno 17343 bound_to 10162
  157.6996  130.9319  150.0747 LP  0  0  0  0  0  0  0  0  0  0  0  0  # atno 17370 bound_to 10713
  156.1773  130.3648  149.9082 LP  0  0  0  0  0  0  0  0  0  0  0  0  # atno 17371 bound_to 10713
  140.5999  134.0182  155.7533 LP  0  0  0  0  0  0  0  0  0  0  0  0  # atno 17394 bound_to 11000
  141.1018  133.9757  157.3066 LP  0  0  0  0  0  0  0  0  0  0  0  0  # atno 17395 bound_to 11000

$$$$
