AV-unprocessed.smi:1974|AV-procd|sdf|7981|dock1
  -GOLD-   2272010163D 1   1.00000     0.00000
 Structure written by MMmdl.
 34 35  0  0  0  0  0  0  0  0  1 V2000
  150.8241  136.1127  155.6328 C   0  0  0  0  0  0  0  0  0  0  0  0
  150.9528  137.6201  155.3639 C   0  0  1  0  0  0  0  0  0  0  0  0
  150.0142  138.0722  154.2285 C   0  0  0  0  0  0  0  0  0  0  0  0
  149.4728  139.4007  154.4563 N   0  0  0  0  0  0  0  0  0  0  0  0
  148.1721  139.8315  154.3020 C   0  0  0  0  0  0  0  0  0  0  0  0
  148.1430  141.1582  154.6238 C   0  0  0  0  0  0  0  0  0  0  0  0
  149.4921  141.4525  154.9675 C   0  0  0  0  0  0  0  0  0  0  0  0
  150.2857  140.3984  154.8668 N   0  0  0  0  0  0  0  0  0  0  0  0
  150.6615  138.3685  156.5848 N   0  0  0  0  0  0  0  0  0  0  0  0
  151.4394  139.3213  157.1197 C   0  0  0  0  0  0  0  0  0  0  0  0
  152.5061  139.6826  156.6208 O   0  0  0  0  0  0  0  0  0  0  0  0
  150.9124  139.9755  158.4030 C   0  0  0  0  0  0  0  0  0  0  0  0
  151.7295  141.1066  158.8468 N   0  0  0  0  0  0  0  0  0  0  0  0
  151.1226  142.4279  158.9491 C   0  0  0  0  0  0  0  0  0  0  0  0
  152.0710  143.3209  159.7519 C   0  0  0  0  0  0  0  0  0  0  0  0
  153.7265  142.6163  159.6242 S   0  0  0  0  0  0  0  0  0  0  0  0
  153.0911  141.0183  159.1077 C   0  0  0  0  0  0  0  0  0  0  0  0
  153.8099  140.0247  159.0147 O   0  0  0  0  0  0  0  0  0  0  0  0
  151.0532  135.5340  154.7376 H   0  0  0  0  0  0  0  0  0  0  0  0
  149.8139  135.8503  155.9491 H   0  0  0  0  0  0  0  0  0  0  0  0
  151.5123  135.7904  156.4152 H   0  0  0  0  0  0  0  0  0  0  0  0
  151.9796  137.8225  155.0526 H   0  0  0  0  0  0  0  0  0  0  0  0
  150.5559  138.0925  153.2820 H   0  0  0  0  0  0  0  0  0  0  0  0
  149.1924  137.3655  154.1002 H   0  0  0  0  0  0  0  0  0  0  0  0
  147.3856  139.1660  153.9774 H   0  0  0  0  0  0  0  0  0  0  0  0
  147.2882  141.8181  154.6146 H   0  0  0  0  0  0  0  0  0  0  0  0
  149.9154  142.3941  155.2851 H   0  0  0  0  0  0  0  0  0  0  0  0
  149.7955  138.1473  157.0549 H   0  0  0  0  0  0  0  0  0  0  0  0
  149.8874  140.3028  158.2256 H   0  0  0  0  0  0  0  0  0  0  0  0
  150.8638  139.2336  159.2023 H   0  0  0  0  0  0  0  0  0  0  0  0
  150.9920  142.8249  157.9416 H   0  0  0  0  0  0  0  0  0  0  0  0
  150.1383  142.3826  159.4167 H   0  0  0  0  0  0  0  0  0  0  0  0
  152.0546  144.3550  159.4075 H   0  0  0  0  0  0  0  0  0  0  0  0
  151.7850  143.3158  160.8041 H   0  0  0  0  0  0  0  0  0  0  0  0
  1  2  1  0  0  0  0
  1 19  1  0  0  0  0
  1 20  1  0  0  0  0
  1 21  1  0  0  0  0
  2  3  1  0  0  0  0
  2  9  1  0  0  0  0
  2 22  1  0  0  0  0
  3  4  1  0  0  0  0
  3 23  1  0  0  0  0
  3 24  1  0  0  0  0
  4  8  1  0  0  0  0
  4  5  1  0  0  0  0
  5  6  2  0  0  0  0
  5 25  1  0  0  0  0
  6  7  1  0  0  0  0
  6 26  1  0  0  0  0
  7  8  2  0  0  0  0
  7 27  1  0  0  0  0
  9 10  1  0  0  0  0
  9 28  1  0  0  0  0
 10 11  2  0  0  0  0
 10 12  1  0  0  0  0
 12 13  1  0  0  0  0
 12 29  1  0  0  0  0
 12 30  1  0  0  0  0
 13 17  1  0  0  0  0
 13 14  1  0  0  0  0
 14 15  1  0  0  0  0
 14 31  1  0  0  0  0
 14 32  1  0  0  0  0
 15 16  1  0  0  0  0
 15 33  1  0  0  0  0
 15 34  1  0  0  0  0
 16 17  1  0  0  0  0
 17 18  2  0  0  0  0
M  END
> <s_m_source_file>
AV-unprocessed.smi

> <i_m_source_file_index>
1974

> <i_lp_mmshare_version>
43012

> <i_f3d_flags>
0

> <s_epik_input>
bjFbY0hdW2NIXVtjSF1uMVtDSDJdW0NAQEhdKFtDSDNdKVtOSF1DKD1PKVtDSDJdTjJbQ0gyXVtDSDJdU0MyPU8=

> <s_epik_cmdline>
J2VwaWtfcHl0aG9uJywgJy1waCcsICc3LjAnLCAnLXRuJywgJzgnLCAnLW1hJywgJzIwMCcsICctbWV0YWxfYmluZGluZycsICctaW1hZScsICc8aW5maWxlLm1hZT4nLCAnLW9tYWUnLCAnPG91dGZpbGUubWFlPic=

> <r_lp_tautomer_probability>
1

> <r_epik_Ionization_Penalty>
0.000283364

> <r_epik_Ionization_Penalty_Charging>
0

> <r_epik_Ionization_Penalty_Neutral>
0.000283364

> <r_epik_State_Penalty>
-0

> <r_epik_Charging_Adjusted_Penalty>
0

> <i_epik_Tot_Q>
0

> <i_epik_Tot_abs_Q>
0

> <r_epik_Metal_State_Penalty>
-0

> <b_epik_Metal_Only>
0

> <s_lp_Force_Field>
OPLS_2005

> <r_lp_Energy>
3.37474

> <b_lp_Chiralities_Consistent>
1

> <s_lp_Variant>
AV-unprocessed.smi:1974-2

> <Gold.Version>
5.8.1

> <Gold.Id.Protein>
6NUR|6NUR_protein|mol2

> <Gold.PLP.Fitness>
39.9934

> <Gold.PLP.PLP>
-32.6853

> <Gold.PLP.part.hbond>
-3.0000

> <Gold.PLP.part.metal>
0.0000

> <Gold.PLP.part.buried>
-2.0311

> <Gold.PLP.part.nonpolar>
-28.2530

> <Gold.PLP.part.repulsive>
0.0932

> <Gold.PLP.ligand.clash>
0.0000

> <Gold.PLP.ligand.torsion>
0.8317

> <Gold.PLP.Chemscore.Hbond>
1.9760

> <Gold.PLP.Chemscore.CHOScore>
1.0000

> <Gold.PLP.Chemscore.Metal>
0.0000

> <Gold.Chemscore.Hbonds>
donor molecule, donor type, donor heavy atom, donor atom, acceptor molecule, acceptor atom, score
      P1  H  7989  7998       L1     8  1.00
      P1  H  7997  8009       L1    18  0.94
      L1  C     7    27       P1  8028  0.91

> <Gold.PLP.Chemscore.Internal.Correction>
0.0435

> <Gold.Rescore>
     Score         DG    S(hbond)    S(metal)    S(lipo)     H(rot)  DE(clash)    DE(int)     intcor
     11.37     -14.55       1.76        0.00      71.90       2.04       0.04       3.14       ----

> <Gold.Chemscore.Fitness>
11.3720

> <Gold.Chemscore.DG>
-14.5536

> <Gold.Chemscore.ZeroCoef>
-5.4800

> <Gold.Chemscore.Hbond>
1.7620

> <Gold.Chemscore.Metal>
0.0000

> <Gold.Chemscore.Lipo>
71.8998

> <Gold.Chemscore.Internal_Hbond>
0.0000

> <Gold.Chemscore.DEClash>
0.0419

> <Gold.Chemscore.DEInternal>
3.1397

> <Gold.Chemscore.Rot>
2.0405

> <Gold.Chemscore.Internal.Correction>
   9.000000E+99

> <Gold.Chemscore.Hbonds>
donor molecule, donor type, donor heavy atom, donor atom, acceptor molecule, acceptor atom, score
      P1  H  7989  7998       L1     8  0.38
      P1  H  7997  8009       L1    18  0.68

> <Gold.Chemscore.Hbond.Weighted>
-5.8850

> <Gold.Chemscore.Metal.Weighted>
-0.0000

> <Gold.Chemscore.Lipo.Weighted>
-8.4123

> <Gold.Chemscore.Internal_Hbond.Weighted>
0.0000

> <Gold.Chemscore.DEClash.Weighted>
0.0419

> <Gold.Chemscore.DEInternal.Weighted>
3.1397

> <Gold.Chemscore.Rot.Weighted>
5.2237

> <Gold.Chemscore.Internal.Correction.Weighted>
   9.000000E+99

> <Gold.Protein.RotatedTorsions>
[ 6907 6896 6895 6894 ] final  161.15 input  -60.11 | X-H torsion
[ 7974 7965 7964 7962 ] final -170.75 input  175.53 | X-H torsion
[ 8008 7997 7996 7995 ] final  136.60 input   59.86 | X-H torsion
[ 10167 10162 10161 10158 ] final  -15.16 input  -65.29 | X-H torsion
[ 10718 10713 10712 10709 ] final -137.47 input   66.30 | X-H torsion
[ 10763 10752 10751 10750 ] final -176.55 input  -60.55 | X-H torsion
[ 11005 11000 10999 10996 ] final   42.30 input  -57.11 | X-H torsion

> <Gold.Protein.ActiveResidues>
 VAL166  LYS551  ARG553  GLY616  TRP617  ASP618  TYR619  PRO620  LYS621  CYS622 
 ASP623  PHE694  ASN695  SER759  ASP760  ASP761  ALA762  ILE779  LEU786  VAL792 
 PHE793  MET794  SER795  GLU796  ALA797  LYS798  CYS799  TRP800  GLU811  SER814 

> <Gold.Protein.RotatedAtoms>
  151.9599  133.3692  159.4031 H   0  0  0  0  0  0  0  0  0  0  0  0  # atno 6907 bound_to 6896
  150.6966  134.4252  159.5232 H   0  0  0  0  0  0  0  0  0  0  0  0  # atno 6908 bound_to 6896
  152.1939  134.8648  160.0565 H   0  0  0  0  0  0  0  0  0  0  0  0  # atno 6909 bound_to 6896
  144.7166  140.2026  143.6336 H   0  0  0  0  0  0  0  0  0  0  0  0  # atno 7974 bound_to 7965
  156.3004  140.2441  156.3772 H   0  0  0  0  0  0  0  0  0  0  0  0  # atno 8008 bound_to 7997
  154.8735  140.0415  157.1758 H   0  0  0  0  0  0  0  0  0  0  0  0  # atno 8009 bound_to 7997
  154.8771  140.2943  155.5451 H   0  0  0  0  0  0  0  0  0  0  0  0  # atno 8010 bound_to 7997
  140.7214  143.5246  150.9592 H   0  0  0  0  0  0  0  0  0  0  0  0  # atno 10167 bound_to 10162
  156.2884  130.7361  151.1379 H   0  0  0  0  0  0  0  0  0  0  0  0  # atno 10718 bound_to 10713
  154.5709  135.2828  155.0828 H   0  0  0  0  0  0  0  0  0  0  0  0  # atno 10763 bound_to 10752
  154.2200  135.6393  153.5145 H   0  0  0  0  0  0  0  0  0  0  0  0  # atno 10764 bound_to 10752
  153.0057  135.5512  154.6333 H   0  0  0  0  0  0  0  0  0  0  0  0  # atno 10765 bound_to 10752
  140.1752  134.4172  155.8233 H   0  0  0  0  0  0  0  0  0  0  0  0  # atno 11005 bound_to 11000
  145.8666  139.2250  143.1685 LP  0  0  0  0  0  0  0  0  0  0  0  0  # atno 17320 bound_to 7965
  146.0124  140.8423  142.9964 LP  0  0  0  0  0  0  0  0  0  0  0  0  # atno 17321 bound_to 7965
  139.8965  143.6889  152.3138 LP  0  0  0  0  0  0  0  0  0  0  0  0  # atno 17342 bound_to 10162
  139.7223  144.7600  151.0935 LP  0  0  0  0  0  0  0  0  0  0  0  0  # atno 17343 bound_to 10162
  157.7335  131.0590  150.5572 LP  0  0  0  0  0  0  0  0  0  0  0  0  # atno 17370 bound_to 10713
  156.5685  130.4274  149.6030 LP  0  0  0  0  0  0  0  0  0  0  0  0  # atno 17371 bound_to 10713
  141.2220  133.6974  156.7834 LP  0  0  0  0  0  0  0  0  0  0  0  0  # atno 17394 bound_to 11000
  140.2331  134.8671  157.3497 LP  0  0  0  0  0  0  0  0  0  0  0  0  # atno 17395 bound_to 11000

$$$$
