AV-unprocessed.smi:102|AV-procd|sdf|961|dock1
  -GOLD-   2262017503D 1   1.00000     0.00000
 Structure written by MMmdl.
 43 44  0  0  0  0  0  0  0  0  2 V2000
  152.0335  144.0283  161.1855 C   0  0  0  0  0  0  0  0  0  0  0  0
  151.2690  144.0045  159.8689 C   0  0  0  0  0  0  0  0  0  0  0  0
  151.1031  145.0276  159.2048 O   0  0  0  0  0  0  0  0  0  0  0  0
  150.8267  142.7734  159.5561 O   0  0  0  0  0  0  0  0  0  0  0  0
  150.1100  142.5486  158.3493 C   0  0  0  0  0  0  0  0  0  0  0  0
  150.4968  141.1962  157.7322 C   0  0  2  0  0  0  0  0  0  0  0  0
  151.9062  141.0040  157.7884 O   0  0  0  0  0  0  0  0  0  0  0  0
  152.3042  140.0914  156.8061 C   0  0  1  0  0  0  0  0  0  0  0  0
  152.7152  138.7875  157.4644 N   0  0  0  0  0  0  0  0  0  0  0  0
  152.7458  138.6488  158.8427 C   0  0  0  0  0  0  0  0  0  0  0  0
  153.1009  137.4827  159.4192 C   0  0  0  0  0  0  0  0  0  0  0  0
  153.1202  137.3778  160.7591 F   0  0  0  0  0  0  0  0  0  0  0  0
  153.4615  136.3409  158.5808 C   0  0  0  0  0  0  0  0  0  0  0  0
  153.7842  135.2800  159.1131 O   0  0  0  0  0  0  0  0  0  0  0  0
  153.4224  136.5059  157.2268 N   0  5  0  0  0  0  0  0  0  0  0  0
  153.0609  137.6835  156.6385 C   0  0  0  0  0  0  0  0  0  0  0  0
  153.0090  137.8404  155.4185 O   0  0  0  0  0  0  0  0  0  0  0  0
  151.1146  139.9280  155.8306 C   0  0  1  0  0  0  0  0  0  0  0  0
  150.4418  138.6858  156.0485 O   0  0  0  0  0  0  0  0  0  0  0  0
  149.5928  138.1905  155.1319 C   0  0  0  0  0  0  0  0  0  0  0  0
  149.0100  136.8476  155.5502 C   0  0  0  0  0  0  0  0  0  0  0  0
  149.2822  138.7208  154.0654 O   0  0  0  0  0  0  0  0  0  0  0  0
  150.2355  141.1082  156.2328 C   0  0  1  0  0  0  0  0  0  0  0  0
  148.8565  140.9171  155.9372 O   0  0  0  0  0  0  0  0  0  0  0  0
  148.3713  141.2566  154.7304 C   0  0  0  0  0  0  0  0  0  0  0  0
  146.8732  141.0088  154.6172 C   0  0  0  0  0  0  0  0  0  0  0  0
  149.0215  141.7093  153.7883 O   0  0  0  0  0  0  0  0  0  0  0  0
  151.3867  143.7151  162.0049 H   0  0  0  0  0  0  0  0  0  0  0  0
  152.3990  145.0333  161.3972 H   0  0  0  0  0  0  0  0  0  0  0  0
  152.8880  143.3529  161.1392 H   0  0  0  0  0  0  0  0  0  0  0  0
  149.0514  142.5322  158.6090 H   0  0  0  0  0  0  0  0  0  0  0  0
  150.2421  143.3646  157.6373 H   0  0  0  0  0  0  0  0  0  0  0  0
  149.9885  140.3771  158.2446 H   0  0  0  0  0  0  0  0  0  0  0  0
  153.2068  140.4806  156.3322 H   0  0  0  0  0  0  0  0  0  0  0  0
  152.4820  139.4769  159.4825 H   0  0  0  0  0  0  0  0  0  0  0  0
  151.4772  140.0222  154.8061 H   0  0  0  0  0  0  0  0  0  0  0  0
  148.9401  136.7795  156.6361 H   0  0  0  0  0  0  0  0  0  0  0  0
  149.6452  136.0368  155.1930 H   0  0  0  0  0  0  0  0  0  0  0  0
  148.0121  136.7179  155.1310 H   0  0  0  0  0  0  0  0  0  0  0  0
  150.6117  142.0192  155.7638 H   0  0  0  0  0  0  0  0  0  0  0  0
  146.3462  141.4752  155.4498 H   0  0  0  0  0  0  0  0  0  0  0  0
  146.6672  139.9385  154.6307 H   0  0  0  0  0  0  0  0  0  0  0  0
  146.4855  141.4239  153.6868 H   0  0  0  0  0  0  0  0  0  0  0  0
  1  2  1  0  0  0  0
  1 28  1  0  0  0  0
  1 29  1  0  0  0  0
  1 30  1  0  0  0  0
  2  3  2  0  0  0  0
  2  4  1  0  0  0  0
  4  5  1  0  0  0  0
  5  6  1  0  0  0  0
  5 31  1  0  0  0  0
  5 32  1  0  0  0  0
  6 23  1  0  0  0  0
  6  7  1  0  0  0  0
  6 33  1  0  0  0  0
  7  8  1  0  0  0  0
  8  9  1  0  0  0  0
  8 18  1  0  0  0  0
  8 34  1  0  0  0  0
  9 16  1  0  0  0  0
  9 10  1  0  0  0  0
 10 11  2  0  0  0  0
 10 35  1  0  0  0  0
 11 12  1  0  0  0  0
 11 13  1  0  0  0  0
 13 14  2  0  0  0  0
 13 15  1  0  0  0  0
 15 16  1  0  0  0  0
 16 17  2  0  0  0  0
 18 19  1  0  0  0  0
 18 23  1  0  0  0  0
 18 36  1  0  0  0  0
 19 20  1  0  0  0  0
 20 21  1  0  0  0  0
 20 22  2  0  0  0  0
 21 37  1  0  0  0  0
 21 38  1  0  0  0  0
 21 39  1  0  0  0  0
 23 24  1  0  0  0  0
 23 40  1  0  0  0  0
 24 25  1  0  0  0  0
 25 26  1  0  0  0  0
 25 27  2  0  0  0  0
 26 41  1  0  0  0  0
 26 42  1  0  0  0  0
 26 43  1  0  0  0  0
M  CHG  1  15  -1
M  END
> <s_m_source_file>
AV-unprocessed.smi

> <i_m_source_file_index>
102

> <i_lp_mmshare_version>
43012

> <i_f3d_flags>
0

> <s_epik_input>
W0NIM11DKD1PKU9bQ0gyXVtDQEBIXTFPW0NASF0oW0NAQEhdKE9DKD1PKVtDSDNdKVtDQEhdMU9DKD1PKVtDSDNdKW4yW2NIXWMoRiljKD1PKVtuSF1jMj1P

> <s_epik_cmdline>
J2VwaWtfcHl0aG9uJywgJy1waCcsICc3LjAnLCAnLXRuJywgJzgnLCAnLW1hJywgJzIwMCcsICctbWV0YWxfYmluZGluZycsICctaW1hZScsICc8aW5maWxlLm1hZT4nLCAnLW9tYWUnLCAnPG91dGZpbGUubWFlPic=

> <r_epik_Ionization_Penalty>
1.40304

> <r_epik_Ionization_Penalty_Charging>
1.43915e-08

> <r_epik_Ionization_Penalty_Neutral>
1.40304

> <r_epik_State_Penalty>
1.48536

> <r_epik_Charging_Adjusted_Penalty>
1.48536

> <i_epik_Tot_Q>
-1

> <i_epik_Tot_abs_Q>
1

> <r_epik_Metal_State_Penalty>
0.00663881

> <b_epik_Metal_Only>
0

> <s_epik_Chemistry_Notes>
This compound has an ester and may undergo hydrolysis at high or low pH. This compound contains an acetal/aminal-like group ( X-CH(R)-Y where X, Y are N, S, or O) that may be acid/base labile, releasing an aldehyde.

> <s_lp_Force_Field>
OPLS_2005

> <r_lp_Energy>
23.8996

> <b_lp_Chiralities_Consistent>
1

> <s_lp_Variant>
AV-unprocessed.smi:102-17

> <Gold.Version>
5.8.1

> <Gold.Id.Protein>
6NUR|6NUR_protein|mol2

> <Gold.PLP.Fitness>
43.2721

> <Gold.PLP.PLP>
-33.4691

> <Gold.PLP.part.hbond>
-5.8906

> <Gold.PLP.part.metal>
0.0000

> <Gold.PLP.part.buried>
-2.6665

> <Gold.PLP.part.nonpolar>
-25.2138

> <Gold.PLP.part.repulsive>
0.9225

> <Gold.PLP.ligand.clash>
0.0000

> <Gold.PLP.ligand.torsion>
0.9558

> <Gold.PLP.Chemscore.Hbond>
3.6168

> <Gold.PLP.Chemscore.CHOScore>
0.0000

> <Gold.PLP.Chemscore.Metal>
0.0000

> <Gold.Chemscore.Hbonds>
donor molecule, donor type, donor heavy atom, donor atom, acceptor molecule, acceptor atom, score
      P1  H  6896  6909       L1    14  0.94
      P1  H  8011  8017       L1    27  0.62
      P1  H 10752 10763       L1    15  0.90

> <Gold.PLP.Chemscore.Internal.Correction>
0.8644

> <Gold.Rescore>
     Score         DG    S(hbond)    S(metal)    S(lipo)     H(rot)  DE(clash)    DE(int)     intcor
      2.56      -7.61       1.81        0.00      53.97       4.00       3.12       1.94       ----

> <Gold.Chemscore.Fitness>
2.5592

> <Gold.Chemscore.DG>
-7.6115

> <Gold.Chemscore.ZeroCoef>
-5.4800

> <Gold.Chemscore.Hbond>
1.8096

> <Gold.Chemscore.Metal>
0.0000

> <Gold.Chemscore.Lipo>
53.9741

> <Gold.Chemscore.Internal_Hbond>
0.0000

> <Gold.Chemscore.DEClash>
3.1158

> <Gold.Chemscore.DEInternal>
1.9364

> <Gold.Chemscore.Rot>
3.9951

> <Gold.Chemscore.Internal.Correction>
   9.000000E+99

> <Gold.Chemscore.Hbonds>
donor molecule, donor type, donor heavy atom, donor atom, acceptor molecule, acceptor atom, score
      P1  H  6896  6909       L1    14  0.87
      P1  H  8011  8017       L1    27  0.62
      P1  H 10752 10763       L1    15  0.10

> <Gold.Chemscore.Hbond.Weighted>
-6.0439

> <Gold.Chemscore.Metal.Weighted>
-0.0000

> <Gold.Chemscore.Lipo.Weighted>
-6.3150

> <Gold.Chemscore.Internal_Hbond.Weighted>
0.0000

> <Gold.Chemscore.DEClash.Weighted>
3.1158

> <Gold.Chemscore.DEInternal.Weighted>
1.9364

> <Gold.Chemscore.Rot.Weighted>
10.2274

> <Gold.Chemscore.Internal.Correction.Weighted>
   9.000000E+99

> <Gold.Protein.RotatedTorsions>
[ 6907 6896 6895 6894 ] final -160.59 input  -60.11 | X-H torsion
[ 7974 7965 7964 7962 ] final  -87.80 input  175.53 | X-H torsion
[ 8008 7997 7996 7995 ] final   97.77 input   59.86 | X-H torsion
[ 10167 10162 10161 10158 ] final   89.29 input  -65.29 | X-H torsion
[ 10718 10713 10712 10709 ] final -166.09 input   66.30 | X-H torsion
[ 10763 10752 10751 10750 ] final  143.44 input  -60.55 | X-H torsion
[ 11005 11000 10999 10996 ] final   58.77 input  -57.11 | X-H torsion

> <Gold.Protein.ActiveResidues>
 VAL166  LYS551  ARG553  GLY616  TRP617  ASP618  TYR619  PRO620  LYS621  CYS622 
 ASP623  PHE694  ASN695  SER759  ASP760  ASP761  ALA762  ILE779  LEU786  VAL792 
 PHE793  MET794  SER795  GLU796  ALA797  LYS798  CYS799  TRP800  GLU811  SER814 

> <Gold.Protein.RotatedAtoms>
  151.3515  133.3923  159.2680 H   0  0  0  0  0  0  0  0  0  0  0  0  # atno 6907 bound_to 6896
  150.9797  134.9156  159.7847 H   0  0  0  0  0  0  0  0  0  0  0  0  # atno 6908 bound_to 6896
  152.5213  134.3478  159.9292 H   0  0  0  0  0  0  0  0  0  0  0  0  # atno 6909 bound_to 6896
  145.4616  140.9561  143.1966 H   0  0  0  0  0  0  0  0  0  0  0  0  # atno 7974 bound_to 7965
  156.0936  140.3253  155.7848 H   0  0  0  0  0  0  0  0  0  0  0  0  # atno 8008 bound_to 7997
  155.4956  140.0565  157.2964 H   0  0  0  0  0  0  0  0  0  0  0  0  # atno 8009 bound_to 7997
  154.4652  140.1986  156.0152 H   0  0  0  0  0  0  0  0  0  0  0  0  # atno 8010 bound_to 7997
  139.8588  144.6555  150.9083 H   0  0  0  0  0  0  0  0  0  0  0  0  # atno 10167 bound_to 10162
  156.6629  130.9053  151.3032 H   0  0  0  0  0  0  0  0  0  0  0  0  # atno 10718 bound_to 10713
  153.9723  135.2949  155.3426 H   0  0  0  0  0  0  0  0  0  0  0  0  # atno 10763 bound_to 10752
  154.7315  135.5065  153.8975 H   0  0  0  0  0  0  0  0  0  0  0  0  # atno 10764 bound_to 10752
  153.0894  135.6703  153.9997 H   0  0  0  0  0  0  0  0  0  0  0  0  # atno 10765 bound_to 10752
  140.0353  134.5953  155.9453 H   0  0  0  0  0  0  0  0  0  0  0  0  # atno 11005 bound_to 11000
  144.7999  139.6161  143.7076 LP  0  0  0  0  0  0  0  0  0  0  0  0  # atno 17320 bound_to 7965
  146.2448  139.6075  142.9467 LP  0  0  0  0  0  0  0  0  0  0  0  0  # atno 17321 bound_to 7965
  140.7778  143.3763  151.1558 LP  0  0  0  0  0  0  0  0  0  0  0  0  # atno 17342 bound_to 10162
  139.7394  143.8948  152.3045 LP  0  0  0  0  0  0  0  0  0  0  0  0  # atno 17343 bound_to 10162
  157.7103  130.9433  150.1068 LP  0  0  0  0  0  0  0  0  0  0  0  0  # atno 17370 bound_to 10713
  156.1997  130.3659  149.8804 LP  0  0  0  0  0  0  0  0  0  0  0  0  # atno 17371 bound_to 10713
  141.1853  133.6555  156.5194 LP  0  0  0  0  0  0  0  0  0  0  0  0  # atno 17394 bound_to 11000
  140.4158  134.7231  157.4862 LP  0  0  0  0  0  0  0  0  0  0  0  0  # atno 17395 bound_to 11000

$$$$
