AV-unprocessed.smi:2520|AV-procd|sdf|9911|dock6
  -GOLD-   2272013543D 1   1.00000     0.00000
 Structure written by MMmdl.
 41 44  0  0  0  0  0  0  0  0  1 V2000
  145.2424  137.1884  154.2738 O   0  0  0  0  0  0  0  0  0  0  0  0
  146.1905  137.0668  153.5002 C   0  0  0  0  0  0  0  0  0  0  0  0
  146.2016  136.0997  152.5586 N   0  0  0  0  0  0  0  0  0  0  0  0
  145.2518  135.0853  152.2417 C   0  0  0  0  0  0  0  0  0  0  0  0
  145.4280  134.4838  150.9772 C   0  0  0  0  0  0  0  0  0  0  0  0
  144.5276  133.4801  150.5816 C   0  0  0  0  0  0  0  0  0  0  0  0
  143.5019  133.1448  151.4815 C   0  0  0  0  0  0  0  0  0  0  0  0
  143.3656  133.7490  152.6815 N   0  0  0  0  0  0  0  0  0  0  0  0
  144.2265  134.7035  153.0495 N   0  0  0  0  0  0  0  0  0  0  0  0
  147.2615  137.8751  153.5335 N   0  0  0  0  0  0  0  0  0  0  0  0
  147.4580  138.9566  154.4906 C   0  0  2  0  0  0  0  0  0  0  0  0
  147.3167  140.3440  153.8438 C   0  0  1  0  0  0  0  0  0  0  0  0
  146.1811  141.2440  154.2471 C   0  0  0  0  0  0  0  0  0  0  0  0
  146.8126  142.1246  155.3293 C   0  0  0  0  0  0  0  0  0  0  0  0
  147.9340  141.3761  155.7944 O   0  0  0  0  0  0  0  0  0  0  0  0
  148.5334  140.7541  154.6601 C   0  0  1  0  0  0  0  0  0  0  0  0
  148.9389  139.2717  154.8067 C   0  0  0  0  0  0  0  0  0  0  0  0
  150.0369  138.7978  153.8499 C   0  0  0  0  0  0  0  0  0  0  0  0
  151.3666  139.0220  154.5711 C   0  0  0  0  0  0  0  0  0  0  0  0
  151.0348  138.9512  156.0650 C   0  0  0  0  0  0  0  0  0  0  0  0
  149.5093  138.8279  156.1510 C   0  0  0  0  0  0  0  0  0  0  0  0
  147.0038  136.1239  151.9464 H   0  0  0  0  0  0  0  0  0  0  0  0
  146.2347  134.7817  150.3233 H   0  0  0  0  0  0  0  0  0  0  0  0
  144.6196  132.9864  149.6255 H   0  0  0  0  0  0  0  0  0  0  0  0
  142.7786  132.3813  151.2362 H   0  0  0  0  0  0  0  0  0  0  0  0
  148.0001  137.7143  152.8633 H   0  0  0  0  0  0  0  0  0  0  0  0
  146.8546  138.8665  155.3969 H   0  0  0  0  0  0  0  0  0  0  0  0
  147.5366  140.3353  152.7744 H   0  0  0  0  0  0  0  0  0  0  0  0
  145.8013  141.8393  153.4163 H   0  0  0  0  0  0  0  0  0  0  0  0
  145.3508  140.6649  154.6520 H   0  0  0  0  0  0  0  0  0  0  0  0
  147.1662  143.0634  154.9006 H   0  0  0  0  0  0  0  0  0  0  0  0
  146.1210  142.3581  156.1389 H   0  0  0  0  0  0  0  0  0  0  0  0
  149.2344  141.3976  154.1264 H   0  0  0  0  0  0  0  0  0  0  0  0
  149.9310  137.7329  153.6397 H   0  0  0  0  0  0  0  0  0  0  0  0
  150.0103  139.3141  152.8898 H   0  0  0  0  0  0  0  0  0  0  0  0
  152.1180  138.2887  154.2770 H   0  0  0  0  0  0  0  0  0  0  0  0
  151.7579  140.0109  154.3287 H   0  0  0  0  0  0  0  0  0  0  0  0
  151.5232  138.1044  156.5483 H   0  0  0  0  0  0  0  0  0  0  0  0
  151.3757  139.8572  156.5674 H   0  0  0  0  0  0  0  0  0  0  0  0
  149.1115  139.4025  156.9876 H   0  0  0  0  0  0  0  0  0  0  0  0
  149.2424  137.7867  156.3366 H   0  0  0  0  0  0  0  0  0  0  0  0
  1  2  2  0  0  0  0
  2  3  1  0  0  0  0
  2 10  1  0  0  0  0
  3  4  1  0  0  0  0
  3 22  1  0  0  0  0
  4  9  1  0  0  0  0
  4  5  2  0  0  0  0
  5  6  1  0  0  0  0
  5 23  1  0  0  0  0
  6  7  2  0  0  0  0
  6 24  1  0  0  0  0
  7  8  1  0  0  0  0
  7 25  1  0  0  0  0
  8  9  2  0  0  0  0
 10 11  1  0  0  0  0
 10 26  1  0  0  0  0
 11 17  1  0  0  0  0
 11 12  1  0  0  0  0
 11 27  1  0  0  0  0
 12 16  1  0  0  0  0
 12 13  1  0  0  0  0
 12 28  1  0  0  0  0
 13 14  1  0  0  0  0
 13 29  1  0  0  0  0
 13 30  1  0  0  0  0
 14 15  1  0  0  0  0
 14 31  1  0  0  0  0
 14 32  1  0  0  0  0
 15 16  1  0  0  0  0
 16 17  1  0  0  0  0
 16 33  1  0  0  0  0
 17 21  1  0  0  0  0
 17 18  1  0  0  0  0
 18 19  1  0  0  0  0
 18 34  1  0  0  0  0
 18 35  1  0  0  0  0
 19 20  1  0  0  0  0
 19 36  1  0  0  0  0
 19 37  1  0  0  0  0
 20 21  1  0  0  0  0
 20 38  1  0  0  0  0
 20 39  1  0  0  0  0
 21 40  1  0  0  0  0
 21 41  1  0  0  0  0
M  END
> <s_m_source_file>
AV-unprocessed.smi

> <i_m_source_file_index>
2520

> <i_lp_mmshare_version>
43012

> <i_f3d_flags>
0

> <s_epik_input>
bjFuW2NIXVtjSF1bY0hdYzFbTkhdQyg9TylbTkhdW0NAQEhdMltDQEBIXShbQ0gyXVtDSDJdTzMpW0NASF0zQzI0W0NIMl1bQ0gyXVtDSDJdW0NIMl00

> <s_epik_cmdline>
J2VwaWtfcHl0aG9uJywgJy1waCcsICc3LjAnLCAnLXRuJywgJzgnLCAnLW1hJywgJzIwMCcsICctbWV0YWxfYmluZGluZycsICctaW1hZScsICc8aW5maWxlLm1hZT4nLCAnLW9tYWUnLCAnPG91dGZpbGUubWFlPic=

> <r_lp_tautomer_probability>
1

> <r_epik_Ionization_Penalty>
0.00552561

> <r_epik_Ionization_Penalty_Charging>
0

> <r_epik_Ionization_Penalty_Neutral>
0.00552561

> <r_epik_State_Penalty>
-0

> <r_epik_Charging_Adjusted_Penalty>
0

> <i_epik_Tot_Q>
0

> <i_epik_Tot_abs_Q>
0

> <r_epik_Metal_State_Penalty>
-0

> <b_epik_Metal_Only>
0

> <s_lp_Force_Field>
OPLS_2005

> <r_lp_Energy>
61.2745

> <b_lp_Chiralities_Consistent>
1

> <s_lp_Variant>
AV-unprocessed.smi:2520-5

> <Gold.Version>
5.8.1

> <Gold.Id.Protein>
6NUR|6NUR_protein|mol2

> <Gold.PLP.Fitness>
34.4823

> <Gold.PLP.PLP>
-28.4377

> <Gold.PLP.part.hbond>
-2.0000

> <Gold.PLP.part.metal>
0.0000

> <Gold.PLP.part.buried>
1.1277

> <Gold.PLP.part.nonpolar>
-28.4735

> <Gold.PLP.part.repulsive>
0.6139

> <Gold.PLP.ligand.clash>
0.0000

> <Gold.PLP.ligand.torsion>
0.3032

> <Gold.PLP.Chemscore.Hbond>
1.9280

> <Gold.PLP.Chemscore.CHOScore>
0.2272

> <Gold.PLP.Chemscore.Metal>
0.0000

> <Gold.Chemscore.Hbonds>
donor molecule, donor type, donor heavy atom, donor atom, acceptor molecule, acceptor atom, score
      L1  H     3    22       P1  7948  0.93
      L1  H    10    26       P1  7948  0.86

> <Gold.PLP.Chemscore.Internal.Correction>
0.1855

> <Gold.Rescore>
     Score         DG    S(hbond)    S(metal)    S(lipo)     H(rot)  DE(clash)    DE(int)     intcor
     16.25     -17.97       1.78        0.00      77.71       1.00       0.30       1.41       ----

> <Gold.Chemscore.Fitness>
16.2522

> <Gold.Chemscore.DG>
-17.9693

> <Gold.Chemscore.ZeroCoef>
-5.4800

> <Gold.Chemscore.Hbond>
1.7838

> <Gold.Chemscore.Metal>
0.0000

> <Gold.Chemscore.Lipo>
77.7051

> <Gold.Chemscore.Internal_Hbond>
0.0000

> <Gold.Chemscore.DEClash>
0.3035

> <Gold.Chemscore.DEInternal>
1.4136

> <Gold.Chemscore.Rot>
1.0000

> <Gold.Chemscore.Internal.Correction>
   9.000000E+99

> <Gold.Chemscore.Hbonds>
donor molecule, donor type, donor heavy atom, donor atom, acceptor molecule, acceptor atom, score
      L1  H     3    22       P1  7948  0.90
      L1  H    10    26       P1  7948  0.80

> <Gold.Chemscore.Hbond.Weighted>
-5.9578

> <Gold.Chemscore.Metal.Weighted>
-0.0000

> <Gold.Chemscore.Lipo.Weighted>
-9.0915

> <Gold.Chemscore.Internal_Hbond.Weighted>
0.0000

> <Gold.Chemscore.DEClash.Weighted>
0.3035

> <Gold.Chemscore.DEInternal.Weighted>
1.4136

> <Gold.Chemscore.Rot.Weighted>
2.5600

> <Gold.Chemscore.Internal.Correction.Weighted>
   9.000000E+99

> <Gold.Protein.RotatedTorsions>
[ 6907 6896 6895 6894 ] final   96.25 input  -60.11 | X-H torsion
[ 7974 7965 7964 7962 ] final  -66.92 input  175.53 | X-H torsion
[ 8008 7997 7996 7995 ] final   -7.59 input   59.86 | X-H torsion
[ 10167 10162 10161 10158 ] final   99.57 input  -65.29 | X-H torsion
[ 10718 10713 10712 10709 ] final  128.53 input   66.30 | X-H torsion
[ 10763 10752 10751 10750 ] final   65.87 input  -60.55 | X-H torsion
[ 11005 11000 10999 10996 ] final   94.98 input  -57.11 | X-H torsion

> <Gold.Protein.ActiveResidues>
 VAL166  LYS551  ARG553  GLY616  TRP617  ASP618  TYR619  PRO620  LYS621  CYS622 
 ASP623  PHE694  ASN695  SER759  ASP760  ASP761  ALA762  ILE779  LEU786  VAL792 
 PHE793  MET794  SER795  GLU796  ALA797  LYS798  CYS799  TRP800  GLU811  SER814 

> <Gold.Protein.RotatedAtoms>
  152.5437  134.0915  159.8278 H   0  0  0  0  0  0  0  0  0  0  0  0  # atno 6907 bound_to 6896
  151.1004  133.5240  159.2617 H   0  0  0  0  0  0  0  0  0  0  0  0  # atno 6908 bound_to 6896
  151.1998  135.0447  159.8921 H   0  0  0  0  0  0  0  0  0  0  0  0  # atno 6909 bound_to 6896
  145.7357  140.8977  143.0556 H   0  0  0  0  0  0  0  0  0  0  0  0  # atno 7974 bound_to 7965
  154.5823  140.2403  155.8036 H   0  0  0  0  0  0  0  0  0  0  0  0  # atno 8008 bound_to 7997
  156.2188  140.3004  155.9859 H   0  0  0  0  0  0  0  0  0  0  0  0  # atno 8009 bound_to 7997
  155.2518  140.0411  157.2978 H   0  0  0  0  0  0  0  0  0  0  0  0  # atno 8010 bound_to 7997
  139.7605  144.6956  151.0299 H   0  0  0  0  0  0  0  0  0  0  0  0  # atno 10167 bound_to 10162
  157.5236  131.1098  150.9116 H   0  0  0  0  0  0  0  0  0  0  0  0  # atno 10718 bound_to 10713
  153.0115  135.5341  154.6734 H   0  0  0  0  0  0  0  0  0  0  0  0  # atno 10763 bound_to 10752
  154.5913  135.2859  155.0635 H   0  0  0  0  0  0  0  0  0  0  0  0  # atno 10764 bound_to 10752
  154.1727  135.6529  153.5066 H   0  0  0  0  0  0  0  0  0  0  0  0  # atno 10765 bound_to 10752
  139.8793  134.8874  156.3944 H   0  0  0  0  0  0  0  0  0  0  0  0  # atno 11005 bound_to 11000
  144.6882  139.9391  143.7474 LP  0  0  0  0  0  0  0  0  0  0  0  0  # atno 17320 bound_to 7965
  146.0496  139.3498  143.0648 LP  0  0  0  0  0  0  0  0  0  0  0  0  # atno 17321 bound_to 7965
  140.7806  143.4703  151.0156 LP  0  0  0  0  0  0  0  0  0  0  0  0  # atno 17342 bound_to 10162
  139.8389  143.7591  152.3180 LP  0  0  0  0  0  0  0  0  0  0  0  0  # atno 17343 bound_to 10162
  156.9719  130.5494  149.5291 LP  0  0  0  0  0  0  0  0  0  0  0  0  # atno 17370 bound_to 10713
  156.0371  130.5457  150.8680 LP  0  0  0  0  0  0  0  0  0  0  0  0  # atno 17371 bound_to 10713
  140.9311  133.7579  156.0025 LP  0  0  0  0  0  0  0  0  0  0  0  0  # atno 17394 bound_to 11000
  140.8330  134.3156  157.5342 LP  0  0  0  0  0  0  0  0  0  0  0  0  # atno 17395 bound_to 11000

$$$$
