AV-unprocessed.smi:483|AV-procd|sdf|2686|dock10
  -GOLD-   2262023113D 1   1.00000     0.00000
 Structure written by MMmdl.
 44 44  0  0  0  0  0  0  0  0  1 V2000
  154.7525  140.6242  166.8048 C   0  0  0  0  0  0  0  0  0  0  0  0
  155.1591  141.2639  165.4686 C   0  0  0  0  0  0  0  0  0  0  0  0
  156.1184  140.4072  164.6217 C   0  0  0  0  0  0  0  0  0  0  0  0
  155.5428  139.1047  164.3009 N   0  0  0  0  0  0  0  0  0  0  0  0
  154.7080  138.8538  163.2807 C   0  0  0  0  0  0  0  0  0  0  0  0
  154.2775  139.7282  162.5267 O   0  0  0  0  0  0  0  0  0  0  0  0
  154.3275  137.3807  163.0606 C   0  0  1  0  0  0  0  0  0  0  0  0
  153.6931  136.8267  164.3477 C   0  0  0  0  0  0  0  0  0  0  0  0
  153.3359  137.3056  161.9899 N   0  0  0  0  0  0  0  0  0  0  0  0
  153.5547  137.6747  160.7175 C   0  0  0  0  0  0  0  0  0  0  0  0
  154.6617  138.0094  160.2932 O   0  0  0  0  0  0  0  0  0  0  0  0
  152.3360  137.6752  159.7856 C   0  0  0  0  0  0  0  0  0  0  0  0
  152.1527  138.9738  159.1206 N   0  0  0  0  0  0  0  0  0  0  0  0
  152.3151  140.0641  159.9529 N   0  0  0  0  0  0  0  0  0  0  0  0
  152.1287  141.2698  159.5262 C   0  0  0  0  0  0  0  0  0  0  0  0
  152.3253  142.3782  160.5251 C   0  0  0  0  0  0  0  0  0  0  0  0
  151.7451  141.4943  158.1359 C   0  0  0  0  0  0  0  0  0  0  0  0
  151.5302  142.9348  157.6924 C   0  0  0  0  0  0  0  0  0  0  0  0
  151.6027  140.4164  157.3247 C   0  0  0  0  0  0  0  0  0  0  0  0
  151.2207  140.5359  155.9547 C   0  0  0  0  0  0  0  0  0  0  0  0
  150.9009  140.6145  154.8449 N   0  0  0  0  0  0  0  0  0  0  0  0
  151.8224  139.0486  157.7984 C   0  0  0  0  0  0  0  0  0  0  0  0
  151.7135  138.0499  157.0849 O   0  0  0  0  0  0  0  0  0  0  0  0
  154.1369  141.3065  167.3912 H   0  0  0  0  0  0  0  0  0  0  0  0
  155.6271  140.3676  167.4029 H   0  0  0  0  0  0  0  0  0  0  0  0
  154.1729  139.7145  166.6511 H   0  0  0  0  0  0  0  0  0  0  0  0
  154.2618  141.4873  164.8903 H   0  0  0  0  0  0  0  0  0  0  0  0
  155.6348  142.2243  165.6701 H   0  0  0  0  0  0  0  0  0  0  0  0
  156.3261  140.9194  163.6822 H   0  0  0  0  0  0  0  0  0  0  0  0
  157.0794  140.3043  165.1283 H   0  0  0  0  0  0  0  0  0  0  0  0
  155.8468  138.3232  164.8635 H   0  0  0  0  0  0  0  0  0  0  0  0
  155.2086  136.7884  162.8049 H   0  0  0  0  0  0  0  0  0  0  0  0
  154.3893  136.8812  165.1856 H   0  0  0  0  0  0  0  0  0  0  0  0
  153.4167  135.7792  164.2239 H   0  0  0  0  0  0  0  0  0  0  0  0
  152.7907  137.3723  164.6282 H   0  0  0  0  0  0  0  0  0  0  0  0
  152.3983  137.0410  162.2549 H   0  0  0  0  0  0  0  0  0  0  0  0
  152.4716  136.8815  159.0488 H   0  0  0  0  0  0  0  0  0  0  0  0
  151.4340  137.4122  160.3419 H   0  0  0  0  0  0  0  0  0  0  0  0
  153.1472  143.0279  160.2244 H   0  0  0  0  0  0  0  0  0  0  0  0
  152.5561  141.9936  161.5197 H   0  0  0  0  0  0  0  0  0  0  0  0
  151.4251  142.9872  160.6104 H   0  0  0  0  0  0  0  0  0  0  0  0
  151.3116  143.0103  156.6278 H   0  0  0  0  0  0  0  0  0  0  0  0
  152.4205  143.5342  157.8847 H   0  0  0  0  0  0  0  0  0  0  0  0
  150.6931  143.3785  158.2324 H   0  0  0  0  0  0  0  0  0  0  0  0
  1  2  1  0  0  0  0
  1 24  1  0  0  0  0
  1 25  1  0  0  0  0
  1 26  1  0  0  0  0
  2  3  1  0  0  0  0
  2 27  1  0  0  0  0
  2 28  1  0  0  0  0
  3  4  1  0  0  0  0
  3 29  1  0  0  0  0
  3 30  1  0  0  0  0
  4  5  1  0  0  0  0
  4 31  1  0  0  0  0
  5  6  2  0  0  0  0
  5  7  1  0  0  0  0
  7  8  1  0  0  0  0
  7  9  1  0  0  0  0
  7 32  1  0  0  0  0
  8 33  1  0  0  0  0
  8 34  1  0  0  0  0
  8 35  1  0  0  0  0
  9 10  1  0  0  0  0
  9 36  1  0  0  0  0
 10 11  2  0  0  0  0
 10 12  1  0  0  0  0
 12 13  1  0  0  0  0
 12 37  1  0  0  0  0
 12 38  1  0  0  0  0
 13 22  1  0  0  0  0
 13 14  1  0  0  0  0
 14 15  2  0  0  0  0
 15 16  1  0  0  0  0
 15 17  1  0  0  0  0
 16 39  1  0  0  0  0
 16 40  1  0  0  0  0
 16 41  1  0  0  0  0
 17 18  1  0  0  0  0
 17 19  2  0  0  0  0
 18 42  1  0  0  0  0
 18 43  1  0  0  0  0
 18 44  1  0  0  0  0
 19 20  1  0  0  0  0
 19 22  1  0  0  0  0
 20 21  3  0  0  0  0
 22 23  2  0  0  0  0
M  END
> <s_m_source_file>
AV-unprocessed.smi

> <i_m_source_file_index>
483

> <i_lp_mmshare_version>
43012

> <i_f3d_flags>
0

> <s_epik_input>
W0NIM11bQ0gyXVtDSDJdW05IXUMoPU8pW0NASF0oW0NIM10pW05IXUMoPU8pW0NIMl1uMW5jKFtDSDNdKWMoW0NIM10pYyhDI04pYzE9Tw==

> <s_epik_cmdline>
J2VwaWtfcHl0aG9uJywgJy1waCcsICc3LjAnLCAnLXRuJywgJzgnLCAnLW1hJywgJzIwMCcsICctbWV0YWxfYmluZGluZycsICctaW1hZScsICc8aW5maWxlLm1hZT4nLCAnLW9tYWUnLCAnPG91dGZpbGUubWFlPic=

> <r_lp_tautomer_probability>
1

> <r_epik_Ionization_Penalty>
5.96698e-08

> <r_epik_Ionization_Penalty_Charging>
1.88177e-11

> <r_epik_Ionization_Penalty_Neutral>
5.9651e-08

> <r_epik_State_Penalty>
-0

> <r_epik_Charging_Adjusted_Penalty>
1.88177e-11

> <i_epik_Tot_Q>
0

> <i_epik_Tot_abs_Q>
0

> <r_epik_Metal_State_Penalty>
-0

> <b_epik_Metal_Only>
0

> <s_lp_Force_Field>
OPLS_2005

> <r_lp_Energy>
18.0289

> <b_lp_Chiralities_Consistent>
1

> <s_lp_Variant>
AV-unprocessed.smi:483-2

> <Gold.Version>
5.8.1

> <Gold.Id.Protein>
6NUR|6NUR_protein|mol2

> <Gold.PLP.Fitness>
37.3417

> <Gold.PLP.PLP>
-35.3015

> <Gold.PLP.part.hbond>
-1.0000

> <Gold.PLP.part.metal>
0.0000

> <Gold.PLP.part.buried>
-5.6393

> <Gold.PLP.part.nonpolar>
-29.3628

> <Gold.PLP.part.repulsive>
0.1466

> <Gold.PLP.ligand.clash>
0.0000

> <Gold.PLP.ligand.torsion>
0.4782

> <Gold.PLP.Chemscore.Hbond>
0.9760

> <Gold.PLP.Chemscore.CHOScore>
0.0000

> <Gold.PLP.Chemscore.Metal>
0.0000

> <Gold.Chemscore.Hbonds>
donor molecule, donor type, donor heavy atom, donor atom, acceptor molecule, acceptor atom, score
      P1  H  7989  7998       L1    21  0.98

> <Gold.PLP.Chemscore.Internal.Correction>
0.0687

> <Gold.Rescore>
     Score         DG    S(hbond)    S(metal)    S(lipo)     H(rot)  DE(clash)    DE(int)     intcor
     10.23     -11.90       0.99        0.00      78.73       2.38       0.11       1.57       ----

> <Gold.Chemscore.Fitness>
10.2260

> <Gold.Chemscore.DG>
-11.9017

> <Gold.Chemscore.ZeroCoef>
-5.4800

> <Gold.Chemscore.Hbond>
0.9878

> <Gold.Chemscore.Metal>
0.0000

> <Gold.Chemscore.Lipo>
78.7314

> <Gold.Chemscore.Internal_Hbond>
0.0000

> <Gold.Chemscore.DEClash>
0.1105

> <Gold.Chemscore.DEInternal>
1.5652

> <Gold.Chemscore.Rot>
2.3785

> <Gold.Chemscore.Internal.Correction>
   9.000000E+99

> <Gold.Chemscore.Hbonds>
donor molecule, donor type, donor heavy atom, donor atom, acceptor molecule, acceptor atom, score
      P1  H  7989  7998       L1    21  0.89

> <Gold.Chemscore.Hbond.Weighted>
-3.2991

> <Gold.Chemscore.Metal.Weighted>
-0.0000

> <Gold.Chemscore.Lipo.Weighted>
-9.2116

> <Gold.Chemscore.Internal_Hbond.Weighted>
0.0000

> <Gold.Chemscore.DEClash.Weighted>
0.1105

> <Gold.Chemscore.DEInternal.Weighted>
1.5652

> <Gold.Chemscore.Rot.Weighted>
6.0890

> <Gold.Chemscore.Internal.Correction.Weighted>
   9.000000E+99

> <Gold.Protein.RotatedTorsions>
[ 6907 6896 6895 6894 ] final   94.33 input  -60.11 | X-H torsion
[ 7974 7965 7964 7962 ] final  -89.50 input  175.53 | X-H torsion
[ 8008 7997 7996 7995 ] final  -44.58 input   59.86 | X-H torsion
[ 10167 10162 10161 10158 ] final -169.59 input  -65.29 | X-H torsion
[ 10718 10713 10712 10709 ] final -153.46 input   66.30 | X-H torsion
[ 10763 10752 10751 10750 ] final    1.28 input  -60.55 | X-H torsion
[ 11005 11000 10999 10996 ] final   31.37 input  -57.11 | X-H torsion

> <Gold.Protein.ActiveResidues>
 VAL166  LYS551  ARG553  GLY616  TRP617  ASP618  TYR619  PRO620  LYS621  CYS622 
 ASP623  PHE694  ASN695  SER759  ASP760  ASP761  ALA762  ILE779  LEU786  VAL792 
 PHE793  MET794  SER795  GLU796  ALA797  LYS798  CYS799  TRP800  GLU811  SER814 

> <Gold.Protein.RotatedAtoms>
  152.5450  134.1211  159.8398 H   0  0  0  0  0  0  0  0  0  0  0  0  # atno 6907 bound_to 6896
  151.1267  133.5058  159.2608 H   0  0  0  0  0  0  0  0  0  0  0  0  # atno 6908 bound_to 6896
  151.1720  135.0332  159.8810 H   0  0  0  0  0  0  0  0  0  0  0  0  # atno 6909 bound_to 6896
  145.4390  140.9558  143.2085 H   0  0  0  0  0  0  0  0  0  0  0  0  # atno 7974 bound_to 7965
  154.3998  140.1418  156.3706 H   0  0  0  0  0  0  0  0  0  0  0  0  # atno 8008 bound_to 7997
  155.8096  140.3473  155.5429 H   0  0  0  0  0  0  0  0  0  0  0  0  # atno 8009 bound_to 7997
  155.8400  140.0925  157.1731 H   0  0  0  0  0  0  0  0  0  0  0  0  # atno 8010 bound_to 7997
  139.5913  144.1207  152.1638 H   0  0  0  0  0  0  0  0  0  0  0  0  # atno 10167 bound_to 10162
  156.4861  130.8326  151.2551 H   0  0  0  0  0  0  0  0  0  0  0  0  # atno 10718 bound_to 10713
  153.3100  135.6962  153.7124 H   0  0  0  0  0  0  0  0  0  0  0  0  # atno 10763 bound_to 10752
  153.6005  135.3463  155.2944 H   0  0  0  0  0  0  0  0  0  0  0  0  # atno 10764 bound_to 10752
  154.8572  135.4339  154.2235 H   0  0  0  0  0  0  0  0  0  0  0  0  # atno 10765 bound_to 10752
  140.2846  134.2933  155.7791 H   0  0  0  0  0  0  0  0  0  0  0  0  # atno 11005 bound_to 11000
  144.8134  139.5921  143.7019 LP  0  0  0  0  0  0  0  0  0  0  0  0  # atno 17320 bound_to 7965
  146.2566  139.6317  142.9390 LP  0  0  0  0  0  0  0  0  0  0  0  0  # atno 17321 bound_to 7965
  140.0782  144.5723  150.7142 LP  0  0  0  0  0  0  0  0  0  0  0  0  # atno 17342 bound_to 10162
  140.7175  143.2558  151.4385 LP  0  0  0  0  0  0  0  0  0  0  0  0  # atno 17343 bound_to 10162
  157.7478  131.0029  150.3017 LP  0  0  0  0  0  0  0  0  0  0  0  0  # atno 17370 bound_to 10713
  156.3473  130.3825  149.7359 LP  0  0  0  0  0  0  0  0  0  0  0  0  # atno 17371 bound_to 10713
  141.2157  133.7547  156.9533 LP  0  0  0  0  0  0  0  0  0  0  0  0  # atno 17394 bound_to 11000
  140.1251  134.9392  157.2259 LP  0  0  0  0  0  0  0  0  0  0  0  0  # atno 17395 bound_to 11000

$$$$
