#       Name:                AV-unprocessed.smi:2065
#       Creating user name   scv26
#       Creation time:       Fri Mar 27 11:10:59 2020


#       File generated by GOLD software.
#

@<TRIPOS>MOLECULE
AV-unprocessed.smi:2065
    43    44     1
SMALL
NO_CHARGES


@<TRIPOS>ATOM
      1 ****        -6.1645   0.0502   0.8810 C.3            1 S1                 0.0000
      2 ****        -4.8231   0.6813   0.6522 C.2            1 S1                 0.0000
      3 ****        -3.5747   0.0313   0.4285 C.2            1 S1                 0.0000
      4 ****        -2.7103   1.0818   0.2841 C.2            1 S1                 0.0000
      5 ****        -1.3732   1.0617   0.0407 N.am           1 S1                 0.0000
      6 ****        -0.5498   0.0023  -0.0398 C.2            1 S1                 0.0000
      7 ****        -0.8827  -1.1744   0.1042 O.2            1 S1                 0.0000
      8 ****         0.7080   0.3893  -0.2961 N.am           1 S1                 0.0000
      9 ****         1.8575  -0.4988  -0.4669 C.3            1 S1                 0.0000
     10 ****         2.4115  -0.9486   0.9095 C.3            1 S1                 0.0000
     11 ****         3.8942  -1.3748   0.9366 C.3            1 S1                 0.0000
     12 ****         4.2945  -2.4536  -0.0902 C.3            1 S1                 0.0000
     13 ****         3.9827  -2.1510  -1.5759 C.3            1 S1                 0.0000
     14 ****         3.8638  -0.7279  -1.8913 N.am           1 S1                 0.0000
     15 ****         2.8994   0.0908  -1.4369 C.2            1 S1                 0.0000
     16 ****         2.8569   1.2765  -1.7632 O.2            1 S1                 0.0000
     17 ****        -3.4136   2.2584   0.4140 N.pl3          1 S1                 0.0000
     18 ****        -2.9408   3.6268   0.3356 C.3            1 S1                 0.0000
     19 ****        -4.7204   2.0057   0.6432 N.2            1 S1                 0.0000
     20 ****        -6.1079  -1.0355   0.7997 H              1 S1                 0.0000
     21 ****        -6.8933   0.3992   0.1490 H              1 S1                 0.0000
     22 ****        -6.5462   0.2888   1.8738 H              1 S1                 0.0000
     23 ****        -3.3713  -1.0279   0.3819 H              1 S1                 0.0000
     24 ****        -0.9459   1.9672  -0.0870 H              1 S1                 0.0000
     25 ****         0.8888   1.3769  -0.4035 H              1 S1                 0.0000
     26 ****         1.4757  -1.3885  -0.9693 H              1 S1                 0.0000
     27 ****         2.2920  -0.1374   1.6293 H              1 S1                 0.0000
     28 ****         1.7965  -1.7668   1.2864 H              1 S1                 0.0000
     29 ****         4.5264  -0.4963   0.8001 H              1 S1                 0.0000
     30 ****         4.1327  -1.7394   1.9362 H              1 S1                 0.0000
     31 ****         5.3685  -2.6155   0.0077 H              1 S1                 0.0000
     32 ****         3.8324  -3.4036   0.1807 H              1 S1                 0.0000
     33 ****         4.7639  -2.5780  -2.2052 H              1 S1                 0.0000
     34 ****         3.0656  -2.6593  -1.8758 H              1 S1                 0.0000
     35 ****         4.5553  -0.3395  -2.5166 H              1 S1                 0.0000
     36 ****        -2.1183   3.7711   1.0368 H              1 S1                 0.0000
     37 ****        -3.7414   4.3254   0.5827 H              1 S1                 0.0000
     38 ****        -2.5884   3.8340  -0.6751 H              1 S1                 0.0000
     39 ****        -1.8364  -1.4041   0.2986 LP             1 S1                 0.0000
     40 ****        -0.1994  -1.9005   0.0267 LP             1 S1                 0.0000
     41 ****         2.1399   1.8702  -1.3980 LP             1 S1                 0.0000
     42 ****         3.5394   1.6463  -2.3937 LP             1 S1                 0.0000
     43 ****        -5.4534   2.6725   0.7773 LP             1 S1                 0.0000
@<TRIPOS>BOND
    1    1    2 1     
    2    1   20 1     
    3    1   21 1     
    4    1   22 1     
    5    2   19 2     
    6    2    3 1     
    7    3    4 2     
    8    3   23 1     
    9    4    5 1     
   10    4   17 1     
   11    5    6 am    
   12    5   24 1     
   13    6    7 2     
   14    6    8 am    
   15    8    9 1     
   16    8   25 1     
   17    9   15 1     
   18    9   10 1     
   19    9   26 1     
   20   10   11 1     
   21   10   27 1     
   22   10   28 1     
   23   11   12 1     
   24   11   29 1     
   25   11   30 1     
   26   12   13 1     
   27   12   31 1     
   28   12   32 1     
   29   13   14 1     
   30   13   33 1     
   31   13   34 1     
   32   14   15 am    
   33   14   35 1     
   34   15   16 2     
   35   17   18 1     
   36   17   19 1     
   37   18   36 1     
   38   18   37 1     
   39   18   38 1     
   40    7   39 1     
   41    7   40 1     
   42   16   41 1     
   43   16   42 1     
   44   19   43 1     
@<TRIPOS>SUBSTRUCTURE
      1 S1             1
@<TRIPOS>SET
LONE_PAIRS      STATIC     ATOMS    <user>   **** ""
5 39 40 41 42 43
DONOR_HYDROGENS      STATIC     ATOMS    <user>   **** ""
3 24 25 35
ATOM$BLUE        STATIC     ATOMS    COLORGROUP SYSTEM
5 39 40 41 42 43
ATOM$RED        STATIC     ATOMS    COLORGROUP SYSTEM
3 24 25 35
