#       Name:                AV-unprocessed.smi:847
#       Creating user name   scv26
#       Creation time:       Fri Mar 27 01:40:05 2020


#       File generated by GOLD software.
#

@<TRIPOS>MOLECULE
AV-unprocessed.smi:847
    55    56     1
SMALL
NO_CHARGES


@<TRIPOS>ATOM
      1 ****        -7.7135   2.0079  -2.3102 C.3            1 S1                 0.0000
      2 ****        -6.3262   1.8830  -2.0518 O.3            1 S1                 0.0000
      3 ****        -6.0500   0.9763  -0.9971 C.3            1 S1                 0.0000
      4 ****        -4.5365   0.9145  -0.7717 C.3            1 S1                 0.0000
      5 ****        -3.9409   0.1863  -1.8413 O.3            1 S1                 0.0000
      6 ****        -2.5713   0.0189  -1.8418 C.ar           1 S1                 0.0000
      7 ****        -1.9795  -0.6874  -2.9081 C.ar           1 S1                 0.0000
      8 ****        -0.5827  -0.8629  -2.9139 C.ar           1 S1                 0.0000
      9 ****         0.1783  -0.3317  -1.8530 C.ar           1 S1                 0.0000
     10 ****         1.6912  -0.5016  -1.8375 C.3            1 S1                 0.0000
     11 ****         2.2701  -0.5915  -0.5016 N.am           1 S1                 0.0000
     12 ****         2.2365  -1.6825   0.2825 C.2            1 S1                 0.0000
     13 ****         1.7072  -2.7373  -0.0664 O.2            1 S1                 0.0000
     14 ****         2.8826  -1.5906   1.6816 C.3            1 S1                 0.0000
     15 ****         1.8142  -1.1527   2.6971 C.3            1 S1                 0.0000
     16 ****         2.5772  -0.4072   3.7753 C.3            1 S1                 0.0000
     17 ****         3.7958   0.1767   3.0627 C.3            1 S1                 0.0000
     18 ****         3.9876  -0.6229   1.8498 N.am           1 S1                 0.0000
     19 ****         5.0877  -0.5261   1.0637 C.2            1 S1                 0.0000
     20 ****         6.1254   0.5529   1.3829 C.3            1 S1                 0.0000
     21 ****         5.2954  -1.2726   0.1075 O.2            1 S1                 0.0000
     22 ****        -0.5070   0.3660  -0.8335 C.ar           1 S1                 0.0000
     23 ****        -1.8457   0.5388  -0.8206 N.ar           1 S1                 0.0000
     24 ****         3.2674  -2.5738   1.9582 H              1 S1                 0.0000
     25 ****        -7.8715   2.7017  -3.1358 H              1 S1                 0.0000
     26 ****        -8.2431   2.3953  -1.4387 H              1 S1                 0.0000
     27 ****        -8.1514   1.0481  -2.5884 H              1 S1                 0.0000
     28 ****        -6.5380   1.3259  -0.0861 H              1 S1                 0.0000
     29 ****        -6.4447  -0.0163  -1.2204 H              1 S1                 0.0000
     30 ****        -4.1261   1.9232  -0.7001 H              1 S1                 0.0000
     31 ****        -4.3362   0.4026   0.1709 H              1 S1                 0.0000
     32 ****        -2.5861  -1.0875  -3.7070 H              1 S1                 0.0000
     33 ****        -0.1057  -1.3997  -3.7206 H              1 S1                 0.0000
     34 ****         1.9729  -1.3811  -2.4191 H              1 S1                 0.0000
     35 ****         2.1360   0.3564  -2.3416 H              1 S1                 0.0000
     36 ****         2.7282   0.2345  -0.1450 H              1 S1                 0.0000
     37 ****         1.0959  -0.4669   2.2432 H              1 S1                 0.0000
     38 ****         1.2507  -1.9960   3.0979 H              1 S1                 0.0000
     39 ****         1.9749   0.3512   4.2764 H              1 S1                 0.0000
     40 ****         2.9098  -1.1183   4.5325 H              1 S1                 0.0000
     41 ****         3.6038   1.2125   2.7790 H              1 S1                 0.0000
     42 ****         4.6692   0.1584   3.7160 H              1 S1                 0.0000
     43 ****         5.6606   1.5377   1.4355 H              1 S1                 0.0000
     44 ****         6.8924   0.5885   0.6084 H              1 S1                 0.0000
     45 ****         6.6191   0.3451   2.3324 H              1 S1                 0.0000
     46 ****         0.0278   0.8029  -0.0031 H              1 S1                 0.0000
     47 ****        -5.9637   2.7818  -1.8053 LP             1 S1                 0.0000
     48 ****        -5.8735   1.5572  -2.8817 LP             1 S1                 0.0000
     49 ****        -4.1809   0.6586  -2.6895 LP             1 S1                 0.0000
     50 ****        -4.3498  -0.7263  -1.8407 LP             1 S1                 0.0000
     51 ****         1.2782  -2.8075  -0.9670 LP             1 S1                 0.0000
     52 ****         1.7060  -3.5242   0.5507 LP             1 S1                 0.0000
     53 ****         4.6368  -1.9903  -0.1188 LP             1 S1                 0.0000
     54 ****         6.1227  -1.1614  -0.4431 LP             1 S1                 0.0000
     55 ****        -2.2912   1.0375  -0.0770 LP             1 S1                 0.0000
@<TRIPOS>BOND
    1    1    2 1     
    2    1   25 1     
    3    1   26 1     
    4    1   27 1     
    5    2    3 1     
    6    3    4 1     
    7    3   28 1     
    8    3   29 1     
    9    4    5 1     
   10    4   30 1     
   11    4   31 1     
   12    5    6 1     
   13    6   23 ar    
   14    6    7 ar    
   15    7    8 ar    
   16    7   32 1     
   17    8    9 ar    
   18    8   33 1     
   19    9   10 1     
   20    9   22 ar    
   21   10   11 1     
   22   10   34 1     
   23   10   35 1     
   24   11   12 am    
   25   11   36 1     
   26   12   13 2     
   27   12   14 1     
   28   14   24 1     
   29   14   18 1     
   30   14   15 1     
   31   15   16 1     
   32   15   37 1     
   33   15   38 1     
   34   16   17 1     
   35   16   39 1     
   36   16   40 1     
   37   17   18 1     
   38   17   41 1     
   39   17   42 1     
   40   18   19 am    
   41   19   20 1     
   42   19   21 2     
   43   20   43 1     
   44   20   44 1     
   45   20   45 1     
   46   22   23 ar    
   47   22   46 1     
   48    2   47 1     
   49    2   48 1     
   50    5   49 1     
   51    5   50 1     
   52   13   51 1     
   53   13   52 1     
   54   21   53 1     
   55   21   54 1     
   56   23   55 1     
@<TRIPOS>SUBSTRUCTURE
      1 S1             1
@<TRIPOS>SET
LONE_PAIRS      STATIC     ATOMS    <user>   **** ""
9 47 48 49 50 51 52 53 54 55
DONOR_HYDROGENS      STATIC     ATOMS    <user>   **** ""
1 36
ATOM$BLUE        STATIC     ATOMS    COLORGROUP SYSTEM
9 47 48 49 50 51 52 53 54 55
ATOM$RED        STATIC     ATOMS    COLORGROUP SYSTEM
1 36
