AV-unprocessed.smi:1|AV-procd|sdf|15|dock6
  -GOLD-   2262015113D 1   1.00000     0.00000
 Structure written by MMmdl.
 57 62  0  0  0  0  0  0  0  0  1 V2000
  150.8984  142.1046  155.7285 O   0  0  0  0  0  0  0  0  0  0  0  0
  150.9057  141.6862  156.8895 C   0  0  0  0  0  0  0  0  0  0  0  0
  150.5057  140.4470  157.3714 N   0  0  0  0  0  0  0  0  0  0  0  0
  150.1695  139.5035  156.5452 C   0  0  0  0  0  0  0  0  0  0  0  0
  150.1208  139.4423  155.1464 N   0  0  0  0  0  0  0  0  0  0  0  0
  149.7415  138.3262  154.3844 C   0  0  0  0  0  0  0  0  0  0  0  0
  149.3736  137.1746  154.8790 N   0  0  0  0  0  0  0  0  0  0  0  0
  149.4008  137.1826  156.2671 C   0  0  0  0  0  0  0  0  0  0  0  0
  149.7517  138.2068  157.1201 C   0  0  0  0  0  0  0  0  0  0  0  0
  149.6441  137.8054  158.4477 N   0  0  0  0  0  0  0  0  0  0  0  0
  149.2325  136.5449  158.3382 C   0  0  0  0  0  0  0  0  0  0  0  0
  149.0637  136.1017  157.0790 N   0  0  0  0  0  0  0  0  0  0  0  0
  148.6241  134.7354  156.6726 C   0  0  2  0  0  0  0  0  0  0  0  0
  147.3150  134.8065  156.2070 O   0  0  0  0  0  0  0  0  0  0  0  0
  146.6084  133.6113  156.5339 C   0  0  2  0  0  0  0  0  0  0  0  0
  145.3043  134.0127  157.2343 C   0  0  0  0  0  0  0  0  0  0  0  0
  144.5974  132.8456  157.6204 O   0  0  0  0  0  0  0  0  0  0  0  0
  143.3614  132.9486  158.1459 C   0  0  0  0  0  0  0  0  0  0  0  0
  142.7872  134.0236  158.3327 O   0  0  0  0  0  0  0  0  0  0  0  0
  142.7586  131.6244  158.4741 C   0  0  0  0  0  0  0  0  0  0  0  0
  143.4126  130.4421  158.0554 C   0  0  0  0  0  0  0  0  0  0  0  0
  142.8696  129.1774  158.3541 C   0  0  0  0  0  0  0  0  0  0  0  0
  141.6648  129.0793  159.0742 C   0  0  0  0  0  0  0  0  0  0  0  0
  141.0035  130.2479  159.4948 C   0  0  0  0  0  0  0  0  0  0  0  0
  141.5455  131.5136  159.1976 C   0  0  0  0  0  0  0  0  0  0  0  0
  147.5439  132.7812  157.4247 C   0  0  1  0  0  0  0  0  0  0  0  0
  148.1610  131.7572  156.6628 O   0  0  0  0  0  0  0  0  0  0  0  0
  149.7753  131.6811  157.0861 S   0  0  0  0  0  0  0  0  0  0  0  0
  149.9582  130.5501  158.0085 O   0  0  0  0  0  0  0  0  0  0  0  0
  150.5797  131.8470  155.8659 O   0  0  0  0  0  0  0  0  0  0  0  0
  149.8634  133.0962  157.9711 O   0  0  0  0  0  0  0  0  0  0  0  0
  148.6244  133.7739  157.8591 C   0  0  1  0  0  0  0  0  0  0  0  0
  151.4221  142.5941  157.9575 C   0  0  0  0  0  0  0  0  0  0  0  0
  151.9490  142.0546  159.1500 C   0  0  0  0  0  0  0  0  0  0  0  0
  152.4257  142.9105  160.1621 C   0  0  0  0  0  0  0  0  0  0  0  0
  152.3754  144.3069  159.9857 C   0  0  0  0  0  0  0  0  0  0  0  0
  151.8484  144.8480  158.7969 C   0  0  0  0  0  0  0  0  0  0  0  0
  151.3709  143.9933  157.7841 C   0  0  0  0  0  0  0  0  0  0  0  0
  149.7764  138.4921  153.3067 H   0  0  0  0  0  0  0  0  0  0  0  0
  149.0485  135.9235  159.2023 H   0  0  0  0  0  0  0  0  0  0  0  0
  149.2902  134.4336  155.8628 H   0  0  0  0  0  0  0  0  0  0  0  0
  146.3790  133.0780  155.6101 H   0  0  0  0  0  0  0  0  0  0  0  0
  145.5130  134.6397  158.1025 H   0  0  0  0  0  0  0  0  0  0  0  0
  144.6830  134.5941  156.5516 H   0  0  0  0  0  0  0  0  0  0  0  0
  144.3395  130.4924  157.5022 H   0  0  0  0  0  0  0  0  0  0  0  0
  143.3790  128.2816  158.0307 H   0  0  0  0  0  0  0  0  0  0  0  0
  141.2488  128.1092  159.3030 H   0  0  0  0  0  0  0  0  0  0  0  0
  140.0784  130.1741  160.0474 H   0  0  0  0  0  0  0  0  0  0  0  0
  141.0118  132.3903  159.5348 H   0  0  0  0  0  0  0  0  0  0  0  0
  147.0362  132.3259  158.2759 H   0  0  0  0  0  0  0  0  0  0  0  0
  148.3444  134.2868  158.7796 H   0  0  0  0  0  0  0  0  0  0  0  0
  151.9892  140.9843  159.2933 H   0  0  0  0  0  0  0  0  0  0  0  0
  152.8280  142.4960  161.0745 H   0  0  0  0  0  0  0  0  0  0  0  0
  152.7400  144.9628  160.7625 H   0  0  0  0  0  0  0  0  0  0  0  0
  151.8094  145.9188  158.6622 H   0  0  0  0  0  0  0  0  0  0  0  0
  150.9649  144.4157  156.8762 H   0  0  0  0  0  0  0  0  0  0  0  0
  150.3862  140.2762  154.6419 H   0  0  0  0  0  0  0  0  0  0  0  0
  1  2  2  0  0  0  0
  2  3  1  0  0  0  0
  2 33  1  0  0  0  0
  3  4  2  0  0  0  0
  4  9  1  0  0  0  0
  4  5  1  0  0  0  0
  5  6  1  0  0  0  0
  5 57  1  0  0  0  0
  6  7  2  0  0  0  0
  6 39  1  0  0  0  0
  7  8  1  0  0  0  0
  8 12  1  0  0  0  0
  8  9  2  0  0  0  0
  9 10  1  0  0  0  0
 10 11  2  0  0  0  0
 11 12  1  0  0  0  0
 11 40  1  0  0  0  0
 12 13  1  0  0  0  0
 13 32  1  0  0  0  0
 13 14  1  0  0  0  0
 13 41  1  0  0  0  0
 14 15  1  0  0  0  0
 15 16  1  0  0  0  0
 15 26  1  0  0  0  0
 15 42  1  0  0  0  0
 16 17  1  0  0  0  0
 16 43  1  0  0  0  0
 16 44  1  0  0  0  0
 17 18  1  0  0  0  0
 18 19  2  0  0  0  0
 18 20  1  0  0  0  0
 20 25  1  0  0  0  0
 20 21  2  0  0  0  0
 21 22  1  0  0  0  0
 21 45  1  0  0  0  0
 22 23  2  0  0  0  0
 22 46  1  0  0  0  0
 23 24  1  0  0  0  0
 23 47  1  0  0  0  0
 24 25  2  0  0  0  0
 24 48  1  0  0  0  0
 25 49  1  0  0  0  0
 26 32  1  0  0  0  0
 26 27  1  0  0  0  0
 26 50  1  0  0  0  0
 27 28  1  0  0  0  0
 28 29  2  0  0  0  0
 28 30  2  0  0  0  0
 28 31  1  0  0  0  0
 31 32  1  0  0  0  0
 32 51  1  0  0  0  0
 33 38  1  0  0  0  0
 33 34  2  0  0  0  0
 34 35  1  0  0  0  0
 34 52  1  0  0  0  0
 35 36  2  0  0  0  0
 35 53  1  0  0  0  0
 36 37  1  0  0  0  0
 36 54  1  0  0  0  0
 37 38  2  0  0  0  0
 37 55  1  0  0  0  0
 38 56  1  0  0  0  0
M  END
> <s_m_source_file>
AV-unprocessed.smi

> <i_m_source_file_index>
1

> <i_lp_mmshare_version>
43012

> <i_f3d_flags>
0

> <s_epik_input>
W2NIXTFbY0hdW2NIXVtjSF1bY0hdYzFDKD1PKVtOSF1jKG5bY0hdbjIpYyhjMjMpbltjSF1uM1tDQEBIXShbQ0BIXShbQ0BIXTQ1KU9TKE81KSg9Tyk9TylPW0NASF00W0NIMl1PQyg9TyljNltjSF1bY0hdW2NIXVtjSF1bY0hdNg==

> <s_epik_cmdline>
J2VwaWtfcHl0aG9uJywgJy1waCcsICc3LjAnLCAnLXRuJywgJzgnLCAnLW1hJywgJzIwMCcsICctbWV0YWxfYmluZGluZycsICctaW1hZScsICc8aW5maWxlLm1hZT4nLCAnLW9tYWUnLCAnPG91dGZpbGUubWFlPic=

> <r_epik_Ionization_Penalty>
0.122545

> <r_epik_Ionization_Penalty_Charging>
0.122545

> <r_epik_Ionization_Penalty_Neutral>
7.8935e-16

> <r_epik_State_Penalty>
2.69178

> <r_epik_Charging_Adjusted_Penalty>
2.81433

> <i_epik_Tot_Q>
0

> <i_epik_Tot_abs_Q>
0

> <r_epik_Metal_State_Penalty>
3.02665

> <b_epik_Metal_Only>
0

> <s_epik_Chemistry_Notes>
This compound has an ester and may undergo hydrolysis at high or low pH. This compound contains an acetal/aminal-like group ( X-CH(R)-Y where X, Y are N, S, or O) that may be acid/base labile, releasing an aldehyde.

> <s_lp_Force_Field>
OPLS_2005

> <r_lp_Energy>
60.8199

> <b_lp_Chiralities_Consistent>
1

> <s_lp_Variant>
AV-unprocessed.smi:1-15

> <Gold.Version>
5.8.1

> <Gold.Id.Protein>
6NUR|6NUR_protein|mol2

> <Gold.PLP.Fitness>
50.0790

> <Gold.PLP.PLP>
-44.4536

> <Gold.PLP.part.hbond>
-2.7544

> <Gold.PLP.part.metal>
0.0000

> <Gold.PLP.part.buried>
-5.4126

> <Gold.PLP.part.nonpolar>
-37.2427

> <Gold.PLP.part.repulsive>
0.6638

> <Gold.PLP.ligand.clash>
0.0000

> <Gold.PLP.ligand.torsion>
0.5917

> <Gold.PLP.Chemscore.Hbond>
1.0000

> <Gold.PLP.Chemscore.CHOScore>
1.2184

> <Gold.PLP.Chemscore.Metal>
0.0000

> <Gold.Chemscore.Hbonds>
donor molecule, donor type, donor heavy atom, donor atom, acceptor molecule, acceptor atom, score
      P1  H 11000 11005       L1    19  1.00
      L1  C     6    39       P1  7948  0.27
      L1  C     6    39       P1  7957  0.73

> <Gold.PLP.Chemscore.Internal.Correction>
0.1536

> <Gold.Rescore>
     Score         DG    S(hbond)    S(metal)    S(lipo)     H(rot)  DE(clash)    DE(int)     intcor
     13.66     -15.17       0.95        0.00     102.46       2.13       0.83       0.68       ----

> <Gold.Chemscore.Fitness>
13.6628

> <Gold.Chemscore.DG>
-15.1677

> <Gold.Chemscore.ZeroCoef>
-5.4800

> <Gold.Chemscore.Hbond>
0.9466

> <Gold.Chemscore.Metal>
0.0000

> <Gold.Chemscore.Lipo>
102.4572

> <Gold.Chemscore.Internal_Hbond>
0.0000

> <Gold.Chemscore.DEClash>
0.8292

> <Gold.Chemscore.DEInternal>
0.6756

> <Gold.Chemscore.Rot>
2.1333

> <Gold.Chemscore.Internal.Correction>
   9.000000E+99

> <Gold.Chemscore.Hbonds>
donor molecule, donor type, donor heavy atom, donor atom, acceptor molecule, acceptor atom, score
      P1  H 11000 11005       L1    19  0.54

> <Gold.Chemscore.Hbond.Weighted>
-3.1615

> <Gold.Chemscore.Metal.Weighted>
-0.0000

> <Gold.Chemscore.Lipo.Weighted>
-11.9875

> <Gold.Chemscore.Internal_Hbond.Weighted>
0.0000

> <Gold.Chemscore.DEClash.Weighted>
0.8292

> <Gold.Chemscore.DEInternal.Weighted>
0.6756

> <Gold.Chemscore.Rot.Weighted>
5.4614

> <Gold.Chemscore.Internal.Correction.Weighted>
   9.000000E+99

> <Gold.Protein.RotatedTorsions>
[ 6907 6896 6895 6894 ] final  132.44 input  -60.11 | X-H torsion
[ 7974 7965 7964 7962 ] final   19.27 input  175.53 | X-H torsion
[ 8008 7997 7996 7995 ] final   37.58 input   59.86 | X-H torsion
[ 10167 10162 10161 10158 ] final   -5.23 input  -65.29 | X-H torsion
[ 10718 10713 10712 10709 ] final  101.62 input   66.30 | X-H torsion
[ 10763 10752 10751 10750 ] final  -46.86 input  -60.55 | X-H torsion
[ 11005 11000 10999 10996 ] final -112.36 input  -57.11 | X-H torsion

> <Gold.Protein.ActiveResidues>
 VAL166  LYS551  ARG553  GLY616  TRP617  ASP618  TYR619  PRO620  LYS621  CYS622 
 ASP623  PHE694  ASN695  SER759  ASP760  ASP761  ALA762  ILE779  LEU786  VAL792 
 PHE793  MET794  SER795  GLU796  ALA797  LYS798  CYS799  TRP800  GLU811  SER814 

> <Gold.Protein.RotatedAtoms>
  152.3324  133.5973  159.5818 H   0  0  0  0  0  0  0  0  0  0  0  0  # atno 6907 bound_to 6896
  150.7430  133.9848  159.3597 H   0  0  0  0  0  0  0  0  0  0  0  0  # atno 6908 bound_to 6896
  151.7721  135.0784  160.0412 H   0  0  0  0  0  0  0  0  0  0  0  0  # atno 6909 bound_to 6896
  146.2155  139.8338  142.8655 H   0  0  0  0  0  0  0  0  0  0  0  0  # atno 7974 bound_to 7965
  155.2061  140.3319  155.4336 H   0  0  0  0  0  0  0  0  0  0  0  0  # atno 8008 bound_to 7997
  156.2388  140.1885  156.7094 H   0  0  0  0  0  0  0  0  0  0  0  0  # atno 8009 bound_to 7997
  154.6109  140.0609  156.9478 H   0  0  0  0  0  0  0  0  0  0  0  0  # atno 8010 bound_to 7997
  140.6956  143.6333  150.8503 H   0  0  0  0  0  0  0  0  0  0  0  0  # atno 10167 bound_to 10162
  157.6824  131.0731  150.5280 H   0  0  0  0  0  0  0  0  0  0  0  0  # atno 10718 bound_to 10713
  154.0520  135.6630  153.4801 H   0  0  0  0  0  0  0  0  0  0  0  0  # atno 10763 bound_to 10752
  153.0460  135.5114  154.7742 H   0  0  0  0  0  0  0  0  0  0  0  0  # atno 10764 bound_to 10752
  154.6751  135.3036  154.9656 H   0  0  0  0  0  0  0  0  0  0  0  0  # atno 10765 bound_to 10752
  141.0679  133.9428  157.2542 H   0  0  0  0  0  0  0  0  0  0  0  0  # atno 11005 bound_to 11000
  145.2970  141.0183  143.3630 LP  0  0  0  0  0  0  0  0  0  0  0  0  # atno 17320 bound_to 7965
  144.9034  139.4620  143.6621 LP  0  0  0  0  0  0  0  0  0  0  0  0  # atno 17321 bound_to 7965
  140.0050  143.5703  152.2861 LP  0  0  0  0  0  0  0  0  0  0  0  0  # atno 17342 bound_to 10162
  139.6406  144.7654  151.2346 LP  0  0  0  0  0  0  0  0  0  0  0  0  # atno 17343 bound_to 10162
  156.5591  130.4251  149.6071 LP  0  0  0  0  0  0  0  0  0  0  0  0  # atno 17370 bound_to 10713
  156.2837  130.7085  151.1916 LP  0  0  0  0  0  0  0  0  0  0  0  0  # atno 17371 bound_to 10713
  139.9495  135.0178  156.8951 LP  0  0  0  0  0  0  0  0  0  0  0  0  # atno 17394 bound_to 11000
  140.5734  134.0421  155.7438 LP  0  0  0  0  0  0  0  0  0  0  0  0  # atno 17395 bound_to 11000

$$$$
