AV-unprocessed.smi:679|AV-procd|sdf|3320|dock5
  -GOLD-   22720 0283D 1   1.00000     0.00000
 Structure written by MMmdl.
 41 43  0  0  0  0  0  0  0  0  1 V2000
  152.8687  143.1392  162.2684 C   0  0  0  0  0  0  0  0  0  0  0  0
  152.9628  141.9998  161.2515 C   0  0  0  0  0  0  0  0  0  0  0  0
  151.8564  142.0867  160.3704 O   0  0  0  0  0  0  0  0  0  0  0  0
  152.2354  142.1270  159.0037 C   0  0  1  0  0  0  0  0  0  0  0  0
  151.4705  141.1575  158.0978 C   0  0  0  0  0  0  0  0  0  0  0  0
  151.5017  142.2759  157.0538 C   0  0  1  0  0  0  0  0  0  0  0  0
  150.2758  142.3331  156.2649 N   0  0  0  0  0  0  0  0  0  0  0  0
  149.9008  141.4045  155.3731 C   0  0  0  0  0  0  0  0  0  0  0  0
  150.5688  140.4008  155.1226 O   0  0  0  0  0  0  0  0  0  0  0  0
  148.5756  141.6538  154.6479 C   0  0  0  0  0  0  0  0  0  0  0  0
  147.7347  140.4707  154.6483 N   0  0  0  0  0  0  0  0  0  0  0  0
  147.2516  139.7369  153.6436 C   0  0  0  0  0  0  0  0  0  0  0  0
  146.5245  138.7217  154.0851 N   0  0  0  0  0  0  0  0  0  0  0  0
  146.5833  138.8678  155.4612 N   0  0  0  0  0  0  0  0  0  0  0  0
  147.3006  139.9036  155.8014 N   0  0  0  0  0  0  0  0  0  0  0  0
  151.5853  143.2950  158.2208 C   0  0  0  0  0  0  0  0  0  0  0  0
  150.2948  143.8926  158.7978 C   0  0  0  0  0  0  0  0  0  0  0  0
  150.7165  145.0559  159.6983 C   0  0  0  0  0  0  0  0  0  0  0  0
  152.0796  145.5124  159.1676 C   0  0  0  0  0  0  0  0  0  0  0  0
  152.4348  144.5473  158.0312 C   0  0  0  0  0  0  0  0  0  0  0  0
  153.7037  143.1079  162.9685 H   0  0  0  0  0  0  0  0  0  0  0  0
  151.9455  143.0734  162.8446 H   0  0  0  0  0  0  0  0  0  0  0  0
  152.8846  144.1091  161.7707 H   0  0  0  0  0  0  0  0  0  0  0  0
  153.8963  142.0753  160.6921 H   0  0  0  0  0  0  0  0  0  0  0  0
  152.9632  141.0391  161.7683 H   0  0  0  0  0  0  0  0  0  0  0  0
  153.3171  142.0796  158.8555 H   0  0  0  0  0  0  0  0  0  0  0  0
  152.0225  140.2586  157.8224 H   0  0  0  0  0  0  0  0  0  0  0  0
  150.4699  140.9247  158.4666 H   0  0  0  0  0  0  0  0  0  0  0  0
  152.4163  142.2457  156.4564 H   0  0  0  0  0  0  0  0  0  0  0  0
  149.6725  143.1296  156.4108 H   0  0  0  0  0  0  0  0  0  0  0  0
  148.0293  142.4787  155.1087 H   0  0  0  0  0  0  0  0  0  0  0  0
  148.7791  141.9387  153.6151 H   0  0  0  0  0  0  0  0  0  0  0  0
  147.4344  139.9426  152.5993 H   0  0  0  0  0  0  0  0  0  0  0  0
  149.6649  144.2862  157.9997 H   0  0  0  0  0  0  0  0  0  0  0  0
  149.6928  143.1639  159.3419 H   0  0  0  0  0  0  0  0  0  0  0  0
  149.9797  145.8598  159.6918 H   0  0  0  0  0  0  0  0  0  0  0  0
  150.8191  144.7131  160.7286 H   0  0  0  0  0  0  0  0  0  0  0  0
  152.0539  146.5439  158.8149 H   0  0  0  0  0  0  0  0  0  0  0  0
  152.8250  145.4557  159.9618 H   0  0  0  0  0  0  0  0  0  0  0  0
  153.5028  144.3286  158.0161 H   0  0  0  0  0  0  0  0  0  0  0  0
  152.1991  145.0146  157.0746 H   0  0  0  0  0  0  0  0  0  0  0  0
  1  2  1  0  0  0  0
  1 21  1  0  0  0  0
  1 22  1  0  0  0  0
  1 23  1  0  0  0  0
  2  3  1  0  0  0  0
  2 24  1  0  0  0  0
  2 25  1  0  0  0  0
  3  4  1  0  0  0  0
  4 16  1  0  0  0  0
  4  5  1  0  0  0  0
  4 26  1  0  0  0  0
  5  6  1  0  0  0  0
  5 27  1  0  0  0  0
  5 28  1  0  0  0  0
  6  7  1  0  0  0  0
  6 16  1  0  0  0  0
  6 29  1  0  0  0  0
  7  8  1  0  0  0  0
  7 30  1  0  0  0  0
  8  9  2  0  0  0  0
  8 10  1  0  0  0  0
 10 11  1  0  0  0  0
 10 31  1  0  0  0  0
 10 32  1  0  0  0  0
 11 15  1  0  0  0  0
 11 12  1  0  0  0  0
 12 13  2  0  0  0  0
 12 33  1  0  0  0  0
 13 14  1  0  0  0  0
 14 15  2  0  0  0  0
 16 20  1  0  0  0  0
 16 17  1  0  0  0  0
 17 18  1  0  0  0  0
 17 34  1  0  0  0  0
 17 35  1  0  0  0  0
 18 19  1  0  0  0  0
 18 36  1  0  0  0  0
 18 37  1  0  0  0  0
 19 20  1  0  0  0  0
 19 38  1  0  0  0  0
 19 39  1  0  0  0  0
 20 40  1  0  0  0  0
 20 41  1  0  0  0  0
M  END
> <s_m_source_file>
AV-unprocessed.smi

> <i_m_source_file_index>
679

> <i_lp_mmshare_version>
43012

> <i_f3d_flags>
0

> <s_epik_input>
W0NIMl0xW0NIMl1bQ0gyXVtDSDJdQzEyW0NASF0oT1tDSDJdW0NIM10pW0NIMl1bQ0BIXTJbTkhdQyg9TylbQ0gyXW4zW2NIXW5ubjM=

> <s_epik_cmdline>
J2VwaWtfcHl0aG9uJywgJy1waCcsICc3LjAnLCAnLXRuJywgJzgnLCAnLW1hJywgJzIwMCcsICctbWV0YWxfYmluZGluZycsICctaW1hZScsICc8aW5maWxlLm1hZT4nLCAnLW9tYWUnLCAnPG91dGZpbGUubWFlPic=

> <r_lp_tautomer_probability>
1

> <r_epik_Ionization_Penalty>
7.96741e-07

> <r_epik_Ionization_Penalty_Charging>
0

> <r_epik_Ionization_Penalty_Neutral>
7.96741e-07

> <r_epik_State_Penalty>
-0

> <r_epik_Charging_Adjusted_Penalty>
0

> <i_epik_Tot_Q>
0

> <i_epik_Tot_abs_Q>
0

> <r_epik_Metal_State_Penalty>
-0

> <b_epik_Metal_Only>
0

> <s_lp_Force_Field>
OPLS_2005

> <r_lp_Energy>
38.413

> <b_lp_Chiralities_Consistent>
1

> <s_lp_Variant>
AV-unprocessed.smi:679-2

> <Gold.Version>
5.8.1

> <Gold.Id.Protein>
6NUR|6NUR_protein|mol2

> <Gold.PLP.Fitness>
50.5896

> <Gold.PLP.PLP>
-43.8603

> <Gold.PLP.part.hbond>
-2.8205

> <Gold.PLP.part.metal>
0.0000

> <Gold.PLP.part.buried>
-4.3110

> <Gold.PLP.part.nonpolar>
-34.8766

> <Gold.PLP.part.repulsive>
0.3776

> <Gold.PLP.ligand.clash>
0.0000

> <Gold.PLP.ligand.torsion>
1.3012

> <Gold.PLP.Chemscore.Hbond>
2.0000

> <Gold.PLP.Chemscore.CHOScore>
1.0000

> <Gold.PLP.Chemscore.Metal>
0.0000

> <Gold.Chemscore.Hbonds>
donor molecule, donor type, donor heavy atom, donor atom, acceptor molecule, acceptor atom, score
      L1  H     7    30       P1  8028  0.94
      P1  H  7989  7998       L1     9  1.00
      L1  C    12    33       P1  7957  0.85

> <Gold.PLP.Chemscore.Internal.Correction>
0.3317

> <Gold.Rescore>
     Score         DG    S(hbond)    S(metal)    S(lipo)     H(rot)  DE(clash)    DE(int)     intcor
     16.19     -17.73       1.61        0.00     111.56       2.41       0.36       1.17       ----

> <Gold.Chemscore.Fitness>
16.1917

> <Gold.Chemscore.DG>
-17.7297

> <Gold.Chemscore.ZeroCoef>
-5.4800

> <Gold.Chemscore.Hbond>
1.6060

> <Gold.Chemscore.Metal>
0.0000

> <Gold.Chemscore.Lipo>
111.5584

> <Gold.Chemscore.Internal_Hbond>
0.0000

> <Gold.Chemscore.DEClash>
0.3635

> <Gold.Chemscore.DEInternal>
1.1745

> <Gold.Chemscore.Rot>
2.4089

> <Gold.Chemscore.Internal.Correction>
   9.000000E+99

> <Gold.Chemscore.Hbonds>
donor molecule, donor type, donor heavy atom, donor atom, acceptor molecule, acceptor atom, score
      L1  H     7    30       P1  8028  0.91
      P1  H  7989  7998       L1     9  0.47

> <Gold.Chemscore.Hbond.Weighted>
-5.3642

> <Gold.Chemscore.Metal.Weighted>
-0.0000

> <Gold.Chemscore.Lipo.Weighted>
-13.0523

> <Gold.Chemscore.Internal_Hbond.Weighted>
0.0000

> <Gold.Chemscore.DEClash.Weighted>
0.3635

> <Gold.Chemscore.DEInternal.Weighted>
1.1745

> <Gold.Chemscore.Rot.Weighted>
6.1668

> <Gold.Chemscore.Internal.Correction.Weighted>
   9.000000E+99

> <Gold.Protein.RotatedTorsions>
[ 6907 6896 6895 6894 ] final  -91.61 input  -60.11 | X-H torsion
[ 7974 7965 7964 7962 ] final  152.51 input  175.53 | X-H torsion
[ 8008 7997 7996 7995 ] final    2.31 input   59.86 | X-H torsion
[ 10167 10162 10161 10158 ] final   17.74 input  -65.29 | X-H torsion
[ 10718 10713 10712 10709 ] final  -98.66 input   66.30 | X-H torsion
[ 10763 10752 10751 10750 ] final   -2.26 input  -60.55 | X-H torsion
[ 11005 11000 10999 10996 ] final   34.97 input  -57.11 | X-H torsion

> <Gold.Protein.ActiveResidues>
 VAL166  LYS551  ARG553  GLY616  TRP617  ASP618  TYR619  PRO620  LYS621  CYS622 
 ASP623  PHE694  ASN695  SER759  ASP760  ASP761  ALA762  ILE779  LEU786  VAL792 
 PHE793  MET794  SER795  GLU796  ALA797  LYS798  CYS799  TRP800  GLU811  SER814 

> <Gold.Protein.RotatedAtoms>
  150.6895  134.2250  159.4411 H   0  0  0  0  0  0  0  0  0  0  0  0  # atno 6907 bound_to 6896
  152.0204  134.9823  160.0579 H   0  0  0  0  0  0  0  0  0  0  0  0  # atno 6908 bound_to 6896
  152.1402  133.4425  159.4800 H   0  0  0  0  0  0  0  0  0  0  0  0  # atno 6909 bound_to 6896
  144.8217  139.6678  143.6097 H   0  0  0  0  0  0  0  0  0  0  0  0  # atno 7974 bound_to 7965
  154.6901  140.2651  155.6821 H   0  0  0  0  0  0  0  0  0  0  0  0  # atno 8008 bound_to 7997
  156.2729  140.2793  156.1399 H   0  0  0  0  0  0  0  0  0  0  0  0  # atno 8009 bound_to 7997
  155.0909  140.0373  157.2658 H   0  0  0  0  0  0  0  0  0  0  0  0  # atno 8010 bound_to 7997
  140.5704  143.9172  150.6708 H   0  0  0  0  0  0  0  0  0  0  0  0  # atno 10167 bound_to 10162
  156.0113  130.5248  150.6555 H   0  0  0  0  0  0  0  0  0  0  0  0  # atno 10718 bound_to 10713
  153.3556  135.6988  153.6753 H   0  0  0  0  0  0  0  0  0  0  0  0  # atno 10763 bound_to 10752
  153.5462  135.3563  155.2740 H   0  0  0  0  0  0  0  0  0  0  0  0  # atno 10764 bound_to 10752
  154.8660  135.4215  154.2802 H   0  0  0  0  0  0  0  0  0  0  0  0  # atno 10765 bound_to 10752
  140.2474  134.3343  155.7902 H   0  0  0  0  0  0  0  0  0  0  0  0  # atno 11005 bound_to 11000
  146.2523  139.6225  142.9419 LP  0  0  0  0  0  0  0  0  0  0  0  0  # atno 17320 bound_to 7965
  145.5090  141.0436  143.2498 LP  0  0  0  0  0  0  0  0  0  0  0  0  # atno 17321 bound_to 7965
  140.2645  143.3500  152.1293 LP  0  0  0  0  0  0  0  0  0  0  0  0  # atno 17342 bound_to 10162
  139.5114  144.6901  151.5783 LP  0  0  0  0  0  0  0  0  0  0  0  0  # atno 17343 bound_to 10162
  157.4308  131.0849  151.1040 LP  0  0  0  0  0  0  0  0  0  0  0  0  # atno 17370 bound_to 10713
  157.1613  130.6227  149.5612 LP  0  0  0  0  0  0  0  0  0  0  0  0  # atno 17371 bound_to 10713
  141.2205  133.7334  156.8983 LP  0  0  0  0  0  0  0  0  0  0  0  0  # atno 17394 bound_to 11000
  140.1592  134.9177  157.2692 LP  0  0  0  0  0  0  0  0  0  0  0  0  # atno 17395 bound_to 11000

$$$$
