AV-unprocessed.smi:3129|AV-procd|sdf|11924|dock3
  -GOLD-   2272017303D 1   1.00000     0.00000
 Structure written by MMmdl.
 39 39  0  0  0  0  0  0  0  0  1 V2000
  144.4611  132.8349  149.5858 C   0  0  0  0  0  0  0  0  0  0  0  0
  145.8201  132.7128  150.2912 C   0  0  0  0  0  0  0  0  0  0  0  0
  145.9982  131.2998  150.8737 C   0  0  0  0  0  0  0  0  0  0  0  0
  145.9829  133.8229  151.3506 C   0  0  0  0  0  0  0  0  0  0  0  0
  147.3060  133.8137  151.9679 N   0  0  0  0  0  0  0  0  0  0  0  0
  147.7331  132.9369  152.8905 C   0  0  0  0  0  0  0  0  0  0  0  0
  147.0352  132.0232  153.3314 O   0  0  0  0  0  0  0  0  0  0  0  0
  149.1653  133.1360  153.4146 C   0  0  2  0  0  0  0  0  0  0  0  0
  149.4625  132.1575  154.5624 C   0  0  0  0  0  0  0  0  0  0  0  0
  149.4411  134.5162  153.8527 N   0  0  0  0  0  0  0  0  0  0  0  0
  150.7901  134.7251  154.3667 C   0  0  0  0  0  0  0  0  0  0  0  0
  150.7241  135.5617  155.6516 C   0  0  0  0  0  0  0  0  0  0  0  0
  151.2716  136.8889  155.4486 N   0  0  0  0  0  0  0  0  0  0  0  0
  151.7678  137.4428  154.2874 C   0  0  0  0  0  0  0  0  0  0  0  0
  152.1780  138.7107  154.5854 C   0  0  0  0  0  0  0  0  0  0  0  0
  151.8893  138.8420  155.9726 C   0  0  0  0  0  0  0  0  0  0  0  0
  151.3485  137.7492  156.4870 N   0  0  0  0  0  0  0  0  0  0  0  0
  143.6372  132.6960  150.2865 H   0  0  0  0  0  0  0  0  0  0  0  0
  144.3579  132.0879  148.7982 H   0  0  0  0  0  0  0  0  0  0  0  0
  144.3436  133.8156  149.1239 H   0  0  0  0  0  0  0  0  0  0  0  0
  146.5919  132.8563  149.5335 H   0  0  0  0  0  0  0  0  0  0  0  0
  145.2851  131.1109  151.6767 H   0  0  0  0  0  0  0  0  0  0  0  0
  147.0003  131.1537  151.2767 H   0  0  0  0  0  0  0  0  0  0  0  0
  145.8470  130.5380  150.1086 H   0  0  0  0  0  0  0  0  0  0  0  0
  145.8547  134.7982  150.8802 H   0  0  0  0  0  0  0  0  0  0  0  0
  145.1964  133.7480  152.1037 H   0  0  0  0  0  0  0  0  0  0  0  0
  147.9478  134.5357  151.6736 H   0  0  0  0  0  0  0  0  0  0  0  0
  149.8573  132.9012  152.6036 H   0  0  0  0  0  0  0  0  0  0  0  0
  149.2805  131.1253  154.2602 H   0  0  0  0  0  0  0  0  0  0  0  0
  148.8447  132.3622  155.4378 H   0  0  0  0  0  0  0  0  0  0  0  0
  150.5056  132.2260  154.8726 H   0  0  0  0  0  0  0  0  0  0  0  0
  149.2452  135.1841  153.1206 H   0  0  0  0  0  0  0  0  0  0  0  0
  151.2593  133.7615  154.5712 H   0  0  0  0  0  0  0  0  0  0  0  0
  151.4060  135.2426  153.6304 H   0  0  0  0  0  0  0  0  0  0  0  0
  149.6918  135.6628  155.9896 H   0  0  0  0  0  0  0  0  0  0  0  0
  151.2756  135.0747  156.4576 H   0  0  0  0  0  0  0  0  0  0  0  0
  151.7888  136.8945  153.3571 H   0  0  0  0  0  0  0  0  0  0  0  0
  152.6179  139.4340  153.9149 H   0  0  0  0  0  0  0  0  0  0  0  0
  152.0564  139.6925  156.6170 H   0  0  0  0  0  0  0  0  0  0  0  0
  1  2  1  0  0  0  0
  1 18  1  0  0  0  0
  1 19  1  0  0  0  0
  1 20  1  0  0  0  0
  2  3  1  0  0  0  0
  2  4  1  0  0  0  0
  2 21  1  0  0  0  0
  3 22  1  0  0  0  0
  3 23  1  0  0  0  0
  3 24  1  0  0  0  0
  4  5  1  0  0  0  0
  4 25  1  0  0  0  0
  4 26  1  0  0  0  0
  5  6  1  0  0  0  0
  5 27  1  0  0  0  0
  6  7  2  0  0  0  0
  6  8  1  0  0  0  0
  8  9  1  0  0  0  0
  8 10  1  0  0  0  0
  8 28  1  0  0  0  0
  9 29  1  0  0  0  0
  9 30  1  0  0  0  0
  9 31  1  0  0  0  0
 10 11  1  0  0  0  0
 10 32  1  0  0  0  0
 11 12  1  0  0  0  0
 11 33  1  0  0  0  0
 11 34  1  0  0  0  0
 12 13  1  0  0  0  0
 12 35  1  0  0  0  0
 12 36  1  0  0  0  0
 13 17  1  0  0  0  0
 13 14  1  0  0  0  0
 14 15  2  0  0  0  0
 14 37  1  0  0  0  0
 15 16  1  0  0  0  0
 15 38  1  0  0  0  0
 16 17  2  0  0  0  0
 16 39  1  0  0  0  0
M  END
> <s_m_source_file>
AV-unprocessed.smi

> <i_m_source_file_index>
3129

> <i_lp_mmshare_version>
43012

> <i_f3d_flags>
0

> <s_epik_input>
W0NIM11bQ0hdKFtDSDNdKVtDSDJdW05IXUMoPU8pW0NASF0oW0NIM10pW05IXVtDSDJdW0NIMl1uMVtjSF1bY0hdW2NIXW4x

> <s_epik_cmdline>
J2VwaWtfcHl0aG9uJywgJy1waCcsICc3LjAnLCAnLXRuJywgJzgnLCAnLW1hJywgJzIwMCcsICctbWV0YWxfYmluZGluZycsICctaW1hZScsICc8aW5maWxlLm1hZT4nLCAnLW9tYWUnLCAnPG91dGZpbGUubWFlPic=

> <r_lp_tautomer_probability>
1

> <r_epik_Ionization_Penalty>
0.724007

> <r_epik_Ionization_Penalty_Charging>
0

> <r_epik_Ionization_Penalty_Neutral>
0.724007

> <r_epik_State_Penalty>
0.74758

> <r_epik_Charging_Adjusted_Penalty>
0.74758

> <i_epik_Tot_Q>
0

> <i_epik_Tot_abs_Q>
0

> <r_epik_Metal_State_Penalty>
0.746851

> <b_epik_Metal_Only>
0

> <s_lp_Force_Field>
OPLS_2005

> <r_lp_Energy>
5.79034

> <b_lp_Chiralities_Consistent>
1

> <s_lp_Variant>
AV-unprocessed.smi:3129-3

> <Gold.Version>
5.8.1

> <Gold.Id.Protein>
6NUR|6NUR_protein|mol2

> <Gold.PLP.Fitness>
39.5389

> <Gold.PLP.PLP>
-32.1147

> <Gold.PLP.part.hbond>
-2.0000

> <Gold.PLP.part.metal>
0.0000

> <Gold.PLP.part.buried>
-2.7083

> <Gold.PLP.part.nonpolar>
-26.7831

> <Gold.PLP.part.repulsive>
0.1370

> <Gold.PLP.ligand.clash>
0.0000

> <Gold.PLP.ligand.torsion>
0.8940

> <Gold.PLP.Chemscore.Hbond>
2.0000

> <Gold.PLP.Chemscore.CHOScore>
1.0000

> <Gold.PLP.Chemscore.Metal>
0.0000

> <Gold.Chemscore.Hbonds>
donor molecule, donor type, donor heavy atom, donor atom, acceptor molecule, acceptor atom, score
      L1  H     5    27       P1  7948  0.70
      L1  H    10    32       P1  7948  0.70
      L1  C    14    37       P1  7949  1.00

> <Gold.PLP.Chemscore.Internal.Correction>
0.2122

> <Gold.Rescore>
     Score         DG    S(hbond)    S(metal)    S(lipo)     H(rot)  DE(clash)    DE(int)     intcor
     13.41     -14.67       1.84        0.00      72.65       2.13       0.12       1.14       ----

> <Gold.Chemscore.Fitness>
13.4126

> <Gold.Chemscore.DG>
-14.6678

> <Gold.Chemscore.ZeroCoef>
-5.4800

> <Gold.Chemscore.Hbond>
1.8419

> <Gold.Chemscore.Metal>
0.0000

> <Gold.Chemscore.Lipo>
72.6503

> <Gold.Chemscore.Internal_Hbond>
0.0000

> <Gold.Chemscore.DEClash>
0.1199

> <Gold.Chemscore.DEInternal>
1.1353

> <Gold.Chemscore.Rot>
2.1345

> <Gold.Chemscore.Internal.Correction>
   9.000000E+99

> <Gold.Chemscore.Hbonds>
donor molecule, donor type, donor heavy atom, donor atom, acceptor molecule, acceptor atom, score
      L1  H     5    27       P1  7948  0.07
      L1  H    10    32       P1  7948  0.07

> <Gold.Chemscore.Hbond.Weighted>
-6.1520

> <Gold.Chemscore.Metal.Weighted>
-0.0000

> <Gold.Chemscore.Lipo.Weighted>
-8.5001

> <Gold.Chemscore.Internal_Hbond.Weighted>
0.0000

> <Gold.Chemscore.DEClash.Weighted>
0.1199

> <Gold.Chemscore.DEInternal.Weighted>
1.1353

> <Gold.Chemscore.Rot.Weighted>
5.4642

> <Gold.Chemscore.Internal.Correction.Weighted>
   9.000000E+99

> <Gold.Protein.RotatedTorsions>
[ 6907 6896 6895 6894 ] final -161.22 input  -60.11 | X-H torsion
[ 7974 7965 7964 7962 ] final -178.19 input  175.53 | X-H torsion
[ 8008 7997 7996 7995 ] final  171.36 input   59.86 | X-H torsion
[ 10167 10162 10161 10158 ] final  175.26 input  -65.29 | X-H torsion
[ 10718 10713 10712 10709 ] final  116.02 input   66.30 | X-H torsion
[ 10763 10752 10751 10750 ] final  -87.58 input  -60.55 | X-H torsion
[ 11005 11000 10999 10996 ] final -117.35 input  -57.11 | X-H torsion

> <Gold.Protein.ActiveResidues>
 VAL166  LYS551  ARG553  GLY616  TRP617  ASP618  TYR619  PRO620  LYS621  CYS622 
 ASP623  PHE694  ASN695  SER759  ASP760  ASP761  ALA762  ILE779  LEU786  VAL792 
 PHE793  MET794  SER795  GLU796  ALA797  LYS798  CYS799  TRP800  GLU811  SER814 

> <Gold.Protein.RotatedAtoms>
  151.3612  133.3889  159.2689 H   0  0  0  0  0  0  0  0  0  0  0  0  # atno 6907 bound_to 6896
  150.9724  134.9095  159.7806 H   0  0  0  0  0  0  0  0  0  0  0  0  # atno 6908 bound_to 6896
  152.5189  134.3574  159.9325 H   0  0  0  0  0  0  0  0  0  0  0  0  # atno 6909 bound_to 6896
  144.7130  140.0906  143.6421 H   0  0  0  0  0  0  0  0  0  0  0  0  # atno 7974 bound_to 7965
  156.1279  140.1514  156.9109 H   0  0  0  0  0  0  0  0  0  0  0  0  # atno 8008 bound_to 7997
  154.4886  140.0858  156.7583 H   0  0  0  0  0  0  0  0  0  0  0  0  # atno 8009 bound_to 7997
  155.4310  140.3427  155.4282 H   0  0  0  0  0  0  0  0  0  0  0  0  # atno 8010 bound_to 7997
  139.5171  144.3052  152.0342 H   0  0  0  0  0  0  0  0  0  0  0  0  # atno 10167 bound_to 10162
  157.6186  131.1020  150.7412 H   0  0  0  0  0  0  0  0  0  0  0  0  # atno 10718 bound_to 10713
  154.6352  135.5408  153.7726 H   0  0  0  0  0  0  0  0  0  0  0  0  # atno 10763 bound_to 10752
  153.0305  135.6445  154.1242 H   0  0  0  0  0  0  0  0  0  0  0  0  # atno 10764 bound_to 10752
  154.1170  135.2923  155.3197 H   0  0  0  0  0  0  0  0  0  0  0  0  # atno 10765 bound_to 10752
  141.0360  133.9908  157.3069 H   0  0  0  0  0  0  0  0  0  0  0  0  # atno 11005 bound_to 11000
  145.9624  139.2810  143.1148 LP  0  0  0  0  0  0  0  0  0  0  0  0  # atno 17320 bound_to 7965
  145.9206  140.9118  143.0407 LP  0  0  0  0  0  0  0  0  0  0  0  0  # atno 17321 bound_to 7965
  140.2499  144.4180  150.6226 LP  0  0  0  0  0  0  0  0  0  0  0  0  # atno 17342 bound_to 10162
  140.6232  143.2178  151.6651 LP  0  0  0  0  0  0  0  0  0  0  0  0  # atno 17343 bound_to 10162
  156.7774  130.4848  149.5407 LP  0  0  0  0  0  0  0  0  0  0  0  0  # atno 17370 bound_to 10713
  156.1321  130.6185  151.0348 LP  0  0  0  0  0  0  0  0  0  0  0  0  # atno 17371 bound_to 10713
  139.9241  135.0201  156.8172 LP  0  0  0  0  0  0  0  0  0  0  0  0  # atno 17394 bound_to 11000
  140.6320  133.9897  155.7666 LP  0  0  0  0  0  0  0  0  0  0  0  0  # atno 17395 bound_to 11000

$$$$
