AV-unprocessed.smi:243|AV-procd|sdf|1854|dock4
  -GOLD-   2262020483D 1   1.00000     0.00000
 Structure written by MMmdl.
 58 61  0  0  0  0  0  0  0  0  2 V2000
  146.5701  129.4811  153.4903 C   0  0  0  0  0  0  0  0  0  0  0  0
  145.6644  130.4614  152.7312 C   0  0  0  0  0  0  0  0  0  0  0  0
  146.4349  131.4489  151.9284 N   0  3  2  0  0  0  0  0  0  0  0  0
  147.1135  132.4805  152.7534 C   0  0  0  0  0  0  0  0  0  0  0  0
  146.1175  133.5159  153.2999 C   0  0  0  0  0  0  0  0  0  0  0  0
  145.3227  134.1803  152.1564 C   0  0  2  0  0  0  0  0  0  0  0  0
  144.3668  135.1730  152.6677 N   0  0  0  0  0  0  0  0  0  0  0  0
  142.9476  134.8435  152.7808 C   0  0  0  0  0  0  0  0  0  0  0  0
  144.8118  136.2448  153.3808 C   0  0  0  0  0  0  0  0  0  0  0  0
  144.4620  136.3667  154.6897 N   0  0  0  0  0  0  0  0  0  0  0  0
  144.8741  137.4127  155.4110 C   0  0  0  0  0  0  0  0  0  0  0  0
  145.6362  138.4383  155.0308 N   0  0  0  0  0  0  0  0  0  0  0  0
  146.0053  138.3216  153.7238 C   0  0  0  0  0  0  0  0  0  0  0  0
  145.6393  137.2707  152.8339 C   0  0  0  0  0  0  0  0  0  0  0  0
  146.2112  137.4964  151.5864 N   0  0  0  0  0  0  0  0  0  0  0  0
  146.8641  138.6168  151.7275 C   0  0  0  0  0  0  0  0  0  0  0  0
  146.8037  139.1765  152.9831 N   0  0  0  0  0  0  0  0  0  0  0  0
  147.4367  140.4120  153.4195 C   0  0  0  0  0  0  0  0  0  0  0  0
  148.4162  140.2263  154.6031 C   0  0  2  0  0  0  0  0  0  0  0  0
  147.6962  139.7737  155.7365 O   0  0  0  0  0  0  0  0  0  0  0  0
  149.1382  141.5146  154.9779 C   0  0  0  0  0  0  0  0  0  0  0  0
  150.4564  141.0088  155.5475 C   0  0  0  0  0  0  0  0  0  0  0  0
  150.7771  139.9284  154.6881 O   0  0  0  0  0  0  0  0  0  0  0  0
  149.5770  139.2444  154.3385 C   0  0  0  0  0  0  0  0  0  0  0  0
  144.6452  133.1091  151.2650 C   0  0  1  0  0  0  0  0  0  0  0  0
  143.9473  133.7346  150.0445 C   0  0  0  0  0  0  0  0  0  0  0  0
  145.6855  132.0639  150.7994 C   0  0  0  0  0  0  0  0  0  0  0  0
  145.9775  128.8465  154.1497 H   0  0  0  0  0  0  0  0  0  0  0  0
  147.2956  130.0109  154.1080 H   0  0  0  0  0  0  0  0  0  0  0  0
  147.1160  128.8209  152.8169 H   0  0  0  0  0  0  0  0  0  0  0  0
  144.9545  129.9175  152.1085 H   0  0  0  0  0  0  0  0  0  0  0  0
  145.0694  130.9989  153.4705 H   0  0  0  0  0  0  0  0  0  0  0  0
  147.6650  132.0114  153.5690 H   0  0  0  0  0  0  0  0  0  0  0  0
  147.8578  132.9841  152.1351 H   0  0  0  0  0  0  0  0  0  0  0  0
  145.4441  133.0346  154.0090 H   0  0  0  0  0  0  0  0  0  0  0  0
  146.6603  134.2732  153.8660 H   0  0  0  0  0  0  0  0  0  0  0  0
  146.0394  134.6891  151.5104 H   0  0  0  0  0  0  0  0  0  0  0  0
  142.5573  135.1047  153.7652 H   0  0  0  0  0  0  0  0  0  0  0  0
  142.7672  133.7794  152.6330 H   0  0  0  0  0  0  0  0  0  0  0  0
  142.3747  135.3838  152.0269 H   0  0  0  0  0  0  0  0  0  0  0  0
  144.5470  137.4305  156.4402 H   0  0  0  0  0  0  0  0  0  0  0  0
  147.4142  139.0651  150.9129 H   0  0  0  0  0  0  0  0  0  0  0  0
  147.9595  140.8431  152.5647 H   0  0  0  0  0  0  0  0  0  0  0  0
  146.6535  141.1226  153.6873 H   0  0  0  0  0  0  0  0  0  0  0  0
  147.2810  138.9528  155.5207 H   0  0  0  0  0  0  0  0  0  0  0  0
  149.3424  142.1076  154.0853 H   0  0  0  0  0  0  0  0  0  0  0  0
  148.5822  142.1444  155.6737 H   0  0  0  0  0  0  0  0  0  0  0  0
  151.2375  141.7693  155.5474 H   0  0  0  0  0  0  0  0  0  0  0  0
  150.3289  140.6423  156.5673 H   0  0  0  0  0  0  0  0  0  0  0  0
  149.4838  138.3264  154.9213 H   0  0  0  0  0  0  0  0  0  0  0  0
  149.6482  138.9595  153.2894 H   0  0  0  0  0  0  0  0  0  0  0  0
  143.8805  132.5908  151.8427 H   0  0  0  0  0  0  0  0  0  0  0  0
  144.6531  134.2881  149.4243 H   0  0  0  0  0  0  0  0  0  0  0  0
  143.1569  134.4237  150.3427 H   0  0  0  0  0  0  0  0  0  0  0  0
  143.4875  132.9675  149.4211 H   0  0  0  0  0  0  0  0  0  0  0  0
  146.4115  132.5468  150.1435 H   0  0  0  0  0  0  0  0  0  0  0  0
  145.2094  131.2945  150.1925 H   0  0  0  0  0  0  0  0  0  0  0  0
  147.1803  130.9129  151.5072 H   0  0  0  0  0  0  0  0  0  0  0  0
  1  2  1  0  0  0  0
  1 28  1  0  0  0  0
  1 29  1  0  0  0  0
  1 30  1  0  0  0  0
  2  3  1  0  0  0  0
  2 31  1  0  0  0  0
  2 32  1  0  0  0  0
  3 27  1  0  0  0  0
  3  4  1  0  0  0  0
  3 58  1  0  0  0  0
  4  5  1  0  0  0  0
  4 33  1  0  0  0  0
  4 34  1  0  0  0  0
  5  6  1  0  0  0  0
  5 35  1  0  0  0  0
  5 36  1  0  0  0  0
  6  7  1  0  0  0  0
  6 25  1  0  0  0  0
  6 37  1  0  0  0  0
  7  8  1  0  0  0  0
  7  9  1  0  0  0  0
  8 38  1  0  0  0  0
  8 39  1  0  0  0  0
  8 40  1  0  0  0  0
  9 14  1  0  0  0  0
  9 10  2  0  0  0  0
 10 11  1  0  0  0  0
 11 12  2  0  0  0  0
 11 41  1  0  0  0  0
 12 13  1  0  0  0  0
 13 17  1  0  0  0  0
 13 14  2  0  0  0  0
 14 15  1  0  0  0  0
 15 16  2  0  0  0  0
 16 17  1  0  0  0  0
 16 42  1  0  0  0  0
 17 18  1  0  0  0  0
 18 19  1  0  0  0  0
 18 43  1  0  0  0  0
 18 44  1  0  0  0  0
 19 24  1  0  0  0  0
 19 20  1  0  0  0  0
 19 21  1  0  0  0  0
 20 45  1  0  0  0  0
 21 22  1  0  0  0  0
 21 46  1  0  0  0  0
 21 47  1  0  0  0  0
 22 23  1  0  0  0  0
 22 48  1  0  0  0  0
 22 49  1  0  0  0  0
 23 24  1  0  0  0  0
 24 50  1  0  0  0  0
 24 51  1  0  0  0  0
 25 26  1  0  0  0  0
 25 27  1  0  0  0  0
 25 52  1  0  0  0  0
 26 53  1  0  0  0  0
 26 54  1  0  0  0  0
 26 55  1  0  0  0  0
 27 56  1  0  0  0  0
 27 57  1  0  0  0  0
M  CHG  1   3   1
M  END
> <s_m_source_file>
AV-unprocessed.smi

> <i_m_source_file_index>
243

> <i_lp_mmshare_version>
43012

> <i_f3d_flags>
0

> <s_epik_input>
W0NIM11bQ0gyXU4xW0NIMl1bQ0gyXVtDQEhdKFtDQEBIXShbQ0gzXSlbQ0gyXTEpTihbQ0gzXSljKG5bY0hdbjIpYyhjMjMpbltjSF1uM1tDSDJdW0NAQF00KFtPSF0pW0NIMl1bQ0gyXU9bQ0gyXTQ=

> <s_epik_cmdline>
J2VwaWtfcHl0aG9uJywgJy1waCcsICc3LjAnLCAnLXRuJywgJzgnLCAnLW1hJywgJzIwMCcsICctbWV0YWxfYmluZGluZycsICctaW1hZScsICc8aW5maWxlLm1hZT4nLCAnLW9tYWUnLCAnPG91dGZpbGUubWFlPic=

> <r_lp_tautomer_probability>
1

> <r_epik_Ionization_Penalty>
0.00253099

> <r_epik_Ionization_Penalty_Charging>
0.00137877

> <r_epik_Ionization_Penalty_Neutral>
0.00115221

> <r_epik_State_Penalty>
-0

> <r_epik_Charging_Adjusted_Penalty>
0.00137877

> <i_epik_Tot_Q>
1

> <i_epik_Tot_abs_Q>
1

> <r_epik_Metal_State_Penalty>
-0

> <b_epik_Metal_Only>
0

> <s_lp_Force_Field>
OPLS_2005

> <r_lp_Energy>
46.0239

> <b_lp_Chiralities_Consistent>
1

> <s_lp_Variant>
AV-unprocessed.smi:243-7

> <Gold.Version>
5.8.1

> <Gold.Id.Protein>
6NUR|6NUR_protein|mol2

> <Gold.PLP.Fitness>
46.9977

> <Gold.PLP.PLP>
-40.8750

> <Gold.PLP.part.hbond>
-2.0000

> <Gold.PLP.part.metal>
0.0000

> <Gold.PLP.part.buried>
-2.3536

> <Gold.PLP.part.nonpolar>
-38.6281

> <Gold.PLP.part.repulsive>
1.5104

> <Gold.PLP.ligand.clash>
0.0000

> <Gold.PLP.ligand.torsion>
1.4964

> <Gold.PLP.Chemscore.Hbond>
2.0000

> <Gold.PLP.Chemscore.CHOScore>
0.8738

> <Gold.PLP.Chemscore.Metal>
0.0000

> <Gold.Chemscore.Hbonds>
donor molecule, donor type, donor heavy atom, donor atom, acceptor molecule, acceptor atom, score
      L1  H     3    58       P1 10747  0.63
      P1  H  7989  7998       L1    23  0.85
      L1  C    16    42       P1  7957  0.90

> <Gold.PLP.Chemscore.Internal.Correction>
0.4939

> <Gold.Rescore>
     Score         DG    S(hbond)    S(metal)    S(lipo)     H(rot)  DE(clash)    DE(int)     intcor
     13.96     -17.03       1.91        0.00      93.29       2.24       0.65       2.42       ----

> <Gold.Chemscore.Fitness>
13.9574

> <Gold.Chemscore.DG>
-17.0297

> <Gold.Chemscore.ZeroCoef>
-5.4800

> <Gold.Chemscore.Hbond>
1.9053

> <Gold.Chemscore.Metal>
0.0000

> <Gold.Chemscore.Lipo>
93.2901

> <Gold.Chemscore.Internal_Hbond>
0.0000

> <Gold.Chemscore.DEClash>
0.6542

> <Gold.Chemscore.DEInternal>
2.4181

> <Gold.Chemscore.Rot>
2.2379

> <Gold.Chemscore.Internal.Correction>
   9.000000E+99

> <Gold.Chemscore.Hbonds>
donor molecule, donor type, donor heavy atom, donor atom, acceptor molecule, acceptor atom, score
      L1  H     3    58       P1 10747  0.59
      P1  H  7989  7998       L1    23  0.14

> <Gold.Chemscore.Hbond.Weighted>
-6.3638

> <Gold.Chemscore.Metal.Weighted>
-0.0000

> <Gold.Chemscore.Lipo.Weighted>
-10.9149

> <Gold.Chemscore.Internal_Hbond.Weighted>
0.0000

> <Gold.Chemscore.DEClash.Weighted>
0.6542

> <Gold.Chemscore.DEInternal.Weighted>
2.4181

> <Gold.Chemscore.Rot.Weighted>
5.7291

> <Gold.Chemscore.Internal.Correction.Weighted>
   9.000000E+99

> <Gold.Protein.RotatedTorsions>
[ 6907 6896 6895 6894 ] final   51.92 input  -60.11 | X-H torsion
[ 7974 7965 7964 7962 ] final  177.80 input  175.53 | X-H torsion
[ 8008 7997 7996 7995 ] final   77.79 input   59.86 | X-H torsion
[ 10167 10162 10161 10158 ] final  -98.99 input  -65.29 | X-H torsion
[ 10718 10713 10712 10709 ] final  -42.40 input   66.30 | X-H torsion
[ 10763 10752 10751 10750 ] final  129.18 input  -60.55 | X-H torsion
[ 11005 11000 10999 10996 ] final -146.15 input  -57.11 | X-H torsion

> <Gold.Protein.ActiveResidues>
 VAL166  LYS551  ARG553  GLY616  TRP617  ASP618  TYR619  PRO620  LYS621  CYS622 
 ASP623  PHE694  ASN695  SER759  ASP760  ASP761  ALA762  ILE779  LEU786  VAL792 
 PHE793  MET794  SER795  GLU796  ALA797  LYS798  CYS799  TRP800  GLU811  SER814 

> <Gold.Protein.RotatedAtoms>
  152.3178  134.7418  160.0320 H   0  0  0  0  0  0  0  0  0  0  0  0  # atno 6907 bound_to 6896
  151.7877  133.3351  159.3498 H   0  0  0  0  0  0  0  0  0  0  0  0  # atno 6908 bound_to 6896
  150.7353  134.5802  159.5979 H   0  0  0  0  0  0  0  0  0  0  0  0  # atno 6909 bound_to 6896
  144.7164  140.0302  143.6439 H   0  0  0  0  0  0  0  0  0  0  0  0  # atno 7974 bound_to 7965
  155.8466  140.3460  155.5666 H   0  0  0  0  0  0  0  0  0  0  0  0  # atno 8008 bound_to 7997
  155.8083  140.0895  157.1938 H   0  0  0  0  0  0  0  0  0  0  0  0  # atno 8009 bound_to 7997
  154.4006  140.1452  156.3344 H   0  0  0  0  0  0  0  0  0  0  0  0  # atno 8010 bound_to 7997
  140.2672  143.3368  152.0569 H   0  0  0  0  0  0  0  0  0  0  0  0  # atno 10167 bound_to 10162
  156.2600  130.4196  149.8553 H   0  0  0  0  0  0  0  0  0  0  0  0  # atno 10718 bound_to 10713
  153.7376  135.3229  155.3298 H   0  0  0  0  0  0  0  0  0  0  0  0  # atno 10763 bound_to 10752
  154.8306  135.4537  154.1059 H   0  0  0  0  0  0  0  0  0  0  0  0  # atno 10764 bound_to 10752
  153.2225  135.6950  153.8065 H   0  0  0  0  0  0  0  0  0  0  0  0  # atno 10765 bound_to 10752
  140.7850  134.3035  157.5033 H   0  0  0  0  0  0  0  0  0  0  0  0  # atno 11005 bound_to 11000
  146.0109  139.3169  143.0871 LP  0  0  0  0  0  0  0  0  0  0  0  0  # atno 17320 bound_to 7965
  145.8683  140.9435  143.0664 LP  0  0  0  0  0  0  0  0  0  0  0  0  # atno 17321 bound_to 7965
  139.4999  144.6680  151.6310 LP  0  0  0  0  0  0  0  0  0  0  0  0  # atno 17342 bound_to 10162
  140.5919  143.9765  150.6330 LP  0  0  0  0  0  0  0  0  0  0  0  0  # atno 17343 bound_to 10162
  156.6071  130.8571  151.3445 LP  0  0  0  0  0  0  0  0  0  0  0  0  # atno 17370 bound_to 10713
  157.7247  130.9606  150.1584 LP  0  0  0  0  0  0  0  0  0  0  0  0  # atno 17371 bound_to 10713
  139.8738  134.9341  156.3597 LP  0  0  0  0  0  0  0  0  0  0  0  0  # atno 17394 bound_to 11000
  140.9446  133.7492  156.0191 LP  0  0  0  0  0  0  0  0  0  0  0  0  # atno 17395 bound_to 11000

$$$$
