AV-unprocessed.smi:101|AV-procd|sdf|938|dock10
  -GOLD-   2262017453D 1   1.00000     0.00000
 Structure written by MMmdl.
 43 45  0  0  0  0  0  0  0  0  2 V2000
  149.5682  133.8811  154.1186 C   0  0  0  0  0  0  0  0  0  0  0  0
  149.5373  134.7527  155.3619 C   0  0  0  0  0  0  0  0  0  0  0  0
  149.1830  136.0564  155.3201 C   0  0  0  0  0  0  0  0  0  0  0  0
  149.1578  136.8458  156.4567 N   0  0  0  0  0  0  0  0  0  0  0  0
  148.7402  138.2965  156.3882 C   0  0  1  0  0  0  0  0  0  0  0  0
  149.8061  139.0971  156.8058 O   0  0  0  0  0  0  0  0  0  0  0  0
  149.9450  140.2057  155.9277 C   0  0  1  0  0  0  0  0  0  0  0  0
  151.3686  140.7780  155.9786 C   0  0  0  0  0  0  0  0  0  0  0  0
  151.5758  141.4075  157.2322 O   0  0  0  0  0  0  0  0  0  0  0  0
  152.3622  140.8239  158.1571 C   0  0  0  0  0  0  0  0  0  0  0  0
  152.9367  139.7472  157.9823 O   0  0  0  0  0  0  0  0  0  0  0  0
  152.4691  141.6194  159.4143 C   0  0  0  0  0  0  0  0  0  0  0  0
  153.3004  141.1543  160.4600 C   0  0  0  0  0  0  0  0  0  0  0  0
  153.4231  141.8848  161.6579 C   0  0  0  0  0  0  0  0  0  0  0  0
  152.7158  143.0896  161.8248 C   0  0  0  0  0  0  0  0  0  0  0  0
  151.8837  143.5619  160.7931 C   0  0  0  0  0  0  0  0  0  0  0  0
  151.7592  142.8325  159.5946 C   0  0  0  0  0  0  0  0  0  0  0  0
  149.5010  139.6547  154.5680 C   0  0  1  0  0  0  0  0  0  0  0  0
  150.5593  138.9695  153.9224 O   0  0  0  0  0  0  0  0  0  0  0  0
  148.3878  138.6843  154.9406 C   0  0  2  0  0  0  0  0  0  0  0  0
  147.1320  139.3297  154.8799 O   0  0  0  0  0  0  0  0  0  0  0  0
  149.4760  136.2752  157.7159 C   0  0  0  0  0  0  0  0  0  0  0  0
  149.3979  136.9934  158.7133 O   0  0  0  0  0  0  0  0  0  0  0  0
  149.8425  134.9631  157.7667 N   0  5  0  0  0  0  0  0  0  0  0  0
  149.8975  134.1681  156.6594 C   0  0  0  0  0  0  0  0  0  0  0  0
  150.2353  132.9860  156.7194 O   0  0  0  0  0  0  0  0  0  0  0  0
  149.2842  134.4471  153.2309 H   0  0  0  0  0  0  0  0  0  0  0  0
  148.8769  133.0444  154.2223 H   0  0  0  0  0  0  0  0  0  0  0  0
  150.5705  133.4829  153.9586 H   0  0  0  0  0  0  0  0  0  0  0  0
  148.9066  136.4863  154.3688 H   0  0  0  0  0  0  0  0  0  0  0  0
  147.9173  138.4122  157.0958 H   0  0  0  0  0  0  0  0  0  0  0  0
  149.2295  140.9707  156.2354 H   0  0  0  0  0  0  0  0  0  0  0  0
  152.1071  139.9907  155.8192 H   0  0  0  0  0  0  0  0  0  0  0  0
  151.4969  141.5182  155.1876 H   0  0  0  0  0  0  0  0  0  0  0  0
  153.8544  140.2326  160.3546 H   0  0  0  0  0  0  0  0  0  0  0  0
  154.0614  141.5199  162.4490 H   0  0  0  0  0  0  0  0  0  0  0  0
  152.8109  143.6504  162.7429 H   0  0  0  0  0  0  0  0  0  0  0  0
  151.3390  144.4859  160.9202 H   0  0  0  0  0  0  0  0  0  0  0  0
  151.1105  143.2226  158.8238 H   0  0  0  0  0  0  0  0  0  0  0  0
  149.1604  140.4477  153.9007 H   0  0  0  0  0  0  0  0  0  0  0  0
  150.1917  138.2811  153.3901 H   0  0  0  0  0  0  0  0  0  0  0  0
  148.3588  137.8107  154.2867 H   0  0  0  0  0  0  0  0  0  0  0  0
  146.5972  138.8720  154.2485 H   0  0  0  0  0  0  0  0  0  0  0  0
  1  2  1  0  0  0  0
  1 27  1  0  0  0  0
  1 28  1  0  0  0  0
  1 29  1  0  0  0  0
  2 25  1  0  0  0  0
  2  3  2  0  0  0  0
  3  4  1  0  0  0  0
  3 30  1  0  0  0  0
  4  5  1  0  0  0  0
  4 22  1  0  0  0  0
  5 20  1  0  0  0  0
  5  6  1  0  0  0  0
  5 31  1  0  0  0  0
  6  7  1  0  0  0  0
  7  8  1  0  0  0  0
  7 18  1  0  0  0  0
  7 32  1  0  0  0  0
  8  9  1  0  0  0  0
  8 33  1  0  0  0  0
  8 34  1  0  0  0  0
  9 10  1  0  0  0  0
 10 11  2  0  0  0  0
 10 12  1  0  0  0  0
 12 17  1  0  0  0  0
 12 13  2  0  0  0  0
 13 14  1  0  0  0  0
 13 35  1  0  0  0  0
 14 15  2  0  0  0  0
 14 36  1  0  0  0  0
 15 16  1  0  0  0  0
 15 37  1  0  0  0  0
 16 17  2  0  0  0  0
 16 38  1  0  0  0  0
 17 39  1  0  0  0  0
 18 19  1  0  0  0  0
 18 20  1  0  0  0  0
 18 40  1  0  0  0  0
 19 41  1  0  0  0  0
 20 21  1  0  0  0  0
 20 42  1  0  0  0  0
 21 43  1  0  0  0  0
 22 23  2  0  0  0  0
 22 24  1  0  0  0  0
 24 25  1  0  0  0  0
 25 26  2  0  0  0  0
M  CHG  1  24  -1
M  END
> <s_m_source_file>
AV-unprocessed.smi

> <i_m_source_file_index>
101

> <i_lp_mmshare_version>
43012

> <i_f3d_flags>
0

> <s_epik_input>
Tz1jMVtuSF1jKD1PKW4oW2NIXWMxW0NIM10pW0NAQEhdMk9bQ0BIXShbQ0BASF0oW09IXSlbQ0BIXTJbT0hdKVtDSDJdT0MoPU8pYzNbY0hdW2NIXVtjSF1bY0hdW2NIXTM=

> <s_epik_cmdline>
J2VwaWtfcHl0aG9uJywgJy1waCcsICc3LjAnLCAnLXRuJywgJzgnLCAnLW1hJywgJzIwMCcsICctbWV0YWxfYmluZGluZycsICctaW1hZScsICc8aW5maWxlLm1hZT4nLCAnLW9tYWUnLCAnPG91dGZpbGUubWFlPic=

> <r_lp_tautomer_probability>
0.999537

> <r_epik_Ionization_Penalty>
3.21006

> <r_epik_Ionization_Penalty_Charging>
5.75142e-08

> <r_epik_Ionization_Penalty_Neutral>
3.21006

> <r_epik_State_Penalty>
3.20925

> <r_epik_Charging_Adjusted_Penalty>
3.20925

> <i_epik_Tot_Q>
-1

> <i_epik_Tot_abs_Q>
1

> <r_epik_Metal_State_Penalty>
0.119957

> <b_epik_Metal_Only>
1

> <s_epik_Chemistry_Notes>
This compound has an ester and may undergo hydrolysis at high or low pH. This compound contains an acetal/aminal-like group ( X-CH(R)-Y where X, Y are N, S, or O) that may be acid/base labile, releasing an aldehyde.

> <s_lp_Force_Field>
OPLS_2005

> <r_lp_Energy>
38.3605

> <b_lp_Chiralities_Consistent>
1

> <s_lp_Variant>
AV-unprocessed.smi:101-26

> <Gold.Version>
5.8.1

> <Gold.Id.Protein>
6NUR|6NUR_protein|mol2

> <Gold.PLP.Fitness>
51.0677

> <Gold.PLP.PLP>
-39.1385

> <Gold.PLP.part.hbond>
-3.5598

> <Gold.PLP.part.metal>
0.0000

> <Gold.PLP.part.buried>
-3.2645

> <Gold.PLP.part.nonpolar>
-30.7150

> <Gold.PLP.part.repulsive>
0.0211

> <Gold.PLP.ligand.clash>
0.0000

> <Gold.PLP.ligand.torsion>
0.3848

> <Gold.PLP.Chemscore.Hbond>
3.2254

> <Gold.PLP.Chemscore.CHOScore>
1.0000

> <Gold.PLP.Chemscore.Metal>
0.0000

> <Gold.Chemscore.Hbonds>
donor molecule, donor type, donor heavy atom, donor atom, acceptor molecule, acceptor atom, score
      P1  H  6896  6908       L1    24  1.86
      P1  H  7989  7998       L1    19  0.36
      P1  H  7997  8009       L1    11  1.00
      L1  C     3    30       P1  7948  1.00

> <Gold.PLP.Chemscore.Internal.Correction>
0.0227

> <Gold.Rescore>
     Score         DG    S(hbond)    S(metal)    S(lipo)     H(rot)  DE(clash)    DE(int)     intcor
     13.67     -15.38       2.01        0.00      98.67       3.27       0.04       1.67       ----

> <Gold.Chemscore.Fitness>
13.6690

> <Gold.Chemscore.DG>
-15.3753

> <Gold.Chemscore.ZeroCoef>
-5.4800

> <Gold.Chemscore.Hbond>
2.0092

> <Gold.Chemscore.Metal>
0.0000

> <Gold.Chemscore.Lipo>
98.6705

> <Gold.Chemscore.Internal_Hbond>
0.0000

> <Gold.Chemscore.DEClash>
0.0379

> <Gold.Chemscore.DEInternal>
1.6684

> <Gold.Chemscore.Rot>
3.2656

> <Gold.Chemscore.Internal.Correction>
   9.000000E+99

> <Gold.Chemscore.Hbonds>
donor molecule, donor type, donor heavy atom, donor atom, acceptor molecule, acceptor atom, score
      P1  H  6896  6908       L1    24  0.83
      P1  H  7989  7998       L1    19  0.03
      P1  H  7997  8009       L1    11  0.65

> <Gold.Chemscore.Hbond.Weighted>
-6.7107

> <Gold.Chemscore.Metal.Weighted>
-0.0000

> <Gold.Chemscore.Lipo.Weighted>
-11.5444

> <Gold.Chemscore.Internal_Hbond.Weighted>
0.0000

> <Gold.Chemscore.DEClash.Weighted>
0.0379

> <Gold.Chemscore.DEInternal.Weighted>
1.6684

> <Gold.Chemscore.Rot.Weighted>
8.3598

> <Gold.Chemscore.Internal.Correction.Weighted>
   9.000000E+99

> <Gold.Protein.RotatedTorsions>
[ 6907 6896 6895 6894 ] final  151.61 input  -60.11 | X-H torsion
[ 7974 7965 7964 7962 ] final    2.45 input  175.53 | X-H torsion
[ 8008 7997 7996 7995 ] final  165.63 input   59.86 | X-H torsion
[ 10167 10162 10161 10158 ] final  -53.85 input  -65.29 | X-H torsion
[ 10718 10713 10712 10709 ] final -167.55 input   66.30 | X-H torsion
[ 10763 10752 10751 10750 ] final   50.82 input  -60.55 | X-H torsion
[ 11005 11000 10999 10996 ] final   99.09 input  -57.11 | X-H torsion

> <Gold.Protein.ActiveResidues>
 VAL166  LYS551  ARG553  GLY616  TRP617  ASP618  TYR619  PRO620  LYS621  CYS622 
 ASP623  PHE694  ASN695  SER759  ASP760  ASP761  ALA762  ILE779  LEU786  VAL792 
 PHE793  MET794  SER795  GLU796  ALA797  LYS798  CYS799  TRP800  GLU811  SER814 

> <Gold.Protein.RotatedAtoms>
  152.0983  133.4236  159.4575 H   0  0  0  0  0  0  0  0  0  0  0  0  # atno 6907 bound_to 6896
  150.6863  134.2790  159.4629 H   0  0  0  0  0  0  0  0  0  0  0  0  # atno 6908 bound_to 6896
  152.0648  134.9571  160.0625 H   0  0  0  0  0  0  0  0  0  0  0  0  # atno 6909 bound_to 6896
  146.2444  140.0835  142.8356 H   0  0  0  0  0  0  0  0  0  0  0  0  # atno 7974 bound_to 7965
  156.1785  140.1665  156.8318 H   0  0  0  0  0  0  0  0  0  0  0  0  # atno 8008 bound_to 7997
  154.5333  140.0752  156.8417 H   0  0  0  0  0  0  0  0  0  0  0  0  # atno 8009 bound_to 7997
  155.3362  140.3382  155.4241 H   0  0  0  0  0  0  0  0  0  0  0  0  # atno 8010 bound_to 7997
  140.6462  143.2537  151.4852 H   0  0  0  0  0  0  0  0  0  0  0  0  # atno 10167 bound_to 10162
  156.6840  130.9133  151.3060 H   0  0  0  0  0  0  0  0  0  0  0  0  # atno 10718 bound_to 10713
  152.9784  135.5866  154.4314 H   0  0  0  0  0  0  0  0  0  0  0  0  # atno 10763 bound_to 10752
  154.3927  135.2768  155.2147 H   0  0  0  0  0  0  0  0  0  0  0  0  # atno 10764 bound_to 10752
  154.4012  135.6103  153.5953 H   0  0  0  0  0  0  0  0  0  0  0  0  # atno 10765 bound_to 10752
  139.8771  134.9079  156.4554 H   0  0  0  0  0  0  0  0  0  0  0  0  # atno 11005 bound_to 11000
  145.0712  140.9157  143.4880 LP  0  0  0  0  0  0  0  0  0  0  0  0  # atno 17320 bound_to 7965
  145.0969  139.2850  143.5706 LP  0  0  0  0  0  0  0  0  0  0  0  0  # atno 17321 bound_to 7965
  139.5673  144.2011  152.1784 LP  0  0  0  0  0  0  0  0  0  0  0  0  # atno 17342 bound_to 10162
  140.1297  144.5299  150.6810 LP  0  0  0  0  0  0  0  0  0  0  0  0  # atno 17343 bound_to 10162
  157.7033  130.9357  150.0853 LP  0  0  0  0  0  0  0  0  0  0  0  0  # atno 17370 bound_to 10713
  156.1847  130.3651  149.8989 LP  0  0  0  0  0  0  0  0  0  0  0  0  # atno 17371 bound_to 10713
  140.8902  133.7854  155.9563 LP  0  0  0  0  0  0  0  0  0  0  0  0  # atno 17394 bound_to 11000
  140.8762  134.2667  157.5167 LP  0  0  0  0  0  0  0  0  0  0  0  0  # atno 17395 bound_to 11000

$$$$
