AV-unprocessed.smi:1265|AV-procd|sdf|5317|dock7
  -GOLD-   22720 4443D 1   1.00000     0.00000
 Structure written by MMmdl.
 45 47  0  0  0  0  0  0  0  0  2 V2000
  145.8345  133.9540  154.2790 O   0  0  0  0  0  0  0  0  0  0  0  0
  146.6548  134.4741  153.5239 C   0  0  0  0  0  0  0  0  0  0  0  0
  147.6439  135.2753  153.9440 N   0  0  0  0  0  0  0  0  0  0  0  0
  147.8993  135.6694  155.3292 C   0  0  0  0  0  0  0  0  0  0  0  0
  149.4237  135.8543  155.6290 C   0  0  1  0  0  0  0  0  0  0  0  0
  149.9424  137.0827  154.9508 N   0  0  0  0  0  0  0  0  0  0  0  0
  149.2543  138.3407  155.2768 C   0  0  0  0  0  0  0  0  0  0  0  0
  149.8022  139.5350  154.4765 C   0  0  0  0  0  0  0  0  0  0  0  0
  151.2005  139.6622  154.6954 O   0  0  0  0  0  0  0  0  0  0  0  0
  151.9100  138.4918  154.3141 C   0  0  0  0  0  0  0  0  0  0  0  0
  151.3885  137.2872  155.1151 C   0  0  0  0  0  0  0  0  0  0  0  0
  149.6071  135.8778  157.1745 C   0  0  0  0  0  0  0  0  0  0  0  0
  149.3546  134.4739  157.7350 C   0  0  0  0  0  0  0  0  0  0  0  0
  149.8993  133.2884  156.4830 S   0  0  0  0  0  0  0  0  0  0  0  0
  150.1594  134.5553  155.2102 C   0  0  0  0  0  0  0  0  0  0  0  0
  146.6938  134.3227  152.1884 N   0  0  0  0  0  0  0  0  0  0  0  0
  145.8539  133.5465  151.3418 C   0  0  0  0  0  0  0  0  0  0  0  0
  144.4999  133.4149  151.7241 C   0  0  0  0  0  0  0  0  0  0  0  0
  143.6206  132.6518  150.9293 C   0  0  0  0  0  0  0  0  0  0  0  0
  144.0776  132.0477  149.8121 N   0  3  0  0  0  0  0  0  0  0  0  0
  145.3633  132.1354  149.4099 C   0  0  0  0  0  0  0  0  0  0  0  0
  146.2896  132.8837  150.1648 C   0  0  0  0  0  0  0  0  0  0  0  0
  148.2656  135.6644  153.2504 H   0  0  0  0  0  0  0  0  0  0  0  0
  147.3275  136.5623  155.5804 H   0  0  0  0  0  0  0  0  0  0  0  0
  147.4637  134.9068  155.9731 H   0  0  0  0  0  0  0  0  0  0  0  0
  148.1932  138.2783  155.0481 H   0  0  0  0  0  0  0  0  0  0  0  0
  149.3428  138.5640  156.3394 H   0  0  0  0  0  0  0  0  0  0  0  0
  149.6025  139.4104  153.4109 H   0  0  0  0  0  0  0  0  0  0  0  0
  149.3095  140.4562  154.7881 H   0  0  0  0  0  0  0  0  0  0  0  0
  151.7993  138.3209  153.2421 H   0  0  0  0  0  0  0  0  0  0  0  0
  152.9725  138.6420  154.5059 H   0  0  0  0  0  0  0  0  0  0  0  0
  151.6271  137.4325  156.1693 H   0  0  0  0  0  0  0  0  0  0  0  0
  151.9486  136.4160  154.7836 H   0  0  0  0  0  0  0  0  0  0  0  0
  150.6342  136.1098  157.4464 H   0  0  0  0  0  0  0  0  0  0  0  0
  148.9851  136.6261  157.6655 H   0  0  0  0  0  0  0  0  0  0  0  0
  149.8835  134.3120  158.6745 H   0  0  0  0  0  0  0  0  0  0  0  0
  148.2935  134.3188  157.9305 H   0  0  0  0  0  0  0  0  0  0  0  0
  149.8353  134.1844  154.2374 H   0  0  0  0  0  0  0  0  0  0  0  0
  151.2355  134.7073  155.1476 H   0  0  0  0  0  0  0  0  0  0  0  0
  147.4560  134.7911  151.7208 H   0  0  0  0  0  0  0  0  0  0  0  0
  144.1322  133.8970  152.6185 H   0  0  0  0  0  0  0  0  0  0  0  0
  142.5739  132.5067  151.1533 H   0  0  0  0  0  0  0  0  0  0  0  0
  145.6134  131.6033  148.5035 H   0  0  0  0  0  0  0  0  0  0  0  0
  147.3122  132.9222  149.8247 H   0  0  0  0  0  0  0  0  0  0  0  0
  143.4255  131.4993  149.2504 H   0  0  0  0  0  0  0  0  0  0  0  0
  1  2  2  0  0  0  0
  2  3  1  0  0  0  0
  2 16  1  0  0  0  0
  3  4  1  0  0  0  0
  3 23  1  0  0  0  0
  4  5  1  0  0  0  0
  4 24  1  0  0  0  0
  4 25  1  0  0  0  0
  5 15  1  0  0  0  0
  5  6  1  0  0  0  0
  5 12  1  0  0  0  0
  6 11  1  0  0  0  0
  6  7  1  0  0  0  0
  7  8  1  0  0  0  0
  7 26  1  0  0  0  0
  7 27  1  0  0  0  0
  8  9  1  0  0  0  0
  8 28  1  0  0  0  0
  8 29  1  0  0  0  0
  9 10  1  0  0  0  0
 10 11  1  0  0  0  0
 10 30  1  0  0  0  0
 10 31  1  0  0  0  0
 11 32  1  0  0  0  0
 11 33  1  0  0  0  0
 12 13  1  0  0  0  0
 12 34  1  0  0  0  0
 12 35  1  0  0  0  0
 13 14  1  0  0  0  0
 13 36  1  0  0  0  0
 13 37  1  0  0  0  0
 14 15  1  0  0  0  0
 15 38  1  0  0  0  0
 15 39  1  0  0  0  0
 16 17  1  0  0  0  0
 16 40  1  0  0  0  0
 17 22  1  0  0  0  0
 17 18  2  0  0  0  0
 18 19  1  0  0  0  0
 18 41  1  0  0  0  0
 19 20  2  0  0  0  0
 19 42  1  0  0  0  0
 20 21  1  0  0  0  0
 20 45  1  0  0  0  0
 21 22  2  0  0  0  0
 21 43  1  0  0  0  0
 22 44  1  0  0  0  0
M  CHG  1  20   1
M  END
> <s_m_source_file>
AV-unprocessed.smi

> <i_m_source_file_index>
1265

> <i_lp_mmshare_version>
43012

> <i_f3d_flags>
0

> <s_epik_input>
W2NIXTFbY0hdbltjSF1bY0hdYzFbTkhdQyg9TylbTkhdW0NIMl1bQ0BdMihbQ0gyXVtDSDJdU1tDSDJdMilOM1tDSDJdW0NIMl1PW0NIMl1bQ0gyXTM=

> <s_epik_cmdline>
J2VwaWtfcHl0aG9uJywgJy1waCcsICc3LjAnLCAnLXRuJywgJzgnLCAnLW1hJywgJzIwMCcsICctbWV0YWxfYmluZGluZycsICctaW1hZScsICc8aW5maWxlLm1hZT4nLCAnLW9tYWUnLCAnPG91dGZpbGUubWFlPic=

> <r_epik_Ionization_Penalty>
1.06168

> <r_epik_Ionization_Penalty_Charging>
1.04215

> <r_epik_Ionization_Penalty_Neutral>
0.019527

> <r_epik_State_Penalty>
1.12733

> <r_epik_Charging_Adjusted_Penalty>
2.16948

> <i_epik_Tot_Q>
1

> <i_epik_Tot_abs_Q>
1

> <r_epik_Metal_State_Penalty>
1.22116

> <b_epik_Metal_Only>
0

> <s_lp_Force_Field>
OPLS_2005

> <r_lp_Energy>
64.97

> <b_lp_Chiralities_Consistent>
1

> <s_lp_Variant>
AV-unprocessed.smi:1265-3

> <Gold.Version>
5.8.1

> <Gold.Id.Protein>
6NUR|6NUR_protein|mol2

> <Gold.PLP.Fitness>
39.7921

> <Gold.PLP.PLP>
-31.8521

> <Gold.PLP.part.hbond>
-3.0000

> <Gold.PLP.part.metal>
0.0000

> <Gold.PLP.part.buried>
-6.0709

> <Gold.PLP.part.nonpolar>
-24.0489

> <Gold.PLP.part.repulsive>
0.4487

> <Gold.PLP.ligand.clash>
0.0000

> <Gold.PLP.ligand.torsion>
0.5332

> <Gold.PLP.Chemscore.Hbond>
2.9760

> <Gold.PLP.Chemscore.CHOScore>
0.0000

> <Gold.PLP.Chemscore.Metal>
0.0000

> <Gold.Chemscore.Hbonds>
donor molecule, donor type, donor heavy atom, donor atom, acceptor molecule, acceptor atom, score
      L1  H     3    23       P1  7948  1.00
      L1  H    16    40       P1  7948  0.96
      P1  H  7989  7998       L1     9  1.00

> <Gold.PLP.Chemscore.Internal.Correction>
0.0785

> <Gold.Rescore>
     Score         DG    S(hbond)    S(metal)    S(lipo)     H(rot)  DE(clash)    DE(int)     intcor
     16.17     -17.96       1.90        0.00      84.66       1.47       0.12       1.67       ----

> <Gold.Chemscore.Fitness>
16.1719

> <Gold.Chemscore.DG>
-17.9578

> <Gold.Chemscore.ZeroCoef>
-5.4800

> <Gold.Chemscore.Hbond>
1.9002

> <Gold.Chemscore.Metal>
0.0000

> <Gold.Chemscore.Lipo>
84.6606

> <Gold.Chemscore.Internal_Hbond>
0.0000

> <Gold.Chemscore.DEClash>
0.1186

> <Gold.Chemscore.DEInternal>
1.6674

> <Gold.Chemscore.Rot>
1.4743

> <Gold.Chemscore.Internal.Correction>
   9.000000E+99

> <Gold.Chemscore.Hbonds>
donor molecule, donor type, donor heavy atom, donor atom, acceptor molecule, acceptor atom, score
      L1  H     3    23       P1  7948  0.99
      L1  H    16    40       P1  7948  0.52
      P1  H  7989  7998       L1     9  0.17

> <Gold.Chemscore.Hbond.Weighted>
-6.3468

> <Gold.Chemscore.Metal.Weighted>
-0.0000

> <Gold.Chemscore.Lipo.Weighted>
-9.9053

> <Gold.Chemscore.Internal_Hbond.Weighted>
0.0000

> <Gold.Chemscore.DEClash.Weighted>
0.1186

> <Gold.Chemscore.DEInternal.Weighted>
1.6674

> <Gold.Chemscore.Rot.Weighted>
3.7742

> <Gold.Chemscore.Internal.Correction.Weighted>
   9.000000E+99

> <Gold.Protein.RotatedTorsions>
[ 6907 6896 6895 6894 ] final  -53.82 input  -60.11 | X-H torsion
[ 7974 7965 7964 7962 ] final  146.05 input  175.53 | X-H torsion
[ 8008 7997 7996 7995 ] final   65.51 input   59.86 | X-H torsion
[ 10167 10162 10161 10158 ] final  -35.81 input  -65.29 | X-H torsion
[ 10718 10713 10712 10709 ] final  130.75 input   66.30 | X-H torsion
[ 10763 10752 10751 10750 ] final   -9.92 input  -60.55 | X-H torsion
[ 11005 11000 10999 10996 ] final  101.36 input  -57.11 | X-H torsion

> <Gold.Protein.ActiveResidues>
 VAL166  LYS551  ARG553  GLY616  TRP617  ASP618  TYR619  PRO620  LYS621  CYS622 
 ASP623  PHE694  ASN695  SER759  ASP760  ASP761  ALA762  ILE779  LEU786  VAL792 
 PHE793  MET794  SER795  GLU796  ALA797  LYS798  CYS799  TRP800  GLU811  SER814 

> <Gold.Protein.RotatedAtoms>
  150.8393  134.7678  159.6918 H   0  0  0  0  0  0  0  0  0  0  0  0  # atno 6907 bound_to 6896
  152.4483  134.5444  159.9858 H   0  0  0  0  0  0  0  0  0  0  0  0  # atno 6908 bound_to 6896
  151.5587  133.3368  159.3003 H   0  0  0  0  0  0  0  0  0  0  0  0  # atno 6909 bound_to 6896
  144.8702  139.5858  143.5890 H   0  0  0  0  0  0  0  0  0  0  0  0  # atno 7974 bound_to 7965
  155.6629  140.3497  155.4789 H   0  0  0  0  0  0  0  0  0  0  0  0  # atno 8008 bound_to 7997
  155.9753  140.1164  157.0798 H   0  0  0  0  0  0  0  0  0  0  0  0  # atno 8009 bound_to 7997
  154.4177  140.1149  156.5348 H   0  0  0  0  0  0  0  0  0  0  0  0  # atno 8010 bound_to 7997
  140.7157  143.3452  151.2272 H   0  0  0  0  0  0  0  0  0  0  0  0  # atno 10167 bound_to 10162
  157.5033  131.1095  150.9397 H   0  0  0  0  0  0  0  0  0  0  0  0  # atno 10718 bound_to 10713
  153.4617  135.7016  153.6046 H   0  0  0  0  0  0  0  0  0  0  0  0  # atno 10763 bound_to 10752
  153.4338  135.3796  155.2187 H   0  0  0  0  0  0  0  0  0  0  0  0  # atno 10764 bound_to 10752
  154.8727  135.3957  154.4043 H   0  0  0  0  0  0  0  0  0  0  0  0  # atno 10765 bound_to 10752
  139.8773  134.9180  156.4896 H   0  0  0  0  0  0  0  0  0  0  0  0  # atno 11005 bound_to 11000
  146.2925  139.7180  142.9150 LP  0  0  0  0  0  0  0  0  0  0  0  0  # atno 17320 bound_to 7965
  145.4144  141.0400  143.2999 LP  0  0  0  0  0  0  0  0  0  0  0  0  # atno 17321 bound_to 7965
  139.6969  143.9597  152.2887 LP  0  0  0  0  0  0  0  0  0  0  0  0  # atno 17342 bound_to 10162
  139.9278  144.6760  150.8395 LP  0  0  0  0  0  0  0  0  0  0  0  0  # atno 17343 bound_to 10162
  157.0060  130.5618  149.5316 LP  0  0  0  0  0  0  0  0  0  0  0  0  # atno 17370 bound_to 10713
  156.0242  130.5337  150.8361 LP  0  0  0  0  0  0  0  0  0  0  0  0  # atno 17371 bound_to 10713
  140.8668  133.8018  155.9323 LP  0  0  0  0  0  0  0  0  0  0  0  0  # atno 17394 bound_to 11000
  140.8993  134.2398  157.5051 LP  0  0  0  0  0  0  0  0  0  0  0  0  # atno 17395 bound_to 11000

$$$$
