AV-unprocessed.smi:625|AV-procd|sdf|3102|dock1
  -GOLD-   22720 0 23D 1   1.00000     0.00000
 Structure written by MMmdl.
 49 51  0  0  0  0  0  0  0  0  1 V2000
  146.3752  134.7524  160.6727 C   0  0  0  0  0  0  0  0  0  0  0  0
  147.3434  135.0897  159.6402 N   0  0  0  0  0  0  0  0  0  0  0  0
  148.0572  136.2270  159.6092 C   0  0  0  0  0  0  0  0  0  0  0  0
  147.9405  137.0892  160.4824 O   0  0  0  0  0  0  0  0  0  0  0  0
  148.9629  136.3258  158.4623 C   0  0  0  0  0  0  0  0  0  0  0  0
  149.2871  135.2000  157.5991 C   0  0  0  0  0  0  0  0  0  0  0  0
  150.1561  135.3470  156.5791 C   0  0  0  0  0  0  0  0  0  0  0  0
  150.8081  136.6296  156.2965 C   0  0  0  0  0  0  0  0  0  0  0  0
  151.6184  136.7607  155.3792 O   0  0  0  0  0  0  0  0  0  0  0  0
  150.4612  137.6643  157.1196 N   0  0  0  0  0  0  0  0  0  0  0  0
  151.0730  138.9954  156.9855 C   0  0  0  0  0  0  0  0  0  0  0  0
  151.6881  139.4421  158.3154 C   0  0  0  0  0  0  0  0  0  0  0  0
  151.8276  138.6362  159.2357 O   0  0  0  0  0  0  0  0  0  0  0  0
  152.0274  140.7372  158.4024 N   0  0  0  0  0  0  0  0  0  0  0  0
  152.4378  141.4297  159.6211 C   0  0  1  0  0  0  0  0  0  0  0  0
  153.6528  140.7127  160.2295 C   0  0  0  0  0  0  0  0  0  0  0  0
  152.7332  142.9136  159.2941 C   0  0  2  0  0  0  0  0  0  0  0  0
  152.5930  143.8829  160.4892 C   0  0  0  0  0  0  0  0  0  0  0  0
  151.7064  145.0080  159.9211 C   0  0  2  0  0  0  0  0  0  0  0  0
  150.2587  144.4977  159.7990 C   0  0  0  0  0  0  0  0  0  0  0  0
  150.3419  143.5275  158.6070 C   0  0  0  0  0  0  0  0  0  0  0  0
  151.8349  143.5861  158.2230 C   0  0  1  0  0  0  0  0  0  0  0  0
  152.1436  145.0601  158.4616 C   0  0  0  0  0  0  0  0  0  0  0  0
  149.5522  137.5037  158.1839 C   0  0  0  0  0  0  0  0  0  0  0  0
  145.9516  133.7672  160.4777 H   0  0  0  0  0  0  0  0  0  0  0  0
  145.5597  135.4765  160.6907 H   0  0  0  0  0  0  0  0  0  0  0  0
  146.8460  134.7330  161.6565 H   0  0  0  0  0  0  0  0  0  0  0  0
  147.4812  134.4174  158.8997 H   0  0  0  0  0  0  0  0  0  0  0  0
  148.8426  134.2277  157.7528 H   0  0  0  0  0  0  0  0  0  0  0  0
  150.3817  134.4965  155.9522 H   0  0  0  0  0  0  0  0  0  0  0  0
  151.8451  139.0217  156.2153 H   0  0  0  0  0  0  0  0  0  0  0  0
  150.3162  139.7116  156.6596 H   0  0  0  0  0  0  0  0  0  0  0  0
  151.8953  141.3116  157.5827 H   0  0  0  0  0  0  0  0  0  0  0  0
  151.6349  141.3940  160.3589 H   0  0  0  0  0  0  0  0  0  0  0  0
  153.9753  141.1947  161.1525 H   0  0  0  0  0  0  0  0  0  0  0  0
  154.4995  140.7105  159.5423 H   0  0  0  0  0  0  0  0  0  0  0  0
  153.4154  139.6756  160.4685 H   0  0  0  0  0  0  0  0  0  0  0  0
  153.7607  142.9723  158.9302 H   0  0  0  0  0  0  0  0  0  0  0  0
  152.1407  143.4185  161.3662 H   0  0  0  0  0  0  0  0  0  0  0  0
  153.5701  144.2658  160.7861 H   0  0  0  0  0  0  0  0  0  0  0  0
  151.7932  145.9497  160.4637 H   0  0  0  0  0  0  0  0  0  0  0  0
  149.9134  144.0081  160.7103 H   0  0  0  0  0  0  0  0  0  0  0  0
  149.5731  145.3169  159.5785 H   0  0  0  0  0  0  0  0  0  0  0  0
  149.9963  142.5254  158.8560 H   0  0  0  0  0  0  0  0  0  0  0  0
  149.7242  143.8854  157.7824 H   0  0  0  0  0  0  0  0  0  0  0  0
  152.0356  143.2462  157.2067 H   0  0  0  0  0  0  0  0  0  0  0  0
  151.5388  145.7339  157.8514 H   0  0  0  0  0  0  0  0  0  0  0  0
  153.1980  145.3109  158.3330 H   0  0  0  0  0  0  0  0  0  0  0  0
  149.3901  138.4015  158.7644 H   0  0  0  0  0  0  0  0  0  0  0  0
  1  2  1  0  0  0  0
  1 25  1  0  0  0  0
  1 26  1  0  0  0  0
  1 27  1  0  0  0  0
  2  3  1  0  0  0  0
  2 28  1  0  0  0  0
  3  4  2  0  0  0  0
  3  5  1  0  0  0  0
  5 24  2  0  0  0  0
  5  6  1  0  0  0  0
  6  7  2  0  0  0  0
  6 29  1  0  0  0  0
  7  8  1  0  0  0  0
  7 30  1  0  0  0  0
  8  9  2  0  0  0  0
  8 10  1  0  0  0  0
 10 11  1  0  0  0  0
 10 24  1  0  0  0  0
 11 12  1  0  0  0  0
 11 31  1  0  0  0  0
 11 32  1  0  0  0  0
 12 13  2  0  0  0  0
 12 14  1  0  0  0  0
 14 15  1  0  0  0  0
 14 33  1  0  0  0  0
 15 16  1  0  0  0  0
 15 17  1  0  0  0  0
 15 34  1  0  0  0  0
 16 35  1  0  0  0  0
 16 36  1  0  0  0  0
 16 37  1  0  0  0  0
 17 22  1  0  0  0  0
 17 18  1  0  0  0  0
 17 38  1  0  0  0  0
 18 19  1  0  0  0  0
 18 39  1  0  0  0  0
 18 40  1  0  0  0  0
 19 23  1  0  0  0  0
 19 20  1  0  0  0  0
 19 41  1  0  0  0  0
 20 21  1  0  0  0  0
 20 42  1  0  0  0  0
 20 43  1  0  0  0  0
 21 22  1  0  0  0  0
 21 44  1  0  0  0  0
 21 45  1  0  0  0  0
 22 23  1  0  0  0  0
 22 46  1  0  0  0  0
 23 47  1  0  0  0  0
 23 48  1  0  0  0  0
 24 49  1  0  0  0  0
M  END
> <s_m_source_file>
AV-unprocessed.smi

> <i_m_source_file_index>
625

> <i_lp_mmshare_version>
43012

> <i_f3d_flags>
0

> <s_epik_input>
W0NIM11bTkhdQyg9TyljMVtjSF1bY0hdYyg9TyluKFtjSF0xKVtDSDJdQyg9TylbTkhdW0NASF0oW0NIM10pW0NASF0oW0NIMl1bQ0BIXTIzKVtDQEhdKFtDSDJdMylbQ0gyXVtDSDJdMg==

> <s_epik_cmdline>
J2VwaWtfcHl0aG9uJywgJy1waCcsICc3LjAnLCAnLXRuJywgJzgnLCAnLW1hJywgJzIwMCcsICctbWV0YWxfYmluZGluZycsICctaW1hZScsICc8aW5maWxlLm1hZT4nLCAnLW9tYWUnLCAnPG91dGZpbGUubWFlPic=

> <r_lp_tautomer_probability>
1

> <r_epik_Ionization_Penalty>
3.7129e-07

> <r_epik_Ionization_Penalty_Charging>
5.04114e-08

> <r_epik_Ionization_Penalty_Neutral>
3.20879e-07

> <r_epik_State_Penalty>
-0

> <r_epik_Charging_Adjusted_Penalty>
5.04114e-08

> <i_epik_Tot_Q>
0

> <i_epik_Tot_abs_Q>
0

> <r_epik_Metal_State_Penalty>
-0

> <b_epik_Metal_Only>
0

> <s_lp_Force_Field>
OPLS_2005

> <r_lp_Energy>
63.4228

> <b_lp_Chiralities_Consistent>
1

> <s_lp_Variant>
AV-unprocessed.smi:625-2

> <Gold.Version>
5.8.1

> <Gold.Id.Protein>
6NUR|6NUR_protein|mol2

> <Gold.PLP.Fitness>
48.2296

> <Gold.PLP.PLP>
-41.8066

> <Gold.PLP.part.hbond>
-3.0000

> <Gold.PLP.part.metal>
0.0000

> <Gold.PLP.part.buried>
-7.4781

> <Gold.PLP.part.nonpolar>
-32.0468

> <Gold.PLP.part.repulsive>
0.2159

> <Gold.PLP.ligand.clash>
0.0000

> <Gold.PLP.ligand.torsion>
0.7677

> <Gold.PLP.Chemscore.Hbond>
2.6160

> <Gold.PLP.Chemscore.CHOScore>
0.0000

> <Gold.PLP.Chemscore.Metal>
0.0000

> <Gold.Chemscore.Hbonds>
donor molecule, donor type, donor heavy atom, donor atom, acceptor molecule, acceptor atom, score
      P1  H  6931  6943       L1     4  0.60
      P1  H  6934  6947       L1     4  0.64
      P1  H 10752 10765       L1     9  1.00

> <Gold.PLP.Chemscore.Internal.Correction>
0.1103

> <Gold.Rescore>
     Score         DG    S(hbond)    S(metal)    S(lipo)     H(rot)  DE(clash)    DE(int)     intcor
     20.46     -23.88       2.59        0.00     119.86       1.67       0.02       3.40       ----

> <Gold.Chemscore.Fitness>
20.4552

> <Gold.Chemscore.DG>
-23.8773

> <Gold.Chemscore.ZeroCoef>
-5.4800

> <Gold.Chemscore.Hbond>
2.5903

> <Gold.Chemscore.Metal>
0.0000

> <Gold.Chemscore.Lipo>
119.8556

> <Gold.Chemscore.Internal_Hbond>
0.0000

> <Gold.Chemscore.DEClash>
0.0207

> <Gold.Chemscore.DEInternal>
3.4014

> <Gold.Chemscore.Rot>
1.6709

> <Gold.Chemscore.Internal.Correction>
   9.000000E+99

> <Gold.Chemscore.Hbonds>
donor molecule, donor type, donor heavy atom, donor atom, acceptor molecule, acceptor atom, score
      P1  H  6931  6943       L1     4  0.59
      P1  H  6934  6947       L1     4  0.62
      P1  H 10752 10765       L1     9  0.99

> <Gold.Chemscore.Hbond.Weighted>
-8.6516

> <Gold.Chemscore.Metal.Weighted>
-0.0000

> <Gold.Chemscore.Lipo.Weighted>
-14.0231

> <Gold.Chemscore.Internal_Hbond.Weighted>
0.0000

> <Gold.Chemscore.DEClash.Weighted>
0.0207

> <Gold.Chemscore.DEInternal.Weighted>
3.4014

> <Gold.Chemscore.Rot.Weighted>
4.2774

> <Gold.Chemscore.Internal.Correction.Weighted>
   9.000000E+99

> <Gold.Protein.RotatedTorsions>
[ 6907 6896 6895 6894 ] final  -12.98 input  -60.11 | X-H torsion
[ 7974 7965 7964 7962 ] final   -8.71 input  175.53 | X-H torsion
[ 8008 7997 7996 7995 ] final  -57.92 input   59.86 | X-H torsion
[ 10167 10162 10161 10158 ] final   78.78 input  -65.29 | X-H torsion
[ 10718 10713 10712 10709 ] final  -26.18 input   66.30 | X-H torsion
[ 10763 10752 10751 10750 ] final -177.49 input  -60.55 | X-H torsion
[ 11005 11000 10999 10996 ] final   86.63 input  -57.11 | X-H torsion

> <Gold.Protein.ActiveResidues>
 VAL166  LYS551  ARG553  GLY616  TRP617  ASP618  TYR619  PRO620  LYS621  CYS622 
 ASP623  PHE694  ASN695  SER759  ASP760  ASP761  ALA762  ILE779  LEU786  VAL792 
 PHE793  MET794  SER795  GLU796  ALA797  LYS798  CYS799  TRP800  GLU811  SER814 

> <Gold.Protein.RotatedAtoms>
  151.3620  135.0906  159.9437 H   0  0  0  0  0  0  0  0  0  0  0  0  # atno 6907 bound_to 6896
  152.5159  133.9249  159.7562 H   0  0  0  0  0  0  0  0  0  0  0  0  # atno 6908 bound_to 6896
  150.9645  133.6355  159.2778 H   0  0  0  0  0  0  0  0  0  0  0  0  # atno 6909 bound_to 6896
  146.2272  140.2509  142.8347 H   0  0  0  0  0  0  0  0  0  0  0  0  # atno 7974 bound_to 7965
  154.4287  140.1096  156.5875 H   0  0  0  0  0  0  0  0  0  0  0  0  # atno 8008 bound_to 7997
  155.6047  140.3493  155.4585 H   0  0  0  0  0  0  0  0  0  0  0  0  # atno 8009 bound_to 7997
  156.0146  140.1226  157.0409 H   0  0  0  0  0  0  0  0  0  0  0  0  # atno 8010 bound_to 7997
  139.9673  144.5919  150.8018 H   0  0  0  0  0  0  0  0  0  0  0  0  # atno 10167 bound_to 10162
  156.4546  130.4491  149.6968 H   0  0  0  0  0  0  0  0  0  0  0  0  # atno 10718 bound_to 10713
  154.5594  135.2819  155.0933 H   0  0  0  0  0  0  0  0  0  0  0  0  # atno 10763 bound_to 10752
  154.2348  135.6367  153.5191 H   0  0  0  0  0  0  0  0  0  0  0  0  # atno 10764 bound_to 10752
  153.0025  135.5546  154.6184 H   0  0  0  0  0  0  0  0  0  0  0  0  # atno 10765 bound_to 10752
  139.8939  134.8368  156.2747 H   0  0  0  0  0  0  0  0  0  0  0  0  # atno 11005 bound_to 11000
  144.9412  140.8080  143.5629 LP  0  0  0  0  0  0  0  0  0  0  0  0  # atno 17320 bound_to 7965
  145.2461  139.2051  143.4967 LP  0  0  0  0  0  0  0  0  0  0  0  0  # atno 17321 bound_to 7965
  140.7534  143.3007  151.3088 LP  0  0  0  0  0  0  0  0  0  0  0  0  # atno 17342 bound_to 10162
  139.6508  144.0366  152.2625 LP  0  0  0  0  0  0  0  0  0  0  0  0  # atno 17343 bound_to 10162
  156.3780  130.7564  151.2554 LP  0  0  0  0  0  0  0  0  0  0  0  0  # atno 17370 bound_to 10713
  157.7501  131.0304  150.4134 LP  0  0  0  0  0  0  0  0  0  0  0  0  # atno 17371 bound_to 10713
  141.0078  133.7113  156.1062 LP  0  0  0  0  0  0  0  0  0  0  0  0  # atno 17394 bound_to 11000
  140.7410  134.4150  157.5554 LP  0  0  0  0  0  0  0  0  0  0  0  0  # atno 17395 bound_to 11000

$$$$
