AV-unprocessed.smi:3296|AV-procd|sdf|12637|dock5
  -GOLD-   2272018573D 1   1.00000     0.00000
 Structure written by MMmdl.
 37 38  0  0  0  0  0  0  0  0  1 V2000
  149.7707  134.9204  155.1844 C   0  0  0  0  0  0  0  0  0  0  0  0
  149.9221  136.1842  154.4807 N   0  0  0  0  0  0  0  0  0  0  0  0
  150.8452  137.1100  154.7807 C   0  0  0  0  0  0  0  0  0  0  0  0
  151.6527  136.9869  155.7013 O   0  0  0  0  0  0  0  0  0  0  0  0
  150.8616  138.3687  153.9117 C   0  0  0  0  0  0  0  0  0  0  0  0
  150.7835  139.5545  154.8185 C   0  0  0  0  0  0  0  0  0  0  0  0
  151.5535  139.7080  155.8999 N   0  0  0  0  0  0  0  0  0  0  0  0
  151.2801  140.8909  156.5929 C   0  0  0  0  0  0  0  0  0  0  0  0
  152.0347  141.2137  157.8465 C   0  0  0  0  0  0  0  0  0  0  0  0
  151.5390  142.5127  158.5015 C   0  0  0  0  0  0  0  0  0  0  0  0
  152.4039  142.9658  159.6911 C   0  0  0  0  0  0  0  0  0  0  0  0
  152.6942  141.8457  160.6916 C   0  0  0  0  0  0  0  0  0  0  0  0
  153.1483  142.5744  161.9571 C   0  0  0  0  0  0  0  0  0  0  0  0
  152.4235  143.9279  161.9434 C   0  0  0  0  0  0  0  0  0  0  0  0
  151.7677  144.0571  160.5612 C   0  0  0  0  0  0  0  0  0  0  0  0
  150.2916  141.6438  156.0099 C   0  0  0  0  0  0  0  0  0  0  0  0
  149.6646  140.8910  154.5697 S   0  0  0  0  0  0  0  0  0  0  0  0
  148.9449  134.3526  154.7559 H   0  0  0  0  0  0  0  0  0  0  0  0
  149.5591  135.0865  156.2416 H   0  0  0  0  0  0  0  0  0  0  0  0
  150.6770  134.3194  155.1001 H   0  0  0  0  0  0  0  0  0  0  0  0
  149.2985  136.3610  153.7060 H   0  0  0  0  0  0  0  0  0  0  0  0
  151.7720  138.4120  153.3123 H   0  0  0  0  0  0  0  0  0  0  0  0
  150.0115  138.3733  153.2285 H   0  0  0  0  0  0  0  0  0  0  0  0
  151.9426  140.3907  158.5563 H   0  0  0  0  0  0  0  0  0  0  0  0
  153.0986  141.2982  157.6231 H   0  0  0  0  0  0  0  0  0  0  0  0
  151.4953  143.3060  157.7540 H   0  0  0  0  0  0  0  0  0  0  0  0
  150.5150  142.3660  158.8479 H   0  0  0  0  0  0  0  0  0  0  0  0
  153.3600  143.3362  159.3169 H   0  0  0  0  0  0  0  0  0  0  0  0
  151.7822  141.2846  160.9008 H   0  0  0  0  0  0  0  0  0  0  0  0
  153.4413  141.1404  160.3265 H   0  0  0  0  0  0  0  0  0  0  0  0
  152.9385  141.9993  162.8594 H   0  0  0  0  0  0  0  0  0  0  0  0
  154.2259  142.7380  161.9164 H   0  0  0  0  0  0  0  0  0  0  0  0
  151.6700  143.9817  162.7300 H   0  0  0  0  0  0  0  0  0  0  0  0
  153.1329  144.7381  162.1166 H   0  0  0  0  0  0  0  0  0  0  0  0
  151.8995  145.0525  160.1359 H   0  0  0  0  0  0  0  0  0  0  0  0
  150.6950  143.8815  160.6545 H   0  0  0  0  0  0  0  0  0  0  0  0
  149.8925  142.5907  156.3419 H   0  0  0  0  0  0  0  0  0  0  0  0
  1  2  1  0  0  0  0
  1 18  1  0  0  0  0
  1 19  1  0  0  0  0
  1 20  1  0  0  0  0
  2  3  1  0  0  0  0
  2 21  1  0  0  0  0
  3  4  2  0  0  0  0
  3  5  1  0  0  0  0
  5  6  1  0  0  0  0
  5 22  1  0  0  0  0
  5 23  1  0  0  0  0
  6 17  1  0  0  0  0
  6  7  2  0  0  0  0
  7  8  1  0  0  0  0
  8  9  1  0  0  0  0
  8 16  2  0  0  0  0
  9 10  1  0  0  0  0
  9 24  1  0  0  0  0
  9 25  1  0  0  0  0
 10 11  1  0  0  0  0
 10 26  1  0  0  0  0
 10 27  1  0  0  0  0
 11 15  1  0  0  0  0
 11 12  1  0  0  0  0
 11 28  1  0  0  0  0
 12 13  1  0  0  0  0
 12 29  1  0  0  0  0
 12 30  1  0  0  0  0
 13 14  1  0  0  0  0
 13 31  1  0  0  0  0
 13 32  1  0  0  0  0
 14 15  1  0  0  0  0
 14 33  1  0  0  0  0
 14 34  1  0  0  0  0
 15 35  1  0  0  0  0
 15 36  1  0  0  0  0
 16 17  1  0  0  0  0
 16 37  1  0  0  0  0
M  END
> <s_m_source_file>
AV-unprocessed.smi

> <i_m_source_file_index>
3296

> <i_lp_mmshare_version>
43012

> <i_f3d_flags>
0

> <s_epik_input>
W0NIM11bTkhdQyg9TylbQ0gyXWMxbmMoW2NIXXMxKVtDSDJdW0NIMl1bQ0hdMltDSDJdW0NIMl1bQ0gyXVtDSDJdMg==

> <s_epik_cmdline>
J2VwaWtfcHl0aG9uJywgJy1waCcsICc3LjAnLCAnLXRuJywgJzgnLCAnLW1hJywgJzIwMCcsICctbWV0YWxfYmluZGluZycsICctaW1hZScsICc8aW5maWxlLm1hZT4nLCAnLW9tYWUnLCAnPG91dGZpbGUubWFlPic=

> <r_lp_tautomer_probability>
1

> <r_epik_Ionization_Penalty>
6.30814e-05

> <r_epik_Ionization_Penalty_Charging>
0

> <r_epik_Ionization_Penalty_Neutral>
6.30814e-05

> <r_epik_State_Penalty>
-0

> <r_epik_Charging_Adjusted_Penalty>
0

> <i_epik_Tot_Q>
0

> <i_epik_Tot_abs_Q>
0

> <r_epik_Metal_State_Penalty>
-0

> <b_epik_Metal_Only>
0

> <s_lp_Force_Field>
OPLS_2005

> <r_lp_Energy>
17.2937

> <b_lp_Chiralities_Consistent>
1

> <s_lp_Variant>
AV-unprocessed.smi:3296-1

> <Gold.Version>
5.8.1

> <Gold.Id.Protein>
6NUR|6NUR_protein|mol2

> <Gold.PLP.Fitness>
50.5383

> <Gold.PLP.PLP>
-42.1059

> <Gold.PLP.part.hbond>
-2.7464

> <Gold.PLP.part.metal>
0.0000

> <Gold.PLP.part.buried>
-3.3110

> <Gold.PLP.part.nonpolar>
-33.6563

> <Gold.PLP.part.repulsive>
0.1102

> <Gold.PLP.ligand.clash>
0.0000

> <Gold.PLP.ligand.torsion>
0.2684

> <Gold.PLP.Chemscore.Hbond>
1.9920

> <Gold.PLP.Chemscore.CHOScore>
0.9899

> <Gold.PLP.Chemscore.Metal>
0.0000

> <Gold.Chemscore.Hbonds>
donor molecule, donor type, donor heavy atom, donor atom, acceptor molecule, acceptor atom, score
      L1  H     2    21       P1  7948  0.94
      P1  H 10752 10765       L1     4  0.67
      L1  C    16    37       P1  8028  1.00

> <Gold.PLP.Chemscore.Internal.Correction>
0.0234

> <Gold.Rescore>
     Score         DG    S(hbond)    S(metal)    S(lipo)     H(rot)  DE(clash)    DE(int)     intcor
     18.20     -19.83       1.54        0.00     115.50       1.68       0.18       1.45       ----

> <Gold.Chemscore.Fitness>
18.2020

> <Gold.Chemscore.DG>
-19.8264

> <Gold.Chemscore.ZeroCoef>
-5.4800

> <Gold.Chemscore.Hbond>
1.5366

> <Gold.Chemscore.Metal>
0.0000

> <Gold.Chemscore.Lipo>
115.4960

> <Gold.Chemscore.Internal_Hbond>
0.0000

> <Gold.Chemscore.DEClash>
0.1752

> <Gold.Chemscore.DEInternal>
1.4492

> <Gold.Chemscore.Rot>
1.6792

> <Gold.Chemscore.Internal.Correction>
   9.000000E+99

> <Gold.Chemscore.Hbonds>
donor molecule, donor type, donor heavy atom, donor atom, acceptor molecule, acceptor atom, score
      L1  H     2    21       P1  7948  0.82
      P1  H 10752 10765       L1     4  0.20

> <Gold.Chemscore.Hbond.Weighted>
-5.1322

> <Gold.Chemscore.Metal.Weighted>
-0.0000

> <Gold.Chemscore.Lipo.Weighted>
-13.5130

> <Gold.Chemscore.Internal_Hbond.Weighted>
0.0000

> <Gold.Chemscore.DEClash.Weighted>
0.1752

> <Gold.Chemscore.DEInternal.Weighted>
1.4492

> <Gold.Chemscore.Rot.Weighted>
4.2988

> <Gold.Chemscore.Internal.Correction.Weighted>
   9.000000E+99

> <Gold.Protein.RotatedTorsions>
[ 6907 6896 6895 6894 ] final  164.37 input  -60.11 | X-H torsion
[ 7974 7965 7964 7962 ] final  136.35 input  175.53 | X-H torsion
[ 8008 7997 7996 7995 ] final  -19.34 input   59.86 | X-H torsion
[ 10167 10162 10161 10158 ] final   87.65 input  -65.29 | X-H torsion
[ 10718 10713 10712 10709 ] final  -27.55 input   66.30 | X-H torsion
[ 10763 10752 10751 10750 ] final -164.06 input  -60.55 | X-H torsion
[ 11005 11000 10999 10996 ] final    7.99 input  -57.11 | X-H torsion

> <Gold.Protein.ActiveResidues>
 VAL166  LYS551  ARG553  GLY616  TRP617  ASP618  TYR619  PRO620  LYS621  CYS622 
 ASP623  PHE694  ASN695  SER759  ASP760  ASP761  ALA762  ILE779  LEU786  VAL792 
 PHE793  MET794  SER795  GLU796  ALA797  LYS798  CYS799  TRP800  GLU811  SER814 

> <Gold.Protein.RotatedAtoms>
  151.9110  133.3561  159.3863 H   0  0  0  0  0  0  0  0  0  0  0  0  # atno 6907 bound_to 6896
  150.7058  134.4732  159.5444 H   0  0  0  0  0  0  0  0  0  0  0  0  # atno 6908 bound_to 6896
  152.2338  134.8296  160.0521 H   0  0  0  0  0  0  0  0  0  0  0  0  # atno 6909 bound_to 6896
  144.9573  139.4750  143.5496 H   0  0  0  0  0  0  0  0  0  0  0  0  # atno 7974 bound_to 7965
  154.4843  140.2091  155.9691 H   0  0  0  0  0  0  0  0  0  0  0  0  # atno 8008 bound_to 7997
  156.1213  140.3213  155.8181 H   0  0  0  0  0  0  0  0  0  0  0  0  # atno 8009 bound_to 7997
  155.4463  140.0514  157.2996 H   0  0  0  0  0  0  0  0  0  0  0  0  # atno 8010 bound_to 7997
  139.8752  144.6471  150.8905 H   0  0  0  0  0  0  0  0  0  0  0  0  # atno 10167 bound_to 10162
  156.4367  130.4456  149.7080 H   0  0  0  0  0  0  0  0  0  0  0  0  # atno 10718 bound_to 10713
  154.7064  135.2998  154.9263 H   0  0  0  0  0  0  0  0  0  0  0  0  # atno 10763 bound_to 10752
  154.0179  135.6686  153.4774 H   0  0  0  0  0  0  0  0  0  0  0  0  # atno 10764 bound_to 10752
  153.0721  135.5055  154.8237 H   0  0  0  0  0  0  0  0  0  0  0  0  # atno 10765 bound_to 10752
  140.5421  134.0365  155.7907 H   0  0  0  0  0  0  0  0  0  0  0  0  # atno 11005 bound_to 11000
  146.3341  139.8699  142.8841 LP  0  0  0  0  0  0  0  0  0  0  0  0  # atno 17320 bound_to 7965
  145.2752  141.0121  143.3749 LP  0  0  0  0  0  0  0  0  0  0  0  0  # atno 17321 bound_to 7965
  140.7754  143.3631  151.1790 LP  0  0  0  0  0  0  0  0  0  0  0  0  # atno 17342 bound_to 10162
  139.7247  143.9167  152.2998 LP  0  0  0  0  0  0  0  0  0  0  0  0  # atno 17343 bound_to 10162
  156.3961  130.7651  151.2656 LP  0  0  0  0  0  0  0  0  0  0  0  0  # atno 17370 bound_to 10713
  157.7507  131.0253  150.3915 LP  0  0  0  0  0  0  0  0  0  0  0  0  # atno 17371 bound_to 10713
  141.1221  133.9444  157.2708 LP  0  0  0  0  0  0  0  0  0  0  0  0  # atno 17394 bound_to 11000
  139.9499  135.0177  156.8962 LP  0  0  0  0  0  0  0  0  0  0  0  0  # atno 17395 bound_to 11000

$$$$
