AV-unprocessed.smi:1779|AV-procd|sdf|7181|dock5
  -GOLD-   22720 8423D 1   1.00000     0.00000
 Structure written by MMmdl.
 47 48  0  0  0  0  0  0  0  0  2 V2000
  151.8004  141.6240  158.0837 C   0  0  0  0  0  0  0  0  0  0  0  0
  151.5061  140.7132  156.9284 C   0  0  0  0  0  0  0  0  0  0  0  0
  150.2605  140.5079  156.2666 C   0  0  0  0  0  0  0  0  0  0  0  0
  150.5785  139.5870  155.3060 C   0  0  0  0  0  0  0  0  0  0  0  0
  149.7770  139.0246  154.3629 N   0  0  0  0  0  0  0  0  0  0  0  0
  148.4895  139.2956  154.0869 C   0  0  0  0  0  0  0  0  0  0  0  0
  147.7915  140.1232  154.6728 O   0  0  0  0  0  0  0  0  0  0  0  0
  148.0372  138.5276  153.0855 N   0  0  0  0  0  0  0  0  0  0  0  0
  146.6858  138.5648  152.5352 C   0  0  0  0  0  0  0  0  0  0  0  0
  146.3826  137.3316  151.6615 C   0  0  2  0  0  0  0  0  0  0  0  0
  146.3256  137.7610  150.3160 O   0  0  0  0  0  0  0  0  0  0  0  0
  145.0506  136.6345  152.0148 C   0  0  0  0  0  0  0  0  0  0  0  0
  144.9398  135.2825  151.4094 N   0  3  0  0  0  0  0  0  0  0  0  0
  143.7472  134.5411  151.8963 C   0  0  0  0  0  0  0  0  0  0  0  0
  143.5779  133.2067  151.1498 C   0  0  0  0  0  0  0  0  0  0  0  0
  144.8418  132.3452  151.2682 C   0  0  0  0  0  0  0  0  0  0  0  0
  146.0633  133.1412  150.7914 C   0  0  0  0  0  0  0  0  0  0  0  0
  146.1813  134.4742  151.5488 C   0  0  0  0  0  0  0  0  0  0  0  0
  151.9183  139.2850  155.4048 N   0  0  0  0  0  0  0  0  0  0  0  0
  152.7190  138.3749  154.6094 C   0  0  0  0  0  0  0  0  0  0  0  0
  152.4873  139.9820  156.4116 N   0  0  0  0  0  0  0  0  0  0  0  0
  150.9230  142.2105  158.3570 H   0  0  0  0  0  0  0  0  0  0  0  0
  152.6021  142.3217  157.8401 H   0  0  0  0  0  0  0  0  0  0  0  0
  152.1067  141.0561  158.9626 H   0  0  0  0  0  0  0  0  0  0  0  0
  149.3083  140.9720  156.4749 H   0  0  0  0  0  0  0  0  0  0  0  0
  150.2081  138.2974  153.8113 H   0  0  0  0  0  0  0  0  0  0  0  0
  148.6807  137.8760  152.6600 H   0  0  0  0  0  0  0  0  0  0  0  0
  145.9370  138.6813  153.3210 H   0  0  0  0  0  0  0  0  0  0  0  0
  146.6253  139.4672  151.9253 H   0  0  0  0  0  0  0  0  0  0  0  0
  147.2166  136.6354  151.7457 H   0  0  0  0  0  0  0  0  0  0  0  0
  145.5292  138.2542  150.1879 H   0  0  0  0  0  0  0  0  0  0  0  0
  144.9291  136.5409  153.0940 H   0  0  0  0  0  0  0  0  0  0  0  0
  144.2297  137.2667  151.6726 H   0  0  0  0  0  0  0  0  0  0  0  0
  143.8393  134.3647  152.9694 H   0  0  0  0  0  0  0  0  0  0  0  0
  142.8514  135.1461  151.7495 H   0  0  0  0  0  0  0  0  0  0  0  0
  142.7188  132.6642  151.5460 H   0  0  0  0  0  0  0  0  0  0  0  0
  143.3637  133.4001  150.0977 H   0  0  0  0  0  0  0  0  0  0  0  0
  144.9828  132.0369  152.3050 H   0  0  0  0  0  0  0  0  0  0  0  0
  144.7334  131.4320  150.6821 H   0  0  0  0  0  0  0  0  0  0  0  0
  146.9700  132.5514  150.9306 H   0  0  0  0  0  0  0  0  0  0  0  0
  145.9811  133.3345  149.7208 H   0  0  0  0  0  0  0  0  0  0  0  0
  147.0391  135.0236  151.1629 H   0  0  0  0  0  0  0  0  0  0  0  0
  146.3785  134.2873  152.6057 H   0  0  0  0  0  0  0  0  0  0  0  0
  152.2371  137.3974  154.5718 H   0  0  0  0  0  0  0  0  0  0  0  0
  153.7140  138.2602  155.0421 H   0  0  0  0  0  0  0  0  0  0  0  0
  152.8157  138.7653  153.5960 H   0  0  0  0  0  0  0  0  0  0  0  0
  144.7930  135.4302  150.4207 H   0  0  0  0  0  0  0  0  0  0  0  0
  1  2  1  0  0  0  0
  1 22  1  0  0  0  0
  1 23  1  0  0  0  0
  1 24  1  0  0  0  0
  2 21  2  0  0  0  0
  2  3  1  0  0  0  0
  3  4  2  0  0  0  0
  3 25  1  0  0  0  0
  4  5  1  0  0  0  0
  4 19  1  0  0  0  0
  5  6  1  0  0  0  0
  5 26  1  0  0  0  0
  6  7  2  0  0  0  0
  6  8  1  0  0  0  0
  8  9  1  0  0  0  0
  8 27  1  0  0  0  0
  9 10  1  0  0  0  0
  9 28  1  0  0  0  0
  9 29  1  0  0  0  0
 10 11  1  0  0  0  0
 10 12  1  0  0  0  0
 10 30  1  0  0  0  0
 11 31  1  0  0  0  0
 12 13  1  0  0  0  0
 12 32  1  0  0  0  0
 12 33  1  0  0  0  0
 13 18  1  0  0  0  0
 13 14  1  0  0  0  0
 13 47  1  0  0  0  0
 14 15  1  0  0  0  0
 14 34  1  0  0  0  0
 14 35  1  0  0  0  0
 15 16  1  0  0  0  0
 15 36  1  0  0  0  0
 15 37  1  0  0  0  0
 16 17  1  0  0  0  0
 16 38  1  0  0  0  0
 16 39  1  0  0  0  0
 17 18  1  0  0  0  0
 17 40  1  0  0  0  0
 17 41  1  0  0  0  0
 18 42  1  0  0  0  0
 18 43  1  0  0  0  0
 19 20  1  0  0  0  0
 19 21  1  0  0  0  0
 20 44  1  0  0  0  0
 20 45  1  0  0  0  0
 20 46  1  0  0  0  0
M  CHG  1  13   1
M  END
> <s_m_source_file>
AV-unprocessed.smi

> <i_m_source_file_index>
1779

> <i_lp_mmshare_version>
43012

> <i_f3d_flags>
0

> <s_epik_input>
W0NIM11jMVtjSF1jKG4objEpW0NIM10pW05IXUMoPU8pW05IXVtDSDJdW0NASF0oW09IXSlbQ0gyXU4yW0NIMl1bQ0gyXVtDSDJdW0NIMl1bQ0gyXTI=

> <s_epik_cmdline>
J2VwaWtfcHl0aG9uJywgJy1waCcsICc3LjAnLCAnLXRuJywgJzgnLCAnLW1hJywgJzIwMCcsICctbWV0YWxfYmluZGluZycsICctaW1hZScsICc8aW5maWxlLm1hZT4nLCAnLW9tYWUnLCAnPG91dGZpbGUubWFlPic=

> <r_lp_tautomer_probability>
1

> <r_epik_Ionization_Penalty>
0.00528203

> <r_epik_Ionization_Penalty_Charging>
0.00519125

> <r_epik_Ionization_Penalty_Neutral>
9.07781e-05

> <r_epik_State_Penalty>
0.0037836

> <r_epik_Charging_Adjusted_Penalty>
0.00897485

> <i_epik_Tot_Q>
1

> <i_epik_Tot_abs_Q>
1

> <r_epik_Metal_State_Penalty>
-0

> <b_epik_Metal_Only>
0

> <s_lp_Force_Field>
OPLS_2005

> <r_lp_Energy>
18.32

> <b_lp_Chiralities_Consistent>
1

> <s_lp_Variant>
AV-unprocessed.smi:1779-1

> <Gold.Version>
5.8.1

> <Gold.Id.Protein>
6NUR|6NUR_protein|mol2

> <Gold.PLP.Fitness>
49.4589

> <Gold.PLP.PLP>
-39.9606

> <Gold.PLP.part.hbond>
-5.0630

> <Gold.PLP.part.metal>
0.0000

> <Gold.PLP.part.buried>
-2.1199

> <Gold.PLP.part.nonpolar>
-33.4317

> <Gold.PLP.part.repulsive>
0.2025

> <Gold.PLP.ligand.clash>
0.0000

> <Gold.PLP.ligand.torsion>
0.9629

> <Gold.PLP.Chemscore.Hbond>
3.7920

> <Gold.PLP.Chemscore.CHOScore>
0.0000

> <Gold.PLP.Chemscore.Metal>
0.0000

> <Gold.Chemscore.Hbonds>
donor molecule, donor type, donor heavy atom, donor atom, acceptor molecule, acceptor atom, score
      L1  H     8    27       P1  7948  0.99
      L1  H    11    31       P1 10171  1.00
      P1  H  7954  7966       L1    11  0.82
      P1  H  7997  8010       L1    21  1.00

> <Gold.PLP.Chemscore.Internal.Correction>
0.0481

> <Gold.Rescore>
     Score         DG    S(hbond)    S(metal)    S(lipo)     H(rot)  DE(clash)    DE(int)     intcor
     16.96     -20.00       3.40        0.00      78.55       2.36       0.93       2.11       ----

> <Gold.Chemscore.Fitness>
16.9626

> <Gold.Chemscore.DG>
-20.0035

> <Gold.Chemscore.ZeroCoef>
-5.4800

> <Gold.Chemscore.Hbond>
3.4032

> <Gold.Chemscore.Metal>
0.0000

> <Gold.Chemscore.Lipo>
78.5517

> <Gold.Chemscore.Internal_Hbond>
0.0000

> <Gold.Chemscore.DEClash>
0.9329

> <Gold.Chemscore.DEInternal>
2.1080

> <Gold.Chemscore.Rot>
2.3569

> <Gold.Chemscore.Internal.Correction>
   9.000000E+99

> <Gold.Chemscore.Hbonds>
donor molecule, donor type, donor heavy atom, donor atom, acceptor molecule, acceptor atom, score
      L1  H     8    27       P1  7948  0.94
      L1  H    11    31       P1 10171  1.00
      P1  H  7954  7966       L1    11  0.28
      P1  H  7997  8010       L1    21  0.90

> <Gold.Chemscore.Hbond.Weighted>
-11.3667

> <Gold.Chemscore.Metal.Weighted>
-0.0000

> <Gold.Chemscore.Lipo.Weighted>
-9.1905

> <Gold.Chemscore.Internal_Hbond.Weighted>
0.0000

> <Gold.Chemscore.DEClash.Weighted>
0.9329

> <Gold.Chemscore.DEInternal.Weighted>
2.1080

> <Gold.Chemscore.Rot.Weighted>
6.0337

> <Gold.Chemscore.Internal.Correction.Weighted>
   9.000000E+99

> <Gold.Protein.RotatedTorsions>
[ 6907 6896 6895 6894 ] final  -54.19 input  -60.11 | X-H torsion
[ 7974 7965 7964 7962 ] final   26.93 input  175.53 | X-H torsion
[ 8008 7997 7996 7995 ] final   80.17 input   59.86 | X-H torsion
[ 10167 10162 10161 10158 ] final  -60.32 input  -65.29 | X-H torsion
[ 10718 10713 10712 10709 ] final -163.22 input   66.30 | X-H torsion
[ 10763 10752 10751 10750 ] final  171.87 input  -60.55 | X-H torsion
[ 11005 11000 10999 10996 ] final   42.28 input  -57.11 | X-H torsion

> <Gold.Protein.ActiveResidues>
 VAL166  LYS551  ARG553  GLY616  TRP617  ASP618  TYR619  PRO620  LYS621  CYS622 
 ASP623  PHE694  ASN695  SER759  ASP760  ASP761  ALA762  ILE779  LEU786  VAL792 
 PHE793  MET794  SER795  GLU796  ALA797  LYS798  CYS799  TRP800  GLU811  SER814 

> <Gold.Protein.RotatedAtoms>
  150.8360  134.7633  159.6892 H   0  0  0  0  0  0  0  0  0  0  0  0  # atno 6907 bound_to 6896
  152.4456  134.5498  159.9873 H   0  0  0  0  0  0  0  0  0  0  0  0  # atno 6908 bound_to 6896
  151.5648  133.3360  159.3014 H   0  0  0  0  0  0  0  0  0  0  0  0  # atno 6909 bound_to 6896
  146.1811  139.7260  142.8899 H   0  0  0  0  0  0  0  0  0  0  0  0  # atno 7974 bound_to 7965
  155.8799  140.3444  155.5880 H   0  0  0  0  0  0  0  0  0  0  0  0  # atno 8008 bound_to 7997
  155.7732  140.0848  157.2116 H   0  0  0  0  0  0  0  0  0  0  0  0  # atno 8009 bound_to 7997
  154.4023  140.1514  156.2953 H   0  0  0  0  0  0  0  0  0  0  0  0  # atno 8010 bound_to 7997
  140.6078  143.2378  151.5779 H   0  0  0  0  0  0  0  0  0  0  0  0  # atno 10167 bound_to 10162
  156.6216  130.8892  151.2959 H   0  0  0  0  0  0  0  0  0  0  0  0  # atno 10718 bound_to 10713
  154.4180  135.2757  155.1994 H   0  0  0  0  0  0  0  0  0  0  0  0  # atno 10763 bound_to 10752
  154.3952  135.6057  153.5869 H   0  0  0  0  0  0  0  0  0  0  0  0  # atno 10764 bound_to 10752
  152.9832  135.5913  154.4472 H   0  0  0  0  0  0  0  0  0  0  0  0  # atno 10765 bound_to 10752
  140.1754  134.4170  155.8232 H   0  0  0  0  0  0  0  0  0  0  0  0  # atno 11005 bound_to 11000
  145.4072  141.0392  143.3037 LP  0  0  0  0  0  0  0  0  0  0  0  0  # atno 17320 bound_to 7965
  144.8317  139.5617  143.6940 LP  0  0  0  0  0  0  0  0  0  0  0  0  # atno 17321 bound_to 7965
  139.5338  144.2838  152.1207 LP  0  0  0  0  0  0  0  0  0  0  0  0  # atno 17342 bound_to 10162
  140.2032  144.4637  150.6421 LP  0  0  0  0  0  0  0  0  0  0  0  0  # atno 17343 bound_to 10162
  157.7226  130.9579  150.1501 LP  0  0  0  0  0  0  0  0  0  0  0  0  # atno 17370 bound_to 10713
  156.2307  130.3682  149.8448 LP  0  0  0  0  0  0  0  0  0  0  0  0  # atno 17371 bound_to 10713
  141.2220  133.6975  156.7837 LP  0  0  0  0  0  0  0  0  0  0  0  0  # atno 17394 bound_to 11000
  140.2329  134.8672  157.3495 LP  0  0  0  0  0  0  0  0  0  0  0  0  # atno 17395 bound_to 11000

$$$$
