#       Name:                AV-unprocessed.smi:1726
#       Creating user name   scv26
#       Creation time:       Fri Mar 27 08:17:09 2020


#       File generated by GOLD software.
#

@<TRIPOS>MOLECULE
AV-unprocessed.smi:1726
    47    48     1
SMALL
NO_CHARGES


@<TRIPOS>ATOM
      1 ****        -1.3922  -1.4235  -3.1824 C.3            1 S1                 0.0000
      2 ****        -2.3344  -2.2546  -2.2992 C.3            1 S1                 0.0000
      3 ****        -2.0845  -2.0413  -0.8520 N.4            1 S1                 1.0000
      4 ****        -2.5706  -3.1716  -0.0185 C.3            1 S1                 0.0000
      5 ****        -2.1617  -2.9938   1.4545 C.3            1 S1                 0.0000
      6 ****        -2.6284  -1.6368   2.0081 C.3            1 S1                 0.0000
      7 ****        -2.1579  -0.4829   1.1047 C.3            1 S1                 0.0000
      8 ****        -0.7055  -0.3336   1.2045 N.am           1 S1                 0.0000
      9 ****        -0.0031   0.7292   0.7871 C.2            1 S1                 0.0000
     10 ****        -0.5207   1.7122   0.2581 O.2            1 S1                 0.0000
     11 ****         1.3128   0.5489   1.0015 N.am           1 S1                 0.0000
     12 ****         2.3855   1.4102   0.7162 C.2            1 S1                 0.0000
     13 ****         2.2693   2.7415   0.4704 C.2            1 S1                 0.0000
     14 ****         3.4250   3.5783   0.1936 C.2            1 S1                 0.0000
     15 ****         3.2755   5.0489  -0.1635 C.3            1 S1                 0.0000
     16 ****         4.2540   5.4516  -0.9757 F              1 S1                 0.0000
     17 ****         2.1090   5.2782  -0.7672 F              1 S1                 0.0000
     18 ****         3.3228   5.7901   0.9427 F              1 S1                 0.0000
     19 ****         4.6227   2.9645   0.1870 C.2            1 S1                 0.0000
     20 ****         4.7529   1.6012   0.4610 N.am           1 S1                 0.0000
     21 ****         3.7147   0.7772   0.7268 C.2            1 S1                 0.0000
     22 ****         3.9102  -0.4163   0.9546 O.2            1 S1                 0.0000
     23 ****        -2.6082  -0.7430  -0.3501 C.3            1 S1                 0.0000
     24 ****         5.6874   1.2184   0.4521 H              1 S1                 0.0000
     25 ****        -1.5357  -1.6712  -4.2343 H              1 S1                 0.0000
     26 ****        -0.3478  -1.6199  -2.9375 H              1 S1                 0.0000
     27 ****        -1.5663  -0.3531  -3.0772 H              1 S1                 0.0000
     28 ****        -3.3778  -2.0412  -2.5361 H              1 S1                 0.0000
     29 ****        -2.1719  -3.3057  -2.5411 H              1 S1                 0.0000
     30 ****        -3.6562  -3.2457  -0.1023 H              1 S1                 0.0000
     31 ****        -2.1595  -4.1106  -0.3909 H              1 S1                 0.0000
     32 ****        -2.5788  -3.8023   2.0558 H              1 S1                 0.0000
     33 ****        -1.0777  -3.0760   1.5440 H              1 S1                 0.0000
     34 ****        -3.7177  -1.6282   2.0664 H              1 S1                 0.0000
     35 ****        -2.2667  -1.4984   3.0279 H              1 S1                 0.0000
     36 ****        -2.6185   0.4406   1.4604 H              1 S1                 0.0000
     37 ****        -0.1995  -1.0943   1.6347 H              1 S1                 0.0000
     38 ****         1.5874  -0.3437   1.3853 H              1 S1                 0.0000
     39 ****         1.3086   3.2293   0.4955 H              1 S1                 0.0000
     40 ****         5.5582   3.4586  -0.0310 H              1 S1                 0.0000
     41 ****        -2.2770   0.0749  -0.9886 H              1 S1                 0.0000
     42 ****        -3.6979  -0.7478  -0.4068 H              1 S1                 0.0000
     43 ****        -1.0813  -2.0179  -0.7382 H              1 S1                 0.0000
     44 ****        -1.5109   1.7434   0.1220 LP             1 S1                 0.0000
     45 ****         0.0489   2.4798  -0.0358 LP             1 S1                 0.0000
     46 ****         3.1380  -1.0214   1.1484 LP             1 S1                 0.0000
     47 ****         4.8413  -0.7810   0.9458 LP             1 S1                 0.0000
@<TRIPOS>BOND
    1    1    2 1     
    2    1   25 1     
    3    1   26 1     
    4    1   27 1     
    5    2    3 1     
    6    2   28 1     
    7    2   29 1     
    8    3   23 1     
    9    3    4 1     
   10    3   43 1     
   11    4    5 1     
   12    4   30 1     
   13    4   31 1     
   14    5    6 1     
   15    5   32 1     
   16    5   33 1     
   17    6    7 1     
   18    6   34 1     
   19    6   35 1     
   20    7    8 1     
   21    7   23 1     
   22    7   36 1     
   23    8    9 am    
   24    8   37 1     
   25    9   10 2     
   26    9   11 am    
   27   11   12 1     
   28   11   38 1     
   29   12   21 1     
   30   12   13 2     
   31   13   14 1     
   32   13   39 1     
   33   14   15 1     
   34   14   19 2     
   35   15   16 1     
   36   15   17 1     
   37   15   18 1     
   38   19   20 1     
   39   19   40 1     
   40   20   24 1     
   41   20   21 am    
   42   21   22 2     
   43   23   41 1     
   44   23   42 1     
   45   10   44 1     
   46   10   45 1     
   47   22   46 1     
   48   22   47 1     
@<TRIPOS>SUBSTRUCTURE
      1 S1             1
@<TRIPOS>SET
LONE_PAIRS      STATIC     ATOMS    <user>   **** ""
4 44 45 46 47
DONOR_HYDROGENS      STATIC     ATOMS    <user>   **** ""
4 43 37 38 24
ATOM$BLUE        STATIC     ATOMS    COLORGROUP SYSTEM
4 44 45 46 47
ATOM$RED        STATIC     ATOMS    COLORGROUP SYSTEM
4 43 37 38 24
