AV-unprocessed.smi:2528|AV-procd|sdf|9949|dock1
  -GOLD-   2272013593D 1   1.00000     0.00000
 Structure written by MMmdl.
 44 46  0  0  0  0  0  0  0  0  2 V2000
  144.4436  136.6897  151.6529 O   0  0  0  0  0  0  0  0  0  0  0  0
  145.6564  136.4772  151.6566 C   0  0  0  0  0  0  0  0  0  0  0  0
  146.5663  137.4199  151.9424 N   0  0  0  0  0  0  0  0  0  0  0  0
  146.2511  138.8043  152.2775 C   0  0  0  0  0  0  0  0  0  0  0  0
  147.3053  139.4167  153.2280 C   0  0  1  0  0  0  0  0  0  0  0  0
  147.2578  140.9552  153.2837 C   0  0  0  0  0  0  0  0  0  0  0  0
  146.0740  141.4338  154.0350 N   0  3  2  0  0  0  0  0  0  0  0  0
  145.9930  142.9165  154.0651 C   0  0  0  0  0  0  0  0  0  0  0  0
  144.7160  143.3890  154.7765 C   0  0  0  0  0  0  0  0  0  0  0  0
  144.6408  142.8106  156.1947 C   0  0  0  0  0  0  0  0  0  0  0  0
  144.7459  141.2808  156.1409 C   0  0  0  0  0  0  0  0  0  0  0  0
  146.0170  140.8284  155.3934 C   0  0  1  0  0  0  0  0  0  0  0  0
  146.0783  139.2928  155.2869 C   0  0  0  0  0  0  0  0  0  0  0  0
  147.2285  138.8880  154.5522 O   0  0  0  0  0  0  0  0  0  0  0  0
  146.2419  135.2995  151.3766 N   0  0  0  0  0  0  0  0  0  0  0  0
  145.6183  134.0669  151.0448 C   0  0  0  0  0  0  0  0  0  0  0  0
  146.4220  132.9197  151.2321 C   0  0  0  0  0  0  0  0  0  0  0  0
  145.8949  131.6480  150.9345 C   0  0  0  0  0  0  0  0  0  0  0  0
  144.5754  131.5558  150.4570 C   0  0  0  0  0  0  0  0  0  0  0  0
  143.8432  132.7466  150.2982 C   0  0  0  0  0  0  0  0  0  0  0  0
  144.3465  133.9666  150.5828 N   0  0  0  0  0  0  0  0  0  0  0  0
  147.5429  137.1642  151.9216 H   0  0  0  0  0  0  0  0  0  0  0  0
  146.1886  139.3947  151.3617 H   0  0  0  0  0  0  0  0  0  0  0  0
  145.2539  138.8354  152.7149 H   0  0  0  0  0  0  0  0  0  0  0  0
  148.2893  139.1412  152.8470 H   0  0  0  0  0  0  0  0  0  0  0  0
  148.1608  141.3289  153.7693 H   0  0  0  0  0  0  0  0  0  0  0  0
  147.2514  141.3675  152.2737 H   0  0  0  0  0  0  0  0  0  0  0  0
  146.8727  143.3212  154.5686 H   0  0  0  0  0  0  0  0  0  0  0  0
  146.0053  143.3027  153.0452 H   0  0  0  0  0  0  0  0  0  0  0  0
  144.6913  144.4784  154.8158 H   0  0  0  0  0  0  0  0  0  0  0  0
  143.8400  143.0790  154.2051 H   0  0  0  0  0  0  0  0  0  0  0  0
  145.4506  143.2160  156.8028 H   0  0  0  0  0  0  0  0  0  0  0  0
  143.7084  143.1091  156.6750 H   0  0  0  0  0  0  0  0  0  0  0  0
  144.7447  140.8776  157.1542 H   0  0  0  0  0  0  0  0  0  0  0  0
  143.8614  140.8755  155.6471 H   0  0  0  0  0  0  0  0  0  0  0  0
  146.8902  141.1701  155.9523 H   0  0  0  0  0  0  0  0  0  0  0  0
  146.1382  138.8531  156.2828 H   0  0  0  0  0  0  0  0  0  0  0  0
  145.1727  138.8921  154.8312 H   0  0  0  0  0  0  0  0  0  0  0  0
  147.2503  135.2792  151.4093 H   0  0  0  0  0  0  0  0  0  0  0  0
  147.4338  133.0081  151.6003 H   0  0  0  0  0  0  0  0  0  0  0  0
  146.4931  130.7593  151.0716 H   0  0  0  0  0  0  0  0  0  0  0  0
  144.1363  130.5984  150.2187 H   0  0  0  0  0  0  0  0  0  0  0  0
  142.8270  132.7198  149.9342 H   0  0  0  0  0  0  0  0  0  0  0  0
  145.2588  141.1079  153.5357 H   0  0  0  0  0  0  0  0  0  0  0  0
  1  2  2  0  0  0  0
  2  3  1  0  0  0  0
  2 15  1  0  0  0  0
  3  4  1  0  0  0  0
  3 22  1  0  0  0  0
  4  5  1  0  0  0  0
  4 23  1  0  0  0  0
  4 24  1  0  0  0  0
  5 14  1  0  0  0  0
  5  6  1  0  0  0  0
  5 25  1  0  0  0  0
  6  7  1  0  0  0  0
  6 26  1  0  0  0  0
  6 27  1  0  0  0  0
  7 12  1  0  0  0  0
  7  8  1  0  0  0  0
  7 44  1  0  0  0  0
  8  9  1  0  0  0  0
  8 28  1  0  0  0  0
  8 29  1  0  0  0  0
  9 10  1  0  0  0  0
  9 30  1  0  0  0  0
  9 31  1  0  0  0  0
 10 11  1  0  0  0  0
 10 32  1  0  0  0  0
 10 33  1  0  0  0  0
 11 12  1  0  0  0  0
 11 34  1  0  0  0  0
 11 35  1  0  0  0  0
 12 13  1  0  0  0  0
 12 36  1  0  0  0  0
 13 14  1  0  0  0  0
 13 37  1  0  0  0  0
 13 38  1  0  0  0  0
 15 16  1  0  0  0  0
 15 39  1  0  0  0  0
 16 21  1  0  0  0  0
 16 17  2  0  0  0  0
 17 18  1  0  0  0  0
 17 40  1  0  0  0  0
 18 19  2  0  0  0  0
 18 41  1  0  0  0  0
 19 20  1  0  0  0  0
 19 42  1  0  0  0  0
 20 21  2  0  0  0  0
 20 43  1  0  0  0  0
M  CHG  1   7   1
M  END
> <s_m_source_file>
AV-unprocessed.smi

> <i_m_source_file_index>
2528

> <i_lp_mmshare_version>
43012

> <i_f3d_flags>
0

> <s_epik_input>
bjFbY0hdW2NIXVtjSF1bY0hdYzFbTkhdQyg9TylbTkhdW0NIMl1bQ0BIXShbQ0gyXTIpT1tDSDJdW0NAQEhdKE4yMylbQ0gyXVtDSDJdW0NIMl1bQ0gyXTM=

> <s_epik_cmdline>
J2VwaWtfcHl0aG9uJywgJy1waCcsICc3LjAnLCAnLXRuJywgJzgnLCAnLW1hJywgJzIwMCcsICctbWV0YWxfYmluZGluZycsICctaW1hZScsICc8aW5maWxlLm1hZT4nLCAnLW9tYWUnLCAnPG91dGZpbGUubWFlPic=

> <r_epik_Ionization_Penalty>
0.0932337

> <r_epik_Ionization_Penalty_Charging>
0.0931942

> <r_epik_Ionization_Penalty_Neutral>
3.9565e-05

> <r_epik_State_Penalty>
0.0834605

> <r_epik_Charging_Adjusted_Penalty>
0.176655

> <i_epik_Tot_Q>
1

> <i_epik_Tot_abs_Q>
1

> <r_epik_Metal_State_Penalty>
0.0834607

> <b_epik_Metal_Only>
0

> <s_lp_Force_Field>
OPLS_2005

> <r_lp_Energy>
28.0782

> <b_lp_Chiralities_Consistent>
1

> <s_lp_Variant>
AV-unprocessed.smi:2528-2

> <Gold.Version>
5.8.1

> <Gold.Id.Protein>
6NUR|6NUR_protein|mol2

> <Gold.PLP.Fitness>
48.1947

> <Gold.PLP.PLP>
-34.0324

> <Gold.PLP.part.hbond>
-2.9937

> <Gold.PLP.part.metal>
0.0000

> <Gold.PLP.part.buried>
-5.2657

> <Gold.PLP.part.nonpolar>
-28.6553

> <Gold.PLP.part.repulsive>
2.5988

> <Gold.PLP.ligand.clash>
0.0000

> <Gold.PLP.ligand.torsion>
0.3762

> <Gold.PLP.Chemscore.Hbond>
3.9760

> <Gold.PLP.Chemscore.CHOScore>
0.9923

> <Gold.PLP.Chemscore.Metal>
0.0000

> <Gold.Chemscore.Hbonds>
donor molecule, donor type, donor heavy atom, donor atom, acceptor molecule, acceptor atom, score
      L1  H     3    22       P1  7948  1.00
      L1  H     7    44       P1 10175  2.00
      L1  H    15    39       P1  7948  0.99
      L1  C    20    43       P1 10186  1.00

> <Gold.PLP.Chemscore.Internal.Correction>
0.0098

> <Gold.Rescore>
     Score         DG    S(hbond)    S(metal)    S(lipo)     H(rot)  DE(clash)    DE(int)     intcor
     15.93     -19.50       2.62        0.00      73.19       1.29       1.96       1.62       ----

> <Gold.Chemscore.Fitness>
15.9252

> <Gold.Chemscore.DG>
-19.5005

> <Gold.Chemscore.ZeroCoef>
-5.4800

> <Gold.Chemscore.Hbond>
2.6204

> <Gold.Chemscore.Metal>
0.0000

> <Gold.Chemscore.Lipo>
73.1909

> <Gold.Chemscore.Internal_Hbond>
0.0000

> <Gold.Chemscore.DEClash>
1.9579

> <Gold.Chemscore.DEInternal>
1.6174

> <Gold.Chemscore.Rot>
1.2870

> <Gold.Chemscore.Internal.Correction>
   9.000000E+99

> <Gold.Chemscore.Hbonds>
donor molecule, donor type, donor heavy atom, donor atom, acceptor molecule, acceptor atom, score
      L1  H     3    22       P1  7948  1.00
      L1  H     7    44       P1 10175  0.54
      L1  H    15    39       P1  7948  0.79

> <Gold.Chemscore.Hbond.Weighted>
-8.7521

> <Gold.Chemscore.Metal.Weighted>
-0.0000

> <Gold.Chemscore.Lipo.Weighted>
-8.5633

> <Gold.Chemscore.Internal_Hbond.Weighted>
0.0000

> <Gold.Chemscore.DEClash.Weighted>
1.9579

> <Gold.Chemscore.DEInternal.Weighted>
1.6174

> <Gold.Chemscore.Rot.Weighted>
3.2948

> <Gold.Chemscore.Internal.Correction.Weighted>
   9.000000E+99

> <Gold.Protein.RotatedTorsions>
[ 6907 6896 6895 6894 ] final  -78.52 input  -60.11 | X-H torsion
[ 7974 7965 7964 7962 ] final  -63.96 input  175.53 | X-H torsion
[ 8008 7997 7996 7995 ] final -132.55 input   59.86 | X-H torsion
[ 10167 10162 10161 10158 ] final   84.29 input  -65.29 | X-H torsion
[ 10718 10713 10712 10709 ] final    7.83 input   66.30 | X-H torsion
[ 10763 10752 10751 10750 ] final -144.53 input  -60.55 | X-H torsion
[ 11005 11000 10999 10996 ] final  -22.83 input  -57.11 | X-H torsion

> <Gold.Protein.ActiveResidues>
 VAL166  LYS551  ARG553  GLY616  TRP617  ASP618  TYR619  PRO620  LYS621  CYS622 
 ASP623  PHE694  ASN695  SER759  ASP760  ASP761  ALA762  ILE779  LEU786  VAL792 
 PHE793  MET794  SER795  GLU796  ALA797  LYS798  CYS799  TRP800  GLU811  SER814 

> <Gold.Protein.RotatedAtoms>
  150.6971  134.4259  159.5226 H   0  0  0  0  0  0  0  0  0  0  0  0  # atno 6907 bound_to 6896
  152.1994  134.8598  160.0518 H   0  0  0  0  0  0  0  0  0  0  0  0  # atno 6908 bound_to 6896
  151.9524  133.3635  159.4042 H   0  0  0  0  0  0  0  0  0  0  0  0  # atno 6909 bound_to 6896
  145.7727  140.8804  143.0372 H   0  0  0  0  0  0  0  0  0  0  0  0  # atno 7974 bound_to 7965
  155.3308  140.0467  157.3042 H   0  0  0  0  0  0  0  0  0  0  0  0  # atno 8008 bound_to 7997
  154.5329  140.2263  155.8738 H   0  0  0  0  0  0  0  0  0  0  0  0  # atno 8009 bound_to 7997
  156.1807  140.3074  155.9149 H   0  0  0  0  0  0  0  0  0  0  0  0  # atno 8010 bound_to 7997
  139.9096  144.6280  150.8551 H   0  0  0  0  0  0  0  0  0  0  0  0  # atno 10167 bound_to 10162
  156.9426  130.5867  149.5653 H   0  0  0  0  0  0  0  0  0  0  0  0  # atno 10718 bound_to 10713
  154.8424  135.3438  154.6361 H   0  0  0  0  0  0  0  0  0  0  0  0  # atno 10763 bound_to 10752
  153.6972  135.6971  153.5078 H   0  0  0  0  0  0  0  0  0  0  0  0  # atno 10764 bound_to 10752
  153.2550  135.4341  155.0791 H   0  0  0  0  0  0  0  0  0  0  0  0  # atno 10765 bound_to 10752
  140.8694  133.7731  156.0169 H   0  0  0  0  0  0  0  0  0  0  0  0  # atno 11005 bound_to 11000
  144.6810  139.9877  143.7484 LP  0  0  0  0  0  0  0  0  0  0  0  0  # atno 17320 bound_to 7965
  146.0154  139.3205  143.0845 LP  0  0  0  0  0  0  0  0  0  0  0  0  # atno 17321 bound_to 7965
  140.7688  143.3375  151.2277 LP  0  0  0  0  0  0  0  0  0  0  0  0  # atno 17342 bound_to 10162
  139.6954  143.9622  152.2880 LP  0  0  0  0  0  0  0  0  0  0  0  0  # atno 17343 bound_to 10162
  156.0397  130.5481  150.8741 LP  0  0  0  0  0  0  0  0  0  0  0  0  # atno 17370 bound_to 10713
  157.5774  131.0946  150.9324 LP  0  0  0  0  0  0  0  0  0  0  0  0  # atno 17371 bound_to 10713
  140.8591  134.2863  157.5242 LP  0  0  0  0  0  0  0  0  0  0  0  0  # atno 17394 bound_to 11000
  139.8711  134.9508  156.4067 LP  0  0  0  0  0  0  0  0  0  0  0  0  # atno 17395 bound_to 11000

$$$$
