AV-unprocessed.smi:36|AV-procd|sdf|298|dock7
  -GOLD-   2262016103D 1   1.00000     0.00000
 Structure written by MMmdl.
 63 66  0  0  0  0  0  0  0  0  2 V2000
  154.2260  127.9772  155.9708 C   0  0  0  0  0  0  0  0  0  0  0  0
  153.4681  129.2724  155.6353 C   0  0  0  0  0  0  0  0  0  0  0  0
  154.0867  130.4536  156.4013 C   0  0  0  0  0  0  0  0  0  0  0  0
  153.5374  129.5439  154.1230 C   0  0  0  0  0  0  0  0  0  0  0  0
  151.6369  129.0890  156.1478 Si  0  0  0  0  0  0  0  0  0  0  0  0
  150.7615  127.7772  155.0862 C   0  0  0  0  0  0  0  0  0  0  0  0
  151.4761  128.6432  157.9874 C   0  0  0  0  0  0  0  0  0  0  0  0
  150.8804  130.5810  155.8985 O   0  0  0  0  0  0  0  0  0  0  0  0
  150.5268  131.0811  154.6260 C   0  0  0  0  0  0  0  0  0  0  0  0
  149.8954  132.4688  154.8043 C   0  0  1  0  0  0  0  0  0  0  0  0
  150.8940  133.4840  154.8968 O   0  0  0  0  0  0  0  0  0  0  0  0
  150.4371  134.6702  154.3184 C   0  0  2  0  0  0  0  0  0  0  0  0
  150.5043  135.7630  155.3358 N   0  0  0  0  0  0  0  0  0  0  0  0
  149.8025  135.8561  156.4827 C   0  0  0  0  0  0  0  0  0  0  0  0
  150.0238  136.9179  157.2547 N   0  0  0  0  0  0  0  0  0  0  0  0
  150.9800  137.6038  156.5202 C   0  0  0  0  0  0  0  0  0  0  0  0
  151.6779  138.8205  156.7570 C   0  0  0  0  0  0  0  0  0  0  0  0
  151.4879  139.5656  157.8570 N   0  5  0  0  0  0  0  0  0  0  0  0
  152.5143  140.2954  158.3630 C   0  0  0  0  0  0  0  0  0  0  0  0
  153.6554  139.9121  158.6302 O   0  0  0  0  0  0  0  0  0  0  0  0
  152.1808  141.7531  158.5365 C   0  0  0  0  0  0  0  0  0  0  0  0
  153.0176  142.5733  159.3276 C   0  0  0  0  0  0  0  0  0  0  0  0
  152.7097  143.9336  159.5239 C   0  0  0  0  0  0  0  0  0  0  0  0
  151.5551  144.4866  158.9390 C   0  0  0  0  0  0  0  0  0  0  0  0
  150.7069  143.6772  158.1605 C   0  0  0  0  0  0  0  0  0  0  0  0
  151.0146  142.3167  157.9631 C   0  0  0  0  0  0  0  0  0  0  0  0
  152.5557  139.2211  155.8021 N   0  0  0  0  0  0  0  0  0  0  0  0
  152.7507  138.4768  154.7074 C   0  0  0  0  0  0  0  0  0  0  0  0
  152.1824  137.3157  154.3690 N   0  0  0  0  0  0  0  0  0  0  0  0
  151.2872  136.9070  155.3149 C   0  0  0  0  0  0  0  0  0  0  0  0
  148.9968  134.4386  153.8523 C   0  0  0  0  0  0  0  0  0  0  0  0
  148.9665  132.9343  153.6755 C   0  0  1  0  0  0  0  0  0  0  0  0
  149.4506  132.5650  152.3974 O   0  0  0  0  0  0  0  0  0  0  0  0
  155.2761  128.0480  155.6851 H   0  0  0  0  0  0  0  0  0  0  0  0
  153.8006  127.1205  155.4475 H   0  0  0  0  0  0  0  0  0  0  0  0
  154.1907  127.7619  157.0391 H   0  0  0  0  0  0  0  0  0  0  0  0
  154.0576  130.2886  157.4787 H   0  0  0  0  0  0  0  0  0  0  0  0
  153.5517  131.3814  156.1958 H   0  0  0  0  0  0  0  0  0  0  0  0
  155.1294  130.6056  156.1208 H   0  0  0  0  0  0  0  0  0  0  0  0
  154.5672  129.6772  153.7900 H   0  0  0  0  0  0  0  0  0  0  0  0
  152.9857  130.4464  153.8568 H   0  0  0  0  0  0  0  0  0  0  0  0
  153.1123  128.7193  153.5507 H   0  0  0  0  0  0  0  0  0  0  0  0
  151.2361  126.8012  155.1849 H   0  0  0  0  0  0  0  0  0  0  0  0
  150.7769  128.0424  154.0293 H   0  0  0  0  0  0  0  0  0  0  0  0
  149.7174  127.6575  155.3743 H   0  0  0  0  0  0  0  0  0  0  0  0
  151.9614  127.6942  158.2143 H   0  0  0  0  0  0  0  0  0  0  0  0
  150.4320  128.5525  158.2861 H   0  0  0  0  0  0  0  0  0  0  0  0
  151.9299  129.4016  158.6243 H   0  0  0  0  0  0  0  0  0  0  0  0
  151.3963  131.1258  153.9698 H   0  0  0  0  0  0  0  0  0  0  0  0
  149.8107  130.3932  154.1760 H   0  0  0  0  0  0  0  0  0  0  0  0
  149.3235  132.4812  155.7330 H   0  0  0  0  0  0  0  0  0  0  0  0
  151.1084  134.9762  153.5150 H   0  0  0  0  0  0  0  0  0  0  0  0
  149.0916  135.0966  156.7723 H   0  0  0  0  0  0  0  0  0  0  0  0
  153.9066  142.1638  159.7852 H   0  0  0  0  0  0  0  0  0  0  0  0
  153.3596  144.5522  160.1252 H   0  0  0  0  0  0  0  0  0  0  0  0
  151.3186  145.5293  159.0907 H   0  0  0  0  0  0  0  0  0  0  0  0
  149.8171  144.0985  157.7165 H   0  0  0  0  0  0  0  0  0  0  0  0
  150.3447  141.7102  157.3703 H   0  0  0  0  0  0  0  0  0  0  0  0
  153.4683  138.8672  154.0012 H   0  0  0  0  0  0  0  0  0  0  0  0
  148.2974  134.7350  154.6352 H   0  0  0  0  0  0  0  0  0  0  0  0
  148.7723  135.0059  152.9483 H   0  0  0  0  0  0  0  0  0  0  0  0
  147.9590  132.5336  153.7907 H   0  0  0  0  0  0  0  0  0  0  0  0
  150.1578  133.1476  152.1662 H   0  0  0  0  0  0  0  0  0  0  0  0
  1  2  1  0  0  0  0
  1 34  1  0  0  0  0
  1 35  1  0  0  0  0
  1 36  1  0  0  0  0
  2  3  1  0  0  0  0
  2  4  1  0  0  0  0
  2  5  1  0  0  0  0
  3 37  1  0  0  0  0
  3 38  1  0  0  0  0
  3 39  1  0  0  0  0
  4 40  1  0  0  0  0
  4 41  1  0  0  0  0
  4 42  1  0  0  0  0
  5  6  1  0  0  0  0
  5  7  1  0  0  0  0
  5  8  1  0  0  0  0
  6 43  1  0  0  0  0
  6 44  1  0  0  0  0
  6 45  1  0  0  0  0
  7 46  1  0  0  0  0
  7 47  1  0  0  0  0
  7 48  1  0  0  0  0
  8  9  1  0  0  0  0
  9 10  1  0  0  0  0
  9 49  1  0  0  0  0
  9 50  1  0  0  0  0
 10 32  1  0  0  0  0
 10 11  1  0  0  0  0
 10 51  1  0  0  0  0
 11 12  1  0  0  0  0
 12 13  1  0  0  0  0
 12 31  1  0  0  0  0
 12 52  1  0  0  0  0
 13 30  1  0  0  0  0
 13 14  1  0  0  0  0
 14 15  2  0  0  0  0
 14 53  1  0  0  0  0
 15 16  1  0  0  0  0
 16 30  2  0  0  0  0
 16 17  1  0  0  0  0
 17 18  1  0  0  0  0
 17 27  2  0  0  0  0
 18 19  1  0  0  0  0
 19 20  2  0  0  0  0
 19 21  1  0  0  0  0
 21 26  1  0  0  0  0
 21 22  2  0  0  0  0
 22 23  1  0  0  0  0
 22 54  1  0  0  0  0
 23 24  2  0  0  0  0
 23 55  1  0  0  0  0
 24 25  1  0  0  0  0
 24 56  1  0  0  0  0
 25 26  2  0  0  0  0
 25 57  1  0  0  0  0
 26 58  1  0  0  0  0
 27 28  1  0  0  0  0
 28 29  2  0  0  0  0
 28 59  1  0  0  0  0
 29 30  1  0  0  0  0
 31 32  1  0  0  0  0
 31 60  1  0  0  0  0
 31 61  1  0  0  0  0
 32 33  1  0  0  0  0
 32 62  1  0  0  0  0
 33 63  1  0  0  0  0
M  CHG  1  18  -1
M  END
> <s_m_source_file>
AV-unprocessed.smi

> <i_m_source_file_index>
36

> <i_lp_mmshare_version>
43012

> <i_f3d_flags>
0

> <s_epik_input>
W0NIM11DKFtDSDNdKShbQ0gzXSlbU2ldKFtDSDNdKShbQ0gzXSlPW0NIMl1bQ0BASF0xT1tDQEhdKFtDSDJdW0NASF0xW09IXSluKFtjSF1uMiljKGMyMyluW2NIXW5jM1tOSF1DKD1PKWM0W2NIXVtjSF1bY0hdW2NIXVtjSF00

> <s_epik_cmdline>
J2VwaWtfcHl0aG9uJywgJy1waCcsICc3LjAnLCAnLXRuJywgJzgnLCAnLW1hJywgJzIwMCcsICctbWV0YWxfYmluZGluZycsICctaW1hZScsICc8aW5maWxlLm1hZT4nLCAnLW9tYWUnLCAnPG91dGZpbGUubWFlPic=

> <r_lp_tautomer_probability>
1

> <r_epik_Ionization_Penalty>
4.75685

> <r_epik_Ionization_Penalty_Charging>
3.55822

> <r_epik_Ionization_Penalty_Neutral>
1.19863

> <r_epik_State_Penalty>
3.564

> <r_epik_Charging_Adjusted_Penalty>
7.12222

> <i_epik_Tot_Q>
-1

> <i_epik_Tot_abs_Q>
1

> <r_epik_Metal_State_Penalty>
0.523258

> <b_epik_Metal_Only>
1

> <s_epik_Chemistry_Notes>
This compound contains an acetal/aminal-like group ( X-CH(R)-Y where X, Y are N, S, or O) that may be acid/base labile, releasing an aldehyde.

> <s_lp_Force_Field>
OPLS_2005

> <r_lp_Energy>
38.0647

> <b_lp_Chiralities_Consistent>
1

> <s_lp_Variant>
AV-unprocessed.smi:36-20

> <Gold.Version>
5.8.1

> <Gold.Id.Protein>
6NUR|6NUR_protein|mol2

> <Gold.PLP.Fitness>
49.4983

> <Gold.PLP.PLP>
-45.9767

> <Gold.PLP.part.hbond>
-3.0238

> <Gold.PLP.part.metal>
0.0000

> <Gold.PLP.part.buried>
-4.1361

> <Gold.PLP.part.nonpolar>
-38.1164

> <Gold.PLP.part.repulsive>
0.1695

> <Gold.PLP.ligand.clash>
0.0000

> <Gold.PLP.ligand.torsion>
1.3181

> <Gold.PLP.Chemscore.Hbond>
2.0000

> <Gold.PLP.Chemscore.CHOScore>
0.0000

> <Gold.PLP.Chemscore.Metal>
0.0000

> <Gold.Chemscore.Hbonds>
donor molecule, donor type, donor heavy atom, donor atom, acceptor molecule, acceptor atom, score
      P1  H  7997  8008       L1    20  1.00
      P1  H 10752 10763       L1    29  0.40

> <Gold.PLP.Chemscore.Internal.Correction>
0.1578

> <Gold.Rescore>
     Score         DG    S(hbond)    S(metal)    S(lipo)     H(rot)  DE(clash)    DE(int)     intcor
     15.13     -16.42       1.58        0.00     106.69       2.67       0.03       1.25       ----

> <Gold.Chemscore.Fitness>
15.1309

> <Gold.Chemscore.DG>
-16.4154

> <Gold.Chemscore.ZeroCoef>
-5.4800

> <Gold.Chemscore.Hbond>
1.5833

> <Gold.Chemscore.Metal>
0.0000

> <Gold.Chemscore.Lipo>
106.6912

> <Gold.Chemscore.Internal_Hbond>
0.0000

> <Gold.Chemscore.DEClash>
0.0347

> <Gold.Chemscore.DEInternal>
1.2498

> <Gold.Chemscore.Rot>
2.6702

> <Gold.Chemscore.Internal.Correction>
   9.000000E+99

> <Gold.Chemscore.Hbonds>
donor molecule, donor type, donor heavy atom, donor atom, acceptor molecule, acceptor atom, score
      P1  H  7997  8008       L1    20  0.88
      P1  H 10752 10763       L1    29  0.02

> <Gold.Chemscore.Hbond.Weighted>
-5.2883

> <Gold.Chemscore.Metal.Weighted>
-0.0000

> <Gold.Chemscore.Lipo.Weighted>
-12.4829

> <Gold.Chemscore.Internal_Hbond.Weighted>
0.0000

> <Gold.Chemscore.DEClash.Weighted>
0.0347

> <Gold.Chemscore.DEInternal.Weighted>
1.2498

> <Gold.Chemscore.Rot.Weighted>
6.8358

> <Gold.Chemscore.Internal.Correction.Weighted>
   9.000000E+99

> <Gold.Protein.RotatedTorsions>
[ 6907 6896 6895 6894 ] final    4.16 input  -60.11 | X-H torsion
[ 7974 7965 7964 7962 ] final  -77.36 input  175.53 | X-H torsion
[ 8008 7997 7996 7995 ] final -108.55 input   59.86 | X-H torsion
[ 10167 10162 10161 10158 ] final  -50.73 input  -65.29 | X-H torsion
[ 10718 10713 10712 10709 ] final  -27.12 input   66.30 | X-H torsion
[ 10763 10752 10751 10750 ] final   48.25 input  -60.55 | X-H torsion
[ 11005 11000 10999 10996 ] final -105.51 input  -57.11 | X-H torsion

> <Gold.Protein.ActiveResidues>
 VAL166  LYS551  ARG553  GLY616  TRP617  ASP618  TYR619  PRO620  LYS621  CYS622 
 ASP623  PHE694  ASN695  SER759  ASP760  ASP761  ALA762  ILE779  LEU786  VAL792 
 PHE793  MET794  SER795  GLU796  ALA797  LYS798  CYS799  TRP800  GLU811  SER814 

> <Gold.Protein.RotatedAtoms>
  151.6368  135.1017  160.0132 H   0  0  0  0  0  0  0  0  0  0  0  0  # atno 6907 bound_to 6896
  152.4076  133.6909  159.6378 H   0  0  0  0  0  0  0  0  0  0  0  0  # atno 6908 bound_to 6896
  150.7969  133.8598  159.3270 H   0  0  0  0  0  0  0  0  0  0  0  0  # atno 6909 bound_to 6896
  145.6007  140.9409  143.1242 H   0  0  0  0  0  0  0  0  0  0  0  0  # atno 7974 bound_to 7965
  154.9459  140.0402  157.2120 H   0  0  0  0  0  0  0  0  0  0  0  0  # atno 8008 bound_to 7997
  154.8024  140.2854  155.5889 H   0  0  0  0  0  0  0  0  0  0  0  0  # atno 8009 bound_to 7997
  156.2963  140.2552  156.2896 H   0  0  0  0  0  0  0  0  0  0  0  0  # atno 8010 bound_to 7997
  140.6623  143.2646  151.4402 H   0  0  0  0  0  0  0  0  0  0  0  0  # atno 10167 bound_to 10162
  156.4422  130.4467  149.7045 H   0  0  0  0  0  0  0  0  0  0  0  0  # atno 10718 bound_to 10713
  152.9793  135.5950  154.3895 H   0  0  0  0  0  0  0  0  0  0  0  0  # atno 10763 bound_to 10752
  154.3551  135.2767  155.2352 H   0  0  0  0  0  0  0  0  0  0  0  0  # atno 10764 bound_to 10752
  154.4374  135.6021  153.6162 H   0  0  0  0  0  0  0  0  0  0  0  0  # atno 10765 bound_to 10752
  141.1050  133.8814  157.1743 H   0  0  0  0  0  0  0  0  0  0  0  0  # atno 11005 bound_to 11000
  144.7311  139.7723  143.7347 LP  0  0  0  0  0  0  0  0  0  0  0  0  # atno 17320 bound_to 7965
  146.1578  139.4682  143.0007 LP  0  0  0  0  0  0  0  0  0  0  0  0  # atno 17321 bound_to 7965
  139.5861  144.1602  152.2030 LP  0  0  0  0  0  0  0  0  0  0  0  0  # atno 17342 bound_to 10162
  140.0942  144.5595  150.7033 LP  0  0  0  0  0  0  0  0  0  0  0  0  # atno 17343 bound_to 10162
  156.3905  130.7624  151.2625 LP  0  0  0  0  0  0  0  0  0  0  0  0  # atno 17370 bound_to 10713
  157.7506  131.0269  150.3983 LP  0  0  0  0  0  0  0  0  0  0  0  0  # atno 17371 bound_to 10713
  139.9916  135.0062  156.9988 LP  0  0  0  0  0  0  0  0  0  0  0  0  # atno 17394 bound_to 11000
  140.4925  134.1178  155.7235 LP  0  0  0  0  0  0  0  0  0  0  0  0  # atno 17395 bound_to 11000

$$$$
