AV-unprocessed.smi:2410|AV-procd|sdf|9526|dock5
  -GOLD-   2272013153D 1   1.00000     0.00000
 Structure written by MMmdl.
 46 48  0  0  0  0  0  0  0  0  1 V2000
  153.1043  143.1221  160.6931 C   0  0  0  0  0  0  0  0  0  0  0  0
  152.2549  142.6637  159.5209 C   0  0  0  0  0  0  0  0  0  0  0  0
  152.6705  141.5420  158.7681 C   0  0  0  0  0  0  0  0  0  0  0  0
  151.9063  141.0806  157.6738 C   0  0  0  0  0  0  0  0  0  0  0  0
  152.1188  140.0182  156.8114 N   0  0  0  0  0  0  0  0  0  0  0  0
  151.0581  140.1043  156.0134 C   0  0  0  0  0  0  0  0  0  0  0  0
  150.1822  141.0978  156.2583 N   0  0  0  0  0  0  0  0  0  0  0  0
  148.9582  141.3935  155.5368 C   0  0  0  0  0  0  0  0  0  0  0  0
  148.7594  140.4653  154.3231 C   0  0  2  0  0  0  0  0  0  0  0  0
  149.7722  140.7469  153.3760 O   0  0  0  0  0  0  0  0  0  0  0  0
  147.3829  140.6747  153.6562 C   0  0  0  0  0  0  0  0  0  0  0  0
  146.8577  139.4281  153.0750 N   0  0  0  0  0  0  0  0  0  0  0  0
  147.0161  139.2725  151.6885 C   0  0  0  0  0  0  0  0  0  0  0  0
  146.5878  138.2208  151.0702 N   0  0  0  0  0  0  0  0  0  0  0  0
  145.9552  137.2002  151.7861 C   0  0  0  0  0  0  0  0  0  0  0  0
  145.4849  136.0149  150.9618 C   0  0  0  0  0  0  0  0  0  0  0  0
  145.7845  137.2829  153.1340 C   0  0  0  0  0  0  0  0  0  0  0  0
  145.1072  136.2015  153.9667 C   0  0  0  0  0  0  0  0  0  0  0  0
  146.2714  138.4717  153.8522 C   0  0  0  0  0  0  0  0  0  0  0  0
  146.1646  138.6064  155.0729 O   0  0  0  0  0  0  0  0  0  0  0  0
  150.7058  141.7779  157.3516 C   0  0  0  0  0  0  0  0  0  0  0  0
  150.2837  142.8974  158.0901 C   0  0  0  0  0  0  0  0  0  0  0  0
  151.0588  143.3450  159.1801 C   0  0  0  0  0  0  0  0  0  0  0  0
  150.5917  144.5525  159.9736 C   0  0  0  0  0  0  0  0  0  0  0  0
  153.9705  142.4753  160.8342 H   0  0  0  0  0  0  0  0  0  0  0  0
  152.5224  143.1075  161.6150 H   0  0  0  0  0  0  0  0  0  0  0  0
  153.4676  144.1365  160.5278 H   0  0  0  0  0  0  0  0  0  0  0  0
  153.5818  141.0234  159.0272 H   0  0  0  0  0  0  0  0  0  0  0  0
  150.9059  139.4021  155.2068 H   0  0  0  0  0  0  0  0  0  0  0  0
  148.1269  141.2833  156.2343 H   0  0  0  0  0  0  0  0  0  0  0  0
  148.9706  142.4397  155.2274 H   0  0  0  0  0  0  0  0  0  0  0  0
  148.8692  139.4305  154.6502 H   0  0  0  0  0  0  0  0  0  0  0  0
  149.7341  140.0966  152.6916 H   0  0  0  0  0  0  0  0  0  0  0  0
  146.6670  141.0269  154.4013 H   0  0  0  0  0  0  0  0  0  0  0  0
  147.4253  141.4872  152.9276 H   0  0  0  0  0  0  0  0  0  0  0  0
  147.5238  140.0927  151.1784 H   0  0  0  0  0  0  0  0  0  0  0  0
  144.4055  135.8912  151.0521 H   0  0  0  0  0  0  0  0  0  0  0  0
  145.9713  135.0986  151.2979 H   0  0  0  0  0  0  0  0  0  0  0  0
  145.7177  136.1485  149.9045 H   0  0  0  0  0  0  0  0  0  0  0  0
  145.8002  135.8151  154.7152 H   0  0  0  0  0  0  0  0  0  0  0  0
  144.7609  135.3565  153.3740 H   0  0  0  0  0  0  0  0  0  0  0  0
  144.2415  136.6136  154.4866 H   0  0  0  0  0  0  0  0  0  0  0  0
  149.3685  143.4042  157.8209 H   0  0  0  0  0  0  0  0  0  0  0  0
  149.6905  144.9881  159.5408 H   0  0  0  0  0  0  0  0  0  0  0  0
  151.3610  145.3247  159.9874 H   0  0  0  0  0  0  0  0  0  0  0  0
  150.3669  144.2682  161.0017 H   0  0  0  0  0  0  0  0  0  0  0  0
  1  2  1  0  0  0  0
  1 25  1  0  0  0  0
  1 26  1  0  0  0  0
  1 27  1  0  0  0  0
  2 23  1  0  0  0  0
  2  3  2  0  0  0  0
  3  4  1  0  0  0  0
  3 28  1  0  0  0  0
  4 21  2  0  0  0  0
  4  5  1  0  0  0  0
  5  6  2  0  0  0  0
  6  7  1  0  0  0  0
  6 29  1  0  0  0  0
  7  8  1  0  0  0  0
  7 21  1  0  0  0  0
  8  9  1  0  0  0  0
  8 30  1  0  0  0  0
  8 31  1  0  0  0  0
  9 10  1  0  0  0  0
  9 11  1  0  0  0  0
  9 32  1  0  0  0  0
 10 33  1  0  0  0  0
 11 12  1  0  0  0  0
 11 34  1  0  0  0  0
 11 35  1  0  0  0  0
 12 19  1  0  0  0  0
 12 13  1  0  0  0  0
 13 14  2  0  0  0  0
 13 36  1  0  0  0  0
 14 15  1  0  0  0  0
 15 16  1  0  0  0  0
 15 17  2  0  0  0  0
 16 37  1  0  0  0  0
 16 38  1  0  0  0  0
 16 39  1  0  0  0  0
 17 18  1  0  0  0  0
 17 19  1  0  0  0  0
 18 40  1  0  0  0  0
 18 41  1  0  0  0  0
 18 42  1  0  0  0  0
 19 20  2  0  0  0  0
 21 22  1  0  0  0  0
 22 23  2  0  0  0  0
 22 43  1  0  0  0  0
 23 24  1  0  0  0  0
 24 44  1  0  0  0  0
 24 45  1  0  0  0  0
 24 46  1  0  0  0  0
M  END
> <s_m_source_file>
AV-unprocessed.smi

> <i_m_source_file_index>
2410

> <i_lp_mmshare_version>
43012

> <i_f3d_flags>
0

> <s_epik_input>
W0NIM11jKFtjSF0xKWMoW0NIM10pW2NIXWMoYzEyKW4oW2NIXW4yKVtDSDJdW0NASF0oW09IXSlbQ0gyXW4zW2NIXW5jKFtDSDNdKWMoW0NIM10pYzM9Tw==

> <s_epik_cmdline>
J2VwaWtfcHl0aG9uJywgJy1waCcsICc3LjAnLCAnLXRuJywgJzgnLCAnLW1hJywgJzIwMCcsICctbWV0YWxfYmluZGluZycsICctaW1hZScsICc8aW5maWxlLm1hZT4nLCAnLW9tYWUnLCAnPG91dGZpbGUubWFlPic=

> <r_lp_tautomer_probability>
1

> <r_epik_Ionization_Penalty>
0.113377

> <r_epik_Ionization_Penalty_Charging>
7.56033e-08

> <r_epik_Ionization_Penalty_Neutral>
0.113377

> <r_epik_State_Penalty>
0.103025

> <r_epik_Charging_Adjusted_Penalty>
0.103025

> <i_epik_Tot_Q>
0

> <i_epik_Tot_abs_Q>
0

> <r_epik_Metal_State_Penalty>
0.0863476

> <b_epik_Metal_Only>
0

> <s_lp_Force_Field>
OPLS_2005

> <r_lp_Energy>
18.2684

> <b_lp_Chiralities_Consistent>
1

> <s_lp_Variant>
AV-unprocessed.smi:2410-1

> <Gold.Version>
5.8.1

> <Gold.Id.Protein>
6NUR|6NUR_protein|mol2

> <Gold.PLP.Fitness>
55.2427

> <Gold.PLP.PLP>
-43.6065

> <Gold.PLP.part.hbond>
-3.5909

> <Gold.PLP.part.metal>
0.0000

> <Gold.PLP.part.buried>
-1.2785

> <Gold.PLP.part.nonpolar>
-39.5112

> <Gold.PLP.part.repulsive>
1.0694

> <Gold.PLP.ligand.clash>
0.0000

> <Gold.PLP.ligand.torsion>
0.7265

> <Gold.PLP.Chemscore.Hbond>
3.6471

> <Gold.PLP.Chemscore.CHOScore>
0.7009

> <Gold.PLP.Chemscore.Metal>
0.0000

> <Gold.Chemscore.Hbonds>
donor molecule, donor type, donor heavy atom, donor atom, acceptor molecule, acceptor atom, score
      L1  H    10    33       P1  7957  0.77
      P1  H  7954  7966       L1    14  0.95
      P1  H  7989  7998       L1    10  0.27
      P1  H  7997  8008       L1     5  0.46
      P1  H  8011  8017       L1    10  1.00
      L1  C    13    36       P1  7957  0.75

> <Gold.PLP.Chemscore.Internal.Correction>
0.0451

> <Gold.Rescore>
     Score         DG    S(hbond)    S(metal)    S(lipo)     H(rot)  DE(clash)    DE(int)     intcor
     14.33     -16.41       1.29        0.00     107.92       2.35       1.30       0.77       ----

> <Gold.Chemscore.Fitness>
14.3315

> <Gold.Chemscore.DG>
-16.4066

> <Gold.Chemscore.ZeroCoef>
-5.4800

> <Gold.Chemscore.Hbond>
1.2904

> <Gold.Chemscore.Metal>
0.0000

> <Gold.Chemscore.Lipo>
107.9241

> <Gold.Chemscore.Internal_Hbond>
0.0000

> <Gold.Chemscore.DEClash>
1.3006

> <Gold.Chemscore.DEInternal>
0.7745

> <Gold.Chemscore.Rot>
2.3479

> <Gold.Chemscore.Internal.Correction>
   9.000000E+99

> <Gold.Chemscore.Hbonds>
donor molecule, donor type, donor heavy atom, donor atom, acceptor molecule, acceptor atom, score
      L1  H    10    33       P1  7957  0.71
      P1  H  7954  7966       L1    14  0.20
      P1  H  7989  7998       L1    10  0.05
      P1  H  7997  8008       L1     5  0.16
      P1  H  8011  8017       L1    10  0.29

> <Gold.Chemscore.Hbond.Weighted>
-4.3101

> <Gold.Chemscore.Metal.Weighted>
-0.0000

> <Gold.Chemscore.Lipo.Weighted>
-12.6271

> <Gold.Chemscore.Internal_Hbond.Weighted>
0.0000

> <Gold.Chemscore.DEClash.Weighted>
1.3006

> <Gold.Chemscore.DEInternal.Weighted>
0.7745

> <Gold.Chemscore.Rot.Weighted>
6.0106

> <Gold.Chemscore.Internal.Correction.Weighted>
   9.000000E+99

> <Gold.Protein.RotatedTorsions>
[ 6907 6896 6895 6894 ] final -108.82 input  -60.11 | X-H torsion
[ 7974 7965 7964 7962 ] final    8.98 input  175.53 | X-H torsion
[ 8008 7997 7996 7995 ] final  -49.32 input   59.86 | X-H torsion
[ 10167 10162 10161 10158 ] final   33.06 input  -65.29 | X-H torsion
[ 10718 10713 10712 10709 ] final  110.40 input   66.30 | X-H torsion
[ 10763 10752 10751 10750 ] final -156.34 input  -60.55 | X-H torsion
[ 11005 11000 10999 10996 ] final -114.34 input  -57.11 | X-H torsion

> <Gold.Protein.ActiveResidues>
 VAL166  LYS551  ARG553  GLY616  TRP617  ASP618  TYR619  PRO620  LYS621  CYS622 
 ASP623  PHE694  ASN695  SER759  ASP760  ASP761  ALA762  ILE779  LEU786  VAL792 
 PHE793  MET794  SER795  GLU796  ALA797  LYS798  CYS799  TRP800  GLU811  SER814 

> <Gold.Protein.RotatedAtoms>
  150.7524  133.9621  159.3518 H   0  0  0  0  0  0  0  0  0  0  0  0  # atno 6907 bound_to 6896
  151.7548  135.0822  160.0346 H   0  0  0  0  0  0  0  0  0  0  0  0  # atno 6908 bound_to 6896
  152.3442  133.6066  159.5934 H   0  0  0  0  0  0  0  0  0  0  0  0  # atno 6909 bound_to 6896
  146.2409  139.9852  142.8432 H   0  0  0  0  0  0  0  0  0  0  0  0  # atno 7974 bound_to 7965
  154.4042  140.1300  156.4482 H   0  0  0  0  0  0  0  0  0  0  0  0  # atno 8008 bound_to 7997
  155.7392  140.3490  155.5076 H   0  0  0  0  0  0  0  0  0  0  0  0  # atno 8009 bound_to 7997
  155.9055  140.1027  157.1308 H   0  0  0  0  0  0  0  0  0  0  0  0  # atno 8010 bound_to 7997
  140.4442  144.1143  150.6179 H   0  0  0  0  0  0  0  0  0  0  0  0  # atno 10167 bound_to 10162
  157.6496  131.0932  150.6596 H   0  0  0  0  0  0  0  0  0  0  0  0  # atno 10718 bound_to 10713
  154.7720  135.3148  154.8170 H   0  0  0  0  0  0  0  0  0  0  0  0  # atno 10763 bound_to 10752
  153.8903  135.6826  153.4765 H   0  0  0  0  0  0  0  0  0  0  0  0  # atno 10764 bound_to 10752
  153.1335  135.4769  154.9321 H   0  0  0  0  0  0  0  0  0  0  0  0  # atno 10765 bound_to 10752
  141.0558  133.9615  157.2756 H   0  0  0  0  0  0  0  0  0  0  0  0  # atno 11005 bound_to 11000
  145.1555  140.9645  143.4408 LP  0  0  0  0  0  0  0  0  0  0  0  0  # atno 17320 bound_to 7965
  145.0165  139.3462  143.6094 LP  0  0  0  0  0  0  0  0  0  0  0  0  # atno 17321 bound_to 7965
  140.4283  143.2580  151.9628 LP  0  0  0  0  0  0  0  0  0  0  0  0  # atno 17342 bound_to 10162
  139.4791  144.5767  151.7999 LP  0  0  0  0  0  0  0  0  0  0  0  0  # atno 17343 bound_to 10162
  156.6909  130.4595  149.5600 LP  0  0  0  0  0  0  0  0  0  0  0  0  # atno 17370 bound_to 10713
  156.1862  130.6531  151.1009 LP  0  0  0  0  0  0  0  0  0  0  0  0  # atno 17371 bound_to 10713
  139.9389  135.0193  156.8644 LP  0  0  0  0  0  0  0  0  0  0  0  0  # atno 17394 bound_to 11000
  140.5967  134.0210  155.7521 LP  0  0  0  0  0  0  0  0  0  0  0  0  # atno 17395 bound_to 11000

$$$$
