AV-unprocessed.smi:1345|AV-procd|sdf|5511|dock5
  -GOLD-   22720 5 93D 1   1.00000     0.00000
 Structure written by MMmdl.
 40 41  0  0  0  0  0  0  0  0  1 V2000
  151.2340  144.7621  159.8026 C   0  0  0  0  0  0  0  0  0  0  0  0
  152.3706  144.2602  158.8905 C   0  0  0  0  0  0  0  0  0  0  0  0
  151.9604  144.4384  157.4174 C   0  0  0  0  0  0  0  0  0  0  0  0
  152.7849  142.8010  159.2180 C   0  0  1  0  0  0  0  0  0  0  0  0
  153.0660  142.5689  160.7150 C   0  0  0  0  0  0  0  0  0  0  0  0
  151.7391  141.8739  158.7892 N   0  0  0  0  0  0  0  0  0  0  0  0
  151.9218  140.5913  158.4355 C   0  0  0  0  0  0  0  0  0  0  0  0
  153.0228  140.0415  158.4142 O   0  0  0  0  0  0  0  0  0  0  0  0
  150.6669  139.8074  158.0480 C   0  0  0  0  0  0  0  0  0  0  0  0
  150.0429  140.4019  156.8185 C   0  0  0  0  0  0  0  0  0  0  0  0
  150.5654  140.4024  155.5482 C   0  0  0  0  0  0  0  0  0  0  0  0
  149.5080  141.1865  154.4072 S   0  0  0  0  0  0  0  0  0  0  0  0
  148.3722  141.4963  155.7237 C   0  0  0  0  0  0  0  0  0  0  0  0
  147.1139  142.1598  155.6179 N   0  0  0  0  0  0  0  0  0  0  0  0
  146.6183  142.6657  154.3414 C   0  0  0  0  0  0  0  0  0  0  0  0
  145.2713  143.2898  154.6929 C   0  0  0  0  0  0  0  0  0  0  0  0
  145.1887  143.0526  156.1148 N   0  0  0  0  0  0  0  0  0  0  0  0
  146.2457  142.4108  156.6180 C   0  0  0  0  0  0  0  0  0  0  0  0
  146.3692  142.1154  157.8053 O   0  0  0  0  0  0  0  0  0  0  0  0
  148.7975  141.0338  156.9041 N   0  0  0  0  0  0  0  0  0  0  0  0
  150.3478  144.1336  159.7103 H   0  0  0  0  0  0  0  0  0  0  0  0
  150.9444  145.7814  159.5451 H   0  0  0  0  0  0  0  0  0  0  0  0
  151.5271  144.7727  160.8523 H   0  0  0  0  0  0  0  0  0  0  0  0
  153.2336  144.9038  159.0673 H   0  0  0  0  0  0  0  0  0  0  0  0
  151.1421  143.7689  157.1501 H   0  0  0  0  0  0  0  0  0  0  0  0
  152.7897  144.2441  156.7382 H   0  0  0  0  0  0  0  0  0  0  0  0
  151.6290  145.4589  157.2237 H   0  0  0  0  0  0  0  0  0  0  0  0
  153.6974  142.5799  158.6610 H   0  0  0  0  0  0  0  0  0  0  0  0
  153.9196  143.1502  161.0616 H   0  0  0  0  0  0  0  0  0  0  0  0
  153.2986  141.5224  160.9146 H   0  0  0  0  0  0  0  0  0  0  0  0
  152.2045  142.8377  161.3270 H   0  0  0  0  0  0  0  0  0  0  0  0
  150.7952  142.2329  158.7758 H   0  0  0  0  0  0  0  0  0  0  0  0
  150.9330  138.7619  157.8867 H   0  0  0  0  0  0  0  0  0  0  0  0
  149.9608  139.8204  158.8794 H   0  0  0  0  0  0  0  0  0  0  0  0
  151.5034  139.9834  155.2149 H   0  0  0  0  0  0  0  0  0  0  0  0
  147.3047  143.4056  153.9269 H   0  0  0  0  0  0  0  0  0  0  0  0
  146.5053  141.8530  153.6221 H   0  0  0  0  0  0  0  0  0  0  0  0
  145.2458  144.3591  154.4794 H   0  0  0  0  0  0  0  0  0  0  0  0
  144.4448  142.8026  154.1740 H   0  0  0  0  0  0  0  0  0  0  0  0
  144.3977  143.3502  156.6677 H   0  0  0  0  0  0  0  0  0  0  0  0
  1  2  1  0  0  0  0
  1 21  1  0  0  0  0
  1 22  1  0  0  0  0
  1 23  1  0  0  0  0
  2  3  1  0  0  0  0
  2  4  1  0  0  0  0
  2 24  1  0  0  0  0
  3 25  1  0  0  0  0
  3 26  1  0  0  0  0
  3 27  1  0  0  0  0
  4  5  1  0  0  0  0
  4  6  1  0  0  0  0
  4 28  1  0  0  0  0
  5 29  1  0  0  0  0
  5 30  1  0  0  0  0
  5 31  1  0  0  0  0
  6  7  1  0  0  0  0
  6 32  1  0  0  0  0
  7  8  2  0  0  0  0
  7  9  1  0  0  0  0
  9 10  1  0  0  0  0
  9 33  1  0  0  0  0
  9 34  1  0  0  0  0
 10 20  1  0  0  0  0
 10 11  2  0  0  0  0
 11 12  1  0  0  0  0
 11 35  1  0  0  0  0
 12 13  1  0  0  0  0
 13 14  1  0  0  0  0
 13 20  2  0  0  0  0
 14 18  1  0  0  0  0
 14 15  1  0  0  0  0
 15 16  1  0  0  0  0
 15 36  1  0  0  0  0
 15 37  1  0  0  0  0
 16 17  1  0  0  0  0
 16 38  1  0  0  0  0
 16 39  1  0  0  0  0
 17 18  1  0  0  0  0
 17 40  1  0  0  0  0
 18 19  2  0  0  0  0
M  END
> <s_m_source_file>
AV-unprocessed.smi

> <i_m_source_file_index>
1345

> <i_lp_mmshare_version>
43012

> <i_f3d_flags>
0

> <s_epik_input>
W0NIM11bQ0hdKFtDSDNdKVtDQEhdKFtDSDNdKVtOSF1DKD1PKVtDSDJdYzFbY0hdc2MobjEpTjJbQ0gyXVtDSDJdW05IXUMyPU8=

> <s_epik_cmdline>
J2VwaWtfcHl0aG9uJywgJy1waCcsICc3LjAnLCAnLXRuJywgJzgnLCAnLW1hJywgJzIwMCcsICctbWV0YWxfYmluZGluZycsICctaW1hZScsICc8aW5maWxlLm1hZT4nLCAnLW9tYWUnLCAnPG91dGZpbGUubWFlPic=

> <r_lp_tautomer_probability>
1

> <r_epik_Ionization_Penalty>
0.000122034

> <r_epik_Ionization_Penalty_Charging>
0

> <r_epik_Ionization_Penalty_Neutral>
0.000122034

> <r_epik_State_Penalty>
-0

> <r_epik_Charging_Adjusted_Penalty>
0

> <i_epik_Tot_Q>
0

> <i_epik_Tot_abs_Q>
0

> <r_epik_Metal_State_Penalty>
-0

> <b_epik_Metal_Only>
0

> <s_lp_Force_Field>
OPLS_2005

> <r_lp_Energy>
32.8432

> <b_lp_Chiralities_Consistent>
1

> <s_lp_Variant>
AV-unprocessed.smi:1345-2

> <Gold.Version>
5.8.1

> <Gold.Id.Protein>
6NUR|6NUR_protein|mol2

> <Gold.PLP.Fitness>
43.3288

> <Gold.PLP.PLP>
-41.2794

> <Gold.PLP.part.hbond>
-1.0000

> <Gold.PLP.part.metal>
0.0000

> <Gold.PLP.part.buried>
-3.1648

> <Gold.PLP.part.nonpolar>
-36.3860

> <Gold.PLP.part.repulsive>
0.2163

> <Gold.PLP.ligand.clash>
0.0000

> <Gold.PLP.ligand.torsion>
0.4916

> <Gold.PLP.Chemscore.Hbond>
1.0000

> <Gold.PLP.Chemscore.CHOScore>
0.0000

> <Gold.PLP.Chemscore.Metal>
0.0000

> <Gold.Chemscore.Hbonds>
donor molecule, donor type, donor heavy atom, donor atom, acceptor molecule, acceptor atom, score
      P1  H  7997  8010       L1     8  0.84

> <Gold.PLP.Chemscore.Internal.Correction>
0.0325

> <Gold.Rescore>
     Score         DG    S(hbond)    S(metal)    S(lipo)     H(rot)  DE(clash)    DE(int)     intcor
     13.43     -15.51       0.98        0.00      95.68       1.74       0.24       1.84       ----

> <Gold.Chemscore.Fitness>
13.4267

> <Gold.Chemscore.DG>
-15.5076

> <Gold.Chemscore.ZeroCoef>
-5.4800

> <Gold.Chemscore.Hbond>
0.9807

> <Gold.Chemscore.Metal>
0.0000

> <Gold.Chemscore.Lipo>
95.6786

> <Gold.Chemscore.Internal_Hbond>
0.0000

> <Gold.Chemscore.DEClash>
0.2362

> <Gold.Chemscore.DEInternal>
1.8447

> <Gold.Chemscore.Rot>
1.7353

> <Gold.Chemscore.Internal.Correction>
   9.000000E+99

> <Gold.Chemscore.Hbonds>
donor molecule, donor type, donor heavy atom, donor atom, acceptor molecule, acceptor atom, score
      P1  H  7997  8010       L1     8  0.80

> <Gold.Chemscore.Hbond.Weighted>
-3.2755

> <Gold.Chemscore.Metal.Weighted>
-0.0000

> <Gold.Chemscore.Lipo.Weighted>
-11.1944

> <Gold.Chemscore.Internal_Hbond.Weighted>
0.0000

> <Gold.Chemscore.DEClash.Weighted>
0.2362

> <Gold.Chemscore.DEInternal.Weighted>
1.8447

> <Gold.Chemscore.Rot.Weighted>
4.4423

> <Gold.Chemscore.Internal.Correction.Weighted>
   9.000000E+99

> <Gold.Protein.RotatedTorsions>
[ 6907 6896 6895 6894 ] final  125.40 input  -60.11 | X-H torsion
[ 7974 7965 7964 7962 ] final  -86.26 input  175.53 | X-H torsion
[ 8008 7997 7996 7995 ] final   36.59 input   59.86 | X-H torsion
[ 10167 10162 10161 10158 ] final   75.96 input  -65.29 | X-H torsion
[ 10718 10713 10712 10709 ] final  -38.93 input   66.30 | X-H torsion
[ 10763 10752 10751 10750 ] final  111.84 input  -60.55 | X-H torsion
[ 11005 11000 10999 10996 ] final   -0.01 input  -57.11 | X-H torsion

> <Gold.Protein.ActiveResidues>
 VAL166  LYS551  ARG553  GLY616  TRP617  ASP618  TYR619  PRO620  LYS621  CYS622 
 ASP623  PHE694  ASN695  SER759  ASP760  ASP761  ALA762  ILE779  LEU786  VAL792 
 PHE793  MET794  SER795  GLU796  ALA797  LYS798  CYS799  TRP800  GLU811  SER814 

> <Gold.Protein.RotatedAtoms>
  152.3995  133.6797  159.6304 H   0  0  0  0  0  0  0  0  0  0  0  0  # atno 6907 bound_to 6896
  150.7889  133.8815  159.3296 H   0  0  0  0  0  0  0  0  0  0  0  0  # atno 6908 bound_to 6896
  151.6584  135.0994  160.0226 H   0  0  0  0  0  0  0  0  0  0  0  0  # atno 6909 bound_to 6896
  145.4822  140.9556  143.1858 H   0  0  0  0  0  0  0  0  0  0  0  0  # atno 7974 bound_to 7965
  155.1898  140.3307  155.4360 H   0  0  0  0  0  0  0  0  0  0  0  0  # atno 8008 bound_to 7997
  156.2446  140.1912  156.6942 H   0  0  0  0  0  0  0  0  0  0  0  0  # atno 8009 bound_to 7997
  154.6213  140.0595  156.9605 H   0  0  0  0  0  0  0  0  0  0  0  0  # atno 8010 bound_to 7997
  139.9973  144.5712  150.7767 H   0  0  0  0  0  0  0  0  0  0  0  0  # atno 10167 bound_to 10162
  156.2981  130.4236  149.8170 H   0  0  0  0  0  0  0  0  0  0  0  0  # atno 10718 bound_to 10713
  153.4692  135.3704  155.2381 H   0  0  0  0  0  0  0  0  0  0  0  0  # atno 10763 bound_to 10752
  154.8757  135.3927  154.3832 H   0  0  0  0  0  0  0  0  0  0  0  0  # atno 10764 bound_to 10752
  153.4418  135.7084  153.6229 H   0  0  0  0  0  0  0  0  0  0  0  0  # atno 10765 bound_to 10752
  140.6315  133.9571  155.8277 H   0  0  0  0  0  0  0  0  0  0  0  0  # atno 11005 bound_to 11000
  144.7882  139.6383  143.7125 LP  0  0  0  0  0  0  0  0  0  0  0  0  # atno 17320 bound_to 7965
  146.2334  139.5858  142.9540 LP  0  0  0  0  0  0  0  0  0  0  0  0  # atno 17321 bound_to 7965
  140.7432  143.2843  151.3509 LP  0  0  0  0  0  0  0  0  0  0  0  0  # atno 17342 bound_to 10162
  139.6297  144.0745  152.2465 LP  0  0  0  0  0  0  0  0  0  0  0  0  # atno 17343 bound_to 10162
  156.5558  130.8362  151.3314 LP  0  0  0  0  0  0  0  0  0  0  0  0  # atno 17370 bound_to 10713
  157.7361  130.9773  150.2116 LP  0  0  0  0  0  0  0  0  0  0  0  0  # atno 17371 bound_to 10713
  141.0672  134.0260  157.3577 LP  0  0  0  0  0  0  0  0  0  0  0  0  # atno 17394 bound_to 11000
  139.9114  135.0190  156.7707 LP  0  0  0  0  0  0  0  0  0  0  0  0  # atno 17395 bound_to 11000

$$$$
