AV-unprocessed.smi:3112|AV-procd|sdf|11837|dock1
  -GOLD-   2272017213D 1   1.00000     0.00000
 Structure written by MMmdl.
 37 37  0  0  0  0  0  0  0  0  2 V2000
  144.4270  135.8391  151.2096 C   0  0  0  0  0  0  0  0  0  0  0  0
  144.7965  137.0380  152.0939 C   0  0  0  0  0  0  0  0  0  0  0  0
  146.2704  137.4637  151.9650 C   0  0  1  0  0  0  0  0  0  0  0  0
  146.5258  137.8284  150.6229 O   0  0  0  0  0  0  0  0  0  0  0  0
  146.6034  138.6642  152.8665 C   0  0  0  0  0  0  0  0  0  0  0  0
  148.0639  138.7958  153.0561 N   0  3  0  0  0  0  0  0  0  0  0  0
  148.4975  139.4499  154.3131 C   0  0  2  0  0  0  0  0  0  0  0  0
  147.7848  140.8102  154.4262 C   0  0  0  0  0  0  0  0  0  0  0  0
  150.0485  139.5287  154.4170 C   0  0  2  0  0  0  0  0  0  0  0  0
  150.7175  138.1409  154.4679 C   0  0  0  0  0  0  0  0  0  0  0  0
  150.5008  140.3908  155.5061 N   0  0  0  0  0  0  0  0  0  0  0  0
  151.3368  140.0590  156.5534 C   0  0  0  0  0  0  0  0  0  0  0  0
  151.5141  141.1808  157.3108 C   0  0  0  0  0  0  0  0  0  0  0  0
  150.7421  142.1674  156.6377 C   0  0  0  0  0  0  0  0  0  0  0  0
  150.1433  141.6943  155.5573 N   0  0  0  0  0  0  0  0  0  0  0  0
  143.3861  135.5532  151.3623 H   0  0  0  0  0  0  0  0  0  0  0  0
  145.0461  134.9719  151.4413 H   0  0  0  0  0  0  0  0  0  0  0  0
  144.5526  136.0688  150.1513 H   0  0  0  0  0  0  0  0  0  0  0  0
  144.1423  137.8797  151.8620 H   0  0  0  0  0  0  0  0  0  0  0  0
  144.5903  136.7714  153.1313 H   0  0  0  0  0  0  0  0  0  0  0  0
  146.9124  136.6219  152.2287 H   0  0  0  0  0  0  0  0  0  0  0  0
  145.7014  137.8774  150.1621 H   0  0  0  0  0  0  0  0  0  0  0  0
  146.1985  139.5833  152.4400 H   0  0  0  0  0  0  0  0  0  0  0  0
  146.1281  138.5261  153.8371 H   0  0  0  0  0  0  0  0  0  0  0  0
  148.4936  137.8838  152.9960 H   0  0  0  0  0  0  0  0  0  0  0  0
  148.1344  138.8362  155.1390 H   0  0  0  0  0  0  0  0  0  0  0  0
  148.0478  141.3313  155.3462 H   0  0  0  0  0  0  0  0  0  0  0  0
  146.7024  140.6781  154.4342 H   0  0  0  0  0  0  0  0  0  0  0  0
  148.0219  141.4661  153.5886 H   0  0  0  0  0  0  0  0  0  0  0  0
  150.4217  139.9820  153.4990 H   0  0  0  0  0  0  0  0  0  0  0  0
  150.4318  137.5384  153.6053 H   0  0  0  0  0  0  0  0  0  0  0  0
  150.4488  137.5814  155.3638 H   0  0  0  0  0  0  0  0  0  0  0  0
  151.8039  138.2333  154.4545 H   0  0  0  0  0  0  0  0  0  0  0  0
  151.7329  139.0611  156.6725 H   0  0  0  0  0  0  0  0  0  0  0  0
  152.1058  141.2816  158.2088 H   0  0  0  0  0  0  0  0  0  0  0  0
  150.6024  143.2063  156.8978 H   0  0  0  0  0  0  0  0  0  0  0  0
  148.4058  139.3573  152.2889 H   0  0  0  0  0  0  0  0  0  0  0  0
  1  2  1  0  0  0  0
  1 16  1  0  0  0  0
  1 17  1  0  0  0  0
  1 18  1  0  0  0  0
  2  3  1  0  0  0  0
  2 19  1  0  0  0  0
  2 20  1  0  0  0  0
  3  4  1  0  0  0  0
  3  5  1  0  0  0  0
  3 21  1  0  0  0  0
  4 22  1  0  0  0  0
  5  6  1  0  0  0  0
  5 23  1  0  0  0  0
  5 24  1  0  0  0  0
  6  7  1  0  0  0  0
  6 25  1  0  0  0  0
  6 37  1  0  0  0  0
  7  8  1  0  0  0  0
  7  9  1  0  0  0  0
  7 26  1  0  0  0  0
  8 27  1  0  0  0  0
  8 28  1  0  0  0  0
  8 29  1  0  0  0  0
  9 10  1  0  0  0  0
  9 11  1  0  0  0  0
  9 30  1  0  0  0  0
 10 31  1  0  0  0  0
 10 32  1  0  0  0  0
 10 33  1  0  0  0  0
 11 15  1  0  0  0  0
 11 12  1  0  0  0  0
 12 13  2  0  0  0  0
 12 34  1  0  0  0  0
 13 14  1  0  0  0  0
 13 35  1  0  0  0  0
 14 15  2  0  0  0  0
 14 36  1  0  0  0  0
M  CHG  1   6   1
M  END
> <s_m_source_file>
AV-unprocessed.smi

> <i_m_source_file_index>
3112

> <i_lp_mmshare_version>
43012

> <i_f3d_flags>
0

> <s_epik_input>
W0NIM11bQ0gyXVtDQEhdKFtPSF0pW0NIMl1bTkhdW0NASF0oW0NIM10pW0NASF0oW0NIM10pbjFbY0hdW2NIXVtjSF1uMQ==

> <s_epik_cmdline>
J2VwaWtfcHl0aG9uJywgJy1waCcsICc3LjAnLCAnLXRuJywgJzgnLCAnLW1hJywgJzIwMCcsICctbWV0YWxfYmluZGluZycsICctaW1hZScsICc8aW5maWxlLm1hZT4nLCAnLW9tYWUnLCAnPG91dGZpbGUubWFlPic=

> <r_lp_tautomer_probability>
1

> <r_epik_Ionization_Penalty>
0.0154842

> <r_epik_Ionization_Penalty_Charging>
0.0154724

> <r_epik_Ionization_Penalty_Neutral>
1.17979e-05

> <r_epik_State_Penalty>
0.0121607

> <r_epik_Charging_Adjusted_Penalty>
0.0276331

> <i_epik_Tot_Q>
1

> <i_epik_Tot_abs_Q>
1

> <r_epik_Metal_State_Penalty>
0.0121863

> <b_epik_Metal_Only>
0

> <s_lp_Force_Field>
OPLS_2005

> <r_lp_Energy>
12.6471

> <b_lp_Chiralities_Consistent>
1

> <s_lp_Variant>
AV-unprocessed.smi:3112-2

> <Gold.Version>
5.8.1

> <Gold.Id.Protein>
6NUR|6NUR_protein|mol2

> <Gold.PLP.Fitness>
47.4936

> <Gold.PLP.PLP>
-30.7131

> <Gold.PLP.part.hbond>
-4.8303

> <Gold.PLP.part.metal>
0.0000

> <Gold.PLP.part.buried>
0.4491

> <Gold.PLP.part.nonpolar>
-26.1899

> <Gold.PLP.part.repulsive>
0.1637

> <Gold.PLP.ligand.clash>
0.0000

> <Gold.PLP.ligand.torsion>
0.4610

> <Gold.PLP.Chemscore.Hbond>
4.9840

> <Gold.PLP.Chemscore.CHOScore>
0.8577

> <Gold.PLP.Chemscore.Metal>
0.0000

> <Gold.Chemscore.Hbonds>
donor molecule, donor type, donor heavy atom, donor atom, acceptor molecule, acceptor atom, score
      L1  H     4    22       P1 10171  1.00
      L1  H     6    25       P1  7948  1.87
      L1  H     6    37       P1  7957  1.00
      P1  H  7954  7966       L1     4  1.00
      L1  C    14    36       P1  8028  0.72

> <Gold.PLP.Chemscore.Internal.Correction>
0.1772

> <Gold.Rescore>
     Score         DG    S(hbond)    S(metal)    S(lipo)     H(rot)  DE(clash)    DE(int)     intcor
     17.71     -20.45       3.85        0.00      70.67       2.41       0.95       1.80       ----

> <Gold.Chemscore.Fitness>
17.7060

> <Gold.Chemscore.DG>
-20.4538

> <Gold.Chemscore.ZeroCoef>
-5.4800

> <Gold.Chemscore.Hbond>
3.8541

> <Gold.Chemscore.Metal>
0.0000

> <Gold.Chemscore.Lipo>
70.6656

> <Gold.Chemscore.Internal_Hbond>
0.0000

> <Gold.Chemscore.DEClash>
0.9469

> <Gold.Chemscore.DEInternal>
1.8009

> <Gold.Chemscore.Rot>
2.4089

> <Gold.Chemscore.Internal.Correction>
   9.000000E+99

> <Gold.Chemscore.Hbonds>
donor molecule, donor type, donor heavy atom, donor atom, acceptor molecule, acceptor atom, score
      L1  H     4    22       P1 10171  0.96
      L1  H     6    25       P1  7948  0.85
      L1  H     6    37       P1  7957  0.99
      P1  H  7954  7966       L1     4  0.95

> <Gold.Chemscore.Hbond.Weighted>
-12.8726

> <Gold.Chemscore.Metal.Weighted>
-0.0000

> <Gold.Chemscore.Lipo.Weighted>
-8.2679

> <Gold.Chemscore.Internal_Hbond.Weighted>
0.0000

> <Gold.Chemscore.DEClash.Weighted>
0.9469

> <Gold.Chemscore.DEInternal.Weighted>
1.8009

> <Gold.Chemscore.Rot.Weighted>
6.1667

> <Gold.Chemscore.Internal.Correction.Weighted>
   9.000000E+99

> <Gold.Protein.RotatedTorsions>
[ 6907 6896 6895 6894 ] final   51.80 input  -60.11 | X-H torsion
[ 7974 7965 7964 7962 ] final   -9.96 input  175.53 | X-H torsion
[ 8008 7997 7996 7995 ] final  -12.53 input   59.86 | X-H torsion
[ 10167 10162 10161 10158 ] final   91.03 input  -65.29 | X-H torsion
[ 10718 10713 10712 10709 ] final  -67.96 input   66.30 | X-H torsion
[ 10763 10752 10751 10750 ] final  121.02 input  -60.55 | X-H torsion
[ 11005 11000 10999 10996 ] final   27.43 input  -57.11 | X-H torsion

> <Gold.Protein.ActiveResidues>
 VAL166  LYS551  ARG553  GLY616  TRP617  ASP618  TYR619  PRO620  LYS621  CYS622 
 ASP623  PHE694  ASN695  SER759  ASP760  ASP761  ALA762  ILE779  LEU786  VAL792 
 PHE793  MET794  SER795  GLU796  ALA797  LYS798  CYS799  TRP800  GLU811  SER814 

> <Gold.Protein.RotatedAtoms>
  152.3165  134.7433  160.0323 H   0  0  0  0  0  0  0  0  0  0  0  0  # atno 6907 bound_to 6896
  151.7896  133.3352  159.3503 H   0  0  0  0  0  0  0  0  0  0  0  0  # atno 6908 bound_to 6896
  150.7347  134.5785  159.5971 H   0  0  0  0  0  0  0  0  0  0  0  0  # atno 6909 bound_to 6896
  146.2236  140.2693  142.8356 H   0  0  0  0  0  0  0  0  0  0  0  0  # atno 7974 bound_to 7965
  154.5369  140.2273  155.8707 H   0  0  0  0  0  0  0  0  0  0  0  0  # atno 8008 bound_to 7997
  156.1821  140.3098  155.9130 H   0  0  0  0  0  0  0  0  0  0  0  0  # atno 8009 bound_to 7997
  155.3336  140.0446  157.3034 H   0  0  0  0  0  0  0  0  0  0  0  0  # atno 8010 bound_to 7997
  139.8414  144.6639  150.9278 H   0  0  0  0  0  0  0  0  0  0  0  0  # atno 10167 bound_to 10162
  156.0530  130.4286  150.1931 H   0  0  0  0  0  0  0  0  0  0  0  0  # atno 10718 bound_to 10713
  153.6075  135.3436  155.2967 H   0  0  0  0  0  0  0  0  0  0  0  0  # atno 10763 bound_to 10752
  154.8625  135.4242  154.2346 H   0  0  0  0  0  0  0  0  0  0  0  0  # atno 10764 bound_to 10752
  153.3188  135.7037  153.7121 H   0  0  0  0  0  0  0  0  0  0  0  0  # atno 10765 bound_to 10752
  140.3264  134.2486  155.7709 H   0  0  0  0  0  0  0  0  0  0  0  0  # atno 11005 bound_to 11000
  144.9280  140.7943  143.5707 LP  0  0  0  0  0  0  0  0  0  0  0  0  # atno 17320 bound_to 7965
  145.2634  139.1983  143.4879 LP  0  0  0  0  0  0  0  0  0  0  0  0  # atno 17321 bound_to 7965
  140.7797  143.3909  151.1312 LP  0  0  0  0  0  0  0  0  0  0  0  0  # atno 17342 bound_to 10162
  139.7555  143.8714  152.3087 LP  0  0  0  0  0  0  0  0  0  0  0  0  # atno 17343 bound_to 10162
  157.0011  130.9922  151.3390 LP  0  0  0  0  0  0  0  0  0  0  0  0  # atno 17370 bound_to 10713
  157.5474  130.8160  149.8103 LP  0  0  0  0  0  0  0  0  0  0  0  0  # atno 17371 bound_to 10713
  141.2074  133.7806  157.0120 LP  0  0  0  0  0  0  0  0  0  0  0  0  # atno 17394 bound_to 11000
  140.0898  134.9599  157.1758 LP  0  0  0  0  0  0  0  0  0  0  0  0  # atno 17395 bound_to 11000

$$$$
