AV-unprocessed.smi:1667|AV-procd|sdf|6679|dock7
  -GOLD-   22720 7393D 1   1.00000     0.00000
 Structure written by MMmdl.
 46 48  0  0  0  0  0  0  0  0  2 V2000
  150.4788  134.1102  156.2655 C   0  0  0  0  0  0  0  0  0  0  0  0
  151.1950  135.4556  156.2217 C   0  0  0  0  0  0  0  0  0  0  0  0
  152.3145  135.5701  156.7193 O   0  0  0  0  0  0  0  0  0  0  0  0
  150.5359  136.4633  155.6284 N   0  0  0  0  0  0  0  0  0  0  0  0
  151.0278  137.8302  155.4838 C   0  0  1  0  0  0  0  0  0  0  0  0
  152.2687  137.8461  154.5760 C   0  0  0  0  0  0  0  0  0  0  0  0
  149.9422  138.7406  154.9891 C   0  0  0  0  0  0  0  0  0  0  0  0
  149.1952  138.5695  153.8597 N   0  3  0  0  0  0  0  0  0  0  0  0
  148.2835  139.6162  153.7275 C   0  0  0  0  0  0  0  0  0  0  0  0
  147.3333  139.8791  152.7456 C   0  0  0  0  0  0  0  0  0  0  0  0
  146.5592  141.0464  152.9108 C   0  0  0  0  0  0  0  0  0  0  0  0
  146.7421  141.8977  154.0200 C   0  0  0  0  0  0  0  0  0  0  0  0
  147.7069  141.6183  155.0105 C   0  0  0  0  0  0  0  0  0  0  0  0
  148.4699  140.4640  154.8373 C   0  0  0  0  0  0  0  0  0  0  0  0
  149.4958  139.8836  155.5913 N   0  0  0  0  0  0  0  0  0  0  0  0
  149.9218  140.5443  156.8366 C   0  0  0  0  0  0  0  0  0  0  0  0
  150.9907  141.6308  156.6024 C   0  0  1  0  0  0  0  0  0  0  0  0
  150.4396  142.6143  155.7515 O   0  0  0  0  0  0  0  0  0  0  0  0
  151.5047  142.2169  157.9091 C   0  0  0  0  0  0  0  0  0  0  0  0
  152.1665  141.4014  158.8542 C   0  0  0  0  0  0  0  0  0  0  0  0
  152.6754  141.9618  160.0415 C   0  0  0  0  0  0  0  0  0  0  0  0
  152.5231  143.3389  160.2929 C   0  0  0  0  0  0  0  0  0  0  0  0
  151.8620  144.1558  159.3558 C   0  0  0  0  0  0  0  0  0  0  0  0
  151.7200  145.4811  159.5934 F   0  0  0  0  0  0  0  0  0  0  0  0
  151.3540  143.5963  158.1677 C   0  0  0  0  0  0  0  0  0  0  0  0
  151.3406  138.2142  156.4537 H   0  0  0  0  0  0  0  0  0  0  0  0
  149.7973  133.9977  155.4215 H   0  0  0  0  0  0  0  0  0  0  0  0
  149.9047  134.0207  157.1880 H   0  0  0  0  0  0  0  0  0  0  0  0
  151.1996  133.2926  156.2298 H   0  0  0  0  0  0  0  0  0  0  0  0
  149.6184  136.2694  155.2543 H   0  0  0  0  0  0  0  0  0  0  0  0
  152.6753  138.8539  154.4848 H   0  0  0  0  0  0  0  0  0  0  0  0
  152.0405  137.4826  153.5734 H   0  0  0  0  0  0  0  0  0  0  0  0
  153.0575  137.2132  154.9843 H   0  0  0  0  0  0  0  0  0  0  0  0
  147.1909  139.2280  151.8954 H   0  0  0  0  0  0  0  0  0  0  0  0
  145.8105  141.2939  152.1721 H   0  0  0  0  0  0  0  0  0  0  0  0
  146.1303  142.7834  154.1129 H   0  0  0  0  0  0  0  0  0  0  0  0
  147.8404  142.2773  155.8559 H   0  0  0  0  0  0  0  0  0  0  0  0
  149.0352  140.9670  157.3108 H   0  0  0  0  0  0  0  0  0  0  0  0
  150.2942  139.7815  157.5202 H   0  0  0  0  0  0  0  0  0  0  0  0
  151.8333  141.1988  156.0616 H   0  0  0  0  0  0  0  0  0  0  0  0
  149.9247  143.2097  156.2746 H   0  0  0  0  0  0  0  0  0  0  0  0
  152.3014  140.3462  158.6648 H   0  0  0  0  0  0  0  0  0  0  0  0
  153.1876  141.3355  160.7569 H   0  0  0  0  0  0  0  0  0  0  0  0
  152.9155  143.7687  161.2027 H   0  0  0  0  0  0  0  0  0  0  0  0
  150.8588  144.2329  157.4492 H   0  0  0  0  0  0  0  0  0  0  0  0
  149.3108  137.7924  153.2219 H   0  0  0  0  0  0  0  0  0  0  0  0
  1  2  1  0  0  0  0
  1 27  1  0  0  0  0
  1 28  1  0  0  0  0
  1 29  1  0  0  0  0
  2  3  2  0  0  0  0
  2  4  1  0  0  0  0
  4  5  1  0  0  0  0
  4 30  1  0  0  0  0
  5 26  1  0  0  0  0
  5  6  1  0  0  0  0
  5  7  1  0  0  0  0
  6 31  1  0  0  0  0
  6 32  1  0  0  0  0
  6 33  1  0  0  0  0
  7 15  1  0  0  0  0
  7  8  2  0  0  0  0
  8  9  1  0  0  0  0
  8 46  1  0  0  0  0
  9 14  2  0  0  0  0
  9 10  1  0  0  0  0
 10 11  2  0  0  0  0
 10 34  1  0  0  0  0
 11 12  1  0  0  0  0
 11 35  1  0  0  0  0
 12 13  2  0  0  0  0
 12 36  1  0  0  0  0
 13 14  1  0  0  0  0
 13 37  1  0  0  0  0
 14 15  1  0  0  0  0
 15 16  1  0  0  0  0
 16 17  1  0  0  0  0
 16 38  1  0  0  0  0
 16 39  1  0  0  0  0
 17 18  1  0  0  0  0
 17 19  1  0  0  0  0
 17 40  1  0  0  0  0
 18 41  1  0  0  0  0
 19 25  1  0  0  0  0
 19 20  2  0  0  0  0
 20 21  1  0  0  0  0
 20 42  1  0  0  0  0
 21 22  2  0  0  0  0
 21 43  1  0  0  0  0
 22 23  1  0  0  0  0
 22 44  1  0  0  0  0
 23 24  1  0  0  0  0
 23 25  2  0  0  0  0
 25 45  1  0  0  0  0
M  CHG  1   8   1
M  END
> <s_m_source_file>
AV-unprocessed.smi

> <i_m_source_file_index>
1667

> <i_lp_mmshare_version>
43012

> <i_f3d_flags>
0

> <s_epik_input>
W0NIM11DKD1PKVtOSF1bQ0BASF0oW0NIM10pYyhuMSluKGMoYzEyKVtjSF1bY0hdW2NIXVtjSF0yKVtDSDJdW0NASF0oW09IXSljM1tjSF1bY0hdW2NIXWMoRilbY0hdMw==

> <s_epik_cmdline>
J2VwaWtfcHl0aG9uJywgJy1waCcsICc3LjAnLCAnLXRuJywgJzgnLCAnLW1hJywgJzIwMCcsICctbWV0YWxfYmluZGluZycsICctaW1hZScsICc8aW5maWxlLm1hZT4nLCAnLW9tYWUnLCAnPG91dGZpbGUubWFlPic=

> <r_epik_Ionization_Penalty>
0.950383

> <r_epik_Ionization_Penalty_Charging>
0.950379

> <r_epik_Ionization_Penalty_Neutral>
3.60962e-06

> <r_epik_State_Penalty>
0.994584

> <r_epik_Charging_Adjusted_Penalty>
1.94496

> <i_epik_Tot_Q>
1

> <i_epik_Tot_abs_Q>
1

> <r_epik_Metal_State_Penalty>
1.10485

> <b_epik_Metal_Only>
0

> <s_lp_Force_Field>
OPLS_2005

> <r_lp_Energy>
12.894

> <b_lp_Chiralities_Consistent>
1

> <s_lp_Variant>
AV-unprocessed.smi:1667-7

> <Gold.Version>
5.8.1

> <Gold.Id.Protein>
6NUR|6NUR_protein|mol2

> <Gold.PLP.Fitness>
56.6702

> <Gold.PLP.PLP>
-46.8728

> <Gold.PLP.part.hbond>
-4.0000

> <Gold.PLP.part.metal>
0.0000

> <Gold.PLP.part.buried>
2.4763

> <Gold.PLP.part.nonpolar>
-46.9441

> <Gold.PLP.part.repulsive>
0.1105

> <Gold.PLP.ligand.clash>
0.0000

> <Gold.PLP.ligand.torsion>
0.5197

> <Gold.PLP.Chemscore.Hbond>
3.5920

> <Gold.PLP.Chemscore.CHOScore>
0.0000

> <Gold.PLP.Chemscore.Metal>
0.0000

> <Gold.Chemscore.Hbonds>
donor molecule, donor type, donor heavy atom, donor atom, acceptor molecule, acceptor atom, score
      L1  H     8    46       P1  7948  1.79
      L1  H    18    41       P1  8028  0.54
      P1  H 10752 10765       L1     3  1.00

> <Gold.PLP.Chemscore.Internal.Correction>
0.0607

> <Gold.Rescore>
     Score         DG    S(hbond)    S(metal)    S(lipo)     H(rot)  DE(clash)    DE(int)     intcor
     20.02     -23.57       2.77        0.00     130.94       2.53       3.12       0.43       ----

> <Gold.Chemscore.Fitness>
20.0184

> <Gold.Chemscore.DG>
-23.5659

> <Gold.Chemscore.ZeroCoef>
-5.4800

> <Gold.Chemscore.Hbond>
2.7700

> <Gold.Chemscore.Metal>
0.0000

> <Gold.Chemscore.Lipo>
130.9364

> <Gold.Chemscore.Internal_Hbond>
0.0000

> <Gold.Chemscore.DEClash>
3.1181

> <Gold.Chemscore.DEInternal>
0.4294

> <Gold.Chemscore.Rot>
2.5335

> <Gold.Chemscore.Internal.Correction>
   9.000000E+99

> <Gold.Chemscore.Hbonds>
donor molecule, donor type, donor heavy atom, donor atom, acceptor molecule, acceptor atom, score
      L1  H     8    46       P1  7948  0.85
      L1  H    18    41       P1  8028  0.56
      P1  H 10752 10765       L1     3  0.50

> <Gold.Chemscore.Hbond.Weighted>
-9.2519

> <Gold.Chemscore.Metal.Weighted>
-0.0000

> <Gold.Chemscore.Lipo.Weighted>
-15.3196

> <Gold.Chemscore.Internal_Hbond.Weighted>
0.0000

> <Gold.Chemscore.DEClash.Weighted>
3.1181

> <Gold.Chemscore.DEInternal.Weighted>
0.4294

> <Gold.Chemscore.Rot.Weighted>
6.4856

> <Gold.Chemscore.Internal.Correction.Weighted>
   9.000000E+99

> <Gold.Protein.RotatedTorsions>
[ 6907 6896 6895 6894 ] final  -73.47 input  -60.11 | X-H torsion
[ 7974 7965 7964 7962 ] final  179.39 input  175.53 | X-H torsion
[ 8008 7997 7996 7995 ] final  -46.73 input   59.86 | X-H torsion
[ 10167 10162 10161 10158 ] final  -99.41 input  -65.29 | X-H torsion
[ 10718 10713 10712 10709 ] final   39.17 input   66.30 | X-H torsion
[ 10763 10752 10751 10750 ] final -123.51 input  -60.55 | X-H torsion
[ 11005 11000 10999 10996 ] final   30.76 input  -57.11 | X-H torsion

> <Gold.Protein.ActiveResidues>
 VAL166  LYS551  ARG553  GLY616  TRP617  ASP618  TYR619  PRO620  LYS621  CYS622 
 ASP623  PHE694  ASN695  SER759  ASP760  ASP761  ALA762  ILE779  LEU786  VAL792 
 PHE793  MET794  SER795  GLU796  ALA797  LYS798  CYS799  TRP800  GLU811  SER814 

> <Gold.Protein.RotatedAtoms>
  150.7129  134.5012  159.5561 H   0  0  0  0  0  0  0  0  0  0  0  0  # atno 6907 bound_to 6896
  152.2609  134.8032  160.0440 H   0  0  0  0  0  0  0  0  0  0  0  0  # atno 6908 bound_to 6896
  151.8746  133.3447  159.3783 H   0  0  0  0  0  0  0  0  0  0  0  0  # atno 6909 bound_to 6896
  144.7146  140.0540  143.6434 H   0  0  0  0  0  0  0  0  0  0  0  0  # atno 7974 bound_to 7965
  154.4010  140.1364  156.4059 H   0  0  0  0  0  0  0  0  0  0  0  0  # atno 8008 bound_to 7997
  155.7779  140.3482  155.5261 H   0  0  0  0  0  0  0  0  0  0  0  0  # atno 8009 bound_to 7997
  155.8702  140.0970  157.1545 H   0  0  0  0  0  0  0  0  0  0  0  0  # atno 8010 bound_to 7997
  140.2627  143.3396  152.0610 H   0  0  0  0  0  0  0  0  0  0  0  0  # atno 10167 bound_to 10162
  157.3674  130.7682  149.7093 H   0  0  0  0  0  0  0  0  0  0  0  0  # atno 10718 bound_to 10713
  154.8709  135.4096  154.2955 H   0  0  0  0  0  0  0  0  0  0  0  0  # atno 10763 bound_to 10752
  153.3824  135.7012  153.6561 H   0  0  0  0  0  0  0  0  0  0  0  0  # atno 10764 bound_to 10752
  153.5378  135.3654  155.2676 H   0  0  0  0  0  0  0  0  0  0  0  0  # atno 10765 bound_to 10752
  140.2910  134.2864  155.7776 H   0  0  0  0  0  0  0  0  0  0  0  0  # atno 11005 bound_to 11000
  145.9920  139.3022  143.0979 LP  0  0  0  0  0  0  0  0  0  0  0  0  # atno 17320 bound_to 7965
  145.8892  140.9314  143.0561 LP  0  0  0  0  0  0  0  0  0  0  0  0  # atno 17321 bound_to 7965
  139.5012  144.6708  151.6247 LP  0  0  0  0  0  0  0  0  0  0  0  0  # atno 17342 bound_to 10162
  140.5953  143.9707  150.6350 LP  0  0  0  0  0  0  0  0  0  0  0  0  # atno 17343 bound_to 10162
  155.9749  130.4097  150.3891 LP  0  0  0  0  0  0  0  0  0  0  0  0  # atno 17370 bound_to 10713
  157.1977  131.0430  151.2667 LP  0  0  0  0  0  0  0  0  0  0  0  0  # atno 17371 bound_to 10713
  141.2146  133.7585  156.9624 LP  0  0  0  0  0  0  0  0  0  0  0  0  # atno 17394 bound_to 11000
  140.1196  134.9426  157.2183 LP  0  0  0  0  0  0  0  0  0  0  0  0  # atno 17395 bound_to 11000

$$$$
