#       Name:                AV-unprocessed.smi:1194
#       Creating user name   scv26
#       Creation time:       Fri Mar 27 03:59:04 2020


#       File generated by GOLD software.
#

@<TRIPOS>MOLECULE
AV-unprocessed.smi:1194
    52    53     1
SMALL
NO_CHARGES


@<TRIPOS>ATOM
      1 ****        -3.2330   2.5675   2.0264 C.3            1 S1                 0.0000
      2 ****        -2.9792   1.1707   1.4498 C.3            1 S1                 0.0000
      3 ****        -2.0590   1.2044   0.2145 C.3            1 S1                 0.0000
      4 ****        -1.7045  -0.1876  -0.3408 C.2            1 S1                 0.0000
      5 ****        -2.2674  -1.1709   0.1437 O.2            1 S1                 0.0000
      6 ****        -0.7747  -0.2983  -1.3271 N.am           1 S1                 0.0000
      7 ****        -0.0997   0.8563  -1.9606 C.3            1 S1                 0.0000
      8 ****        -0.3431   0.8553  -3.4791 C.3            1 S1                 0.0000
      9 ****         0.0754  -0.4807  -4.1077 C.3            1 S1                 0.0000
     10 ****        -0.6135  -1.6470  -3.3832 C.3            1 S1                 0.0000
     11 ****        -0.3630  -1.6254  -1.8547 C.3            1 S1                 0.0000
     12 ****         1.0779  -2.0215  -1.4589 C.2            1 S1                 0.0000
     13 ****         1.7296  -2.7946  -2.1608 O.2            1 S1                 0.0000
     14 ****         1.5558  -1.4985  -0.3202 N.am           1 S1                 0.0000
     15 ****         2.8710  -1.7424   0.2560 C.3            1 S1                 0.0000
     16 ****         3.3077  -0.5659   1.1475 C.3            1 S1                 0.0000
     17 ****         2.2245  -0.0990   2.1071 C.ar           1 S1                 0.0000
     18 ****         1.8524  -0.8851   3.2170 C.ar           1 S1                 0.0000
     19 ****         0.8254  -0.4225   4.0623 C.ar           1 S1                 0.0000
     20 ****         0.2155   0.8120   3.7633 C.ar           1 S1                 0.0000
     21 ****         0.5674   1.5757   2.7070 N.ar           1 S1                 0.0000
     22 ****         1.5505   1.1239   1.8998 C.ar           1 S1                 0.0000
     23 ****        -3.8883   2.5157   2.8961 H              1 S1                 0.0000
     24 ****        -3.7064   3.2176   1.2900 H              1 S1                 0.0000
     25 ****        -2.3006   3.0381   2.3404 H              1 S1                 0.0000
     26 ****        -2.5362   0.5459   2.2268 H              1 S1                 0.0000
     27 ****        -3.9347   0.7135   1.1894 H              1 S1                 0.0000
     28 ****        -2.5319   1.7889  -0.5756 H              1 S1                 0.0000
     29 ****        -1.1382   1.7167   0.4918 H              1 S1                 0.0000
     30 ****        -0.4119   1.8247  -1.5763 H              1 S1                 0.0000
     31 ****         0.9709   0.8042  -1.7607 H              1 S1                 0.0000
     32 ****        -1.4004   1.0372  -3.6770 H              1 S1                 0.0000
     33 ****         0.2049   1.6741  -3.9462 H              1 S1                 0.0000
     34 ****        -0.1812  -0.4934  -5.1673 H              1 S1                 0.0000
     35 ****         1.1589  -0.5922  -4.0505 H              1 S1                 0.0000
     36 ****        -1.6879  -1.5903  -3.5643 H              1 S1                 0.0000
     37 ****        -0.2939  -2.5952  -3.8171 H              1 S1                 0.0000
     38 ****        -0.9808  -2.4252  -1.4448 H              1 S1                 0.0000
     39 ****         0.9478  -0.8825   0.2001 H              1 S1                 0.0000
     40 ****         2.8080  -2.6533   0.8522 H              1 S1                 0.0000
     41 ****         3.6187  -1.9197  -0.5188 H              1 S1                 0.0000
     42 ****         4.1950  -0.8416   1.7183 H              1 S1                 0.0000
     43 ****         3.6022   0.2735   0.5159 H              1 S1                 0.0000
     44 ****         2.3384  -1.8297   3.4127 H              1 S1                 0.0000
     45 ****         0.5106  -1.0011   4.9181 H              1 S1                 0.0000
     46 ****        -0.5773   1.1961   4.3878 H              1 S1                 0.0000
     47 ****         1.7967   1.7533   1.0572 H              1 S1                 0.0000
     48 ****        -2.9354  -1.0531   0.8785 LP             1 S1                 0.0000
     49 ****        -2.0562  -2.0867  -0.1979 LP             1 S1                 0.0000
     50 ****         1.3277  -3.1722  -2.9950 LP             1 S1                 0.0000
     51 ****         2.6610  -3.0452  -1.8968 LP             1 S1                 0.0000
     52 ****         0.1139   2.4488   2.5282 LP             1 S1                 0.0000
@<TRIPOS>BOND
    1    1    2 1     
    2    1   23 1     
    3    1   24 1     
    4    1   25 1     
    5    2    3 1     
    6    2   26 1     
    7    2   27 1     
    8    3    4 1     
    9    3   28 1     
   10    3   29 1     
   11    4    5 2     
   12    4    6 am    
   13    6   11 1     
   14    6    7 1     
   15    7    8 1     
   16    7   30 1     
   17    7   31 1     
   18    8    9 1     
   19    8   32 1     
   20    8   33 1     
   21    9   10 1     
   22    9   34 1     
   23    9   35 1     
   24   10   11 1     
   25   10   36 1     
   26   10   37 1     
   27   11   12 1     
   28   11   38 1     
   29   12   13 2     
   30   12   14 am    
   31   14   15 1     
   32   14   39 1     
   33   15   16 1     
   34   15   40 1     
   35   15   41 1     
   36   16   17 1     
   37   16   42 1     
   38   16   43 1     
   39   17   22 ar    
   40   17   18 ar    
   41   18   19 ar    
   42   18   44 1     
   43   19   20 ar    
   44   19   45 1     
   45   20   21 ar    
   46   20   46 1     
   47   21   22 ar    
   48   22   47 1     
   49    5   48 1     
   50    5   49 1     
   51   13   50 1     
   52   13   51 1     
   53   21   52 1     
@<TRIPOS>SUBSTRUCTURE
      1 S1             1
@<TRIPOS>SET
LONE_PAIRS      STATIC     ATOMS    <user>   **** ""
5 48 49 50 51 52
DONOR_HYDROGENS      STATIC     ATOMS    <user>   **** ""
1 39
ATOM$BLUE        STATIC     ATOMS    COLORGROUP SYSTEM
5 48 49 50 51 52
ATOM$RED        STATIC     ATOMS    COLORGROUP SYSTEM
1 39
