AV-unprocessed.smi:610|AV-procd|sdf|3053|dock7
  -GOLD-   2262023573D 1   1.00000     0.00000
 Structure written by MMmdl.
 39 40  0  0  0  0  0  0  0  0  3 V2000
  153.5809  141.8545  161.3921 C   0  0  0  0  0  0  0  0  0  0  0  0
  153.4760  141.0704  160.0774 C   0  0  2  0  0  0  0  0  0  0  0  0
  152.1013  141.2841  159.4083 C   0  0  0  0  0  0  0  0  0  0  0  0
  151.9582  142.6121  158.8008 N   0  0  0  0  0  0  0  0  0  0  0  0
  152.7090  143.7299  159.0611 C   0  0  0  0  0  0  0  0  0  0  0  0
  152.2155  144.7278  158.2607 C   0  0  0  0  0  0  0  0  0  0  0  0
  151.1788  144.1802  157.5534 N   0  3  0  0  0  0  0  0  0  0  0  0
  151.0195  142.8956  157.8881 C   0  0  0  0  0  0  0  0  0  0  0  0
  153.7094  139.6533  160.3537 N   0  0  0  0  0  0  0  0  0  0  0  0
  154.6829  138.8932  159.8227 C   0  0  0  0  0  0  0  0  0  0  0  0
  155.5105  139.3428  159.0294 O   0  0  0  0  0  0  0  0  0  0  0  0
  154.7649  137.4076  160.2479 C   0  0  0  0  0  0  0  0  0  0  0  0
  154.6147  136.5947  159.0268 N   0  3  0  0  0  0  0  0  0  0  0  0
  156.0469  137.0327  161.0204 C   0  0  0  0  0  0  0  0  0  0  0  0
  155.7941  137.4846  162.4649 C   0  0  0  0  0  0  0  0  0  0  0  0
  154.2680  137.4707  162.6461 C   0  0  0  0  0  0  0  0  0  0  0  0
  153.6808  137.0623  161.2869 C   0  0  0  0  0  0  0  0  0  0  0  0
  153.4435  142.9230  161.2239 H   0  0  0  0  0  0  0  0  0  0  0  0
  154.5594  141.7197  161.8543 H   0  0  0  0  0  0  0  0  0  0  0  0
  152.8255  141.5322  162.1098 H   0  0  0  0  0  0  0  0  0  0  0  0
  154.2544  141.4523  159.4144 H   0  0  0  0  0  0  0  0  0  0  0  0
  151.9182  140.5260  158.6447 H   0  0  0  0  0  0  0  0  0  0  0  0
  151.3039  141.1863  160.1464 H   0  0  0  0  0  0  0  0  0  0  0  0
  153.5215  143.7304  159.7736 H   0  0  0  0  0  0  0  0  0  0  0  0
  152.5149  145.7596  158.1467 H   0  0  0  0  0  0  0  0  0  0  0  0
  150.2814  142.2203  157.4931 H   0  0  0  0  0  0  0  0  0  0  0  0
  153.0726  139.2131  161.0025 H   0  0  0  0  0  0  0  0  0  0  0  0
  153.6488  136.6005  158.7317 H   0  0  0  0  0  0  0  0  0  0  0  0
  154.9057  135.6458  159.2139 H   0  0  0  0  0  0  0  0  0  0  0  0
  156.1717  135.9484  161.0106 H   0  0  0  0  0  0  0  0  0  0  0  0
  156.9669  137.4475  160.6069 H   0  0  0  0  0  0  0  0  0  0  0  0
  156.2985  136.8362  163.1820 H   0  0  0  0  0  0  0  0  0  0  0  0
  156.1746  138.4955  162.6155 H   0  0  0  0  0  0  0  0  0  0  0  0
  153.9587  136.7814  163.4325 H   0  0  0  0  0  0  0  0  0  0  0  0
  153.9173  138.4638  162.9282 H   0  0  0  0  0  0  0  0  0  0  0  0
  152.7169  137.5379  161.1009 H   0  0  0  0  0  0  0  0  0  0  0  0
  153.5013  135.9857  161.2879 H   0  0  0  0  0  0  0  0  0  0  0  0
  155.1932  136.9832  158.2953 H   0  0  0  0  0  0  0  0  0  0  0  0
  150.6089  144.6764  156.8795 H   0  0  0  0  0  0  0  0  0  0  0  0
  1  2  1  0  0  0  0
  1 18  1  0  0  0  0
  1 19  1  0  0  0  0
  1 20  1  0  0  0  0
  2  3  1  0  0  0  0
  2  9  1  0  0  0  0
  2 21  1  0  0  0  0
  3  4  1  0  0  0  0
  3 22  1  0  0  0  0
  3 23  1  0  0  0  0
  4  8  1  0  0  0  0
  4  5  1  0  0  0  0
  5  6  2  0  0  0  0
  5 24  1  0  0  0  0
  6  7  1  0  0  0  0
  6 25  1  0  0  0  0
  7  8  2  0  0  0  0
  7 39  1  0  0  0  0
  8 26  1  0  0  0  0
  9 10  1  0  0  0  0
  9 27  1  0  0  0  0
 10 11  2  0  0  0  0
 10 12  1  0  0  0  0
 12 17  1  0  0  0  0
 12 13  1  0  0  0  0
 12 14  1  0  0  0  0
 13 28  1  0  0  0  0
 13 29  1  0  0  0  0
 13 38  1  0  0  0  0
 14 15  1  0  0  0  0
 14 30  1  0  0  0  0
 14 31  1  0  0  0  0
 15 16  1  0  0  0  0
 15 32  1  0  0  0  0
 15 33  1  0  0  0  0
 16 17  1  0  0  0  0
 16 34  1  0  0  0  0
 16 35  1  0  0  0  0
 17 36  1  0  0  0  0
 17 37  1  0  0  0  0
M  CHG  1   7   1
M  CHG  1  13   1
M  END
> <s_m_source_file>
AV-unprocessed.smi

> <i_m_source_file_index>
610

> <i_lp_mmshare_version>
43012

> <i_f3d_flags>
0

> <s_epik_input>
W2NIXTFuW2NIXVtjSF1uMVtDSDJdW0NAQEhdKFtDSDNdKVtOSF1DKD1PKUMyKFtOSDJdKVtDSDJdW0NIMl1bQ0gyXVtDSDJdMg==

> <s_epik_cmdline>
J2VwaWtfcHl0aG9uJywgJy1waCcsICc3LjAnLCAnLXRuJywgJzgnLCAnLW1hJywgJzIwMCcsICctbWV0YWxfYmluZGluZycsICctaW1hZScsICc8aW5maWxlLm1hZT4nLCAnLW9tYWUnLCAnPG91dGZpbGUubWFlPic=

> <r_lp_tautomer_probability>
1

> <r_epik_Ionization_Penalty>
0.349719

> <r_epik_Ionization_Penalty_Charging>
0.0753376

> <r_epik_Ionization_Penalty_Neutral>
0.274381

> <r_epik_State_Penalty>
0.326418

> <r_epik_Charging_Adjusted_Penalty>
0.401755

> <i_epik_Tot_Q>
2

> <i_epik_Tot_abs_Q>
2

> <r_epik_Metal_State_Penalty>
0.608513

> <b_epik_Metal_Only>
0

> <s_lp_Force_Field>
OPLS_2005

> <r_lp_Energy>
30.886

> <b_lp_Chiralities_Consistent>
1

> <s_lp_Variant>
AV-unprocessed.smi:610-1

> <Gold.Version>
5.8.1

> <Gold.Id.Protein>
6NUR|6NUR_protein|mol2

> <Gold.PLP.Fitness>
42.0987

> <Gold.PLP.PLP>
-33.7866

> <Gold.PLP.part.hbond>
-2.0000

> <Gold.PLP.part.metal>
0.0000

> <Gold.PLP.part.buried>
-4.3953

> <Gold.PLP.part.nonpolar>
-27.3376

> <Gold.PLP.part.repulsive>
0.1436

> <Gold.PLP.ligand.clash>
0.0000

> <Gold.PLP.ligand.torsion>
0.3741

> <Gold.PLP.Chemscore.Hbond>
3.0000

> <Gold.PLP.Chemscore.CHOScore>
0.0000

> <Gold.PLP.Chemscore.Metal>
0.0000

> <Gold.Chemscore.Hbonds>
donor molecule, donor type, donor heavy atom, donor atom, acceptor molecule, acceptor atom, score
      L1  H     7    39       P1  8028  1.79
      P1  H  7997  8010       L1    11  1.00

> <Gold.PLP.Chemscore.Internal.Correction>
0.0603

> <Gold.Rescore>
     Score         DG    S(hbond)    S(metal)    S(lipo)     H(rot)  DE(clash)    DE(int)     intcor
     16.05     -16.41       1.99        0.00      81.78       2.06       0.00       0.36       ----

> <Gold.Chemscore.Fitness>
16.0505

> <Gold.Chemscore.DG>
-16.4123

> <Gold.Chemscore.ZeroCoef>
-5.4800

> <Gold.Chemscore.Hbond>
1.9908

> <Gold.Chemscore.Metal>
0.0000

> <Gold.Chemscore.Lipo>
81.7750

> <Gold.Chemscore.Internal_Hbond>
0.0000

> <Gold.Chemscore.DEClash>
0.0000

> <Gold.Chemscore.DEInternal>
0.3618

> <Gold.Chemscore.Rot>
2.0644

> <Gold.Chemscore.Internal.Correction>
   9.000000E+99

> <Gold.Chemscore.Hbonds>
donor molecule, donor type, donor heavy atom, donor atom, acceptor molecule, acceptor atom, score
      L1  H     7    39       P1  8028  0.68
      P1  H  7997  8010       L1    11  1.00

> <Gold.Chemscore.Hbond.Weighted>
-6.6494

> <Gold.Chemscore.Metal.Weighted>
-0.0000

> <Gold.Chemscore.Lipo.Weighted>
-9.5677

> <Gold.Chemscore.Internal_Hbond.Weighted>
0.0000

> <Gold.Chemscore.DEClash.Weighted>
0.0000

> <Gold.Chemscore.DEInternal.Weighted>
0.3618

> <Gold.Chemscore.Rot.Weighted>
5.2848

> <Gold.Chemscore.Internal.Correction.Weighted>
   9.000000E+99

> <Gold.Protein.RotatedTorsions>
[ 6907 6896 6895 6894 ] final -114.63 input  -60.11 | X-H torsion
[ 7974 7965 7964 7962 ] final  -53.64 input  175.53 | X-H torsion
[ 8008 7997 7996 7995 ] final  -14.42 input   59.86 | X-H torsion
[ 10167 10162 10161 10158 ] final  -46.91 input  -65.29 | X-H torsion
[ 10718 10713 10712 10709 ] final  179.67 input   66.30 | X-H torsion
[ 10763 10752 10751 10750 ] final   13.07 input  -60.55 | X-H torsion
[ 11005 11000 10999 10996 ] final   34.80 input  -57.11 | X-H torsion

> <Gold.Protein.ActiveResidues>
 VAL166  LYS551  ARG553  GLY616  TRP617  ASP618  TYR619  PRO620  LYS621  CYS622 
 ASP623  PHE694  ASN695  SER759  ASP760  ASP761  ALA762  ILE779  LEU786  VAL792 
 PHE793  MET794  SER795  GLU796  ALA797  LYS798  CYS799  TRP800  GLU811  SER814 

> <Gold.Protein.RotatedAtoms>
  150.7916  133.8774  159.3275 H   0  0  0  0  0  0  0  0  0  0  0  0  # atno 6907 bound_to 6896
  151.6610  135.0987  160.0189 H   0  0  0  0  0  0  0  0  0  0  0  0  # atno 6908 bound_to 6896
  152.3991  133.6753  159.6337 H   0  0  0  0  0  0  0  0  0  0  0  0  # atno 6909 bound_to 6896
  145.8945  140.8044  142.9774 H   0  0  0  0  0  0  0  0  0  0  0  0  # atno 7974 bound_to 7965
  154.5212  140.2223  155.8973 H   0  0  0  0  0  0  0  0  0  0  0  0  # atno 8008 bound_to 7997
  156.1664  140.3131  155.8860 H   0  0  0  0  0  0  0  0  0  0  0  0  # atno 8009 bound_to 7997
  155.3648  140.0463  157.3037 H   0  0  0  0  0  0  0  0  0  0  0  0  # atno 8010 bound_to 7997
  140.6798  143.2809  151.3850 H   0  0  0  0  0  0  0  0  0  0  0  0  # atno 10167 bound_to 10162
  156.8723  130.9788  151.3072 H   0  0  0  0  0  0  0  0  0  0  0  0  # atno 10718 bound_to 10713
  153.1758  135.6820  153.8545 H   0  0  0  0  0  0  0  0  0  0  0  0  # atno 10763 bound_to 10752
  153.7893  135.3171  155.3377 H   0  0  0  0  0  0  0  0  0  0  0  0  # atno 10764 bound_to 10752
  154.8028  135.4767  154.0411 H   0  0  0  0  0  0  0  0  0  0  0  0  # atno 10765 bound_to 10752
  140.2492  134.3323  155.7896 H   0  0  0  0  0  0  0  0  0  0  0  0  # atno 11005 bound_to 11000
  144.6732  140.1581  143.7424 LP  0  0  0  0  0  0  0  0  0  0  0  0  # atno 17320 bound_to 7965
  145.8867  139.2353  143.1573 LP  0  0  0  0  0  0  0  0  0  0  0  0  # atno 17321 bound_to 7965
  139.6112  144.1094  152.2301 LP  0  0  0  0  0  0  0  0  0  0  0  0  # atno 17342 bound_to 10162
  140.0509  144.5933  150.7337 LP  0  0  0  0  0  0  0  0  0  0  0  0  # atno 17343 bound_to 10162
  157.6189  130.8639  149.9074 LP  0  0  0  0  0  0  0  0  0  0  0  0  # atno 17370 bound_to 10713
  156.0720  130.3684  150.0756 LP  0  0  0  0  0  0  0  0  0  0  0  0  # atno 17371 bound_to 10713
  141.2203  133.7343  156.9009 LP  0  0  0  0  0  0  0  0  0  0  0  0  # atno 17394 bound_to 11000
  140.1575  134.9188  157.2672 LP  0  0  0  0  0  0  0  0  0  0  0  0  # atno 17395 bound_to 11000

$$$$
