AV-unprocessed.smi:3220|AV-procd|sdf|12298|dock6
  -GOLD-   2272018143D 1   1.00000     0.00000
 Structure written by MMmdl.
 33 34  0  0  0  0  0  0  0  0  1 V2000
  153.7115  139.8833  160.2700 C   0  0  0  0  0  0  0  0  0  0  0  0
  152.7213  140.9421  159.7665 C   0  0  1  0  0  0  0  0  0  0  0  0
  153.1515  142.3611  160.1982 C   0  0  0  0  0  0  0  0  0  0  0  0
  152.3422  143.4046  159.5940 N   0  0  0  0  0  0  0  0  0  0  0  0
  151.8414  144.5490  160.1789 C   0  0  0  0  0  0  0  0  0  0  0  0
  151.1546  145.2303  159.2154 C   0  0  0  0  0  0  0  0  0  0  0  0
  151.2898  144.4100  158.0605 C   0  0  0  0  0  0  0  0  0  0  0  0
  151.9972  143.3159  158.2912 N   0  0  0  0  0  0  0  0  0  0  0  0
  152.6277  140.8464  158.3101 N   0  0  0  0  0  0  0  0  0  0  0  0
  151.5286  140.5181  157.6125 C   0  0  0  0  0  0  0  0  0  0  0  0
  150.4534  140.2297  158.1398 O   0  0  0  0  0  0  0  0  0  0  0  0
  151.6709  140.5244  156.0830 C   0  0  2  0  0  0  0  0  0  0  0  0
  150.4049  140.0409  155.3478 C   0  0  0  0  0  0  0  0  0  0  0  0
  150.8732  138.8416  154.5415 C   0  0  0  0  0  0  0  0  0  0  0  0
  152.1127  138.3858  155.2974 C   0  0  0  0  0  0  0  0  0  0  0  0
  152.7013  139.6112  155.7080 O   0  0  0  0  0  0  0  0  0  0  0  0
  153.7912  139.9069  161.3572 H   0  0  0  0  0  0  0  0  0  0  0  0
  154.7095  140.0439  159.8603 H   0  0  0  0  0  0  0  0  0  0  0  0
  153.3915  138.8800  159.9868 H   0  0  0  0  0  0  0  0  0  0  0  0
  151.7528  140.7144  160.2161 H   0  0  0  0  0  0  0  0  0  0  0  0
  153.0747  142.4627  161.2818 H   0  0  0  0  0  0  0  0  0  0  0  0
  154.1978  142.5382  159.9447 H   0  0  0  0  0  0  0  0  0  0  0  0
  152.0203  144.7840  161.2180 H   0  0  0  0  0  0  0  0  0  0  0  0
  150.6359  146.1717  159.3189 H   0  0  0  0  0  0  0  0  0  0  0  0
  150.8964  144.5752  157.0683 H   0  0  0  0  0  0  0  0  0  0  0  0
  153.4659  141.0586  157.7886 H   0  0  0  0  0  0  0  0  0  0  0  0
  151.9544  141.5204  155.7390 H   0  0  0  0  0  0  0  0  0  0  0  0
  149.6148  139.7437  156.0398 H   0  0  0  0  0  0  0  0  0  0  0  0
  149.9903  140.8150  154.7015 H   0  0  0  0  0  0  0  0  0  0  0  0
  150.1164  138.0615  154.4556 H   0  0  0  0  0  0  0  0  0  0  0  0
  151.1521  139.1575  153.5354 H   0  0  0  0  0  0  0  0  0  0  0  0
  151.8424  137.7900  156.1705 H   0  0  0  0  0  0  0  0  0  0  0  0
  152.7927  137.7998  154.6787 H   0  0  0  0  0  0  0  0  0  0  0  0
  1  2  1  0  0  0  0
  1 17  1  0  0  0  0
  1 18  1  0  0  0  0
  1 19  1  0  0  0  0
  2  3  1  0  0  0  0
  2  9  1  0  0  0  0
  2 20  1  0  0  0  0
  3  4  1  0  0  0  0
  3 21  1  0  0  0  0
  3 22  1  0  0  0  0
  4  8  1  0  0  0  0
  4  5  1  0  0  0  0
  5  6  2  0  0  0  0
  5 23  1  0  0  0  0
  6  7  1  0  0  0  0
  6 24  1  0  0  0  0
  7  8  2  0  0  0  0
  7 25  1  0  0  0  0
  9 10  1  0  0  0  0
  9 26  1  0  0  0  0
 10 11  2  0  0  0  0
 10 12  1  0  0  0  0
 12 16  1  0  0  0  0
 12 13  1  0  0  0  0
 12 27  1  0  0  0  0
 13 14  1  0  0  0  0
 13 28  1  0  0  0  0
 13 29  1  0  0  0  0
 14 15  1  0  0  0  0
 14 30  1  0  0  0  0
 14 31  1  0  0  0  0
 15 16  1  0  0  0  0
 15 32  1  0  0  0  0
 15 33  1  0  0  0  0
M  END
> <s_m_source_file>
AV-unprocessed.smi

> <i_m_source_file_index>
3220

> <i_lp_mmshare_version>
43012

> <i_f3d_flags>
0

> <s_epik_input>
bjFbY0hdW2NIXVtjSF1uMVtDSDJdW0NAQEhdKFtDSDNdKVtOSF1DKD1PKVtDQEBIXTJbQ0gyXVtDSDJdW0NIMl1PMg==

> <s_epik_cmdline>
J2VwaWtfcHl0aG9uJywgJy1waCcsICc3LjAnLCAnLXRuJywgJzgnLCAnLW1hJywgJzIwMCcsICctbWV0YWxfYmluZGluZycsICctaW1hZScsICc8aW5maWxlLm1hZT4nLCAnLW9tYWUnLCAnPG91dGZpbGUubWFlPic=

> <r_lp_tautomer_probability>
1

> <r_epik_Ionization_Penalty>
0.00033363

> <r_epik_Ionization_Penalty_Charging>
0

> <r_epik_Ionization_Penalty_Neutral>
0.00033363

> <r_epik_State_Penalty>
-0

> <r_epik_Charging_Adjusted_Penalty>
0

> <i_epik_Tot_Q>
0

> <i_epik_Tot_abs_Q>
0

> <r_epik_Metal_State_Penalty>
-0

> <b_epik_Metal_Only>
0

> <s_lp_Force_Field>
OPLS_2005

> <r_lp_Energy>
18.0853

> <b_lp_Chiralities_Consistent>
1

> <s_lp_Variant>
AV-unprocessed.smi:3220-2

> <Gold.Version>
5.8.1

> <Gold.Id.Protein>
6NUR|6NUR_protein|mol2

> <Gold.PLP.Fitness>
44.9195

> <Gold.PLP.PLP>
-39.5386

> <Gold.PLP.part.hbond>
-1.0000

> <Gold.PLP.part.metal>
0.0000

> <Gold.PLP.part.buried>
-4.6738

> <Gold.PLP.part.nonpolar>
-33.9576

> <Gold.PLP.part.repulsive>
0.1275

> <Gold.PLP.ligand.clash>
0.0000

> <Gold.PLP.ligand.torsion>
0.3111

> <Gold.PLP.Chemscore.Hbond>
1.0000

> <Gold.PLP.Chemscore.CHOScore>
0.9938

> <Gold.PLP.Chemscore.Metal>
0.0000

> <Gold.Chemscore.Hbonds>
donor molecule, donor type, donor heavy atom, donor atom, acceptor molecule, acceptor atom, score
      P1  H  7997  8009       L1    16  1.00
      L1  C     7    25       P1  8028  1.00

> <Gold.PLP.Chemscore.Internal.Correction>
0.0217

> <Gold.Rescore>
     Score         DG    S(hbond)    S(metal)    S(lipo)     H(rot)  DE(clash)    DE(int)     intcor
     15.30     -15.44       0.95        0.00      93.39       1.62       0.09       0.05       ----

> <Gold.Chemscore.Fitness>
15.2994

> <Gold.Chemscore.DG>
-15.4405

> <Gold.Chemscore.ZeroCoef>
-5.4800

> <Gold.Chemscore.Hbond>
0.9539

> <Gold.Chemscore.Metal>
0.0000

> <Gold.Chemscore.Lipo>
93.3888

> <Gold.Chemscore.Internal_Hbond>
0.0000

> <Gold.Chemscore.DEClash>
0.0941

> <Gold.Chemscore.DEInternal>
0.0470

> <Gold.Chemscore.Rot>
1.6219

> <Gold.Chemscore.Internal.Correction>
   9.000000E+99

> <Gold.Chemscore.Hbonds>
donor molecule, donor type, donor heavy atom, donor atom, acceptor molecule, acceptor atom, score
      P1  H  7997  8009       L1    16  0.82

> <Gold.Chemscore.Hbond.Weighted>
-3.1860

> <Gold.Chemscore.Metal.Weighted>
-0.0000

> <Gold.Chemscore.Lipo.Weighted>
-10.9265

> <Gold.Chemscore.Internal_Hbond.Weighted>
0.0000

> <Gold.Chemscore.DEClash.Weighted>
0.0941

> <Gold.Chemscore.DEInternal.Weighted>
0.0470

> <Gold.Chemscore.Rot.Weighted>
4.1520

> <Gold.Chemscore.Internal.Correction.Weighted>
   9.000000E+99

> <Gold.Protein.RotatedTorsions>
[ 6907 6896 6895 6894 ] final  -10.16 input  -60.11 | X-H torsion
[ 7974 7965 7964 7962 ] final -135.34 input  175.53 | X-H torsion
[ 8008 7997 7996 7995 ] final -164.35 input   59.86 | X-H torsion
[ 10167 10162 10161 10158 ] final  114.19 input  -65.29 | X-H torsion
[ 10718 10713 10712 10709 ] final -134.30 input   66.30 | X-H torsion
[ 10763 10752 10751 10750 ] final -141.41 input  -60.55 | X-H torsion
[ 11005 11000 10999 10996 ] final  175.52 input  -57.11 | X-H torsion

> <Gold.Protein.ActiveResidues>
 VAL166  LYS551  ARG553  GLY616  TRP617  ASP618  TYR619  PRO620  LYS621  CYS622 
 ASP623  PHE694  ASN695  SER759  ASP760  ASP761  ALA762  ILE779  LEU786  VAL792 
 PHE793  MET794  SER795  GLU796  ALA797  LYS798  CYS799  TRP800  GLU811  SER814 

> <Gold.Protein.RotatedAtoms>
  151.4063  135.0978  159.9571 H   0  0  0  0  0  0  0  0  0  0  0  0  # atno 6907 bound_to 6896
  152.5034  133.8840  159.7371 H   0  0  0  0  0  0  0  0  0  0  0  0  # atno 6908 bound_to 6896
  150.9325  133.6693  159.2836 H   0  0  0  0  0  0  0  0  0  0  0  0  # atno 6909 bound_to 6896
  144.9022  140.6786  143.5078 H   0  0  0  0  0  0  0  0  0  0  0  0  # atno 7974 bound_to 7965
  155.8344  140.0939  157.1773 H   0  0  0  0  0  0  0  0  0  0  0  0  # atno 8008 bound_to 7997
  154.3980  140.1413  156.3714 H   0  0  0  0  0  0  0  0  0  0  0  0  # atno 8009 bound_to 7997
  155.8131  140.3449  155.5472 H   0  0  0  0  0  0  0  0  0  0  0  0  # atno 8010 bound_to 7997
  139.6407  144.7123  151.2243 H   0  0  0  0  0  0  0  0  0  0  0  0  # atno 10167 bound_to 10162
  156.2540  130.7170  151.1080 H   0  0  0  0  0  0  0  0  0  0  0  0  # atno 10718 bound_to 10713
  154.8546  135.3525  154.5864 H   0  0  0  0  0  0  0  0  0  0  0  0  # atno 10763 bound_to 10752
  153.6474  135.6995  153.5225 H   0  0  0  0  0  0  0  0  0  0  0  0  # atno 10764 bound_to 10752
  153.2921  135.4231  155.1135 H   0  0  0  0  0  0  0  0  0  0  0  0  # atno 10765 bound_to 10752
  140.3631  134.7095  157.4344 H   0  0  0  0  0  0  0  0  0  0  0  0  # atno 11005 bound_to 11000
  145.3596  139.1685  143.4390 LP  0  0  0  0  0  0  0  0  0  0  0  0  # atno 17320 bound_to 7965
  146.3114  140.3657  142.8669 LP  0  0  0  0  0  0  0  0  0  0  0  0  # atno 17321 bound_to 7965
  140.7489  143.6317  150.8416 LP  0  0  0  0  0  0  0  0  0  0  0  0  # atno 17342 bound_to 10162
  139.9954  143.5801  152.2895 LP  0  0  0  0  0  0  0  0  0  0  0  0  # atno 17343 bound_to 10162
  157.7225  131.0672  150.6073 LP  0  0  0  0  0  0  0  0  0  0  0  0  # atno 17370 bound_to 10713
  156.6155  130.4391  149.5842 LP  0  0  0  0  0  0  0  0  0  0  0  0  # atno 17371 bound_to 10713
  140.0611  134.5994  155.8748 LP  0  0  0  0  0  0  0  0  0  0  0  0  # atno 17394 bound_to 11000
  141.1978  133.6598  156.5759 LP  0  0  0  0  0  0  0  0  0  0  0  0  # atno 17395 bound_to 11000

$$$$
