AV-unprocessed.smi:2045|AV-procd|sdf|8309|dock3
  -GOLD-   2272010573D 1   1.00000     0.00000
 Structure written by MMmdl.
 38 39  0  0  0  0  0  0  0  0  3 V2000
  151.3381  140.6932  156.8188 C   0  0  0  0  0  0  0  0  0  0  0  0
  151.6511  139.4301  156.0928 C   0  0  0  0  0  0  0  0  0  0  0  0
  151.0047  138.2307  155.9894 C   0  0  0  0  0  0  0  0  0  0  0  0
  151.8553  137.4764  155.1359 C   0  0  0  0  0  0  0  0  0  0  0  0
  151.6529  136.2096  154.7414 N   0  5  0  0  0  0  0  0  0  0  0  0
  150.6497  135.4810  155.2809 C   0  0  0  0  0  0  0  0  0  0  0  0
  150.6399  134.9625  156.4000 O   0  0  0  0  0  0  0  0  0  0  0  0
  149.5907  135.3389  154.4709 N   0  0  0  0  0  0  0  0  0  0  0  0
  148.3736  134.6016  154.7874 C   0  0  0  0  0  0  0  0  0  0  0  0
  148.1089  133.4894  153.7555 C   0  0  0  0  0  0  0  0  0  0  0  0
  147.2431  133.9488  152.6414 N   0  3  0  0  0  0  0  0  0  0  0  0
  146.0237  134.6639  153.1059 C   0  0  0  0  0  0  0  0  0  0  0  0
  145.2267  135.2302  151.9186 C   0  0  0  0  0  0  0  0  0  0  0  0
  144.8597  134.1216  150.9238 C   0  0  0  0  0  0  0  0  0  0  0  0
  146.1243  133.3718  150.4857 C   0  0  0  0  0  0  0  0  0  0  0  0
  146.9042  132.8469  151.7031 C   0  0  0  0  0  0  0  0  0  0  0  0
  152.9301  138.1526  154.7666 N   0  0  0  0  0  0  0  0  0  0  0  0
  152.8034  139.4092  155.3708 O   0  0  0  0  0  0  0  0  0  0  0  0
  150.4644  140.5688  157.4586 H   0  0  0  0  0  0  0  0  0  0  0  0
  151.1309  141.4999  156.1158 H   0  0  0  0  0  0  0  0  0  0  0  0
  152.1763  140.9966  157.4464 H   0  0  0  0  0  0  0  0  0  0  0  0
  150.0721  137.9396  156.4487 H   0  0  0  0  0  0  0  0  0  0  0  0
  149.6373  135.7833  153.5652 H   0  0  0  0  0  0  0  0  0  0  0  0
  148.4507  134.2048  155.7999 H   0  0  0  0  0  0  0  0  0  0  0  0
  147.5428  135.3074  154.7937 H   0  0  0  0  0  0  0  0  0  0  0  0
  149.0723  133.1690  153.3562 H   0  0  0  0  0  0  0  0  0  0  0  0
  147.6643  132.6100  154.2239 H   0  0  0  0  0  0  0  0  0  0  0  0
  145.3989  133.9813  153.6842 H   0  0  0  0  0  0  0  0  0  0  0  0
  146.2914  135.4833  153.7718 H   0  0  0  0  0  0  0  0  0  0  0  0
  144.3225  135.7228  152.2778 H   0  0  0  0  0  0  0  0  0  0  0  0
  145.8165  135.9966  151.4138 H   0  0  0  0  0  0  0  0  0  0  0  0
  144.1606  133.4251  151.3886 H   0  0  0  0  0  0  0  0  0  0  0  0
  144.3512  134.5446  150.0566 H   0  0  0  0  0  0  0  0  0  0  0  0
  145.8572  132.5432  149.8291 H   0  0  0  0  0  0  0  0  0  0  0  0
  146.7614  134.0371  149.9015 H   0  0  0  0  0  0  0  0  0  0  0  0
  147.8178  132.3620  151.3572 H   0  0  0  0  0  0  0  0  0  0  0  0
  146.3206  132.0880  152.2270 H   0  0  0  0  0  0  0  0  0  0  0  0
  147.7913  134.6111  152.1115 H   0  0  0  0  0  0  0  0  0  0  0  0
  1  2  1  0  0  0  0
  1 19  1  0  0  0  0
  1 20  1  0  0  0  0
  1 21  1  0  0  0  0
  2 18  1  0  0  0  0
  2  3  2  0  0  0  0
  3  4  1  0  0  0  0
  3 22  1  0  0  0  0
  4  5  1  0  0  0  0
  4 17  2  0  0  0  0
  5  6  1  0  0  0  0
  6  7  2  0  0  0  0
  6  8  1  0  0  0  0
  8  9  1  0  0  0  0
  8 23  1  0  0  0  0
  9 10  1  0  0  0  0
  9 24  1  0  0  0  0
  9 25  1  0  0  0  0
 10 11  1  0  0  0  0
 10 26  1  0  0  0  0
 10 27  1  0  0  0  0
 11 16  1  0  0  0  0
 11 12  1  0  0  0  0
 11 38  1  0  0  0  0
 12 13  1  0  0  0  0
 12 28  1  0  0  0  0
 12 29  1  0  0  0  0
 13 14  1  0  0  0  0
 13 30  1  0  0  0  0
 13 31  1  0  0  0  0
 14 15  1  0  0  0  0
 14 32  1  0  0  0  0
 14 33  1  0  0  0  0
 15 16  1  0  0  0  0
 15 34  1  0  0  0  0
 15 35  1  0  0  0  0
 16 36  1  0  0  0  0
 16 37  1  0  0  0  0
 17 18  1  0  0  0  0
M  CHG  1   5  -1
M  CHG  1  11   1
M  END
> <s_m_source_file>
AV-unprocessed.smi

> <i_m_source_file_index>
2045

> <i_lp_mmshare_version>
43012

> <i_f3d_flags>
0

> <s_epik_input>
W0NIM11jMVtjSF1jKG5vMSlbTkhdQyg9TylbTkhdW0NIMl1bQ0gyXU4yW0NIMl1bQ0gyXVtDSDJdW0NIMl1bQ0gyXTI=

> <s_epik_cmdline>
J2VwaWtfcHl0aG9uJywgJy1waCcsICc3LjAnLCAnLXRuJywgJzgnLCAnLW1hJywgJzIwMCcsICctbWV0YWxfYmluZGluZycsICctaW1hZScsICc8aW5maWxlLm1hZT4nLCAnLW9tYWUnLCAnPG91dGZpbGUubWFlPic=

> <r_epik_Ionization_Penalty>
6.22371

> <r_epik_Ionization_Penalty_Charging>
6.22362

> <r_epik_Ionization_Penalty_Neutral>
9.36972e-05

> <r_epik_State_Penalty>
6.22363

> <r_epik_Charging_Adjusted_Penalty>
12.4472

> <i_epik_Tot_Q>
0

> <i_epik_Tot_abs_Q>
2

> <r_epik_Metal_State_Penalty>
2.16675

> <b_epik_Metal_Only>
1

> <s_lp_Force_Field>
OPLS_2005

> <r_lp_Energy>
2.90895

> <b_lp_Chiralities_Consistent>
1

> <s_lp_Variant>
AV-unprocessed.smi:2045-2

> <Gold.Version>
5.8.1

> <Gold.Id.Protein>
6NUR|6NUR_protein|mol2

> <Gold.PLP.Fitness>
46.9315

> <Gold.PLP.PLP>
-30.7980

> <Gold.PLP.part.hbond>
-5.4219

> <Gold.PLP.part.metal>
0.0000

> <Gold.PLP.part.buried>
-4.2637

> <Gold.PLP.part.nonpolar>
-21.0536

> <Gold.PLP.part.repulsive>
0.2435

> <Gold.PLP.ligand.clash>
0.0000

> <Gold.PLP.ligand.torsion>
0.9694

> <Gold.PLP.Chemscore.Hbond>
6.0000

> <Gold.PLP.Chemscore.CHOScore>
0.0000

> <Gold.PLP.Chemscore.Metal>
0.0000

> <Gold.Chemscore.Hbonds>
donor molecule, donor type, donor heavy atom, donor atom, acceptor molecule, acceptor atom, score
      L1  H     8    23       P1  7948  0.90
      L1  H    11    38       P1  7948  2.00
      P1  H  7997  8009       L1    18  1.00
      P1  H 10752 10763       L1     5  1.50

> <Gold.PLP.Chemscore.Internal.Correction>
0.0724

> <Gold.Rescore>
     Score         DG    S(hbond)    S(metal)    S(lipo)     H(rot)  DE(clash)    DE(int)     intcor
     17.00     -17.96       3.19        0.00      49.59       1.55       0.01       0.96       ----

> <Gold.Chemscore.Fitness>
16.9983

> <Gold.Chemscore.DG>
-17.9616

> <Gold.Chemscore.ZeroCoef>
-5.4800

> <Gold.Chemscore.Hbond>
3.1914

> <Gold.Chemscore.Metal>
0.0000

> <Gold.Chemscore.Lipo>
49.5877

> <Gold.Chemscore.Internal_Hbond>
0.0000

> <Gold.Chemscore.DEClash>
0.0075

> <Gold.Chemscore.DEInternal>
0.9559

> <Gold.Chemscore.Rot>
1.5544

> <Gold.Chemscore.Internal.Correction>
   9.000000E+99

> <Gold.Chemscore.Hbonds>
donor molecule, donor type, donor heavy atom, donor atom, acceptor molecule, acceptor atom, score
      L1  H     8    23       P1  7948  0.18
      L1  H    11    38       P1  7948  0.44
      P1  H  7997  8009       L1    18  0.88
      P1  H 10752 10763       L1     5  0.52

> <Gold.Chemscore.Hbond.Weighted>
-10.6592

> <Gold.Chemscore.Metal.Weighted>
-0.0000

> <Gold.Chemscore.Lipo.Weighted>
-5.8018

> <Gold.Chemscore.Internal_Hbond.Weighted>
0.0000

> <Gold.Chemscore.DEClash.Weighted>
0.0075

> <Gold.Chemscore.DEInternal.Weighted>
0.9559

> <Gold.Chemscore.Rot.Weighted>
3.9794

> <Gold.Chemscore.Internal.Correction.Weighted>
   9.000000E+99

> <Gold.Protein.RotatedTorsions>
[ 6907 6896 6895 6894 ] final  -26.34 input  -60.11 | X-H torsion
[ 7974 7965 7964 7962 ] final   -2.40 input  175.53 | X-H torsion
[ 8008 7997 7996 7995 ] final -132.24 input   59.86 | X-H torsion
[ 10167 10162 10161 10158 ] final    3.65 input  -65.29 | X-H torsion
[ 10718 10713 10712 10709 ] final  -87.87 input   66.30 | X-H torsion
[ 10763 10752 10751 10750 ] final   48.82 input  -60.55 | X-H torsion
[ 11005 11000 10999 10996 ] final  119.12 input  -57.11 | X-H torsion

> <Gold.Protein.ActiveResidues>
 VAL166  LYS551  ARG553  GLY616  TRP617  ASP618  TYR619  PRO620  LYS621  CYS622 
 ASP623  PHE694  ASN695  SER759  ASP760  ASP761  ALA762  ILE779  LEU786  VAL792 
 PHE793  MET794  SER795  GLU796  ALA797  LYS798  CYS799  TRP800  GLU811  SER814 

> <Gold.Protein.RotatedAtoms>
  151.1624  135.0279  159.8715 H   0  0  0  0  0  0  0  0  0  0  0  0  # atno 6907 bound_to 6896
  152.5451  134.1264  159.8431 H   0  0  0  0  0  0  0  0  0  0  0  0  # atno 6908 bound_to 6896
  151.1361  133.4957  159.2630 H   0  0  0  0  0  0  0  0  0  0  0  0  # atno 6909 bound_to 6896
  146.2405  140.1566  142.8333 H   0  0  0  0  0  0  0  0  0  0  0  0  # atno 7974 bound_to 7965
  155.3257  140.0464  157.3041 H   0  0  0  0  0  0  0  0  0  0  0  0  # atno 8008 bound_to 7997
  154.5356  140.2271  155.8695 H   0  0  0  0  0  0  0  0  0  0  0  0  # atno 8009 bound_to 7997
  156.1831  140.3069  155.9193 H   0  0  0  0  0  0  0  0  0  0  0  0  # atno 8010 bound_to 7997
  140.6575  143.7390  150.7679 H   0  0  0  0  0  0  0  0  0  0  0  0  # atno 10167 bound_to 10162
  155.9984  130.4815  150.4933 H   0  0  0  0  0  0  0  0  0  0  0  0  # atno 10718 bound_to 10713
  152.9790  135.5932  154.3988 H   0  0  0  0  0  0  0  0  0  0  0  0  # atno 10763 bound_to 10752
  154.3636  135.2767  155.2308 H   0  0  0  0  0  0  0  0  0  0  0  0  # atno 10764 bound_to 10752
  154.4294  135.6040  153.6114 H   0  0  0  0  0  0  0  0  0  0  0  0  # atno 10765 bound_to 10752
  139.9134  134.9626  156.7607 H   0  0  0  0  0  0  0  0  0  0  0  0  # atno 11005 bound_to 11000
  145.0124  140.8725  143.5216 LP  0  0  0  0  0  0  0  0  0  0  0  0  # atno 17320 bound_to 7965
  145.1601  139.2463  143.5396 LP  0  0  0  0  0  0  0  0  0  0  0  0  # atno 17321 bound_to 7965
  140.1053  143.4750  152.2402 LP  0  0  0  0  0  0  0  0  0  0  0  0  # atno 17342 bound_to 10162
  139.5800  144.7506  151.3664 LP  0  0  0  0  0  0  0  0  0  0  0  0  # atno 17343 bound_to 10162
  157.2926  131.0629  151.2123 LP  0  0  0  0  0  0  0  0  0  0  0  0  # atno 17370 bound_to 10713
  157.3131  130.6899  149.6227 LP  0  0  0  0  0  0  0  0  0  0  0  0  # atno 17371 bound_to 10713
  140.6700  133.9568  155.7851 LP  0  0  0  0  0  0  0  0  0  0  0  0  # atno 17394 bound_to 11000
  141.0584  134.0382  157.3691 LP  0  0  0  0  0  0  0  0  0  0  0  0  # atno 17395 bound_to 11000

$$$$
