AV-unprocessed.smi:54|AV-procd|sdf|532|dock1
  -GOLD-   2262016413D 1   1.00000     0.00000
 Structure written by MMmdl.
 44 46  0  0  0  0  0  0  0  0  1 V2000
  148.5073  134.1680  153.8131 C   0  0  0  0  0  0  0  0  0  0  0  0
  150.0349  134.0611  153.9436 C   0  0  0  0  0  0  0  0  0  0  0  0
  150.4471  132.7295  154.5927 C   0  0  0  0  0  0  0  0  0  0  0  0
  150.5930  135.2468  154.7388 C   0  0  0  0  0  0  0  0  0  0  0  0
  151.3778  135.0932  155.6755 O   0  0  0  0  0  0  0  0  0  0  0  0
  150.1283  136.5554  154.3139 N   0  0  0  0  0  0  0  0  0  0  0  0
  150.4743  137.7571  154.8310 C   0  0  0  0  0  0  0  0  0  0  0  0
  149.8007  138.8723  154.5869 N   0  0  0  0  0  0  0  0  0  0  0  0
  150.2969  139.9840  155.2086 C   0  0  0  0  0  0  0  0  0  0  0  0
  151.3957  140.0402  156.0400 C   0  0  0  0  0  0  0  0  0  0  0  0
  151.5959  141.3428  156.4825 N   0  0  0  0  0  0  0  0  0  0  0  0
  150.6342  142.0195  155.9187 C   0  0  0  0  0  0  0  0  0  0  0  0
  149.8033  141.2681  155.1204 N   0  0  0  0  0  0  0  0  0  0  0  0
  148.6079  141.6956  154.3238 C   0  0  1  0  0  0  0  0  0  0  0  0
  148.3343  140.6805  153.4040 O   0  0  0  0  0  0  0  0  0  0  0  0
  147.0209  140.1546  153.5946 C   0  0  1  0  0  0  0  0  0  0  0  0
  146.9710  138.6550  153.2528 C   0  0  0  0  0  0  0  0  0  0  0  0
  147.3733  138.4496  151.9157 O   0  0  0  0  0  0  0  0  0  0  0  0
  146.6534  140.5191  155.0403 C   0  0  1  0  0  0  0  0  0  0  0  0
  147.1119  139.5409  155.9594 O   0  0  0  0  0  0  0  0  0  0  0  0
  147.3574  141.8581  155.2077 C   0  0  1  0  0  0  0  0  0  0  0  0
  147.6020  142.1954  156.5625 O   0  0  0  0  0  0  0  0  0  0  0  0
  152.1312  138.8410  156.3197 C   0  0  0  0  0  0  0  0  0  0  0  0
  153.1235  138.7044  157.0319 O   0  0  0  0  0  0  0  0  0  0  0  0
  151.5923  137.7259  155.6647 N   0  0  0  0  0  0  0  0  0  0  0  0
  148.9185  142.6145  153.8253 H   0  0  0  0  0  0  0  0  0  0  0  0
  146.3480  140.7078  152.9366 H   0  0  0  0  0  0  0  0  0  0  0  0
  145.5744  140.6156  155.1658 H   0  0  0  0  0  0  0  0  0  0  0  0
  146.7427  142.6386  154.7572 H   0  0  0  0  0  0  0  0  0  0  0  0
  148.2132  135.1120  153.3526 H   0  0  0  0  0  0  0  0  0  0  0  0
  148.0160  134.1041  154.7851 H   0  0  0  0  0  0  0  0  0  0  0  0
  148.1127  133.3644  153.1907 H   0  0  0  0  0  0  0  0  0  0  0  0
  150.4633  134.0925  152.9408 H   0  0  0  0  0  0  0  0  0  0  0  0
  151.5302  132.6588  154.7016 H   0  0  0  0  0  0  0  0  0  0  0  0
  150.1243  131.8838  153.9851 H   0  0  0  0  0  0  0  0  0  0  0  0
  150.0048  132.6118  155.5827 H   0  0  0  0  0  0  0  0  0  0  0  0
  149.4548  136.5619  153.5624 H   0  0  0  0  0  0  0  0  0  0  0  0
  150.5095  143.0813  156.0710 H   0  0  0  0  0  0  0  0  0  0  0  0
  147.5956  138.0713  153.9294 H   0  0  0  0  0  0  0  0  0  0  0  0
  145.9506  138.2816  153.3460 H   0  0  0  0  0  0  0  0  0  0  0  0
  148.0401  139.0842  151.7019 H   0  0  0  0  0  0  0  0  0  0  0  0
  147.7160  139.9546  156.5573 H   0  0  0  0  0  0  0  0  0  0  0  0
  148.0278  143.0392  156.5839 H   0  0  0  0  0  0  0  0  0  0  0  0
  152.0604  136.8447  155.8162 H   0  0  0  0  0  0  0  0  0  0  0  0
  1  2  1  0  0  0  0
  1 30  1  0  0  0  0
  1 31  1  0  0  0  0
  1 32  1  0  0  0  0
  2  3  1  0  0  0  0
  2  4  1  0  0  0  0
  2 33  1  0  0  0  0
  3 34  1  0  0  0  0
  3 35  1  0  0  0  0
  3 36  1  0  0  0  0
  4  5  2  0  0  0  0
  4  6  1  0  0  0  0
  6 37  1  0  0  0  0
  6  7  1  0  0  0  0
  7 25  1  0  0  0  0
  7  8  2  0  0  0  0
  8  9  1  0  0  0  0
  9 13  1  0  0  0  0
  9 10  2  0  0  0  0
 10 11  1  0  0  0  0
 10 23  1  0  0  0  0
 11 12  2  0  0  0  0
 12 13  1  0  0  0  0
 12 38  1  0  0  0  0
 13 14  1  0  0  0  0
 14 26  1  0  0  0  0
 14 21  1  0  0  0  0
 14 15  1  0  0  0  0
 15 16  1  0  0  0  0
 16 27  1  0  0  0  0
 16 17  1  0  0  0  0
 16 19  1  0  0  0  0
 17 18  1  0  0  0  0
 17 39  1  0  0  0  0
 17 40  1  0  0  0  0
 18 41  1  0  0  0  0
 19 28  1  0  0  0  0
 19 20  1  0  0  0  0
 19 21  1  0  0  0  0
 20 42  1  0  0  0  0
 21 29  1  0  0  0  0
 21 22  1  0  0  0  0
 22 43  1  0  0  0  0
 23 24  2  0  0  0  0
 23 25  1  0  0  0  0
 25 44  1  0  0  0  0
M  END
> <s_m_source_file>
AV-unprocessed.smi

> <i_m_source_file_index>
54

> <i_lp_mmshare_version>
43012

> <i_f3d_flags>
0

> <s_epik_input>
W0NIM11bQ0hdKFtDSDNdKUMoPU8pW05IXWMobjEpW25IXWMoPU8pYyhjMTIpbltjSF1uMltDQEBIXTNPW0NASF0oW0NIMl1bT0hdKVtDQEBIXShbT0hdKVtDQEhdM1tPSF0=

> <s_epik_cmdline>
J2VwaWtfcHl0aG9uJywgJy1waCcsICc3LjAnLCAnLXRuJywgJzgnLCAnLW1hJywgJzIwMCcsICctbWV0YWxfYmluZGluZycsICctaW1hZScsICc8aW5maWxlLm1hZT4nLCAnLW9tYWUnLCAnPG91dGZpbGUubWFlPic=

> <r_lp_tautomer_probability>
0.85571

> <r_epik_Ionization_Penalty>
0.0316551

> <r_epik_Ionization_Penalty_Charging>
0.0316043

> <r_epik_Ionization_Penalty_Neutral>
5.07097e-05

> <r_epik_State_Penalty>
3.15494e-07

> <r_epik_Charging_Adjusted_Penalty>
0.0316047

> <i_epik_Tot_Q>
0

> <i_epik_Tot_abs_Q>
0

> <r_epik_Metal_State_Penalty>
0.421206

> <b_epik_Metal_Only>
0

> <s_epik_Chemistry_Notes>
This compound contains an acetal/aminal-like group ( X-CH(R)-Y where X, Y are N, S, or O) that may be acid/base labile, releasing an aldehyde.

> <s_lp_Force_Field>
OPLS_2005

> <r_lp_Energy>
45.6479

> <b_lp_Chiralities_Consistent>
1

> <s_lp_Variant>
AV-unprocessed.smi:54-4

> <Gold.Version>
5.8.1

> <Gold.Id.Protein>
6NUR|6NUR_protein|mol2

> <Gold.PLP.Fitness>
49.0746

> <Gold.PLP.PLP>
-32.2409

> <Gold.PLP.part.hbond>
-6.3238

> <Gold.PLP.part.metal>
0.0000

> <Gold.PLP.part.buried>
-1.1039

> <Gold.PLP.part.nonpolar>
-25.2442

> <Gold.PLP.part.repulsive>
3.2219

> <Gold.PLP.ligand.clash>
0.0000

> <Gold.PLP.ligand.torsion>
0.7074

> <Gold.PLP.Chemscore.Hbond>
4.9345

> <Gold.PLP.Chemscore.CHOScore>
1.0000

> <Gold.PLP.Chemscore.Metal>
0.0000

> <Gold.Chemscore.Hbonds>
donor molecule, donor type, donor heavy atom, donor atom, acceptor molecule, acceptor atom, score
      L1  H     6    37       P1  7948  1.00
      L1  H    18    41       P1  7957  1.00
      L1  H    22    43       P1  8028  0.88
      P1  H  7997  8009       L1    24  1.00
      P1  H 10752 10764       L1     5  0.91
      L1  C    12    38       P1  8028  1.00

> <Gold.PLP.Chemscore.Internal.Correction>
0.4449

> <Gold.Rescore>
     Score         DG    S(hbond)    S(metal)    S(lipo)     H(rot)  DE(clash)    DE(int)     intcor
      6.95     -11.32       3.34        0.00      43.24       4.05       1.97       2.41       ----

> <Gold.Chemscore.Fitness>
6.9465

> <Gold.Chemscore.DG>
-11.3247

> <Gold.Chemscore.ZeroCoef>
-5.4800

> <Gold.Chemscore.Hbond>
3.3390

> <Gold.Chemscore.Metal>
0.0000

> <Gold.Chemscore.Lipo>
43.2368

> <Gold.Chemscore.Internal_Hbond>
0.0000

> <Gold.Chemscore.DEClash>
1.9703

> <Gold.Chemscore.DEInternal>
2.4079

> <Gold.Chemscore.Rot>
4.0493

> <Gold.Chemscore.Internal.Correction>
   9.000000E+99

> <Gold.Chemscore.Hbonds>
donor molecule, donor type, donor heavy atom, donor atom, acceptor molecule, acceptor atom, score
      L1  H     6    37       P1  7948  0.78
      L1  H    18    41       P1  7957  0.94
      L1  H    22    43       P1  8028  0.25
      P1  H  7997  8009       L1    24  0.59
      P1  H 10752 10764       L1     5  0.54

> <Gold.Chemscore.Hbond.Weighted>
-11.1523

> <Gold.Chemscore.Metal.Weighted>
-0.0000

> <Gold.Chemscore.Lipo.Weighted>
-5.0587

> <Gold.Chemscore.Internal_Hbond.Weighted>
0.0000

> <Gold.Chemscore.DEClash.Weighted>
1.9703

> <Gold.Chemscore.DEInternal.Weighted>
2.4079

> <Gold.Chemscore.Rot.Weighted>
10.3662

> <Gold.Chemscore.Internal.Correction.Weighted>
   9.000000E+99

> <Gold.Protein.RotatedTorsions>
[ 6907 6896 6895 6894 ] final  -17.74 input  -60.11 | X-H torsion
[ 7974 7965 7964 7962 ] final  -20.95 input  175.53 | X-H torsion
[ 8008 7997 7996 7995 ] final -173.57 input   59.86 | X-H torsion
[ 10167 10162 10161 10158 ] final -121.25 input  -65.29 | X-H torsion
[ 10718 10713 10712 10709 ] final   45.90 input   66.30 | X-H torsion
[ 10763 10752 10751 10750 ] final  -31.92 input  -60.55 | X-H torsion
[ 11005 11000 10999 10996 ] final  -93.45 input  -57.11 | X-H torsion

> <Gold.Protein.ActiveResidues>
 VAL166  LYS551  ARG553  GLY616  TRP617  ASP618  TYR619  PRO620  LYS621  CYS622 
 ASP623  PHE694  ASN695  SER759  ASP760  ASP761  ALA762  ILE779  LEU786  VAL792 
 PHE793  MET794  SER795  GLU796  ALA797  LYS798  CYS799  TRP800  GLU811  SER814 

> <Gold.Protein.RotatedAtoms>
  151.2888  135.0736  159.9196 H   0  0  0  0  0  0  0  0  0  0  0  0  # atno 6907 bound_to 6896
  152.5320  133.9954  159.7880 H   0  0  0  0  0  0  0  0  0  0  0  0  # atno 6908 bound_to 6896
  151.0220  133.5817  159.2701 H   0  0  0  0  0  0  0  0  0  0  0  0  # atno 6909 bound_to 6896
  146.1760  140.4274  142.8513 H   0  0  0  0  0  0  0  0  0  0  0  0  # atno 7974 bound_to 7965
  155.9591  140.1141  157.0911 H   0  0  0  0  0  0  0  0  0  0  0  0  # atno 8008 bound_to 7997
  154.4127  140.1185  156.5222 H   0  0  0  0  0  0  0  0  0  0  0  0  # atno 8009 bound_to 7997
  155.6743  140.3473  155.4833 H   0  0  0  0  0  0  0  0  0  0  0  0  # atno 8010 bound_to 7997
  140.0271  143.5286  152.2194 H   0  0  0  0  0  0  0  0  0  0  0  0  # atno 10167 bound_to 10162
  157.4424  130.8089  149.7707 H   0  0  0  0  0  0  0  0  0  0  0  0  # atno 10718 bound_to 10713
  153.8053  135.6887  153.4849 H   0  0  0  0  0  0  0  0  0  0  0  0  # atno 10763 bound_to 10752
  153.1662  135.4560  154.9839 H   0  0  0  0  0  0  0  0  0  0  0  0  # atno 10764 bound_to 10752
  154.7990  135.3330  154.7538 H   0  0  0  0  0  0  0  0  0  0  0  0  # atno 10765 bound_to 10752
  141.1497  133.7889  157.0161 H   0  0  0  0  0  0  0  0  0  0  0  0  # atno 11005 bound_to 11000
  144.8236  140.6592  143.6336 LP  0  0  0  0  0  0  0  0  0  0  0  0  # atno 17320 bound_to 7965
  145.4211  139.1564  143.4073 LP  0  0  0  0  0  0  0  0  0  0  0  0  # atno 17321 bound_to 7965
  139.6101  144.7606  151.2972 LP  0  0  0  0  0  0  0  0  0  0  0  0  # atno 17342 bound_to 10162
  140.7318  143.6842  150.7976 LP  0  0  0  0  0  0  0  0  0  0  0  0  # atno 17343 bound_to 10162
  155.9954  130.3912  150.2821 LP  0  0  0  0  0  0  0  0  0  0  0  0  # atno 17370 bound_to 10713
  157.0986  131.0189  151.3094 LP  0  0  0  0  0  0  0  0  0  0  0  0  # atno 17371 bound_to 10713
  140.0846  134.9628  157.1679 LP  0  0  0  0  0  0  0  0  0  0  0  0  # atno 17394 bound_to 11000
  140.3530  134.2578  155.7196 LP  0  0  0  0  0  0  0  0  0  0  0  0  # atno 17395 bound_to 11000

$$$$
