AV-unprocessed.smi:1834|AV-procd|sdf|7470|dock5
  -GOLD-   22720 9163D 1   1.00000     0.00000
 Structure written by MMmdl.
 46 47  0  0  0  0  0  0  0  0  2 V2000
  147.0313  138.4197  153.2140 C   0  0  0  0  0  0  0  0  0  0  0  0
  145.9596  137.6055  152.4746 C   0  0  0  0  0  0  0  0  0  0  0  0
  146.1960  136.1410  152.5475 N   0  3  2  0  0  0  0  0  0  0  0  0
  145.1338  135.3730  151.8465 C   0  0  0  0  0  0  0  0  0  0  0  0
  145.4450  133.8677  151.8271 C   0  0  0  0  0  0  0  0  0  0  0  0
  145.6826  133.3315  153.2467 C   0  0  0  0  0  0  0  0  0  0  0  0
  146.7624  134.1503  153.9785 C   0  0  1  0  0  0  0  0  0  0  0  0
  148.1841  133.8305  153.4566 C   0  0  0  0  0  0  0  0  0  0  0  0
  148.4644  132.3976  153.4358 N   0  0  0  0  0  0  0  0  0  0  0  0
  148.3326  131.5693  154.4822 C   0  0  0  0  0  0  0  0  0  0  0  0
  147.9704  131.9434  155.5976 O   0  0  0  0  0  0  0  0  0  0  0  0
  148.6283  130.3035  154.1414 N   0  0  0  0  0  0  0  0  0  0  0  0
  148.5336  129.1770  154.8968 C   0  0  0  0  0  0  0  0  0  0  0  0
  148.3870  129.0617  156.2524 C   0  0  0  0  0  0  0  0  0  0  0  0
  148.3497  127.6499  156.4451 C   0  0  0  0  0  0  0  0  0  0  0  0
  148.2041  126.8961  157.7341 C   0  0  0  0  0  0  0  0  0  0  0  0
  148.4642  126.9746  155.3073 N   0  0  0  0  0  0  0  0  0  0  0  0
  148.5765  127.9151  154.3450 N   0  0  0  0  0  0  0  0  0  0  0  0
  148.7232  127.5087  152.9606 C   0  0  0  0  0  0  0  0  0  0  0  0
  146.3891  135.6513  153.9395 C   0  0  0  0  0  0  0  0  0  0  0  0
  146.8448  139.4876  153.0998 H   0  0  0  0  0  0  0  0  0  0  0  0
  148.0246  138.2177  152.8131 H   0  0  0  0  0  0  0  0  0  0  0  0
  147.0495  138.2083  154.2829 H   0  0  0  0  0  0  0  0  0  0  0  0
  144.9653  137.8422  152.8565 H   0  0  0  0  0  0  0  0  0  0  0  0
  145.9703  137.9211  151.4305 H   0  0  0  0  0  0  0  0  0  0  0  0
  144.1749  135.5505  152.3360 H   0  0  0  0  0  0  0  0  0  0  0  0
  145.0356  135.7287  150.8201 H   0  0  0  0  0  0  0  0  0  0  0  0
  144.6203  133.3267  151.3620 H   0  0  0  0  0  0  0  0  0  0  0  0
  146.3192  133.6806  151.2031 H   0  0  0  0  0  0  0  0  0  0  0  0
  144.7488  133.3850  153.8082 H   0  0  0  0  0  0  0  0  0  0  0  0
  145.9565  132.2764  153.2128 H   0  0  0  0  0  0  0  0  0  0  0  0
  146.7424  133.8423  155.0251 H   0  0  0  0  0  0  0  0  0  0  0  0
  148.2841  134.1930  152.4330 H   0  0  0  0  0  0  0  0  0  0  0  0
  148.9415  134.3619  154.0340 H   0  0  0  0  0  0  0  0  0  0  0  0
  148.7741  132.0083  152.5567 H   0  0  0  0  0  0  0  0  0  0  0  0
  148.9222  130.1560  153.1871 H   0  0  0  0  0  0  0  0  0  0  0  0
  148.3182  129.8388  156.9985 H   0  0  0  0  0  0  0  0  0  0  0  0
  148.0150  127.5726  158.5677 H   0  0  0  0  0  0  0  0  0  0  0  0
  149.1089  126.3325  157.9629 H   0  0  0  0  0  0  0  0  0  0  0  0
  147.3744  126.1903  157.6859 H   0  0  0  0  0  0  0  0  0  0  0  0
  148.3674  128.2950  152.2948 H   0  0  0  0  0  0  0  0  0  0  0  0
  148.1433  126.6046  152.7719 H   0  0  0  0  0  0  0  0  0  0  0  0
  149.7738  127.3095  152.7484 H   0  0  0  0  0  0  0  0  0  0  0  0
  147.1444  136.2404  154.4565 H   0  0  0  0  0  0  0  0  0  0  0  0
  145.4631  135.8075  154.4955 H   0  0  0  0  0  0  0  0  0  0  0  0
  147.0558  135.9630  152.0475 H   0  0  0  0  0  0  0  0  0  0  0  0
  1  2  1  0  0  0  0
  1 21  1  0  0  0  0
  1 22  1  0  0  0  0
  1 23  1  0  0  0  0
  2  3  1  0  0  0  0
  2 24  1  0  0  0  0
  2 25  1  0  0  0  0
  3 20  1  0  0  0  0
  3  4  1  0  0  0  0
  3 46  1  0  0  0  0
  4  5  1  0  0  0  0
  4 26  1  0  0  0  0
  4 27  1  0  0  0  0
  5  6  1  0  0  0  0
  5 28  1  0  0  0  0
  5 29  1  0  0  0  0
  6  7  1  0  0  0  0
  6 30  1  0  0  0  0
  6 31  1  0  0  0  0
  7  8  1  0  0  0  0
  7 20  1  0  0  0  0
  7 32  1  0  0  0  0
  8  9  1  0  0  0  0
  8 33  1  0  0  0  0
  8 34  1  0  0  0  0
  9 10  1  0  0  0  0
  9 35  1  0  0  0  0
 10 11  2  0  0  0  0
 10 12  1  0  0  0  0
 12 13  1  0  0  0  0
 12 36  1  0  0  0  0
 13 18  1  0  0  0  0
 13 14  2  0  0  0  0
 14 15  1  0  0  0  0
 14 37  1  0  0  0  0
 15 16  1  0  0  0  0
 15 17  2  0  0  0  0
 16 38  1  0  0  0  0
 16 39  1  0  0  0  0
 16 40  1  0  0  0  0
 17 18  1  0  0  0  0
 18 19  1  0  0  0  0
 19 41  1  0  0  0  0
 19 42  1  0  0  0  0
 19 43  1  0  0  0  0
 20 44  1  0  0  0  0
 20 45  1  0  0  0  0
M  CHG  1   3   1
M  END
> <s_m_source_file>
AV-unprocessed.smi

> <i_m_source_file_index>
1834

> <i_lp_mmshare_version>
43012

> <i_f3d_flags>
0

> <s_epik_input>
W0NIM11bQ0gyXU4xW0NIMl1bQ0gyXVtDSDJdW0NASF0oW0NIMl0xKVtDSDJdW05IXUMoPU8pW05IXWMyW2NIXWMoW0NIM10pbm4yW0NIM10=

> <s_epik_cmdline>
J2VwaWtfcHl0aG9uJywgJy1waCcsICc3LjAnLCAnLXRuJywgJzgnLCAnLW1hJywgJzIwMCcsICctbWV0YWxfYmluZGluZycsICctaW1hZScsICc8aW5maWxlLm1hZT4nLCAnLW9tYWUnLCAnPG91dGZpbGUubWFlPic=

> <r_lp_tautomer_probability>
1

> <r_epik_Ionization_Penalty>
0.000466842

> <r_epik_Ionization_Penalty_Charging>
0.000378984

> <r_epik_Ionization_Penalty_Neutral>
8.78572e-05

> <r_epik_State_Penalty>
0.000231434

> <r_epik_Charging_Adjusted_Penalty>
0.000610418

> <i_epik_Tot_Q>
1

> <i_epik_Tot_abs_Q>
1

> <r_epik_Metal_State_Penalty>
-0

> <b_epik_Metal_Only>
0

> <s_lp_Force_Field>
OPLS_2005

> <r_lp_Energy>
21.1664

> <b_lp_Chiralities_Consistent>
1

> <s_lp_Variant>
AV-unprocessed.smi:1834-2

> <Gold.Version>
5.8.1

> <Gold.Id.Protein>
6NUR|6NUR_protein|mol2

> <Gold.PLP.Fitness>
42.0006

> <Gold.PLP.PLP>
-30.1854

> <Gold.PLP.part.hbond>
-3.6842

> <Gold.PLP.part.metal>
0.0000

> <Gold.PLP.part.buried>
-3.4460

> <Gold.PLP.part.nonpolar>
-23.5717

> <Gold.PLP.part.repulsive>
0.1495

> <Gold.PLP.ligand.clash>
0.0000

> <Gold.PLP.ligand.torsion>
0.1087

> <Gold.PLP.Chemscore.Hbond>
4.0000

> <Gold.PLP.Chemscore.CHOScore>
0.0000

> <Gold.PLP.Chemscore.Metal>
0.0000

> <Gold.Chemscore.Hbonds>
donor molecule, donor type, donor heavy atom, donor atom, acceptor molecule, acceptor atom, score
      L1  H     3    46       P1  7948  2.00

> <Gold.PLP.Chemscore.Internal.Correction>
0.0325

> <Gold.Rescore>
     Score         DG    S(hbond)    S(metal)    S(lipo)     H(rot)  DE(clash)    DE(int)     intcor
     15.10     -16.86       2.78        0.00      49.13       1.43       0.44       1.33       ----

> <Gold.Chemscore.Fitness>
15.0971

> <Gold.Chemscore.DG>
-16.8624

> <Gold.Chemscore.ZeroCoef>
-5.4800

> <Gold.Chemscore.Hbond>
2.7822

> <Gold.Chemscore.Metal>
0.0000

> <Gold.Chemscore.Lipo>
49.1298

> <Gold.Chemscore.Internal_Hbond>
0.0000

> <Gold.Chemscore.DEClash>
0.4386

> <Gold.Chemscore.DEInternal>
1.3267

> <Gold.Chemscore.Rot>
1.4291

> <Gold.Chemscore.Internal.Correction>
   9.000000E+99

> <Gold.Chemscore.Hbonds>
donor molecule, donor type, donor heavy atom, donor atom, acceptor molecule, acceptor atom, score
      L1  H     3    46       P1  7948  0.95

> <Gold.Chemscore.Hbond.Weighted>
-9.2926

> <Gold.Chemscore.Metal.Weighted>
-0.0000

> <Gold.Chemscore.Lipo.Weighted>
-5.7482

> <Gold.Chemscore.Internal_Hbond.Weighted>
0.0000

> <Gold.Chemscore.DEClash.Weighted>
0.4386

> <Gold.Chemscore.DEInternal.Weighted>
1.3267

> <Gold.Chemscore.Rot.Weighted>
3.6584

> <Gold.Chemscore.Internal.Correction.Weighted>
   9.000000E+99

> <Gold.Protein.RotatedTorsions>
[ 6907 6896 6895 6894 ] final -165.29 input  -60.11 | X-H torsion
[ 7974 7965 7964 7962 ] final  138.67 input  175.53 | X-H torsion
[ 8008 7997 7996 7995 ] final -176.39 input   59.86 | X-H torsion
[ 10167 10162 10161 10158 ] final  -53.06 input  -65.29 | X-H torsion
[ 10718 10713 10712 10709 ] final    3.29 input   66.30 | X-H torsion
[ 10763 10752 10751 10750 ] final  119.03 input  -60.55 | X-H torsion
[ 11005 11000 10999 10996 ] final -105.29 input  -57.11 | X-H torsion

> <Gold.Protein.ActiveResidues>
 VAL166  LYS551  ARG553  GLY616  TRP617  ASP618  TYR619  PRO620  LYS621  CYS622 
 ASP623  PHE694  ASN695  SER759  ASP760  ASP761  ALA762  ILE779  LEU786  VAL792 
 PHE793  MET794  SER795  GLU796  ALA797  LYS798  CYS799  TRP800  GLU811  SER814 

> <Gold.Protein.RotatedAtoms>
  151.4254  133.3686  159.2761 H   0  0  0  0  0  0  0  0  0  0  0  0  # atno 6907 bound_to 6896
  150.9263  134.8681  159.7533 H   0  0  0  0  0  0  0  0  0  0  0  0  # atno 6908 bound_to 6896
  152.5007  134.4195  159.9528 H   0  0  0  0  0  0  0  0  0  0  0  0  # atno 6909 bound_to 6896
  144.9350  139.5000  143.5599 H   0  0  0  0  0  0  0  0  0  0  0  0  # atno 7974 bound_to 7965
  155.9942  140.1207  157.0609 H   0  0  0  0  0  0  0  0  0  0  0  0  # atno 8008 bound_to 7997
  154.4221  140.1119  156.5676 H   0  0  0  0  0  0  0  0  0  0  0  0  # atno 8009 bound_to 7997
  155.6301  140.3473  155.4682 H   0  0  0  0  0  0  0  0  0  0  0  0  # atno 8010 bound_to 7997
  140.6505  143.2563  151.4738 H   0  0  0  0  0  0  0  0  0  0  0  0  # atno 10167 bound_to 10162
  156.8756  130.5635  149.5655 H   0  0  0  0  0  0  0  0  0  0  0  0  # atno 10718 bound_to 10713
  153.5767  135.3492  155.2859 H   0  0  0  0  0  0  0  0  0  0  0  0  # atno 10763 bound_to 10752
  154.8674  135.4172  154.2666 H   0  0  0  0  0  0  0  0  0  0  0  0  # atno 10764 bound_to 10752
  153.3443  135.7051  153.6911 H   0  0  0  0  0  0  0  0  0  0  0  0  # atno 10765 bound_to 10752
  141.1060  133.8795  157.1715 H   0  0  0  0  0  0  0  0  0  0  0  0  # atno 11005 bound_to 11000
  146.3263  139.8328  142.8905 LP  0  0  0  0  0  0  0  0  0  0  0  0  # atno 17320 bound_to 7965
  145.3081  141.0212  143.3570 LP  0  0  0  0  0  0  0  0  0  0  0  0  # atno 17321 bound_to 7965
  139.5719  144.1908  152.1849 LP  0  0  0  0  0  0  0  0  0  0  0  0  # atno 17342 bound_to 10162
  140.1207  144.5376  150.6865 LP  0  0  0  0  0  0  0  0  0  0  0  0  # atno 17343 bound_to 10162
  156.0704  130.5738  150.9371 LP  0  0  0  0  0  0  0  0  0  0  0  0  # atno 17370 bound_to 10713
  157.6170  131.0932  150.8692 LP  0  0  0  0  0  0  0  0  0  0  0  0  # atno 17371 bound_to 10713
  139.9931  135.0057  157.0021 LP  0  0  0  0  0  0  0  0  0  0  0  0  # atno 17394 bound_to 11000
  140.4899  134.1203  155.7231 LP  0  0  0  0  0  0  0  0  0  0  0  0  # atno 17395 bound_to 11000

$$$$
