AV-unprocessed.smi:769|AV-procd|sdf|3674|dock1
  -GOLD-   22720 1 83D 1   1.00000     0.00000
 Structure written by MMmdl.
 49 51  0  0  0  0  0  0  0  0  1 V2000
  144.7500  137.1128  152.0799 O   0  0  0  0  0  0  0  0  0  0  0  0
  145.9207  136.7418  152.1645 C   0  0  0  0  0  0  0  0  0  0  0  0
  146.9042  137.5121  152.6512 N   0  0  0  0  0  0  0  0  0  0  0  0
  146.7319  138.8740  153.1415 C   0  0  0  0  0  0  0  0  0  0  0  0
  147.2458  139.0127  154.5878 C   0  0  0  0  0  0  0  0  0  0  0  0
  148.5363  139.6963  154.6542 N   0  0  0  0  0  0  0  0  0  0  0  0
  149.6381  138.7389  154.8198 C   0  0  0  0  0  0  0  0  0  0  0  0
  150.9819  139.4859  154.9200 C   0  0  0  0  0  0  0  0  0  0  0  0
  150.9305  140.3969  156.0675 N   0  0  0  0  0  0  0  0  0  0  0  0
  151.6767  140.3100  157.1951 C   0  0  0  0  0  0  0  0  0  0  0  0
  152.5191  139.4252  157.3536 O   0  0  0  0  0  0  0  0  0  0  0  0
  151.4953  141.3778  158.2923 C   0  0  0  0  0  0  0  0  0  0  0  0
  151.7437  142.8402  157.8678 C   0  0  0  0  0  0  0  0  0  0  0  0
  152.5151  143.0395  159.1751 C   0  0  0  0  0  0  0  0  0  0  0  0
  152.7043  141.5212  159.2326 C   0  0  0  0  0  0  0  0  0  0  0  0
  149.8620  141.3825  155.8823 C   0  0  0  0  0  0  0  0  0  0  0  0
  148.5172  140.6369  155.7799 C   0  0  0  0  0  0  0  0  0  0  0  0
  146.3904  135.5441  151.7736 N   0  0  0  0  0  0  0  0  0  0  0  0
  145.6785  134.4475  151.2153 C   0  0  0  0  0  0  0  0  0  0  0  0
  146.4113  133.2864  150.8926 C   0  0  0  0  0  0  0  0  0  0  0  0
  145.7275  132.1791  150.3522 C   0  0  0  0  0  0  0  0  0  0  0  0
  144.3958  132.1646  150.1335 N   0  0  0  0  0  0  0  0  0  0  0  0
  143.6935  133.2713  150.4561 C   0  0  0  0  0  0  0  0  0  0  0  0
  144.2792  134.4319  151.0003 C   0  0  0  0  0  0  0  0  0  0  0  0
  147.8390  137.1319  152.6820 H   0  0  0  0  0  0  0  0  0  0  0  0
  147.2368  139.5627  152.4636 H   0  0  0  0  0  0  0  0  0  0  0  0
  145.6698  139.1163  153.0992 H   0  0  0  0  0  0  0  0  0  0  0  0
  146.5123  139.5930  155.1498 H   0  0  0  0  0  0  0  0  0  0  0  0
  147.3122  138.0388  155.0755 H   0  0  0  0  0  0  0  0  0  0  0  0
  149.4790  138.1304  155.7116 H   0  0  0  0  0  0  0  0  0  0  0  0
  149.6800  138.0583  153.9705 H   0  0  0  0  0  0  0  0  0  0  0  0
  151.7971  138.7666  154.9679 H   0  0  0  0  0  0  0  0  0  0  0  0
  151.1592  140.0632  154.0111 H   0  0  0  0  0  0  0  0  0  0  0  0
  150.5482  141.2899  158.8273 H   0  0  0  0  0  0  0  0  0  0  0  0
  152.3831  142.9677  156.9928 H   0  0  0  0  0  0  0  0  0  0  0  0
  150.8408  143.4463  157.7899 H   0  0  0  0  0  0  0  0  0  0  0  0
  153.4383  143.6114  159.0778 H   0  0  0  0  0  0  0  0  0  0  0  0
  151.8864  143.4176  159.9827 H   0  0  0  0  0  0  0  0  0  0  0  0
  152.5604  141.0929  160.2248 H   0  0  0  0  0  0  0  0  0  0  0  0
  153.6473  141.1947  158.7898 H   0  0  0  0  0  0  0  0  0  0  0  0
  149.8132  142.1110  156.6923 H   0  0  0  0  0  0  0  0  0  0  0  0
  150.0485  141.9578  154.9740 H   0  0  0  0  0  0  0  0  0  0  0  0
  147.7128  141.3597  155.6388 H   0  0  0  0  0  0  0  0  0  0  0  0
  148.3114  140.1046  156.7103 H   0  0  0  0  0  0  0  0  0  0  0  0
  147.3903  135.4210  151.8346 H   0  0  0  0  0  0  0  0  0  0  0  0
  147.4792  133.2417  151.0492 H   0  0  0  0  0  0  0  0  0  0  0  0
  146.2654  131.2796  150.0915 H   0  0  0  0  0  0  0  0  0  0  0  0
  142.6286  133.2289  150.2818 H   0  0  0  0  0  0  0  0  0  0  0  0
  143.6471  135.2699  151.2499 H   0  0  0  0  0  0  0  0  0  0  0  0
  1  2  2  0  0  0  0
  2  3  1  0  0  0  0
  2 18  1  0  0  0  0
  3  4  1  0  0  0  0
  3 25  1  0  0  0  0
  4  5  1  0  0  0  0
  4 26  1  0  0  0  0
  4 27  1  0  0  0  0
  5  6  1  0  0  0  0
  5 28  1  0  0  0  0
  5 29  1  0  0  0  0
  6 17  1  0  0  0  0
  6  7  1  0  0  0  0
  7  8  1  0  0  0  0
  7 30  1  0  0  0  0
  7 31  1  0  0  0  0
  8  9  1  0  0  0  0
  8 32  1  0  0  0  0
  8 33  1  0  0  0  0
  9 10  1  0  0  0  0
  9 16  1  0  0  0  0
 10 11  2  0  0  0  0
 10 12  1  0  0  0  0
 12 15  1  0  0  0  0
 12 13  1  0  0  0  0
 12 34  1  0  0  0  0
 13 14  1  0  0  0  0
 13 35  1  0  0  0  0
 13 36  1  0  0  0  0
 14 15  1  0  0  0  0
 14 37  1  0  0  0  0
 14 38  1  0  0  0  0
 15 39  1  0  0  0  0
 15 40  1  0  0  0  0
 16 17  1  0  0  0  0
 16 41  1  0  0  0  0
 16 42  1  0  0  0  0
 17 43  1  0  0  0  0
 17 44  1  0  0  0  0
 18 19  1  0  0  0  0
 18 45  1  0  0  0  0
 19 24  1  0  0  0  0
 19 20  2  0  0  0  0
 20 21  1  0  0  0  0
 20 46  1  0  0  0  0
 21 22  2  0  0  0  0
 21 47  1  0  0  0  0
 22 23  1  0  0  0  0
 23 24  2  0  0  0  0
 23 48  1  0  0  0  0
 24 49  1  0  0  0  0
M  END
> <s_m_source_file>
AV-unprocessed.smi

> <i_m_source_file_index>
769

> <i_lp_mmshare_version>
43012

> <i_f3d_flags>
0

> <s_epik_input>
W2NIXTFbY0hdbltjSF1bY0hdYzFbTkhdQyg9TylbTkhdW0NIMl1bQ0gyXU4yW0NIMl1bQ0gyXU4oW0NIMl1bQ0gyXTIpQyg9TylbQ0hdM1tDSDJdW0NIMl1bQ0gyXTM=

> <s_epik_cmdline>
J2VwaWtfcHl0aG9uJywgJy1waCcsICc3LjAnLCAnLXRuJywgJzgnLCAnLW1hJywgJzIwMCcsICctbWV0YWxfYmluZGluZycsICctaW1hZScsICc8aW5maWxlLm1hZT4nLCAnLW9tYWUnLCAnPG91dGZpbGUubWFlPic=

> <r_epik_Ionization_Penalty>
0.401104

> <r_epik_Ionization_Penalty_Charging>
0

> <r_epik_Ionization_Penalty_Neutral>
0.401104

> <r_epik_State_Penalty>
0.379367

> <r_epik_Charging_Adjusted_Penalty>
0.379367

> <i_epik_Tot_Q>
0

> <i_epik_Tot_abs_Q>
0

> <r_epik_Metal_State_Penalty>
0.353808

> <b_epik_Metal_Only>
0

> <s_lp_Force_Field>
OPLS_2005

> <r_lp_Energy>
47.3936

> <b_lp_Chiralities_Consistent>
1

> <s_lp_Variant>
AV-unprocessed.smi:769-1

> <Gold.Version>
5.8.1

> <Gold.Id.Protein>
6NUR|6NUR_protein|mol2

> <Gold.PLP.Fitness>
54.6249

> <Gold.PLP.PLP>
-41.6937

> <Gold.PLP.part.hbond>
-3.0000

> <Gold.PLP.part.metal>
0.0000

> <Gold.PLP.part.buried>
-4.6685

> <Gold.PLP.part.nonpolar>
-35.3045

> <Gold.PLP.part.repulsive>
0.5315

> <Gold.PLP.ligand.clash>
0.0000

> <Gold.PLP.ligand.torsion>
1.2201

> <Gold.PLP.Chemscore.Hbond>
2.9760

> <Gold.PLP.Chemscore.CHOScore>
1.9751

> <Gold.PLP.Chemscore.Metal>
0.0000

> <Gold.Chemscore.Hbonds>
donor molecule, donor type, donor heavy atom, donor atom, acceptor molecule, acceptor atom, score
      L1  H     3    25       P1  7948  0.88
      L1  H    18    45       P1  7948  0.93
      P1  H  7997  8010       L1    11  0.73
      L1  C    21    47       P1 10747  0.46
      L1  C    23    48       P1 10186  1.00

> <Gold.PLP.Chemscore.Internal.Correction>
0.5180

> <Gold.Rescore>
     Score         DG    S(hbond)    S(metal)    S(lipo)     H(rot)  DE(clash)    DE(int)     intcor
     20.07     -23.02       2.93        0.00     103.17       1.68       0.55       2.41       ----

> <Gold.Chemscore.Fitness>
20.0652

> <Gold.Chemscore.DG>
-23.0223

> <Gold.Chemscore.ZeroCoef>
-5.4800

> <Gold.Chemscore.Hbond>
2.9265

> <Gold.Chemscore.Metal>
0.0000

> <Gold.Chemscore.Lipo>
103.1734

> <Gold.Chemscore.Internal_Hbond>
0.0000

> <Gold.Chemscore.DEClash>
0.5482

> <Gold.Chemscore.DEInternal>
2.4089

> <Gold.Chemscore.Rot>
1.6811

> <Gold.Chemscore.Internal.Correction>
   9.000000E+99

> <Gold.Chemscore.Hbonds>
donor molecule, donor type, donor heavy atom, donor atom, acceptor molecule, acceptor atom, score
      L1  H     3    25       P1  7948  0.86
      L1  H    18    45       P1  7948  0.89
      P1  H  7997  8010       L1    11  0.47

> <Gold.Chemscore.Hbond.Weighted>
-9.7746

> <Gold.Chemscore.Metal.Weighted>
-0.0000

> <Gold.Chemscore.Lipo.Weighted>
-12.0713

> <Gold.Chemscore.Internal_Hbond.Weighted>
0.0000

> <Gold.Chemscore.DEClash.Weighted>
0.5482

> <Gold.Chemscore.DEInternal.Weighted>
2.4089

> <Gold.Chemscore.Rot.Weighted>
4.3036

> <Gold.Chemscore.Internal.Correction.Weighted>
   9.000000E+99

> <Gold.Protein.RotatedTorsions>
[ 6907 6896 6895 6894 ] final   38.37 input  -60.11 | X-H torsion
[ 7974 7965 7964 7962 ] final -141.67 input  175.53 | X-H torsion
[ 8008 7997 7996 7995 ] final   71.47 input   59.86 | X-H torsion
[ 10167 10162 10161 10158 ] final    8.07 input  -65.29 | X-H torsion
[ 10718 10713 10712 10709 ] final -165.27 input   66.30 | X-H torsion
[ 10763 10752 10751 10750 ] final  145.15 input  -60.55 | X-H torsion
[ 11005 11000 10999 10996 ] final -165.84 input  -57.11 | X-H torsion

> <Gold.Protein.ActiveResidues>
 VAL166  LYS551  ARG553  GLY616  TRP617  ASP618  TYR619  PRO620  LYS621  CYS622 
 ASP623  PHE694  ASN695  SER759  ASP760  ASP761  ALA762  ILE779  LEU786  VAL792 
 PHE793  MET794  SER795  GLU796  ALA797  LYS798  CYS799  TRP800  GLU811  SER814 

> <Gold.Protein.RotatedAtoms>
  152.1555  134.8954  160.0544 H   0  0  0  0  0  0  0  0  0  0  0  0  # atno 6907 bound_to 6896
  151.9969  133.3806  159.4174 H   0  0  0  0  0  0  0  0  0  0  0  0  # atno 6908 bound_to 6896
  150.6881  134.3798  159.5073 H   0  0  0  0  0  0  0  0  0  0  0  0  # atno 6909 bound_to 6896
  144.8502  140.6051  143.5395 H   0  0  0  0  0  0  0  0  0  0  0  0  # atno 7974 bound_to 7965
  155.7544  140.3488  155.5166 H   0  0  0  0  0  0  0  0  0  0  0  0  # atno 8008 bound_to 7997
  155.8973  140.1028  157.1396 H   0  0  0  0  0  0  0  0  0  0  0  0  # atno 8009 bound_to 7997
  154.4040  140.1293  156.4379 H   0  0  0  0  0  0  0  0  0  0  0  0  # atno 8010 bound_to 7997
  140.6336  143.7938  150.7328 H   0  0  0  0  0  0  0  0  0  0  0  0  # atno 10167 bound_to 10162
  156.6511  130.9007  151.3013 H   0  0  0  0  0  0  0  0  0  0  0  0  # atno 10718 bound_to 10713
  154.0006  135.2923  155.3403 H   0  0  0  0  0  0  0  0  0  0  0  0  # atno 10763 bound_to 10752
  154.7161  135.5129  153.8743 H   0  0  0  0  0  0  0  0  0  0  0  0  # atno 10764 bound_to 10752
  153.0767  135.6666  154.0248 H   0  0  0  0  0  0  0  0  0  0  0  0  # atno 10765 bound_to 10752
  140.5712  134.5235  157.5162 H   0  0  0  0  0  0  0  0  0  0  0  0  # atno 11005 bound_to 11000
  145.4516  139.1523  143.3915 LP  0  0  0  0  0  0  0  0  0  0  0  0  # atno 17320 bound_to 7965
  146.2778  140.4642  142.8788 LP  0  0  0  0  0  0  0  0  0  0  0  0  # atno 17321 bound_to 7965
  140.1555  143.4321  152.2103 LP  0  0  0  0  0  0  0  0  0  0  0  0  # atno 17342 bound_to 10162
  139.5548  144.7364  151.4328 LP  0  0  0  0  0  0  0  0  0  0  0  0  # atno 17343 bound_to 10162
  157.7141  130.9475  150.1191 LP  0  0  0  0  0  0  0  0  0  0  0  0  # atno 17370 bound_to 10713
  156.2084  130.3665  149.8701 LP  0  0  0  0  0  0  0  0  0  0  0  0  # atno 17371 bound_to 10713
  139.9361  134.7873  156.0800 LP  0  0  0  0  0  0  0  0  0  0  0  0  # atno 17394 bound_to 11000
  141.1055  133.6662  156.2853 LP  0  0  0  0  0  0  0  0  0  0  0  0  # atno 17395 bound_to 11000

$$$$
