AV-unprocessed.smi:1059|AV-procd|sdf|4655|dock9
  -GOLD-   22720 3163D 1   1.00000     0.00000
 Structure written by MMmdl.
 54 55  0  0  0  0  0  0  0  0  1 V2000
  152.3124  138.6874  159.2144 C   0  0  0  0  0  0  0  0  0  0  0  0
  152.1229  139.7025  158.0763 C   0  0  0  0  0  0  0  0  0  0  0  0
  151.8761  141.1074  158.6578 C   0  0  0  0  0  0  0  0  0  0  0  0
  150.9933  139.2434  157.1213 C   0  0  0  0  0  0  0  0  0  0  0  0
  150.7307  140.1576  155.9077 C   0  0  0  0  0  0  0  0  0  0  0  0
  151.6111  140.2924  155.0563 O   0  0  0  0  0  0  0  0  0  0  0  0
  149.5328  140.7850  155.8058 N   0  0  0  0  0  0  0  0  0  0  0  0
  149.1892  141.6571  154.6757 C   0  0  0  0  0  0  0  0  0  0  0  0
  148.1479  140.9460  153.7933 C   0  0  0  0  0  0  0  0  0  0  0  0
  146.9008  140.5420  154.6082 C   0  0  0  0  0  0  0  0  0  0  0  0
  146.0254  139.7162  153.7815 N   0  0  0  0  0  0  0  0  0  0  0  0
  146.1709  138.4002  153.5700 C   0  0  0  0  0  0  0  0  0  0  0  0
  147.0872  137.7317  154.0482 O   0  0  0  0  0  0  0  0  0  0  0  0
  145.1815  137.9211  152.7969 N   0  0  0  0  0  0  0  0  0  0  0  0
  144.9926  136.5915  152.3336 C   0  0  0  0  0  0  0  0  0  0  0  0
  145.9865  135.6371  152.6296 C   0  0  0  0  0  0  0  0  0  0  0  0
  145.8132  134.3084  152.1983 C   0  0  0  0  0  0  0  0  0  0  0  0
  144.6394  133.9729  151.4931 C   0  0  0  0  0  0  0  0  0  0  0  0
  144.4568  132.6527  151.0586 N   0  0  0  0  0  0  0  0  0  0  0  0
  144.7306  132.4741  149.6405 C   0  0  0  0  0  0  0  0  0  0  0  0
  145.0582  131.6754  151.9533 C   0  0  0  0  0  0  0  0  0  0  0  0
  143.6710  134.8780  151.2168 N   0  0  0  0  0  0  0  0  0  0  0  0
  143.8452  136.1520  151.6295 C   0  0  0  0  0  0  0  0  0  0  0  0
  147.2949  139.7999  155.9064 C   0  0  0  0  0  0  0  0  0  0  0  0
  148.3759  140.5706  156.6855 C   0  0  0  0  0  0  0  0  0  0  0  0
  151.4109  138.5999  159.8220 H   0  0  0  0  0  0  0  0  0  0  0  0
  153.1302  138.9827  159.8727 H   0  0  0  0  0  0  0  0  0  0  0  0
  152.5488  137.6967  158.8251 H   0  0  0  0  0  0  0  0  0  0  0  0
  153.0608  139.7295  157.5195 H   0  0  0  0  0  0  0  0  0  0  0  0
  150.9486  141.1403  159.2299 H   0  0  0  0  0  0  0  0  0  0  0  0
  151.8121  141.8679  157.8801 H   0  0  0  0  0  0  0  0  0  0  0  0
  152.6858  141.4007  159.3266 H   0  0  0  0  0  0  0  0  0  0  0  0
  151.2362  138.2544  156.7305 H   0  0  0  0  0  0  0  0  0  0  0  0
  150.0744  139.1402  157.6996 H   0  0  0  0  0  0  0  0  0  0  0  0
  148.7825  142.5961  155.0543 H   0  0  0  0  0  0  0  0  0  0  0  0
  150.0565  141.9340  154.0749 H   0  0  0  0  0  0  0  0  0  0  0  0
  147.8601  141.5926  152.9636 H   0  0  0  0  0  0  0  0  0  0  0  0
  148.6046  140.0592  153.3503 H   0  0  0  0  0  0  0  0  0  0  0  0
  146.3721  141.4576  154.8807 H   0  0  0  0  0  0  0  0  0  0  0  0
  145.2418  140.1821  153.3478 H   0  0  0  0  0  0  0  0  0  0  0  0
  144.4474  138.5717  152.5588 H   0  0  0  0  0  0  0  0  0  0  0  0
  146.8753  135.9174  153.1757 H   0  0  0  0  0  0  0  0  0  0  0  0
  146.5664  133.5626  152.4070 H   0  0  0  0  0  0  0  0  0  0  0  0
  144.2199  133.2343  149.0482 H   0  0  0  0  0  0  0  0  0  0  0  0
  144.3784  131.4970  149.3092 H   0  0  0  0  0  0  0  0  0  0  0  0
  145.8003  132.5384  149.4375 H   0  0  0  0  0  0  0  0  0  0  0  0
  144.7866  131.8778  152.9900 H   0  0  0  0  0  0  0  0  0  0  0  0
  146.1456  131.6899  151.8721 H   0  0  0  0  0  0  0  0  0  0  0  0
  144.7107  130.6726  151.7043 H   0  0  0  0  0  0  0  0  0  0  0  0
  143.0265  136.8168  151.4018 H   0  0  0  0  0  0  0  0  0  0  0  0
  146.4186  139.6539  156.5391 H   0  0  0  0  0  0  0  0  0  0  0  0
  147.6707  138.8044  155.6647 H   0  0  0  0  0  0  0  0  0  0  0  0
  148.6107  140.0372  157.6045 H   0  0  0  0  0  0  0  0  0  0  0  0
  147.9854  141.5379  157.0049 H   0  0  0  0  0  0  0  0  0  0  0  0
  1  2  1  0  0  0  0
  1 26  1  0  0  0  0
  1 27  1  0  0  0  0
  1 28  1  0  0  0  0
  2  3  1  0  0  0  0
  2  4  1  0  0  0  0
  2 29  1  0  0  0  0
  3 30  1  0  0  0  0
  3 31  1  0  0  0  0
  3 32  1  0  0  0  0
  4  5  1  0  0  0  0
  4 33  1  0  0  0  0
  4 34  1  0  0  0  0
  5  6  2  0  0  0  0
  5  7  1  0  0  0  0
  7 25  1  0  0  0  0
  7  8  1  0  0  0  0
  8  9  1  0  0  0  0
  8 35  1  0  0  0  0
  8 36  1  0  0  0  0
  9 10  1  0  0  0  0
  9 37  1  0  0  0  0
  9 38  1  0  0  0  0
 10 11  1  0  0  0  0
 10 24  1  0  0  0  0
 10 39  1  0  0  0  0
 11 12  1  0  0  0  0
 11 40  1  0  0  0  0
 12 13  2  0  0  0  0
 12 14  1  0  0  0  0
 14 15  1  0  0  0  0
 14 41  1  0  0  0  0
 15 23  1  0  0  0  0
 15 16  2  0  0  0  0
 16 17  1  0  0  0  0
 16 42  1  0  0  0  0
 17 18  2  0  0  0  0
 17 43  1  0  0  0  0
 18 19  1  0  0  0  0
 18 22  1  0  0  0  0
 19 20  1  0  0  0  0
 19 21  1  0  0  0  0
 20 44  1  0  0  0  0
 20 45  1  0  0  0  0
 20 46  1  0  0  0  0
 21 47  1  0  0  0  0
 21 48  1  0  0  0  0
 21 49  1  0  0  0  0
 22 23  2  0  0  0  0
 23 50  1  0  0  0  0
 24 25  1  0  0  0  0
 24 51  1  0  0  0  0
 24 52  1  0  0  0  0
 25 53  1  0  0  0  0
 25 54  1  0  0  0  0
M  END
> <s_m_source_file>
AV-unprocessed.smi

> <i_m_source_file_index>
1059

> <i_lp_mmshare_version>
43012

> <i_f3d_flags>
0

> <s_epik_input>
W0NIM11bQ0hdKFtDSDNdKVtDSDJdQyg9TylOMVtDSDJdW0NIMl1bQ0hdKFtDSDJdW0NIMl0xKVtOSF1DKD1PKVtOSF1jMltjSF1bY0hdYyhOKFtDSDNdKVtDSDNdKW5bY0hdMg==

> <s_epik_cmdline>
J2VwaWtfcHl0aG9uJywgJy1waCcsICc3LjAnLCAnLXRuJywgJzgnLCAnLW1hJywgJzIwMCcsICctbWV0YWxfYmluZGluZycsICctaW1hZScsICc8aW5maWxlLm1hZT4nLCAnLW9tYWUnLCAnPG91dGZpbGUubWFlPic=

> <r_lp_tautomer_probability>
1

> <r_epik_Ionization_Penalty>
0.622059

> <r_epik_Ionization_Penalty_Charging>
0

> <r_epik_Ionization_Penalty_Neutral>
0.622059

> <r_epik_State_Penalty>
0.637048

> <r_epik_Charging_Adjusted_Penalty>
0.637048

> <i_epik_Tot_Q>
0

> <i_epik_Tot_abs_Q>
0

> <r_epik_Metal_State_Penalty>
0.306613

> <b_epik_Metal_Only>
0

> <s_lp_Force_Field>
OPLS_2005

> <r_lp_Energy>
31.4899

> <b_lp_Chiralities_Consistent>
1

> <s_lp_Variant>
AV-unprocessed.smi:1059-2

> <Gold.Version>
5.8.1

> <Gold.Id.Protein>
6NUR|6NUR_protein|mol2

> <Gold.PLP.Fitness>
42.2759

> <Gold.PLP.PLP>
-33.3363

> <Gold.PLP.part.hbond>
-3.0164

> <Gold.PLP.part.metal>
0.0000

> <Gold.PLP.part.buried>
-2.5104

> <Gold.PLP.part.nonpolar>
-27.8311

> <Gold.PLP.part.repulsive>
0.5329

> <Gold.PLP.ligand.clash>
0.0000

> <Gold.PLP.ligand.torsion>
0.9390

> <Gold.PLP.Chemscore.Hbond>
2.9440

> <Gold.PLP.Chemscore.CHOScore>
0.5835

> <Gold.PLP.Chemscore.Metal>
0.0000

> <Gold.Chemscore.Hbonds>
donor molecule, donor type, donor heavy atom, donor atom, acceptor molecule, acceptor atom, score
      L1  H    11    40       P1 10175  1.00
      L1  H    14    41       P1 10175  0.99
      P1  H  7989  7998       L1     6  0.94
      L1  C    23    50       P1 10171  0.58

> <Gold.PLP.Chemscore.Internal.Correction>
0.2352

> <Gold.Rescore>
     Score         DG    S(hbond)    S(metal)    S(lipo)     H(rot)  DE(clash)    DE(int)     intcor
     15.97     -20.06       2.77        0.00      78.80       1.52       0.31       3.78       ----

> <Gold.Chemscore.Fitness>
15.9738

> <Gold.Chemscore.DG>
-20.0567

> <Gold.Chemscore.ZeroCoef>
-5.4800

> <Gold.Chemscore.Hbond>
2.7716

> <Gold.Chemscore.Metal>
0.0000

> <Gold.Chemscore.Lipo>
78.8019

> <Gold.Chemscore.Internal_Hbond>
0.0000

> <Gold.Chemscore.DEClash>
0.3069

> <Gold.Chemscore.DEInternal>
3.7760

> <Gold.Chemscore.Rot>
1.5235

> <Gold.Chemscore.Internal.Correction>
   9.000000E+99

> <Gold.Chemscore.Hbonds>
donor molecule, donor type, donor heavy atom, donor atom, acceptor molecule, acceptor atom, score
      L1  H    11    40       P1 10175  1.00
      L1  H    14    41       P1 10175  0.91
      P1  H  7989  7998       L1     6  0.91

> <Gold.Chemscore.Hbond.Weighted>
-9.2570

> <Gold.Chemscore.Metal.Weighted>
-0.0000

> <Gold.Chemscore.Lipo.Weighted>
-9.2198

> <Gold.Chemscore.Internal_Hbond.Weighted>
0.0000

> <Gold.Chemscore.DEClash.Weighted>
0.3069

> <Gold.Chemscore.DEInternal.Weighted>
3.7760

> <Gold.Chemscore.Rot.Weighted>
3.9001

> <Gold.Chemscore.Internal.Correction.Weighted>
   9.000000E+99

> <Gold.Protein.RotatedTorsions>
[ 6907 6896 6895 6894 ] final  133.49 input  -60.11 | X-H torsion
[ 7974 7965 7964 7962 ] final  -51.62 input  175.53 | X-H torsion
[ 8008 7997 7996 7995 ] final   46.00 input   59.86 | X-H torsion
[ 10167 10162 10161 10158 ] final -103.29 input  -65.29 | X-H torsion
[ 10718 10713 10712 10709 ] final   69.13 input   66.30 | X-H torsion
[ 10763 10752 10751 10750 ] final  -64.82 input  -60.55 | X-H torsion
[ 11005 11000 10999 10996 ] final -156.08 input  -57.11 | X-H torsion

> <Gold.Protein.ActiveResidues>
 VAL166  LYS551  ARG553  GLY616  TRP617  ASP618  TYR619  PRO620  LYS621  CYS622 
 ASP623  PHE694  ASN695  SER759  ASP760  ASP761  ALA762  ILE779  LEU786  VAL792 
 PHE793  MET794  SER795  GLU796  ALA797  LYS798  CYS799  TRP800  GLU811  SER814 

> <Gold.Protein.RotatedAtoms>
  152.3214  133.5858  159.5746 H   0  0  0  0  0  0  0  0  0  0  0  0  # atno 6907 bound_to 6896
  150.7373  134.0005  159.3645 H   0  0  0  0  0  0  0  0  0  0  0  0  # atno 6908 bound_to 6896
  151.7889  135.0742  160.0435 H   0  0  0  0  0  0  0  0  0  0  0  0  # atno 6909 bound_to 6896
  145.9169  140.7867  142.9667 H   0  0  0  0  0  0  0  0  0  0  0  0  # atno 7974 bound_to 7965
  155.3451  140.3410  155.4239 H   0  0  0  0  0  0  0  0  0  0  0  0  # atno 8008 bound_to 7997
  156.1793  140.1658  156.8340 H   0  0  0  0  0  0  0  0  0  0  0  0  # atno 8009 bound_to 7997
  154.5316  140.0744  156.8337 H   0  0  0  0  0  0  0  0  0  0  0  0  # atno 8010 bound_to 7997
  140.2216  143.3672  152.0964 H   0  0  0  0  0  0  0  0  0  0  0  0  # atno 10167 bound_to 10162
  157.6329  130.9410  150.0472 H   0  0  0  0  0  0  0  0  0  0  0  0  # atno 10718 bound_to 10713
  154.3358  135.6167  153.5573 H   0  0  0  0  0  0  0  0  0  0  0  0  # atno 10763 bound_to 10752
  152.9808  135.5758  154.4909 H   0  0  0  0  0  0  0  0  0  0  0  0  # atno 10764 bound_to 10752
  154.4604  135.2855  155.1694 H   0  0  0  0  0  0  0  0  0  0  0  0  # atno 10765 bound_to 10752
  140.6795  134.4160  157.5227 H   0  0  0  0  0  0  0  0  0  0  0  0  # atno 11005 bound_to 11000
  144.6749  140.1914  143.7396 LP  0  0  0  0  0  0  0  0  0  0  0  0  # atno 17320 bound_to 7965
  145.8600  139.2218  143.1722 LP  0  0  0  0  0  0  0  0  0  0  0  0  # atno 17321 bound_to 7965
  139.5142  144.6944  151.5671 LP  0  0  0  0  0  0  0  0  0  0  0  0  # atno 17342 bound_to 10162
  140.6251  143.9184  150.6558 LP  0  0  0  0  0  0  0  0  0  0  0  0  # atno 17343 bound_to 10162
  156.1545  130.3643  149.9389 LP  0  0  0  0  0  0  0  0  0  0  0  0  # atno 17370 bound_to 10713
  156.7401  130.9076  151.3631 LP  0  0  0  0  0  0  0  0  0  0  0  0  # atno 17371 bound_to 10713
  139.8956  134.8679  156.2124 LP  0  0  0  0  0  0  0  0  0  0  0  0  # atno 17394 bound_to 11000
  141.0329  133.6979  156.1461 LP  0  0  0  0  0  0  0  0  0  0  0  0  # atno 17395 bound_to 11000

$$$$
