#       Name:                AV-unprocessed.smi:67
#       Creating user name   scv26
#       Creation time:       Thu Mar 26 16:52:24 2020


#       File generated by GOLD software.
#

@<TRIPOS>MOLECULE
AV-unprocessed.smi:67
    53    55     1
SMALL
NO_CHARGES


@<TRIPOS>ATOM
      1 ****        -2.8075   0.0421  -1.3503 O.3            1 S1                 0.0000
      2 ****        -3.1810  -0.0721   0.0122 C.3            1 S1                 0.0000
      3 ****        -2.4791  -1.3110   0.6119 C.3            1 S1                 0.0000
      4 ****        -0.9977  -1.2053   0.5299 N.4            1 S1                 1.0000
      5 ****        -0.3703  -2.3399  -0.1962 C.3            1 S1                 0.0000
      6 ****         1.1207  -2.0712  -0.4588 C.3            1 S1                 0.0000
      7 ****         1.8563  -1.7257   0.8537 C.3            1 S1                 0.0000
      8 ****         3.2673  -1.5383   0.7161 O.3            1 S1                 0.0000
      9 ****         3.8294  -0.4937   0.0061 C.ar           1 S1                 0.0000
     10 ****         5.2387  -0.4666  -0.0312 C.ar           1 S1                 0.0000
     11 ****         5.9277   0.5473  -0.7224 C.ar           1 S1                 0.0000
     12 ****         5.2112   1.5558  -1.3911 C.ar           1 S1                 0.0000
     13 ****         3.8008   1.5508  -1.3680 C.ar           1 S1                 0.0000
     14 ****         2.9952   2.6277  -2.0790 C.3            1 S1                 0.0000
     15 ****         2.2241   3.2605  -1.1949 F              1 S1                 0.0000
     16 ****         3.7770   3.5256  -2.6793 F              1 S1                 0.0000
     17 ****         2.2143   2.0622  -2.9993 F              1 S1                 0.0000
     18 ****         3.1200   0.5294  -0.6720 C.ar           1 S1                 0.0000
     19 ****         1.1393  -0.6369   1.6805 C.3            1 S1                 0.0000
     20 ****        -0.3511  -0.9730   1.8479 C.3            1 S1                 0.0000
     21 ****        -4.7086  -0.1485   0.0909 C.3            1 S1                 0.0000
     22 ****        -5.1643   1.3091  -0.0174 C.3            1 S1                 0.0000
     23 ****        -4.0518   2.1305   0.4978 N.4            1 S1                 1.0000
     24 ****        -2.8868   1.2537   0.7328 C.3            1 S1                 0.0000
     25 ****        -3.1238  -0.7159  -1.8195 H              1 S1                 0.0000
     26 ****        -2.7892  -1.4549   1.6484 H              1 S1                 0.0000
     27 ****        -2.8250  -2.2019   0.0847 H              1 S1                 0.0000
     28 ****        -0.4953  -3.2578   0.3807 H              1 S1                 0.0000
     29 ****        -0.8764  -2.4923  -1.1505 H              1 S1                 0.0000
     30 ****         1.5760  -2.9524  -0.9118 H              1 S1                 0.0000
     31 ****         1.2042  -1.2822  -1.2013 H              1 S1                 0.0000
     32 ****         1.7937  -2.6301   1.4604 H              1 S1                 0.0000
     33 ****         5.8012  -1.2354   0.4782 H              1 S1                 0.0000
     34 ****         7.0077   0.5506  -0.7391 H              1 S1                 0.0000
     35 ****         5.7525   2.3278  -1.9176 H              1 S1                 0.0000
     36 ****         2.0454   0.5685  -0.6837 H              1 S1                 0.0000
     37 ****         1.6076  -0.5563   2.6619 H              1 S1                 0.0000
     38 ****         1.2237   0.3491   1.2316 H              1 S1                 0.0000
     39 ****        -0.8456  -0.1526   2.3679 H              1 S1                 0.0000
     40 ****        -0.4700  -1.8598   2.4728 H              1 S1                 0.0000
     41 ****        -5.1523  -0.7890  -0.6726 H              1 S1                 0.0000
     42 ****        -5.0101  -0.5431   1.0625 H              1 S1                 0.0000
     43 ****        -5.3334   1.5760  -1.0611 H              1 S1                 0.0000
     44 ****        -6.0870   1.4983   0.5315 H              1 S1                 0.0000
     45 ****        -3.8174   2.8290  -0.1935 H              1 S1                 0.0000
     46 ****        -2.8212   1.0897   1.8088 H              1 S1                 0.0000
     47 ****        -1.9556   1.7229   0.4123 H              1 S1                 0.0000
     48 ****        -4.3184   2.5845   1.3600 H              1 S1                 0.0000
     49 ****        -0.8138  -0.3856  -0.0315 H              1 S1                 0.0000
     50 ****        -1.8113   0.0898  -1.4223 LP             1 S1                 0.0000
     51 ****        -3.2100   0.8703  -1.7403 LP             1 S1                 0.0000
     52 ****         3.6149  -2.3752   0.2934 LP             1 S1                 0.0000
     53 ****         3.6255  -1.4612   1.6466 LP             1 S1                 0.0000
@<TRIPOS>BOND
    1    1    2 1     
    2    1   25 1     
    3    2   24 1     
    4    2    3 1     
    5    2   21 1     
    6    3    4 1     
    7    3   26 1     
    8    3   27 1     
    9    4   20 1     
   10    4    5 1     
   11    4   49 1     
   12    5    6 1     
   13    5   28 1     
   14    5   29 1     
   15    6    7 1     
   16    6   30 1     
   17    6   31 1     
   18    7    8 1     
   19    7   19 1     
   20    7   32 1     
   21    8    9 1     
   22    9   18 ar    
   23    9   10 ar    
   24   10   11 ar    
   25   10   33 1     
   26   11   12 ar    
   27   11   34 1     
   28   12   13 ar    
   29   12   35 1     
   30   13   14 1     
   31   13   18 ar    
   32   14   15 1     
   33   14   16 1     
   34   14   17 1     
   35   18   36 1     
   36   19   20 1     
   37   19   37 1     
   38   19   38 1     
   39   20   39 1     
   40   20   40 1     
   41   21   22 1     
   42   21   41 1     
   43   21   42 1     
   44   22   23 1     
   45   22   43 1     
   46   22   44 1     
   47   23   24 1     
   48   23   45 1     
   49   23   48 1     
   50   24   46 1     
   51   24   47 1     
   52    1   50 1     
   53    1   51 1     
   54    8   52 1     
   55    8   53 1     
@<TRIPOS>SUBSTRUCTURE
      1 S1             1
@<TRIPOS>SET
LONE_PAIRS      STATIC     ATOMS    <user>   **** ""
4 50 51 52 53
DONOR_HYDROGENS      STATIC     ATOMS    <user>   **** ""
4 25 49 45 48
ATOM$BLUE        STATIC     ATOMS    COLORGROUP SYSTEM
4 50 51 52 53
ATOM$RED        STATIC     ATOMS    COLORGROUP SYSTEM
4 25 49 45 48
