AV-unprocessed.smi:3252|AV-procd|sdf|12443|dock8
  -GOLD-   2272018333D 1   1.00000     0.00000
 Structure written by MMmdl.
 36 37  0  0  0  0  0  0  0  0  1 V2000
  152.1676  144.9067  159.2335 C   0  0  0  0  0  0  0  0  0  0  0  0
  151.7205  143.8810  160.2852 C   0  0  0  0  0  0  0  0  0  0  0  0
  151.9019  142.4827  159.8993 N   0  0  0  0  0  0  0  0  0  0  0  0
  151.5527  142.2364  158.5026 C   0  0  0  0  0  0  0  0  0  0  0  0
  151.7857  140.7692  158.1046 C   0  0  0  0  0  0  0  0  0  0  0  0
  153.1367  140.4127  158.3741 O   0  0  0  0  0  0  0  0  0  0  0  0
  153.4965  140.5750  159.7442 C   0  0  1  0  0  0  0  0  0  0  0  0
  154.9637  140.1540  159.9348 C   0  0  0  0  0  0  0  0  0  0  0  0
  155.3147  139.9785  161.3396 N   0  0  0  0  0  0  0  0  0  0  0  0
  155.0966  138.7620  162.0029 C   0  0  0  0  0  0  0  0  0  0  0  0
  155.6008  138.6104  163.3120 C   0  0  0  0  0  0  0  0  0  0  0  0
  155.3890  137.3917  163.9861 C   0  0  0  0  0  0  0  0  0  0  0  0
  154.6822  136.3663  163.3277 C   0  0  0  0  0  0  0  0  0  0  0  0
  154.4369  135.0919  163.9805 C   0  0  0  0  0  0  0  0  0  0  0  0
  154.2412  134.0767  164.5001 N   0  0  0  0  0  0  0  0  0  0  0  0
  154.2201  136.6085  162.0183 C   0  0  0  0  0  0  0  0  0  0  0  0
  154.4226  137.7739  161.3670 N   0  0  0  0  0  0  0  0  0  0  0  0
  153.2778  142.0526  160.1256 C   0  0  0  0  0  0  0  0  0  0  0  0
  151.8994  145.9159  159.5460 H   0  0  0  0  0  0  0  0  0  0  0  0
  151.6875  144.7195  158.2727 H   0  0  0  0  0  0  0  0  0  0  0  0
  153.2465  144.8917  159.0820 H   0  0  0  0  0  0  0  0  0  0  0  0
  152.2353  144.0771  161.2268 H   0  0  0  0  0  0  0  0  0  0  0  0
  150.6619  144.0563  160.4812 H   0  0  0  0  0  0  0  0  0  0  0  0
  150.5070  142.4844  158.3237 H   0  0  0  0  0  0  0  0  0  0  0  0
  152.1446  142.8837  157.8532 H   0  0  0  0  0  0  0  0  0  0  0  0
  151.1111  140.1077  158.6505 H   0  0  0  0  0  0  0  0  0  0  0  0
  151.5848  140.6272  157.0429 H   0  0  0  0  0  0  0  0  0  0  0  0
  152.8563  139.9458  160.3657 H   0  0  0  0  0  0  0  0  0  0  0  0
  155.1934  139.2631  159.3497 H   0  0  0  0  0  0  0  0  0  0  0  0
  155.6118  140.9406  159.5481 H   0  0  0  0  0  0  0  0  0  0  0  0
  155.4704  140.8084  161.8931 H   0  0  0  0  0  0  0  0  0  0  0  0
  156.1396  139.4122  163.7955 H   0  0  0  0  0  0  0  0  0  0  0  0
  155.7650  137.2530  164.9895 H   0  0  0  0  0  0  0  0  0  0  0  0
  153.6747  135.8510  161.4739 H   0  0  0  0  0  0  0  0  0  0  0  0
  153.9599  142.6807  159.5500 H   0  0  0  0  0  0  0  0  0  0  0  0
  153.5371  142.1938  161.1755 H   0  0  0  0  0  0  0  0  0  0  0  0
  1  2  1  0  0  0  0
  1 19  1  0  0  0  0
  1 20  1  0  0  0  0
  1 21  1  0  0  0  0
  2  3  1  0  0  0  0
  2 22  1  0  0  0  0
  2 23  1  0  0  0  0
  3 18  1  0  0  0  0
  3  4  1  0  0  0  0
  4  5  1  0  0  0  0
  4 24  1  0  0  0  0
  4 25  1  0  0  0  0
  5  6  1  0  0  0  0
  5 26  1  0  0  0  0
  5 27  1  0  0  0  0
  6  7  1  0  0  0  0
  7  8  1  0  0  0  0
  7 18  1  0  0  0  0
  7 28  1  0  0  0  0
  8  9  1  0  0  0  0
  8 29  1  0  0  0  0
  8 30  1  0  0  0  0
  9 10  1  0  0  0  0
  9 31  1  0  0  0  0
 10 17  1  0  0  0  0
 10 11  2  0  0  0  0
 11 12  1  0  0  0  0
 11 32  1  0  0  0  0
 12 13  2  0  0  0  0
 12 33  1  0  0  0  0
 13 14  1  0  0  0  0
 13 16  1  0  0  0  0
 14 15  3  0  0  0  0
 16 17  2  0  0  0  0
 16 34  1  0  0  0  0
 18 35  1  0  0  0  0
 18 36  1  0  0  0  0
M  END
> <s_m_source_file>
AV-unprocessed.smi

> <i_m_source_file_index>
3252

> <i_lp_mmshare_version>
43012

> <i_f3d_flags>
0

> <s_epik_input>
W0NIM11bQ0gyXU4xW0NIMl1bQ0gyXU9bQ0BIXShbQ0gyXTEpW0NIMl1bTkhdYzJbY0hdW2NIXWMoQyNOKVtjSF1uMg==

> <s_epik_cmdline>
J2VwaWtfcHl0aG9uJywgJy1waCcsICc3LjAnLCAnLXRuJywgJzgnLCAnLW1hJywgJzIwMCcsICctbWV0YWxfYmluZGluZycsICctaW1hZScsICc8aW5maWxlLm1hZT4nLCAnLW9tYWUnLCAnPG91dGZpbGUubWFlPic=

> <r_epik_Ionization_Penalty>
0.797836

> <r_epik_Ionization_Penalty_Charging>
0

> <r_epik_Ionization_Penalty_Neutral>
0.797836

> <r_epik_State_Penalty>
0.828842

> <r_epik_Charging_Adjusted_Penalty>
0.828842

> <i_epik_Tot_Q>
0

> <i_epik_Tot_abs_Q>
0

> <r_epik_Metal_State_Penalty>
0.828842

> <b_epik_Metal_Only>
0

> <s_lp_Force_Field>
OPLS_2005

> <r_lp_Energy>
23.221

> <b_lp_Chiralities_Consistent>
1

> <s_lp_Variant>
AV-unprocessed.smi:3252-5

> <Gold.Version>
5.8.1

> <Gold.Id.Protein>
6NUR|6NUR_protein|mol2

> <Gold.PLP.Fitness>
39.3058

> <Gold.PLP.PLP>
-37.7990

> <Gold.PLP.part.hbond>
-1.0000

> <Gold.PLP.part.metal>
0.0000

> <Gold.PLP.part.buried>
-4.6401

> <Gold.PLP.part.nonpolar>
-31.5904

> <Gold.PLP.part.repulsive>
0.1004

> <Gold.PLP.ligand.clash>
0.0000

> <Gold.PLP.ligand.torsion>
0.4891

> <Gold.PLP.Chemscore.Hbond>
0.8247

> <Gold.PLP.Chemscore.CHOScore>
0.0000

> <Gold.PLP.Chemscore.Metal>
0.0000

> <Gold.Chemscore.Hbonds>
donor molecule, donor type, donor heavy atom, donor atom, acceptor molecule, acceptor atom, score
      P1  H  7997  8010       L1     6  0.83

> <Gold.PLP.Chemscore.Internal.Correction>
0.0109

> <Gold.Rescore>
     Score         DG    S(hbond)    S(metal)    S(lipo)     H(rot)  DE(clash)    DE(int)     intcor
     15.36     -16.06       0.81        0.00      98.73       1.43       0.21       0.49       ----

> <Gold.Chemscore.Fitness>
15.3585

> <Gold.Chemscore.DG>
-16.0557

> <Gold.Chemscore.ZeroCoef>
-5.4800

> <Gold.Chemscore.Hbond>
0.8063

> <Gold.Chemscore.Metal>
0.0000

> <Gold.Chemscore.Lipo>
98.7299

> <Gold.Chemscore.Internal_Hbond>
0.0000

> <Gold.Chemscore.DEClash>
0.2086

> <Gold.Chemscore.DEInternal>
0.4885

> <Gold.Chemscore.Rot>
1.4331

> <Gold.Chemscore.Internal.Correction>
   9.000000E+99

> <Gold.Chemscore.Hbonds>
donor molecule, donor type, donor heavy atom, donor atom, acceptor molecule, acceptor atom, score
      P1  H  7997  8010       L1     6  0.75

> <Gold.Chemscore.Hbond.Weighted>
-2.6931

> <Gold.Chemscore.Metal.Weighted>
-0.0000

> <Gold.Chemscore.Lipo.Weighted>
-11.5514

> <Gold.Chemscore.Internal_Hbond.Weighted>
0.0000

> <Gold.Chemscore.DEClash.Weighted>
0.2086

> <Gold.Chemscore.DEInternal.Weighted>
0.4885

> <Gold.Chemscore.Rot.Weighted>
3.6688

> <Gold.Chemscore.Internal.Correction.Weighted>
   9.000000E+99

> <Gold.Protein.RotatedTorsions>
[ 6907 6896 6895 6894 ] final  -57.14 input  -60.11 | X-H torsion
[ 7974 7965 7964 7962 ] final -166.09 input  175.53 | X-H torsion
[ 8008 7997 7996 7995 ] final   30.11 input   59.86 | X-H torsion
[ 10167 10162 10161 10158 ] final   90.52 input  -65.29 | X-H torsion
[ 10718 10713 10712 10709 ] final   -5.30 input   66.30 | X-H torsion
[ 10763 10752 10751 10750 ] final   -5.62 input  -60.55 | X-H torsion
[ 11005 11000 10999 10996 ] final -175.33 input  -57.11 | X-H torsion

> <Gold.Protein.ActiveResidues>
 VAL166  LYS551  ARG553  GLY616  TRP617  ASP618  TYR619  PRO620  LYS621  CYS622 
 ASP623  PHE694  ASN695  SER759  ASP760  ASP761  ALA762  ILE779  LEU786  VAL792 
 PHE793  MET794  SER795  GLU796  ALA797  LYS798  CYS799  TRP800  GLU811  SER814 

> <Gold.Protein.RotatedAtoms>
  150.8110  134.7264  159.6687 H   0  0  0  0  0  0  0  0  0  0  0  0  # atno 6907 bound_to 6896
  152.4230  134.5917  159.9986 H   0  0  0  0  0  0  0  0  0  0  0  0  # atno 6908 bound_to 6896
  151.6127  133.3308  159.3107 H   0  0  0  0  0  0  0  0  0  0  0  0  # atno 6909 bound_to 6896
  144.7254  140.2718  143.6249 H   0  0  0  0  0  0  0  0  0  0  0  0  # atno 7974 bound_to 7965
  155.0851  140.3214  155.4590 H   0  0  0  0  0  0  0  0  0  0  0  0  # atno 8008 bound_to 7997
  156.2757  140.2088  156.5925 H   0  0  0  0  0  0  0  0  0  0  0  0  # atno 8009 bound_to 7997
  154.6947  140.0513  157.0386 H   0  0  0  0  0  0  0  0  0  0  0  0  # atno 8010 bound_to 7997
  139.8465  144.6615  150.9221 H   0  0  0  0  0  0  0  0  0  0  0  0  # atno 10167 bound_to 10162
  156.7486  130.5232  149.5808 H   0  0  0  0  0  0  0  0  0  0  0  0  # atno 10718 bound_to 10713
  153.4010  135.7005  153.6426 H   0  0  0  0  0  0  0  0  0  0  0  0  # atno 10763 bound_to 10752
  153.4960  135.3662  155.2516 H   0  0  0  0  0  0  0  0  0  0  0  0  # atno 10764 bound_to 10752
  154.8710  135.4100  154.3344 H   0  0  0  0  0  0  0  0  0  0  0  0  # atno 10765 bound_to 10752
  140.4645  134.6223  157.4857 H   0  0  0  0  0  0  0  0  0  0  0  0  # atno 11005 bound_to 11000
  145.8035  139.1974  143.2034 LP  0  0  0  0  0  0  0  0  0  0  0  0  # atno 17320 bound_to 7965
  146.0656  140.7924  142.9713 LP  0  0  0  0  0  0  0  0  0  0  0  0  # atno 17321 bound_to 7965
  140.7792  143.3866  151.1383 LP  0  0  0  0  0  0  0  0  0  0  0  0  # atno 17342 bound_to 10162
  139.7508  143.8782  152.3076 LP  0  0  0  0  0  0  0  0  0  0  0  0  # atno 17343 bound_to 10162
  156.1416  130.6248  151.0475 LP  0  0  0  0  0  0  0  0  0  0  0  0  # atno 17370 bound_to 10713
  157.6787  131.0844  150.7427 LP  0  0  0  0  0  0  0  0  0  0  0  0  # atno 17371 bound_to 10713
  139.9924  134.6965  155.9667 LP  0  0  0  0  0  0  0  0  0  0  0  0  # atno 17394 bound_to 11000
  141.1605  133.6539  156.4305 LP  0  0  0  0  0  0  0  0  0  0  0  0  # atno 17395 bound_to 11000

$$$$
