AV-unprocessed.smi:3032|AV-procd|sdf|11570|dock4
  -GOLD-   2272016533D 1   1.00000     0.00000
 Structure written by MMmdl.
 36 37  0  0  0  0  0  0  0  0  2 V2000
  151.6821  144.4554  159.5608 C   0  0  0  0  0  0  0  0  0  0  0  0
  152.6323  143.2513  159.6264 C   0  0  1  0  0  0  0  0  0  0  0  0
  152.9706  142.8767  161.0823 C   0  0  0  0  0  0  0  0  0  0  0  0
  153.9163  141.6667  161.1487 C   0  0  0  0  0  0  0  0  0  0  0  0
  153.3332  140.4608  160.3952 C   0  0  0  0  0  0  0  0  0  0  0  0
  153.0074  140.8242  158.9320 C   0  0  1  0  0  0  0  0  0  0  0  0
  152.4072  139.6288  158.1806 C   0  0  0  0  0  0  0  0  0  0  0  0
  152.9719  139.1764  157.1842 O   0  0  0  0  0  0  0  0  0  0  0  0
  151.2724  139.1205  158.6859 N   0  0  0  0  0  0  0  0  0  0  0  0
  150.6120  137.8969  158.2385 C   0  0  0  0  0  0  0  0  0  0  0  0
  149.1052  137.9219  158.5524 C   0  0  0  0  0  0  0  0  0  0  0  0
  148.6858  136.8877  159.5792 C   0  0  0  0  0  0  0  0  0  0  0  0
  147.9503  137.1294  160.6837 N   0  5  0  0  0  0  0  0  0  0  0  0
  147.7237  136.0042  161.3332 N   0  0  0  0  0  0  0  0  0  0  0  0
  148.3345  135.0707  160.5945 C   0  0  0  0  0  0  0  0  0  0  0  0
  148.9321  135.5809  159.5128 N   0  0  0  0  0  0  0  0  0  0  0  0
  152.0511  142.0347  158.8802 C   0  0  0  0  0  0  0  0  0  0  0  0
  150.7293  144.2357  160.0436 H   0  0  0  0  0  0  0  0  0  0  0  0
  151.4747  144.7345  158.5274 H   0  0  0  0  0  0  0  0  0  0  0  0
  152.1147  145.3248  160.0564 H   0  0  0  0  0  0  0  0  0  0  0  0
  153.5596  143.5390  159.1285 H   0  0  0  0  0  0  0  0  0  0  0  0
  153.4281  143.7264  161.5902 H   0  0  0  0  0  0  0  0  0  0  0  0
  152.0529  142.6494  161.6266 H   0  0  0  0  0  0  0  0  0  0  0  0
  154.8822  141.9340  160.7185 H   0  0  0  0  0  0  0  0  0  0  0  0
  154.1043  141.3993  162.1887 H   0  0  0  0  0  0  0  0  0  0  0  0
  154.0424  139.6326  160.4279 H   0  0  0  0  0  0  0  0  0  0  0  0
  152.4334  140.1179  160.9087 H   0  0  0  0  0  0  0  0  0  0  0  0
  153.9387  141.1066  158.4373 H   0  0  0  0  0  0  0  0  0  0  0  0
  150.8885  139.5627  159.5081 H   0  0  0  0  0  0  0  0  0  0  0  0
  150.7643  137.7936  157.1643 H   0  0  0  0  0  0  0  0  0  0  0  0
  151.0619  137.0151  158.6974 H   0  0  0  0  0  0  0  0  0  0  0  0
  148.8224  138.9076  158.9234 H   0  0  0  0  0  0  0  0  0  0  0  0
  148.5337  137.7611  157.6379 H   0  0  0  0  0  0  0  0  0  0  0  0
  148.3414  134.0169  160.8442 H   0  0  0  0  0  0  0  0  0  0  0  0
  151.0868  141.7683  159.3166 H   0  0  0  0  0  0  0  0  0  0  0  0
  151.8527  142.3033  157.8415 H   0  0  0  0  0  0  0  0  0  0  0  0
  1  2  1  0  0  0  0
  1 18  1  0  0  0  0
  1 19  1  0  0  0  0
  1 20  1  0  0  0  0
  2 17  1  0  0  0  0
  2  3  1  0  0  0  0
  2 21  1  0  0  0  0
  3  4  1  0  0  0  0
  3 22  1  0  0  0  0
  3 23  1  0  0  0  0
  4  5  1  0  0  0  0
  4 24  1  0  0  0  0
  4 25  1  0  0  0  0
  5  6  1  0  0  0  0
  5 26  1  0  0  0  0
  5 27  1  0  0  0  0
  6  7  1  0  0  0  0
  6 17  1  0  0  0  0
  6 28  1  0  0  0  0
  7  8  2  0  0  0  0
  7  9  1  0  0  0  0
  9 10  1  0  0  0  0
  9 29  1  0  0  0  0
 10 11  1  0  0  0  0
 10 30  1  0  0  0  0
 10 31  1  0  0  0  0
 11 32  1  0  0  0  0
 11 33  1  0  0  0  0
 11 12  1  0  0  0  0
 12 16  2  0  0  0  0
 12 13  1  0  0  0  0
 13 14  1  0  0  0  0
 14 15  2  0  0  0  0
 15 16  1  0  0  0  0
 15 34  1  0  0  0  0
 17 35  1  0  0  0  0
 17 36  1  0  0  0  0
M  CHG  1  13  -1
M  END
> <s_m_source_file>
AV-unprocessed.smi

> <i_m_source_file_index>
3032

> <i_lp_mmshare_version>
43012

> <i_f3d_flags>
0

> <s_epik_input>
W0NIM11bQ0BASF0xW0NIMl1bQ0gyXVtDSDJdW0NASF0oW0NIMl0xKUMoPU8pW05IXVtDSDJdW0NIMl1jMm5uW2NIXVtuSF0y

> <s_epik_cmdline>
J2VwaWtfcHl0aG9uJywgJy1waCcsICc3LjAnLCAnLXRuJywgJzgnLCAnLW1hJywgJzIwMCcsICctbWV0YWxfYmluZGluZycsICctaW1hZScsICc8aW5maWxlLm1hZT4nLCAnLW9tYWUnLCAnPG91dGZpbGUubWFlPic=

> <r_lp_tautomer_probability>
0.948284

> <r_epik_Ionization_Penalty>
12.042

> <r_epik_Ionization_Penalty_Charging>
12.042

> <r_epik_Ionization_Penalty_Neutral>
4.36781e-08

> <r_epik_State_Penalty>
4.67286

> <r_epik_Charging_Adjusted_Penalty>
16.7149

> <i_epik_Tot_Q>
-1

> <i_epik_Tot_abs_Q>
1

> <r_epik_Metal_State_Penalty>
0.981637

> <b_epik_Metal_Only>
1

> <s_lp_Force_Field>
OPLS_2005

> <r_lp_Energy>
10.6668

> <b_lp_Chiralities_Consistent>
1

> <s_lp_Variant>
AV-unprocessed.smi:3032-14

> <Gold.Version>
5.8.1

> <Gold.Id.Protein>
6NUR|6NUR_protein|mol2

> <Gold.PLP.Fitness>
47.4117

> <Gold.PLP.PLP>
-32.7142

> <Gold.PLP.part.hbond>
-4.0000

> <Gold.PLP.part.metal>
0.0000

> <Gold.PLP.part.buried>
-4.9409

> <Gold.PLP.part.nonpolar>
-24.1874

> <Gold.PLP.part.repulsive>
0.1278

> <Gold.PLP.ligand.clash>
0.0000

> <Gold.PLP.ligand.torsion>
0.6111

> <Gold.PLP.Chemscore.Hbond>
5.2960

> <Gold.PLP.Chemscore.CHOScore>
0.0000

> <Gold.PLP.Chemscore.Metal>
0.0000

> <Gold.Chemscore.Hbonds>
donor molecule, donor type, donor heavy atom, donor atom, acceptor molecule, acceptor atom, score
      P1  H  6896  6909       L1    16  1.00
      P1  H  6931  6943       L1    13  1.70
      P1  H  6934  6947       L1    13  1.51
      P1  H  7997  8010       L1     8  1.00

> <Gold.PLP.Chemscore.Internal.Correction>
0.0318

> <Gold.Rescore>
     Score         DG    S(hbond)    S(metal)    S(lipo)     H(rot)  DE(clash)    DE(int)     intcor
     16.19     -16.86       2.33        0.00      79.07       2.21       0.01       0.66       ----

> <Gold.Chemscore.Fitness>
16.1892

> <Gold.Chemscore.DG>
-16.8559

> <Gold.Chemscore.ZeroCoef>
-5.4800

> <Gold.Chemscore.Hbond>
2.3336

> <Gold.Chemscore.Metal>
0.0000

> <Gold.Chemscore.Lipo>
79.0745

> <Gold.Chemscore.Internal_Hbond>
0.0000

> <Gold.Chemscore.DEClash>
0.0089

> <Gold.Chemscore.DEInternal>
0.6578

> <Gold.Chemscore.Rot>
2.2149

> <Gold.Chemscore.Internal.Correction>
   9.000000E+99

> <Gold.Chemscore.Hbonds>
donor molecule, donor type, donor heavy atom, donor atom, acceptor molecule, acceptor atom, score
      P1  H  6896  6909       L1    16  0.25
      P1  H  6931  6943       L1    13  0.29
      P1  H  6934  6947       L1    13  0.68
      P1  H  7997  8010       L1     8  0.94

> <Gold.Chemscore.Hbond.Weighted>
-7.7944

> <Gold.Chemscore.Metal.Weighted>
-0.0000

> <Gold.Chemscore.Lipo.Weighted>
-9.2517

> <Gold.Chemscore.Internal_Hbond.Weighted>
0.0000

> <Gold.Chemscore.DEClash.Weighted>
0.0089

> <Gold.Chemscore.DEInternal.Weighted>
0.6578

> <Gold.Chemscore.Rot.Weighted>
5.6702

> <Gold.Chemscore.Internal.Correction.Weighted>
   9.000000E+99

> <Gold.Protein.RotatedTorsions>
[ 6907 6896 6895 6894 ] final   52.85 input  -60.11 | X-H torsion
[ 7974 7965 7964 7962 ] final  -89.17 input  175.53 | X-H torsion
[ 8008 7997 7996 7995 ] final   63.93 input   59.86 | X-H torsion
[ 10167 10162 10161 10158 ] final  131.20 input  -65.29 | X-H torsion
[ 10718 10713 10712 10709 ] final -166.47 input   66.30 | X-H torsion
[ 10763 10752 10751 10750 ] final -147.06 input  -60.55 | X-H torsion
[ 11005 11000 10999 10996 ] final   55.08 input  -57.11 | X-H torsion

> <Gold.Protein.ActiveResidues>
 VAL166  LYS551  ARG553  GLY616  TRP617  ASP618  TYR619  PRO620  LYS621  CYS622 
 ASP623  PHE694  ASN695  SER759  ASP760  ASP761  ALA762  ILE779  LEU786  VAL792 
 PHE793  MET794  SER795  GLU796  ALA797  LYS798  CYS799  TRP800  GLU811  SER814 

> <Gold.Protein.RotatedAtoms>
  152.3276  134.7301  160.0297 H   0  0  0  0  0  0  0  0  0  0  0  0  # atno 6907 bound_to 6896
  151.7728  133.3337  159.3457 H   0  0  0  0  0  0  0  0  0  0  0  0  # atno 6908 bound_to 6896
  150.7404  134.5934  159.6044 H   0  0  0  0  0  0  0  0  0  0  0  0  # atno 6909 bound_to 6896
  145.4434  140.9559  143.2062 H   0  0  0  0  0  0  0  0  0  0  0  0  # atno 7974 bound_to 7965
  155.6379  140.3496  155.4705 H   0  0  0  0  0  0  0  0  0  0  0  0  # atno 8008 bound_to 7997
  155.9950  140.1201  157.0626 H   0  0  0  0  0  0  0  0  0  0  0  0  # atno 8009 bound_to 7997
  154.4230  140.1112  156.5603 H   0  0  0  0  0  0  0  0  0  0  0  0  # atno 8010 bound_to 7997
  139.5395  144.6716  151.4673 H   0  0  0  0  0  0  0  0  0  0  0  0  # atno 10167 bound_to 10162
  156.6684  130.9074  151.3040 H   0  0  0  0  0  0  0  0  0  0  0  0  # atno 10718 bound_to 10713
  154.8305  135.3370  154.6759 H   0  0  0  0  0  0  0  0  0  0  0  0  # atno 10763 bound_to 10752
  153.7380  135.6947  153.4978 H   0  0  0  0  0  0  0  0  0  0  0  0  # atno 10764 bound_to 10752
  153.2264  135.4431  155.0498 H   0  0  0  0  0  0  0  0  0  0  0  0  # atno 10765 bound_to 10752
  140.0636  134.5568  155.9125 H   0  0  0  0  0  0  0  0  0  0  0  0  # atno 11005 bound_to 11000
  144.8107  139.5967  143.7030 LP  0  0  0  0  0  0  0  0  0  0  0  0  # atno 17320 bound_to 7965
  146.2544  139.6270  142.9405 LP  0  0  0  0  0  0  0  0  0  0  0  0  # atno 17321 bound_to 7965
  140.6618  143.8483  150.6896 LP  0  0  0  0  0  0  0  0  0  0  0  0  # atno 17342 bound_to 10162
  140.1879  143.4060  152.1885 LP  0  0  0  0  0  0  0  0  0  0  0  0  # atno 17343 bound_to 10162
  157.7086  130.9413  150.1012 LP  0  0  0  0  0  0  0  0  0  0  0  0  # atno 17370 bound_to 10713
  156.1958  130.3657  149.8851 LP  0  0  0  0  0  0  0  0  0  0  0  0  # atno 17371 bound_to 10713
  141.1983  133.6601  156.5786 LP  0  0  0  0  0  0  0  0  0  0  0  0  # atno 17394 bound_to 11000
  140.3733  134.7587  157.4613 LP  0  0  0  0  0  0  0  0  0  0  0  0  # atno 17395 bound_to 11000

$$$$
