#       Name:                AV-unprocessed.smi:3116
#       Creating user name   scv26
#       Creation time:       Fri Mar 27 17:24:53 2020


#       File generated by GOLD software.
#

@<TRIPOS>MOLECULE
AV-unprocessed.smi:3116
    37    37     1
SMALL
NO_CHARGES


@<TRIPOS>ATOM
      1 ****        -1.0180   1.7745  -2.1215 C.3            1 S1                 0.0000
      2 ****        -1.1450   0.9371  -0.8371 C.3            1 S1                 0.0000
      3 ****        -0.5849  -0.4199  -1.0357 N.4            1 S1                 1.0000
      4 ****         0.8915  -0.5329  -0.9580 C.3            1 S1                 0.0000
      5 ****         1.3862  -1.2750  -2.2107 C.3            1 S1                 0.0000
      6 ****         1.3145  -1.2384   0.3604 C.3            1 S1                 0.0000
      7 ****         2.8414  -1.3933   0.5056 C.3            1 S1                 0.0000
      8 ****         0.7699  -0.5597   1.5313 N.pl3          1 S1                 0.0000
      9 ****        -0.2109  -1.0037   2.3947 C.2            1 S1                 0.0000
     10 ****        -0.4118  -0.0242   3.3244 C.2            1 S1                 0.0000
     11 ****         0.5064   0.9944   2.9468 C.2            1 S1                 0.0000
     12 ****         1.2073   0.6743   1.8712 N.2            1 S1                 0.0000
     13 ****        -2.6110   0.8497  -0.3969 C.2            1 S1                 0.0000
     14 ****        -3.0649   1.8192   0.4018 N.am           1 S1                 0.0000
     15 ****        -3.3295  -0.0736  -0.7760 O.2            1 S1                 0.0000
     16 ****        -1.4260   2.7764  -1.9829 H              1 S1                 0.0000
     17 ****        -1.5486   1.3117  -2.9548 H              1 S1                 0.0000
     18 ****         0.0243   1.8912  -2.4187 H              1 S1                 0.0000
     19 ****        -0.5949   1.4311  -0.0360 H              1 S1                 0.0000
     20 ****        -0.9737  -1.0230  -0.3250 H              1 S1                 0.0000
     21 ****         1.3317   0.4653  -0.9796 H              1 S1                 0.0000
     22 ****         2.4742  -1.2925  -2.2681 H              1 S1                 0.0000
     23 ****         1.0304  -0.7869  -3.1187 H              1 S1                 0.0000
     24 ****         1.0318  -2.3062  -2.2285 H              1 S1                 0.0000
     25 ****         0.8888  -2.2432   0.3557 H              1 S1                 0.0000
     26 ****         3.2526  -2.0624  -0.2498 H              1 S1                 0.0000
     27 ****         3.0999  -1.8167   1.4769 H              1 S1                 0.0000
     28 ****         3.3532  -0.4346   0.4162 H              1 S1                 0.0000
     29 ****        -0.6822  -1.9685   2.2770 H              1 S1                 0.0000
     30 ****        -1.1072  -0.0345   4.1507 H              1 S1                 0.0000
     31 ****         0.6807   1.9512   3.4168 H              1 S1                 0.0000
     32 ****        -4.0222   1.8069   0.7240 H              1 S1                 0.0000
     33 ****        -2.4445   2.5640   0.6860 H              1 S1                 0.0000
     34 ****        -0.8961  -0.7565  -1.9356 H              1 S1                 0.0000
     35 ****         1.9055   1.2230   1.4115 LP             1 S1                 0.0000
     36 ****        -2.9593  -0.7800  -1.3793 LP             1 S1                 0.0000
     37 ****        -4.2840  -0.1180  -0.4809 LP             1 S1                 0.0000
@<TRIPOS>BOND
    1    1    2 1     
    2    1   16 1     
    3    1   17 1     
    4    1   18 1     
    5    2    3 1     
    6    2   13 1     
    7    2   19 1     
    8    3    4 1     
    9    3   20 1     
   10    3   34 1     
   11    4    5 1     
   12    4    6 1     
   13    4   21 1     
   14    5   22 1     
   15    5   23 1     
   16    5   24 1     
   17    6    7 1     
   18    6    8 1     
   19    6   25 1     
   20    7   26 1     
   21    7   27 1     
   22    7   28 1     
   23    8   12 1     
   24    8    9 1     
   25    9   10 2     
   26    9   29 1     
   27   10   11 1     
   28   10   30 1     
   29   11   12 2     
   30   11   31 1     
   31   13   14 am    
   32   13   15 2     
   33   14   32 1     
   34   14   33 1     
   35   12   35 1     
   36   15   36 1     
   37   15   37 1     
@<TRIPOS>SUBSTRUCTURE
      1 S1             1
@<TRIPOS>SET
LONE_PAIRS      STATIC     ATOMS    <user>   **** ""
3 35 36 37
DONOR_HYDROGENS      STATIC     ATOMS    <user>   **** ""
4 20 34 32 33
ATOM$BLUE        STATIC     ATOMS    COLORGROUP SYSTEM
3 35 36 37
ATOM$RED        STATIC     ATOMS    COLORGROUP SYSTEM
4 20 34 32 33
