AV-unprocessed.smi:2073|AV-procd|sdf|8450|dock3
  -GOLD-   2272011143D 1   1.00000     0.00000
 Structure written by MMmdl.
 28 28  0  0  0  0  0  0  0  0  1 V2000
  152.8457  143.6742  159.6055 C   0  0  0  0  0  0  0  0  0  0  0  0
  151.8302  143.9193  158.4770 C   0  0  0  0  0  0  0  0  0  0  0  0
  150.5538  144.5895  159.0115 C   0  0  0  0  0  0  0  0  0  0  0  0
  151.4934  142.6079  157.7540 C   0  0  0  0  0  0  0  0  0  0  0  0
  151.9988  141.5530  158.1403 O   0  0  0  0  0  0  0  0  0  0  0  0
  150.6414  142.7112  156.7162 N   0  0  0  0  0  0  0  0  0  0  0  0
  150.1644  141.6813  155.8640 C   0  0  0  0  0  0  0  0  0  0  0  0
  149.0102  141.7354  155.1904 N   0  0  0  0  0  0  0  0  0  0  0  0
  148.7795  140.5782  154.4387 C   0  0  0  0  0  0  0  0  0  0  0  0
  147.5269  140.4544  153.6209 C   0  0  0  0  0  0  0  0  0  0  0  0
  147.2826  138.9924  153.2421 C   0  0  0  0  0  0  0  0  0  0  0  0
  147.7574  138.5804  152.0632 N   0  0  0  0  0  0  0  0  0  0  0  0
  146.6759  138.2434  154.0048 O   0  0  0  0  0  0  0  0  0  0  0  0
  149.7900  139.6532  154.5461 C   0  0  0  0  0  0  0  0  0  0  0  0
  151.0645  140.1952  155.6052 S   0  0  0  0  0  0  0  0  0  0  0  0
  153.7480  143.1898  159.2298 H   0  0  0  0  0  0  0  0  0  0  0  0
  152.4297  143.0415  160.3908 H   0  0  0  0  0  0  0  0  0  0  0  0
  153.1490  144.6143  160.0669 H   0  0  0  0  0  0  0  0  0  0  0  0
  152.2889  144.6010  157.7585 H   0  0  0  0  0  0  0  0  0  0  0  0
  149.8297  144.7580  158.2134 H   0  0  0  0  0  0  0  0  0  0  0  0
  150.7812  145.5588  159.4556 H   0  0  0  0  0  0  0  0  0  0  0  0
  150.0705  143.9815  159.7774 H   0  0  0  0  0  0  0  0  0  0  0  0
  150.3017  143.6386  156.5078 H   0  0  0  0  0  0  0  0  0  0  0  0
  146.6648  140.8383  154.1685 H   0  0  0  0  0  0  0  0  0  0  0  0
  147.6021  141.0514  152.7111 H   0  0  0  0  0  0  0  0  0  0  0  0
  147.6284  137.6204  151.7764 H   0  0  0  0  0  0  0  0  0  0  0  0
  148.2528  139.2274  151.4672 H   0  0  0  0  0  0  0  0  0  0  0  0
  149.8585  138.6864  154.0700 H   0  0  0  0  0  0  0  0  0  0  0  0
  1  2  1  0  0  0  0
  1 16  1  0  0  0  0
  1 17  1  0  0  0  0
  1 18  1  0  0  0  0
  2  3  1  0  0  0  0
  2  4  1  0  0  0  0
  2 19  1  0  0  0  0
  3 20  1  0  0  0  0
  3 21  1  0  0  0  0
  3 22  1  0  0  0  0
  4  5  2  0  0  0  0
  4  6  1  0  0  0  0
  6  7  1  0  0  0  0
  6 23  1  0  0  0  0
  7 15  1  0  0  0  0
  7  8  2  0  0  0  0
  8  9  1  0  0  0  0
  9 10  1  0  0  0  0
  9 14  2  0  0  0  0
 10 11  1  0  0  0  0
 10 24  1  0  0  0  0
 10 25  1  0  0  0  0
 11 12  1  0  0  0  0
 11 13  2  0  0  0  0
 12 26  1  0  0  0  0
 12 27  1  0  0  0  0
 14 15  1  0  0  0  0
 14 28  1  0  0  0  0
M  END
> <s_m_source_file>
AV-unprocessed.smi

> <i_m_source_file_index>
2073

> <i_lp_mmshare_version>
43012

> <i_f3d_flags>
0

> <s_epik_input>
W0NIM11bQ0hdKFtDSDNdKUMoPU8pW05IXWMxbmMoW2NIXXMxKVtDSDJdQyg9TylbTkgyXQ==

> <s_epik_cmdline>
J2VwaWtfcHl0aG9uJywgJy1waCcsICc3LjAnLCAnLXRuJywgJzgnLCAnLW1hJywgJzIwMCcsICctbWV0YWxfYmluZGluZycsICctaW1hZScsICc8aW5maWxlLm1hZT4nLCAnLW9tYWUnLCAnPG91dGZpbGUubWFlPic=

> <r_lp_tautomer_probability>
1

> <r_epik_Ionization_Penalty>
0.000158353

> <r_epik_Ionization_Penalty_Charging>
0

> <r_epik_Ionization_Penalty_Neutral>
0.000158353

> <r_epik_State_Penalty>
-0

> <r_epik_Charging_Adjusted_Penalty>
0

> <i_epik_Tot_Q>
0

> <i_epik_Tot_abs_Q>
0

> <r_epik_Metal_State_Penalty>
0.0986865

> <b_epik_Metal_Only>
0

> <s_lp_Force_Field>
OPLS_2005

> <r_lp_Energy>
2.86857

> <b_lp_Chiralities_Consistent>
1

> <s_lp_Variant>
AV-unprocessed.smi:2073-1

> <Gold.Version>
5.8.1

> <Gold.Id.Protein>
6NUR|6NUR_protein|mol2

> <Gold.PLP.Fitness>
37.6958

> <Gold.PLP.PLP>
-31.7020

> <Gold.PLP.part.hbond>
-2.8700

> <Gold.PLP.part.metal>
0.0000

> <Gold.PLP.part.buried>
-4.1138

> <Gold.PLP.part.nonpolar>
-25.9244

> <Gold.PLP.part.repulsive>
1.1384

> <Gold.PLP.ligand.clash>
0.0000

> <Gold.PLP.ligand.torsion>
0.7324

> <Gold.PLP.Chemscore.Hbond>
2.4800

> <Gold.PLP.Chemscore.CHOScore>
0.0000

> <Gold.PLP.Chemscore.Metal>
0.0000

> <Gold.Chemscore.Hbonds>
donor molecule, donor type, donor heavy atom, donor atom, acceptor molecule, acceptor atom, score
      L1  H     6    23       P1  8028  0.94
      L1  H    12    26       P1  7948  0.51
      L1  H    12    27       P1  7957  0.99

> <Gold.PLP.Chemscore.Internal.Correction>
0.0187

> <Gold.Rescore>
     Score         DG    S(hbond)    S(metal)    S(lipo)     H(rot)  DE(clash)    DE(int)     intcor
     14.49     -16.14       2.49        0.00      62.14       1.93       0.06       1.58       ----

> <Gold.Chemscore.Fitness>
14.4946

> <Gold.Chemscore.DG>
-16.1357

> <Gold.Chemscore.ZeroCoef>
-5.4800

> <Gold.Chemscore.Hbond>
2.4946

> <Gold.Chemscore.Metal>
0.0000

> <Gold.Chemscore.Lipo>
62.1424

> <Gold.Chemscore.Internal_Hbond>
0.0000

> <Gold.Chemscore.DEClash>
0.0644

> <Gold.Chemscore.DEInternal>
1.5767

> <Gold.Chemscore.Rot>
1.9323

> <Gold.Chemscore.Internal.Correction>
   9.000000E+99

> <Gold.Chemscore.Hbonds>
donor molecule, donor type, donor heavy atom, donor atom, acceptor molecule, acceptor atom, score
      L1  H     6    23       P1  8028  0.91
      L1  H    12    26       P1  7948  0.52
      L1  H    12    27       P1  7957  0.81

> <Gold.Chemscore.Hbond.Weighted>
-8.3318

> <Gold.Chemscore.Metal.Weighted>
-0.0000

> <Gold.Chemscore.Lipo.Weighted>
-7.2707

> <Gold.Chemscore.Internal_Hbond.Weighted>
0.0000

> <Gold.Chemscore.DEClash.Weighted>
0.0644

> <Gold.Chemscore.DEInternal.Weighted>
1.5767

> <Gold.Chemscore.Rot.Weighted>
4.9468

> <Gold.Chemscore.Internal.Correction.Weighted>
   9.000000E+99

> <Gold.Protein.RotatedTorsions>
[ 6907 6896 6895 6894 ] final   66.15 input  -60.11 | X-H torsion
[ 7974 7965 7964 7962 ] final  -37.47 input  175.53 | X-H torsion
[ 8008 7997 7996 7995 ] final -122.45 input   59.86 | X-H torsion
[ 10167 10162 10161 10158 ] final  -95.61 input  -65.29 | X-H torsion
[ 10718 10713 10712 10709 ] final   30.27 input   66.30 | X-H torsion
[ 10763 10752 10751 10750 ] final   73.61 input  -60.55 | X-H torsion
[ 11005 11000 10999 10996 ] final -138.19 input  -57.11 | X-H torsion

> <Gold.Protein.ActiveResidues>
 VAL166  LYS551  ARG553  GLY616  TRP617  ASP618  TYR619  PRO620  LYS621  CYS622 
 ASP623  PHE694  ASN695  SER759  ASP760  ASP761  ALA762  ILE779  LEU786  VAL792 
 PHE793  MET794  SER795  GLU796  ALA797  LYS798  CYS799  TRP800  GLU811  SER814 

> <Gold.Protein.RotatedAtoms>
  152.4460  134.5494  159.9861 H   0  0  0  0  0  0  0  0  0  0  0  0  # atno 6907 bound_to 6896
  151.5579  133.3402  159.2973 H   0  0  0  0  0  0  0  0  0  0  0  0  # atno 6908 bound_to 6896
  150.8376  134.7688  159.6969 H   0  0  0  0  0  0  0  0  0  0  0  0  # atno 6909 bound_to 6896
  146.0571  140.6400  142.9014 H   0  0  0  0  0  0  0  0  0  0  0  0  # atno 7974 bound_to 7965
  155.1644  140.0406  157.2849 H   0  0  0  0  0  0  0  0  0  0  0  0  # atno 8008 bound_to 7997
  154.6313  140.2525  155.7403 H   0  0  0  0  0  0  0  0  0  0  0  0  # atno 8009 bound_to 7997
  156.2486  140.2874  156.0666 H   0  0  0  0  0  0  0  0  0  0  0  0  # atno 8010 bound_to 7997
  140.3023  143.3155  152.0235 H   0  0  0  0  0  0  0  0  0  0  0  0  # atno 10167 bound_to 10162
  157.2574  130.7144  149.6436 H   0  0  0  0  0  0  0  0  0  0  0  0  # atno 10718 bound_to 10713
  153.0533  135.5056  154.7920 H   0  0  0  0  0  0  0  0  0  0  0  0  # atno 10763 bound_to 10752
  154.6765  135.2961  154.9674 H   0  0  0  0  0  0  0  0  0  0  0  0  # atno 10764 bound_to 10752
  154.0474  135.6708  153.4849 H   0  0  0  0  0  0  0  0  0  0  0  0  # atno 10765 bound_to 10752
  140.8639  134.2134  157.4691 H   0  0  0  0  0  0  0  0  0  0  0  0  # atno 11005 bound_to 11000
  144.7154  140.4191  143.7048 LP  0  0  0  0  0  0  0  0  0  0  0  0  # atno 17320 bound_to 7965
  145.6624  139.1584  143.2801 LP  0  0  0  0  0  0  0  0  0  0  0  0  # atno 17321 bound_to 7965
  139.4912  144.6446  151.6805 LP  0  0  0  0  0  0  0  0  0  0  0  0  # atno 17342 bound_to 10162
  140.5640  144.0221  150.6183 LP  0  0  0  0  0  0  0  0  0  0  0  0  # atno 17343 bound_to 10162
  155.9664  130.4408  150.5316 LP  0  0  0  0  0  0  0  0  0  0  0  0  # atno 17370 bound_to 10713
  157.3213  131.0682  151.1930 LP  0  0  0  0  0  0  0  0  0  0  0  0  # atno 17371 bound_to 10713
  139.8708  134.9743  156.4840 LP  0  0  0  0  0  0  0  0  0  0  0  0  # atno 17394 bound_to 11000
  140.8651  133.8030  155.9305 LP  0  0  0  0  0  0  0  0  0  0  0  0  # atno 17395 bound_to 11000

$$$$
