AV-unprocessed.smi:1645|AV-procd|sdf|6615|dock2
  -GOLD-   22720 7313D 1   1.00000     0.00000
 Structure written by MMmdl.
 56 59  0  0  0  0  0  0  0  0  3 V2000
  146.5820  137.8607  155.2525 O   0  0  0  0  0  0  0  0  0  0  0  0
  147.3824  137.4601  154.4083 C   0  0  0  0  0  0  0  0  0  0  0  0
  148.6527  137.8807  154.2782 N   0  0  0  0  0  0  0  0  0  0  0  0
  149.3553  138.8387  155.0595 C   0  0  0  0  0  0  0  0  0  0  0  0
  150.7477  138.9503  154.8662 C   0  0  0  0  0  0  0  0  0  0  0  0
  151.4912  139.8784  155.6238 C   0  0  0  0  0  0  0  0  0  0  0  0
  150.8384  140.6899  156.5856 C   0  0  0  0  0  0  0  0  0  0  0  0
  151.4968  141.6523  157.3845 N   0  0  0  0  0  0  0  0  0  0  0  0
  150.9320  143.0059  157.3761 C   0  0  0  0  0  0  0  0  0  0  0  0
  151.9428  144.0408  157.8983 C   0  0  0  0  0  0  0  0  0  0  0  0
  152.4924  143.6335  159.2721 C   0  0  0  0  0  0  0  0  0  0  0  0
  153.0979  142.2258  159.1930 C   0  0  0  0  0  0  0  0  0  0  0  0
  152.0758  141.2098  158.6548 C   0  0  0  0  0  0  0  0  0  0  0  0
  149.5012  140.5364  156.7424 N   0  3  0  0  0  0  0  0  0  0  0  0
  148.7505  139.6627  156.0380 C   0  0  0  0  0  0  0  0  0  0  0  0
  147.0771  136.5404  153.4820 N   0  0  0  0  0  0  0  0  0  0  0  0
  145.7744  135.8962  153.3368 C   0  0  1  0  0  0  0  0  0  0  0  0
  144.6874  136.8538  152.8176 C   0  0  0  0  0  0  0  0  0  0  0  0
  143.8068  136.0034  151.8808 C   0  0  0  0  0  0  0  0  0  0  0  0
  144.3504  134.6346  151.9684 N   0  3  1  0  0  0  0  0  0  0  0  0
  144.1027  133.7363  150.8198 C   0  0  0  0  0  0  0  0  0  0  0  0
  144.6663  132.3374  151.1388 C   0  0  0  0  0  0  0  0  0  0  0  0
  146.1478  132.4015  151.5632 C   0  0  0  0  0  0  0  0  0  0  0  0
  146.3584  133.4218  152.6988 C   0  0  0  0  0  0  0  0  0  0  0  0
  145.7797  134.7850  152.2828 C   0  0  2  0  0  0  0  0  0  0  0  0
  149.1657  137.5025  153.4953 H   0  0  0  0  0  0  0  0  0  0  0  0
  151.2499  138.3307  154.1374 H   0  0  0  0  0  0  0  0  0  0  0  0
  152.5558  139.9400  155.4569 H   0  0  0  0  0  0  0  0  0  0  0  0
  150.6181  143.3075  156.3772 H   0  0  0  0  0  0  0  0  0  0  0  0
  150.0379  143.0120  158.0007 H   0  0  0  0  0  0  0  0  0  0  0  0
  152.7663  144.1360  157.1893 H   0  0  0  0  0  0  0  0  0  0  0  0
  151.4721  145.0222  157.9596 H   0  0  0  0  0  0  0  0  0  0  0  0
  153.2444  144.3493  159.6053 H   0  0  0  0  0  0  0  0  0  0  0  0
  151.6912  143.6512  160.0120 H   0  0  0  0  0  0  0  0  0  0  0  0
  153.9724  142.2427  158.5411 H   0  0  0  0  0  0  0  0  0  0  0  0
  153.4515  141.9139  160.1762 H   0  0  0  0  0  0  0  0  0  0  0  0
  151.2742  141.0629  159.3798 H   0  0  0  0  0  0  0  0  0  0  0  0
  152.5820  140.2526  158.5282 H   0  0  0  0  0  0  0  0  0  0  0  0
  147.7031  139.6591  156.2987 H   0  0  0  0  0  0  0  0  0  0  0  0
  147.7934  136.2729  152.8225 H   0  0  0  0  0  0  0  0  0  0  0  0
  145.4405  135.4880  154.2932 H   0  0  0  0  0  0  0  0  0  0  0  0
  144.1126  137.2795  153.6409 H   0  0  0  0  0  0  0  0  0  0  0  0
  145.1215  137.6840  152.2583 H   0  0  0  0  0  0  0  0  0  0  0  0
  142.7557  136.0194  152.1702 H   0  0  0  0  0  0  0  0  0  0  0  0
  143.8821  136.3741  150.8573 H   0  0  0  0  0  0  0  0  0  0  0  0
  143.0310  133.6753  150.6270 H   0  0  0  0  0  0  0  0  0  0  0  0
  144.5712  134.1421  149.9218 H   0  0  0  0  0  0  0  0  0  0  0  0
  144.0819  131.8888  151.9431 H   0  0  0  0  0  0  0  0  0  0  0  0
  144.5528  131.6821  150.2748 H   0  0  0  0  0  0  0  0  0  0  0  0
  146.4920  131.4152  151.8756 H   0  0  0  0  0  0  0  0  0  0  0  0
  146.7580  132.6839  150.7042 H   0  0  0  0  0  0  0  0  0  0  0  0
  145.8741  133.0698  153.6108 H   0  0  0  0  0  0  0  0  0  0  0  0
  147.4216  133.5109  152.9223 H   0  0  0  0  0  0  0  0  0  0  0  0
  146.2971  135.1412  151.3888 H   0  0  0  0  0  0  0  0  0  0  0  0
  143.9256  134.2089  152.7798 H   0  0  0  0  0  0  0  0  0  0  0  0
  149.0305  141.1180  157.4358 H   0  0  0  0  0  0  0  0  0  0  0  0
  1  2  2  0  0  0  0
  2  3  1  0  0  0  0
  2 16  1  0  0  0  0
  3  4  1  0  0  0  0
  3 26  1  0  0  0  0
  4 15  1  0  0  0  0
  4  5  2  0  0  0  0
  5  6  1  0  0  0  0
  5 27  1  0  0  0  0
  6  7  2  0  0  0  0
  6 28  1  0  0  0  0
  7  8  1  0  0  0  0
  7 14  1  0  0  0  0
  8 13  1  0  0  0  0
  8  9  1  0  0  0  0
  9 10  1  0  0  0  0
  9 29  1  0  0  0  0
  9 30  1  0  0  0  0
 10 11  1  0  0  0  0
 10 31  1  0  0  0  0
 10 32  1  0  0  0  0
 11 12  1  0  0  0  0
 11 33  1  0  0  0  0
 11 34  1  0  0  0  0
 12 13  1  0  0  0  0
 12 35  1  0  0  0  0
 12 36  1  0  0  0  0
 13 37  1  0  0  0  0
 13 38  1  0  0  0  0
 14 15  2  0  0  0  0
 14 56  1  0  0  0  0
 15 39  1  0  0  0  0
 16 17  1  0  0  0  0
 16 40  1  0  0  0  0
 17 25  1  0  0  0  0
 17 18  1  0  0  0  0
 17 41  1  0  0  0  0
 18 19  1  0  0  0  0
 18 42  1  0  0  0  0
 18 43  1  0  0  0  0
 19 20  1  0  0  0  0
 19 44  1  0  0  0  0
 19 45  1  0  0  0  0
 20 25  1  0  0  0  0
 20 21  1  0  0  0  0
 20 55  1  0  0  0  0
 21 22  1  0  0  0  0
 21 46  1  0  0  0  0
 21 47  1  0  0  0  0
 22 23  1  0  0  0  0
 22 48  1  0  0  0  0
 22 49  1  0  0  0  0
 23 24  1  0  0  0  0
 23 50  1  0  0  0  0
 23 51  1  0  0  0  0
 24 25  1  0  0  0  0
 24 52  1  0  0  0  0
 24 53  1  0  0  0  0
 25 54  1  0  0  0  0
M  CHG  1  14   1
M  CHG  1  20   1
M  END
> <s_m_source_file>
AV-unprocessed.smi

> <i_m_source_file_index>
1645

> <i_lp_mmshare_version>
43012

> <i_f3d_flags>
0

> <s_epik_input>
W0NIMl0xW0NIMl1bQ0gyXVtDSDJdW0NASF0oTjEyKVtDQEBIXShbQ0gyXVtDSDJdMilbTkhdQyg9TylbTkhdYzNbY0hdW2NIXWMobltjSF0zKU40W0NIMl1bQ0gyXVtDSDJdW0NIMl1bQ0gyXTQ=

> <s_epik_cmdline>
J2VwaWtfcHl0aG9uJywgJy1waCcsICc3LjAnLCAnLXRuJywgJzgnLCAnLW1hJywgJzIwMCcsICctbWV0YWxfYmluZGluZycsICctaW1hZScsICc8aW5maWxlLm1hZT4nLCAnLW9tYWUnLCAnPG91dGZpbGUubWFlPic=

> <r_lp_tautomer_probability>
0.999994

> <r_epik_Ionization_Penalty>
1.26838

> <r_epik_Ionization_Penalty_Charging>
1.26836

> <r_epik_Ionization_Penalty_Neutral>
1.95562e-05

> <r_epik_State_Penalty>
1.33841

> <r_epik_Charging_Adjusted_Penalty>
2.60677

> <i_epik_Tot_Q>
2

> <i_epik_Tot_abs_Q>
2

> <r_epik_Metal_State_Penalty>
1.40601

> <b_epik_Metal_Only>
0

> <s_lp_Force_Field>
OPLS_2005

> <r_lp_Energy>
57.888

> <b_lp_Chiralities_Consistent>
1

> <s_lp_Variant>
AV-unprocessed.smi:1645-16

> <Gold.Version>
5.8.1

> <Gold.Id.Protein>
6NUR|6NUR_protein|mol2

> <Gold.PLP.Fitness>
46.4608

> <Gold.PLP.PLP>
-43.5566

> <Gold.PLP.part.hbond>
-1.8741

> <Gold.PLP.part.metal>
0.0000

> <Gold.PLP.part.buried>
-5.2537

> <Gold.PLP.part.nonpolar>
-36.5929

> <Gold.PLP.part.repulsive>
0.0585

> <Gold.PLP.ligand.clash>
0.0000

> <Gold.PLP.ligand.torsion>
1.3042

> <Gold.PLP.Chemscore.Hbond>
1.7406

> <Gold.PLP.Chemscore.CHOScore>
0.0000

> <Gold.PLP.Chemscore.Metal>
0.0000

> <Gold.Chemscore.Hbonds>
donor molecule, donor type, donor heavy atom, donor atom, acceptor molecule, acceptor atom, score
      L1  H     3    26       P1  7948  0.80
      L1  H    16    40       P1  7948  0.93

> <Gold.PLP.Chemscore.Internal.Correction>
0.2909

> <Gold.Rescore>
     Score         DG    S(hbond)    S(metal)    S(lipo)     H(rot)  DE(clash)    DE(int)     intcor
     20.00     -22.42       1.83        0.00     114.51       1.00       0.03       2.39       ----

> <Gold.Chemscore.Fitness>
19.9956

> <Gold.Chemscore.DG>
-22.4178

> <Gold.Chemscore.ZeroCoef>
-5.4800

> <Gold.Chemscore.Hbond>
1.8263

> <Gold.Chemscore.Metal>
0.0000

> <Gold.Chemscore.Lipo>
114.5129

> <Gold.Chemscore.Internal_Hbond>
0.0000

> <Gold.Chemscore.DEClash>
0.0275

> <Gold.Chemscore.DEInternal>
2.3946

> <Gold.Chemscore.Rot>
1.0000

> <Gold.Chemscore.Internal.Correction>
   9.000000E+99

> <Gold.Chemscore.Hbonds>
donor molecule, donor type, donor heavy atom, donor atom, acceptor molecule, acceptor atom, score
      L1  H     3    26       P1  7948  0.75
      L1  H    16    40       P1  7948  0.89

> <Gold.Chemscore.Hbond.Weighted>
-6.0998

> <Gold.Chemscore.Metal.Weighted>
-0.0000

> <Gold.Chemscore.Lipo.Weighted>
-13.3980

> <Gold.Chemscore.Internal_Hbond.Weighted>
0.0000

> <Gold.Chemscore.DEClash.Weighted>
0.0275

> <Gold.Chemscore.DEInternal.Weighted>
2.3946

> <Gold.Chemscore.Rot.Weighted>
2.5600

> <Gold.Chemscore.Internal.Correction.Weighted>
   9.000000E+99

> <Gold.Protein.RotatedTorsions>
[ 6907 6896 6895 6894 ] final  133.43 input  -60.11 | X-H torsion
[ 7974 7965 7964 7962 ] final  -52.43 input  175.53 | X-H torsion
[ 8008 7997 7996 7995 ] final  110.42 input   59.86 | X-H torsion
[ 10167 10162 10161 10158 ] final  164.77 input  -65.29 | X-H torsion
[ 10718 10713 10712 10709 ] final  161.19 input   66.30 | X-H torsion
[ 10763 10752 10751 10750 ] final  165.95 input  -60.55 | X-H torsion
[ 11005 11000 10999 10996 ] final -127.21 input  -57.11 | X-H torsion

> <Gold.Protein.ActiveResidues>
 VAL166  LYS551  ARG553  GLY616  TRP617  ASP618  TYR619  PRO620  LYS621  CYS622 
 ASP623  PHE694  ASN695  SER759  ASP760  ASP761  ALA762  ILE779  LEU786  VAL792 
 PHE793  MET794  SER795  GLU796  ALA797  LYS798  CYS799  TRP800  GLU811  SER814 

> <Gold.Protein.RotatedAtoms>
  152.3220  133.5864  159.5750 H   0  0  0  0  0  0  0  0  0  0  0  0  # atno 6907 bound_to 6896
  150.7376  133.9997  159.3643 H   0  0  0  0  0  0  0  0  0  0  0  0  # atno 6908 bound_to 6896
  151.7880  135.0744  160.0434 H   0  0  0  0  0  0  0  0  0  0  0  0  # atno 6909 bound_to 6896
  145.9080  140.7939  142.9709 H   0  0  0  0  0  0  0  0  0  0  0  0  # atno 7974 bound_to 7965
  156.2051  140.3039  155.9610 H   0  0  0  0  0  0  0  0  0  0  0  0  # atno 8008 bound_to 7997
  155.2860  140.0440  157.3036 H   0  0  0  0  0  0  0  0  0  0  0  0  # atno 8009 bound_to 7997
  154.5622  140.2324  155.8326 H   0  0  0  0  0  0  0  0  0  0  0  0  # atno 8010 bound_to 7997
  139.4894  144.4201  151.9197 H   0  0  0  0  0  0  0  0  0  0  0  0  # atno 10167 bound_to 10162
  157.1399  131.0538  151.2331 H   0  0  0  0  0  0  0  0  0  0  0  0  # atno 10718 bound_to 10713
  154.3317  135.2754  155.2468 H   0  0  0  0  0  0  0  0  0  0  0  0  # atno 10763 bound_to 10752
  154.4777  135.5866  153.6370 H   0  0  0  0  0  0  0  0  0  0  0  0  # atno 10764 bound_to 10752
  152.9866  135.6104  154.3510 H   0  0  0  0  0  0  0  0  0  0  0  0  # atno 10765 bound_to 10752
  140.9618  134.0926  157.3961 H   0  0  0  0  0  0  0  0  0  0  0  0  # atno 11005 bound_to 11000
  144.6741  140.1781  143.7408 LP  0  0  0  0  0  0  0  0  0  0  0  0  # atno 17320 bound_to 7965
  145.8707  139.2270  143.1662 LP  0  0  0  0  0  0  0  0  0  0  0  0  # atno 17321 bound_to 7965
  140.3645  144.2932  150.5928 LP  0  0  0  0  0  0  0  0  0  0  0  0  # atno 17342 bound_to 10162
  140.5374  143.2230  151.8141 LP  0  0  0  0  0  0  0  0  0  0  0  0  # atno 17343 bound_to 10162
  157.4316  130.7494  149.6995 LP  0  0  0  0  0  0  0  0  0  0  0  0  # atno 17370 bound_to 10713
  155.9790  130.4044  150.3611 LP  0  0  0  0  0  0  0  0  0  0  0  0  # atno 17371 bound_to 10713
  139.8880  135.0095  156.6598 LP  0  0  0  0  0  0  0  0  0  0  0  0  # atno 17394 bound_to 11000
  140.7457  133.8940  155.8310 LP  0  0  0  0  0  0  0  0  0  0  0  0  # atno 17395 bound_to 11000

$$$$
