AV-unprocessed.smi:1830|AV-procd|sdf|7435|dock9
  -GOLD-   22720 9123D 1   1.00000     0.00000
 Structure written by MMmdl.
 53 56  0  0  0  0  0  0  0  0  2 V2000
  149.5558  132.6568  155.2397 O   0  0  0  0  0  0  0  0  0  0  0  0
  149.1541  133.6168  154.5820 C   0  0  0  0  0  0  0  0  0  0  0  0
  149.6079  134.8665  154.7507 N   0  0  0  0  0  0  0  0  0  0  0  0
  150.6340  135.2576  155.7113 C   0  0  0  0  0  0  0  0  0  0  0  0
  151.2566  136.6228  155.3677 C   0  0  1  0  0  0  0  0  0  0  0  0
  150.2485  137.7703  155.5359 C   0  0  0  0  0  0  0  0  0  0  0  0
  150.8704  139.0852  155.2375 N   0  3  1  0  0  0  0  0  0  0  0  0
  150.0181  140.2177  155.6627 C   0  0  0  0  0  0  0  0  0  0  0  0
  150.5476  140.6786  157.0332 C   0  0  0  0  0  0  0  0  0  0  0  0
  151.7897  139.8232  157.3075 C   0  0  0  0  0  0  0  0  0  0  0  0
  152.1640  139.2835  155.9271 C   0  0  1  0  0  0  0  0  0  0  0  0
  153.0641  138.0308  155.9098 C   0  0  0  0  0  0  0  0  0  0  0  0
  152.3337  136.8651  156.2641 O   0  0  0  0  0  0  0  0  0  0  0  0
  148.2330  133.5595  153.6058 N   0  0  0  0  0  0  0  0  0  0  0  0
  147.5356  132.4187  153.1155 C   0  0  0  0  0  0  0  0  0  0  0  0
  147.8519  131.1085  153.5514 C   0  0  0  0  0  0  0  0  0  0  0  0
  147.1460  130.0149  153.0222 C   0  0  0  0  0  0  0  0  0  0  0  0
  146.1420  130.2689  152.0736 C   0  0  0  0  0  0  0  0  0  0  0  0
  145.8145  131.5100  151.6631 N   0  0  0  0  0  0  0  0  0  0  0  0
  146.4754  132.5770  152.1765 C   0  0  0  0  0  0  0  0  0  0  0  0
  146.0710  133.8544  151.7252 N   0  0  0  0  0  0  0  0  0  0  0  0
  145.6671  134.8397  152.7239 C   0  0  0  0  0  0  0  0  0  0  0  0
  144.5097  135.6332  152.1081 C   0  0  0  0  0  0  0  0  0  0  0  0
  144.6792  135.4131  150.6082 C   0  0  0  0  0  0  0  0  0  0  0  0
  145.2203  133.9877  150.5469 C   0  0  0  0  0  0  0  0  0  0  0  0
  149.2267  135.5967  154.1667 H   0  0  0  0  0  0  0  0  0  0  0  0
  150.1998  135.2803  156.7123 H   0  0  0  0  0  0  0  0  0  0  0  0
  151.4045  134.4862  155.7271 H   0  0  0  0  0  0  0  0  0  0  0  0
  151.6205  136.6085  154.3386 H   0  0  0  0  0  0  0  0  0  0  0  0
  149.3949  137.6242  154.8728 H   0  0  0  0  0  0  0  0  0  0  0  0
  149.8609  137.7660  156.5562 H   0  0  0  0  0  0  0  0  0  0  0  0
  150.1330  141.0236  154.9368 H   0  0  0  0  0  0  0  0  0  0  0  0
  148.9588  139.9572  155.6899 H   0  0  0  0  0  0  0  0  0  0  0  0
  150.8068  141.7374  156.9987 H   0  0  0  0  0  0  0  0  0  0  0  0
  149.8028  140.5485  157.8188 H   0  0  0  0  0  0  0  0  0  0  0  0
  152.5976  140.3906  157.7705 H   0  0  0  0  0  0  0  0  0  0  0  0
  151.5325  139.0020  157.9780 H   0  0  0  0  0  0  0  0  0  0  0  0
  152.6879  140.0819  155.3985 H   0  0  0  0  0  0  0  0  0  0  0  0
  153.4999  137.8930  154.9188 H   0  0  0  0  0  0  0  0  0  0  0  0
  153.8986  138.1550  156.6000 H   0  0  0  0  0  0  0  0  0  0  0  0
  148.0820  134.4119  153.0867 H   0  0  0  0  0  0  0  0  0  0  0  0
  148.6185  130.9235  154.2880 H   0  0  0  0  0  0  0  0  0  0  0  0
  147.3709  129.0058  153.3343 H   0  0  0  0  0  0  0  0  0  0  0  0
  145.5808  129.4555  151.6383 H   0  0  0  0  0  0  0  0  0  0  0  0
  145.3738  134.3750  153.6665 H   0  0  0  0  0  0  0  0  0  0  0  0
  146.5083  135.5046  152.9199 H   0  0  0  0  0  0  0  0  0  0  0  0
  143.5595  135.2089  152.4347 H   0  0  0  0  0  0  0  0  0  0  0  0
  144.5214  136.6866  152.3887 H   0  0  0  0  0  0  0  0  0  0  0  0
  143.7520  135.5398  150.0488 H   0  0  0  0  0  0  0  0  0  0  0  0
  145.4166  136.1111  150.2098 H   0  0  0  0  0  0  0  0  0  0  0  0
  145.7805  133.8061  149.6294 H   0  0  0  0  0  0  0  0  0  0  0  0
  144.3882  133.2834  150.5852 H   0  0  0  0  0  0  0  0  0  0  0  0
  151.0209  139.1296  154.2395 H   0  0  0  0  0  0  0  0  0  0  0  0
  1  2  2  0  0  0  0
  2  3  1  0  0  0  0
  2 14  1  0  0  0  0
  3  4  1  0  0  0  0
  3 26  1  0  0  0  0
  4  5  1  0  0  0  0
  4 27  1  0  0  0  0
  4 28  1  0  0  0  0
  5 13  1  0  0  0  0
  5  6  1  0  0  0  0
  5 29  1  0  0  0  0
  6  7  1  0  0  0  0
  6 30  1  0  0  0  0
  6 31  1  0  0  0  0
  7 11  1  0  0  0  0
  7  8  1  0  0  0  0
  7 53  1  0  0  0  0
  8  9  1  0  0  0  0
  8 32  1  0  0  0  0
  8 33  1  0  0  0  0
  9 10  1  0  0  0  0
  9 34  1  0  0  0  0
  9 35  1  0  0  0  0
 10 11  1  0  0  0  0
 10 36  1  0  0  0  0
 10 37  1  0  0  0  0
 11 12  1  0  0  0  0
 11 38  1  0  0  0  0
 12 13  1  0  0  0  0
 12 39  1  0  0  0  0
 12 40  1  0  0  0  0
 14 15  1  0  0  0  0
 14 41  1  0  0  0  0
 15 20  1  0  0  0  0
 15 16  2  0  0  0  0
 16 17  1  0  0  0  0
 16 42  1  0  0  0  0
 17 18  2  0  0  0  0
 17 43  1  0  0  0  0
 18 19  1  0  0  0  0
 18 44  1  0  0  0  0
 19 20  2  0  0  0  0
 20 21  1  0  0  0  0
 21 25  1  0  0  0  0
 21 22  1  0  0  0  0
 22 23  1  0  0  0  0
 22 45  1  0  0  0  0
 22 46  1  0  0  0  0
 23 24  1  0  0  0  0
 23 47  1  0  0  0  0
 23 48  1  0  0  0  0
 24 25  1  0  0  0  0
 24 49  1  0  0  0  0
 24 50  1  0  0  0  0
 25 51  1  0  0  0  0
 25 52  1  0  0  0  0
M  CHG  1   7   1
M  END
> <s_m_source_file>
AV-unprocessed.smi

> <i_m_source_file_index>
1830

> <i_lp_mmshare_version>
43012

> <i_f3d_flags>
0

> <s_epik_input>
W0NIMl0xW0NIMl1bQ0gyXVtDQEhdKE4xMilbQ0gyXU9bQ0BASF0oW0NIMl0yKVtDSDJdW05IXUMoPU8pW05IXWMzW2NIXVtjSF1bY0hdbmMzTjRbQ0gyXVtDSDJdW0NIMl1bQ0gyXTQ=

> <s_epik_cmdline>
J2VwaWtfcHl0aG9uJywgJy1waCcsICc3LjAnLCAnLXRuJywgJzgnLCAnLW1hJywgJzIwMCcsICctbWV0YWxfYmluZGluZycsICctaW1hZScsICc8aW5maWxlLm1hZT4nLCAnLW9tYWUnLCAnPG91dGZpbGUubWFlPic=

> <r_lp_tautomer_probability>
1

> <r_epik_Ionization_Penalty>
0.193547

> <r_epik_Ionization_Penalty_Charging>
0.10673

> <r_epik_Ionization_Penalty_Neutral>
0.0868166

> <r_epik_State_Penalty>
0.173595

> <r_epik_Charging_Adjusted_Penalty>
0.280326

> <i_epik_Tot_Q>
1

> <i_epik_Tot_abs_Q>
1

> <r_epik_Metal_State_Penalty>
0.164683

> <b_epik_Metal_Only>
0

> <s_lp_Force_Field>
OPLS_2005

> <r_lp_Energy>
64.3317

> <b_lp_Chiralities_Consistent>
1

> <s_lp_Variant>
AV-unprocessed.smi:1830-4

> <Gold.Version>
5.8.1

> <Gold.Id.Protein>
6NUR|6NUR_protein|mol2

> <Gold.PLP.Fitness>
47.3149

> <Gold.PLP.PLP>
-42.3779

> <Gold.PLP.part.hbond>
-3.0000

> <Gold.PLP.part.metal>
0.0000

> <Gold.PLP.part.buried>
-1.5720

> <Gold.PLP.part.nonpolar>
-38.6332

> <Gold.PLP.part.repulsive>
1.1555

> <Gold.PLP.ligand.clash>
0.0000

> <Gold.PLP.ligand.torsion>
0.3534

> <Gold.PLP.Chemscore.Hbond>
1.7737

> <Gold.PLP.Chemscore.CHOScore>
0.0000

> <Gold.PLP.Chemscore.Metal>
0.0000

> <Gold.Chemscore.Hbonds>
donor molecule, donor type, donor heavy atom, donor atom, acceptor molecule, acceptor atom, score
      L1  H     3    26       P1  7948  0.11
      L1  H    14    41       P1  7948  0.27
      P1  H 10752 10765       L1    13  0.10

> <Gold.PLP.Chemscore.Internal.Correction>
0.3227

> <Gold.Rescore>
     Score         DG    S(hbond)    S(metal)    S(lipo)     H(rot)  DE(clash)    DE(int)     intcor
     15.13     -18.13       1.44        0.00      97.75       1.41       0.02       2.99       ----

> <Gold.Chemscore.Fitness>
15.1255

> <Gold.Chemscore.DG>
-18.1340

> <Gold.Chemscore.ZeroCoef>
-5.4800

> <Gold.Chemscore.Hbond>
1.4427

> <Gold.Chemscore.Metal>
0.0000

> <Gold.Chemscore.Lipo>
97.7483

> <Gold.Chemscore.Internal_Hbond>
0.0000

> <Gold.Chemscore.DEClash>
0.0192

> <Gold.Chemscore.DEInternal>
2.9893

> <Gold.Chemscore.Rot>
1.4067

> <Gold.Chemscore.Internal.Correction>
   9.000000E+99

> <Gold.Chemscore.Hbonds>
donor molecule, donor type, donor heavy atom, donor atom, acceptor molecule, acceptor atom, score
      L1  H     3    26       P1  7948  0.10
      L1  H    14    41       P1  7948  0.15

> <Gold.Chemscore.Hbond.Weighted>
-4.8185

> <Gold.Chemscore.Metal.Weighted>
-0.0000

> <Gold.Chemscore.Lipo.Weighted>
-11.4366

> <Gold.Chemscore.Internal_Hbond.Weighted>
0.0000

> <Gold.Chemscore.DEClash.Weighted>
0.0192

> <Gold.Chemscore.DEInternal.Weighted>
2.9893

> <Gold.Chemscore.Rot.Weighted>
3.6011

> <Gold.Chemscore.Internal.Correction.Weighted>
   9.000000E+99

> <Gold.Protein.RotatedTorsions>
[ 6907 6896 6895 6894 ] final -143.12 input  -60.11 | X-H torsion
[ 7974 7965 7964 7962 ] final  131.75 input  175.53 | X-H torsion
[ 8008 7997 7996 7995 ] final  172.16 input   59.86 | X-H torsion
[ 10167 10162 10161 10158 ] final -158.87 input  -65.29 | X-H torsion
[ 10718 10713 10712 10709 ] final -176.25 input   66.30 | X-H torsion
[ 10763 10752 10751 10750 ] final -143.79 input  -60.55 | X-H torsion
[ 11005 11000 10999 10996 ] final  109.93 input  -57.11 | X-H torsion

> <Gold.Protein.ActiveResidues>
 VAL166  LYS551  ARG553  GLY616  TRP617  ASP618  TYR619  PRO620  LYS621  CYS622 
 ASP623  PHE694  ASN695  SER759  ASP760  ASP761  ALA762  ILE779  LEU786  VAL792 
 PHE793  MET794  SER795  GLU796  ALA797  LYS798  CYS799  TRP800  GLU811  SER814 

> <Gold.Protein.RotatedAtoms>
  151.0962  133.5278  159.2612 H   0  0  0  0  0  0  0  0  0  0  0  0  # atno 6907 bound_to 6896
  151.2126  135.0487  159.8927 H   0  0  0  0  0  0  0  0  0  0  0  0  # atno 6908 bound_to 6896
  152.5439  134.0775  159.8274 H   0  0  0  0  0  0  0  0  0  0  0  0  # atno 6909 bound_to 6896
  145.0040  139.4284  143.5278 H   0  0  0  0  0  0  0  0  0  0  0  0  # atno 7974 bound_to 7965
  156.1201  140.1493  156.9217 H   0  0  0  0  0  0  0  0  0  0  0  0  # atno 8008 bound_to 7997
  154.4829  140.0874  156.7462 H   0  0  0  0  0  0  0  0  0  0  0  0  # atno 8009 bound_to 7997
  155.4444  140.3432  155.4296 H   0  0  0  0  0  0  0  0  0  0  0  0  # atno 8010 bound_to 7997
  139.6659  143.9831  152.2254 H   0  0  0  0  0  0  0  0  0  0  0  0  # atno 10167 bound_to 10162
  156.8118  130.9589  151.3115 H   0  0  0  0  0  0  0  0  0  0  0  0  # atno 10718 bound_to 10713
  154.8455  135.3458  154.6243 H   0  0  0  0  0  0  0  0  0  0  0  0  # atno 10763 bound_to 10752
  153.6852  135.6978  153.5110 H   0  0  0  0  0  0  0  0  0  0  0  0  # atno 10764 bound_to 10752
  153.2637  135.4315  155.0875 H   0  0  0  0  0  0  0  0  0  0  0  0  # atno 10765 bound_to 10752
  139.8871  134.9471  156.6201 H   0  0  0  0  0  0  0  0  0  0  0  0  # atno 11005 bound_to 11000
  146.3457  139.9446  142.8736 LP  0  0  0  0  0  0  0  0  0  0  0  0  # atno 17320 bound_to 7965
  145.2113  140.9897  143.4099 LP  0  0  0  0  0  0  0  0  0  0  0  0  # atno 17321 bound_to 7965
  139.9582  144.6575  150.8105 LP  0  0  0  0  0  0  0  0  0  0  0  0  # atno 17342 bound_to 10162
  140.7599  143.3139  151.2780 LP  0  0  0  0  0  0  0  0  0  0  0  0  # atno 17343 bound_to 10162
  157.6502  130.8878  149.9617 LP  0  0  0  0  0  0  0  0  0  0  0  0  # atno 17370 bound_to 10713
  156.1040  130.3654  150.0167 LP  0  0  0  0  0  0  0  0  0  0  0  0  # atno 17371 bound_to 10713
  140.7746  133.8710  155.8518 LP  0  0  0  0  0  0  0  0  0  0  0  0  # atno 17394 bound_to 11000
  140.9813  134.1402  157.4492 LP  0  0  0  0  0  0  0  0  0  0  0  0  # atno 17395 bound_to 11000

$$$$
