AV-unprocessed.smi:1817|AV-procd|sdf|7372|dock7
  -GOLD-   22720 9 33D 1   1.00000     0.00000
 Structure written by MMmdl.
 42 43  0  0  0  0  0  0  0  0  1 V2000
  152.9614  143.0350  160.3803 C   0  0  0  0  0  0  0  0  0  0  0  0
  152.0451  143.1934  159.1584 C   0  0  0  0  0  0  0  0  0  0  0  0
  152.0609  142.0680  158.2258 N   0  0  0  0  0  0  0  0  0  0  0  0
  150.9850  142.1890  157.2452 C   0  0  0  0  0  0  0  0  0  0  0  0
  150.9932  141.0223  156.2408 C   0  0  0  0  0  0  0  0  0  0  0  0
  150.8447  139.7198  156.9043 N   0  0  0  0  0  0  0  0  0  0  0  0
  150.8383  138.5918  155.9474 C   0  0  2  0  0  0  0  0  0  0  0  0
  151.9632  138.6747  154.8910 C   0  0  0  0  0  0  0  0  0  0  0  0
  149.4861  138.3976  155.2123 C   0  0  0  0  0  0  0  0  0  0  0  0
  149.3826  137.0874  154.5724 N   0  0  0  0  0  0  0  0  0  0  0  0
  149.6982  135.9133  155.1369 C   0  0  0  0  0  0  0  0  0  0  0  0
  150.1047  135.8014  156.2933 O   0  0  0  0  0  0  0  0  0  0  0  0
  149.5166  134.8985  154.2764 N   0  0  0  0  0  0  0  0  0  0  0  0
  149.7401  133.5165  154.4984 C   0  0  0  0  0  0  0  0  0  0  0  0
  150.5300  133.1634  155.5194 N   0  0  0  0  0  0  0  0  0  0  0  0
  150.6636  131.7840  155.6215 N   0  0  0  0  0  0  0  0  0  0  0  0
  149.9685  131.1502  154.6722 C   0  0  0  0  0  0  0  0  0  0  0  0
  149.0809  132.1745  153.5580 S   0  0  0  0  0  0  0  0  0  0  0  0
  151.9207  139.6092  157.8992 C   0  0  0  0  0  0  0  0  0  0  0  0
  151.9106  140.7788  158.9008 C   0  0  0  0  0  0  0  0  0  0  0  0
  152.9743  143.9522  160.9691 H   0  0  0  0  0  0  0  0  0  0  0  0
  153.9873  142.8229  160.0776 H   0  0  0  0  0  0  0  0  0  0  0  0
  152.6293  142.2332  161.0391 H   0  0  0  0  0  0  0  0  0  0  0  0
  151.0242  143.3861  159.4916 H   0  0  0  0  0  0  0  0  0  0  0  0
  152.3619  144.0926  158.6285 H   0  0  0  0  0  0  0  0  0  0  0  0
  150.0190  142.2280  157.7515 H   0  0  0  0  0  0  0  0  0  0  0  0
  151.0881  143.1282  156.7004 H   0  0  0  0  0  0  0  0  0  0  0  0
  150.1740  141.1901  155.5434 H   0  0  0  0  0  0  0  0  0  0  0  0
  151.9147  141.0434  155.6567 H   0  0  0  0  0  0  0  0  0  0  0  0
  151.0143  137.6739  156.5105 H   0  0  0  0  0  0  0  0  0  0  0  0
  151.8516  137.8998  154.1322 H   0  0  0  0  0  0  0  0  0  0  0  0
  152.9491  138.5275  155.3310 H   0  0  0  0  0  0  0  0  0  0  0  0
  151.9632  139.6379  154.3799 H   0  0  0  0  0  0  0  0  0  0  0  0
  148.6563  138.5585  155.9025 H   0  0  0  0  0  0  0  0  0  0  0  0
  149.3498  139.1599  154.4461 H   0  0  0  0  0  0  0  0  0  0  0  0
  149.0661  137.0811  153.6137 H   0  0  0  0  0  0  0  0  0  0  0  0
  149.1813  135.1410  153.3557 H   0  0  0  0  0  0  0  0  0  0  0  0
  149.9788  130.0712  154.6278 H   0  0  0  0  0  0  0  0  0  0  0  0
  151.8172  138.6902  158.4735 H   0  0  0  0  0  0  0  0  0  0  0  0
  152.8893  139.5605  157.3991 H   0  0  0  0  0  0  0  0  0  0  0  0
  152.7215  140.6302  159.6129 H   0  0  0  0  0  0  0  0  0  0  0  0
  150.9829  140.7617  159.4751 H   0  0  0  0  0  0  0  0  0  0  0  0
  1  2  1  0  0  0  0
  1 21  1  0  0  0  0
  1 22  1  0  0  0  0
  1 23  1  0  0  0  0
  2  3  1  0  0  0  0
  2 24  1  0  0  0  0
  2 25  1  0  0  0  0
  3 20  1  0  0  0  0
  3  4  1  0  0  0  0
  4  5  1  0  0  0  0
  4 26  1  0  0  0  0
  4 27  1  0  0  0  0
  5  6  1  0  0  0  0
  5 28  1  0  0  0  0
  5 29  1  0  0  0  0
  6  7  1  0  0  0  0
  6 19  1  0  0  0  0
  7  8  1  0  0  0  0
  7  9  1  0  0  0  0
  7 30  1  0  0  0  0
  8 31  1  0  0  0  0
  8 32  1  0  0  0  0
  8 33  1  0  0  0  0
  9 10  1  0  0  0  0
  9 34  1  0  0  0  0
  9 35  1  0  0  0  0
 10 11  1  0  0  0  0
 10 36  1  0  0  0  0
 11 12  2  0  0  0  0
 11 13  1  0  0  0  0
 13 14  1  0  0  0  0
 13 37  1  0  0  0  0
 14 18  1  0  0  0  0
 14 15  2  0  0  0  0
 15 16  1  0  0  0  0
 16 17  2  0  0  0  0
 17 18  1  0  0  0  0
 17 38  1  0  0  0  0
 19 20  1  0  0  0  0
 19 39  1  0  0  0  0
 19 40  1  0  0  0  0
 20 41  1  0  0  0  0
 20 42  1  0  0  0  0
M  END
> <s_m_source_file>
AV-unprocessed.smi

> <i_m_source_file_index>
1817

> <i_lp_mmshare_version>
43012

> <i_f3d_flags>
0

> <s_epik_input>
W0NIM11bQ0gyXU4xW0NIMl1bQ0gyXU4oW0NIMl1bQ0gyXTEpW0NASF0oW0NIM10pW0NIMl1bTkhdQyg9TylbTkhdYzJubltjSF1zMg==

> <s_epik_cmdline>
J2VwaWtfcHl0aG9uJywgJy1waCcsICc3LjAnLCAnLXRuJywgJzgnLCAnLW1hJywgJzIwMCcsICctbWV0YWxfYmluZGluZycsICctaW1hZScsICc8aW5maWxlLm1hZT4nLCAnLW9tYWUnLCAnPG91dGZpbGUubWFlPic=

> <r_lp_tautomer_probability>
1

> <r_epik_Ionization_Penalty>
2.44129

> <r_epik_Ionization_Penalty_Charging>
0

> <r_epik_Ionization_Penalty_Neutral>
2.44129

> <r_epik_State_Penalty>
1.7682

> <r_epik_Charging_Adjusted_Penalty>
1.7682

> <i_epik_Tot_Q>
0

> <i_epik_Tot_abs_Q>
0

> <r_epik_Metal_State_Penalty>
2.10306

> <b_epik_Metal_Only>
0

> <s_lp_Force_Field>
OPLS_2005

> <r_lp_Energy>
42.0041

> <b_lp_Chiralities_Consistent>
1

> <s_lp_Variant>
AV-unprocessed.smi:1817-5

> <Gold.Version>
5.8.1

> <Gold.Id.Protein>
6NUR|6NUR_protein|mol2

> <Gold.PLP.Fitness>
38.4774

> <Gold.PLP.PLP>
-33.6134

> <Gold.PLP.part.hbond>
-2.0000

> <Gold.PLP.part.metal>
0.0000

> <Gold.PLP.part.buried>
-4.8011

> <Gold.PLP.part.nonpolar>
-27.4524

> <Gold.PLP.part.repulsive>
0.0604

> <Gold.PLP.ligand.clash>
0.0000

> <Gold.PLP.ligand.torsion>
0.5729

> <Gold.PLP.Chemscore.Hbond>
1.9920

> <Gold.PLP.Chemscore.CHOScore>
0.0000

> <Gold.PLP.Chemscore.Metal>
0.0000

> <Gold.Chemscore.Hbonds>
donor molecule, donor type, donor heavy atom, donor atom, acceptor molecule, acceptor atom, score
      L1  H    10    36       P1  7948  1.00
      L1  H    13    37       P1  7948  0.90

> <Gold.PLP.Chemscore.Internal.Correction>
0.0339

> <Gold.Rescore>
     Score         DG    S(hbond)    S(metal)    S(lipo)     H(rot)  DE(clash)    DE(int)     intcor
     12.44     -15.42       1.84        0.00      73.26       1.87       0.00       2.98       ----

> <Gold.Chemscore.Fitness>
12.4370

> <Gold.Chemscore.DG>
-15.4178

> <Gold.Chemscore.ZeroCoef>
-5.4800

> <Gold.Chemscore.Hbond>
1.8450

> <Gold.Chemscore.Metal>
0.0000

> <Gold.Chemscore.Lipo>
73.2586

> <Gold.Chemscore.Internal_Hbond>
0.0000

> <Gold.Chemscore.DEClash>
0.0000

> <Gold.Chemscore.DEInternal>
2.9807

> <Gold.Chemscore.Rot>
1.8733

> <Gold.Chemscore.Internal.Correction>
   9.000000E+99

> <Gold.Chemscore.Hbonds>
donor molecule, donor type, donor heavy atom, donor atom, acceptor molecule, acceptor atom, score
      L1  H    10    36       P1  7948  0.94
      L1  H    13    37       P1  7948  0.18

> <Gold.Chemscore.Hbond.Weighted>
-6.1622

> <Gold.Chemscore.Metal.Weighted>
-0.0000

> <Gold.Chemscore.Lipo.Weighted>
-8.5713

> <Gold.Chemscore.Internal_Hbond.Weighted>
0.0000

> <Gold.Chemscore.DEClash.Weighted>
0.0000

> <Gold.Chemscore.DEInternal.Weighted>
2.9807

> <Gold.Chemscore.Rot.Weighted>
4.7957

> <Gold.Chemscore.Internal.Correction.Weighted>
   9.000000E+99

> <Gold.Protein.RotatedTorsions>
[ 6907 6896 6895 6894 ] final  -53.48 input  -60.11 | X-H torsion
[ 7974 7965 7964 7962 ] final  -45.74 input  175.53 | X-H torsion
[ 8008 7997 7996 7995 ] final  167.82 input   59.86 | X-H torsion
[ 10167 10162 10161 10158 ] final  -49.95 input  -65.29 | X-H torsion
[ 10718 10713 10712 10709 ] final   15.47 input   66.30 | X-H torsion
[ 10763 10752 10751 10750 ] final  155.20 input  -60.55 | X-H torsion
[ 11005 11000 10999 10996 ] final   52.47 input  -57.11 | X-H torsion

> <Gold.Protein.ActiveResidues>
 VAL166  LYS551  ARG553  GLY616  TRP617  ASP618  TYR619  PRO620  LYS621  CYS622 
 ASP623  PHE694  ASN695  SER759  ASP760  ASP761  ALA762  ILE779  LEU786  VAL792 
 PHE793  MET794  SER795  GLU796  ALA797  LYS798  CYS799  TRP800  GLU811  SER814 

> <Gold.Protein.RotatedAtoms>
  150.8423  134.7719  159.6941 H   0  0  0  0  0  0  0  0  0  0  0  0  # atno 6907 bound_to 6896
  152.4508  134.5395  159.9844 H   0  0  0  0  0  0  0  0  0  0  0  0  # atno 6908 bound_to 6896
  151.5533  133.3376  159.2993 H   0  0  0  0  0  0  0  0  0  0  0  0  # atno 6909 bound_to 6896
  145.9790  140.7303  142.9373 H   0  0  0  0  0  0  0  0  0  0  0  0  # atno 7974 bound_to 7965
  156.1601  140.1607  156.8627 H   0  0  0  0  0  0  0  0  0  0  0  0  # atno 8008 bound_to 7997
  154.5152  140.0791  156.8103 H   0  0  0  0  0  0  0  0  0  0  0  0  # atno 8009 bound_to 7997
  155.3725  140.3401  155.4246 H   0  0  0  0  0  0  0  0  0  0  0  0  # atno 8010 bound_to 7997
  140.6661  143.2677  151.4288 H   0  0  0  0  0  0  0  0  0  0  0  0  # atno 10167 bound_to 10162
  157.0540  130.6281  149.5773 H   0  0  0  0  0  0  0  0  0  0  0  0  # atno 10718 bound_to 10713
  154.1645  135.2808  155.3099 H   0  0  0  0  0  0  0  0  0  0  0  0  # atno 10763 bound_to 10752
  154.6121  135.5495  153.7488 H   0  0  0  0  0  0  0  0  0  0  0  0  # atno 10764 bound_to 10752
  153.0182  135.6418  154.1787 H   0  0  0  0  0  0  0  0  0  0  0  0  # atno 10765 bound_to 10752
  140.0847  134.5291  155.8911 H   0  0  0  0  0  0  0  0  0  0  0  0  # atno 11005 bound_to 11000
  144.6856  140.2877  143.7283 LP  0  0  0  0  0  0  0  0  0  0  0  0  # atno 17320 bound_to 7965
  145.7797  139.1887  143.2165 LP  0  0  0  0  0  0  0  0  0  0  0  0  # atno 17321 bound_to 7965
  139.5910  144.1498  152.2088 LP  0  0  0  0  0  0  0  0  0  0  0  0  # atno 17342 bound_to 10162
  140.0853  144.5666  150.7093 LP  0  0  0  0  0  0  0  0  0  0  0  0  # atno 17343 bound_to 10162
  155.9999  130.5076  150.7623 LP  0  0  0  0  0  0  0  0  0  0  0  0  # atno 17370 bound_to 10713
  157.5008  131.0918  151.0317 LP  0  0  0  0  0  0  0  0  0  0  0  0  # atno 17371 bound_to 10713
  141.2058  133.6650  156.6205 LP  0  0  0  0  0  0  0  0  0  0  0  0  # atno 17394 bound_to 11000
  140.3438  134.7827  157.4417 LP  0  0  0  0  0  0  0  0  0  0  0  0  # atno 17395 bound_to 11000

$$$$
