AV-unprocessed.smi:3232|AV-procd|sdf|12341|dock8
  -GOLD-   2272018203D 1   1.00000     0.00000
 Structure written by MMmdl.
 40 41  0  0  0  0  0  0  0  0  2 V2000
  141.8846  137.5610  154.0035 C   0  0  0  0  0  0  0  0  0  0  0  0
  143.3542  137.7125  154.4209 C   0  0  0  0  0  0  0  0  0  0  0  0
  144.2661  137.7953  153.2529 N   0  3  2  0  0  0  0  0  0  0  0  0
  144.2087  136.6318  152.3394 C   0  0  0  0  0  0  0  0  0  0  0  0
  145.5765  136.5530  151.6468 C   0  0  0  0  0  0  0  0  0  0  0  0
  146.3344  137.7875  152.1339 C   0  0  0  0  0  0  0  0  0  0  0  0
  145.6994  138.0984  153.4955 C   0  0  2  0  0  0  0  0  0  0  0  0
  146.3105  137.2812  154.6652 C   0  0  0  0  0  0  0  0  0  0  0  0
  147.6907  136.8834  154.4040 N   0  0  0  0  0  0  0  0  0  0  0  0
  148.6859  136.8866  155.3058 C   0  0  0  0  0  0  0  0  0  0  0  0
  148.5270  137.2177  156.4812 O   0  0  0  0  0  0  0  0  0  0  0  0
  150.0665  136.4438  154.8000 C   0  0  2  0  0  0  0  0  0  0  0  0
  150.6280  135.2557  155.6068 C   0  0  0  0  0  0  0  0  0  0  0  0
  150.9785  137.5809  154.7749 N   0  0  0  0  0  0  0  0  0  0  0  0
  150.7265  138.8839  154.9188 C   0  0  0  0  0  0  0  0  0  0  0  0
  151.8087  139.6491  154.8926 N   0  0  0  0  0  0  0  0  0  0  0  0
  152.7641  138.6863  154.7305 C   0  0  0  0  0  0  0  0  0  0  0  0
  152.3224  137.4305  154.6660 N   0  0  0  0  0  0  0  0  0  0  0  0
  141.2488  137.4247  154.8786 H   0  0  0  0  0  0  0  0  0  0  0  0
  141.7460  136.6937  153.3573 H   0  0  0  0  0  0  0  0  0  0  0  0
  141.5217  138.4391  153.4694 H   0  0  0  0  0  0  0  0  0  0  0  0
  143.4851  138.5691  155.0827 H   0  0  0  0  0  0  0  0  0  0  0  0
  143.6361  136.8358  155.0054 H   0  0  0  0  0  0  0  0  0  0  0  0
  144.0199  135.7118  152.8951 H   0  0  0  0  0  0  0  0  0  0  0  0
  143.3966  136.7628  151.6237 H   0  0  0  0  0  0  0  0  0  0  0  0
  146.0987  135.6474  151.9592 H   0  0  0  0  0  0  0  0  0  0  0  0
  145.4926  136.5275  150.5599 H   0  0  0  0  0  0  0  0  0  0  0  0
  147.4135  137.6414  152.1569 H   0  0  0  0  0  0  0  0  0  0  0  0
  146.1421  138.6165  151.4510 H   0  0  0  0  0  0  0  0  0  0  0  0
  145.8073  139.1608  153.7180 H   0  0  0  0  0  0  0  0  0  0  0  0
  146.3414  137.8835  155.5724 H   0  0  0  0  0  0  0  0  0  0  0  0
  145.6899  136.4148  154.9007 H   0  0  0  0  0  0  0  0  0  0  0  0
  147.9105  136.5952  153.4613 H   0  0  0  0  0  0  0  0  0  0  0  0
  149.9527  136.1052  153.7685 H   0  0  0  0  0  0  0  0  0  0  0  0
  149.9521  134.4008  155.5660 H   0  0  0  0  0  0  0  0  0  0  0  0
  150.7795  135.5051  156.6578 H   0  0  0  0  0  0  0  0  0  0  0  0
  151.5875  134.9314  155.2035 H   0  0  0  0  0  0  0  0  0  0  0  0
  149.7304  139.2808  155.0491 H   0  0  0  0  0  0  0  0  0  0  0  0
  153.8172  138.9169  154.6658 H   0  0  0  0  0  0  0  0  0  0  0  0
  143.9320  138.5700  152.6974 H   0  0  0  0  0  0  0  0  0  0  0  0
  1  2  1  0  0  0  0
  1 19  1  0  0  0  0
  1 20  1  0  0  0  0
  1 21  1  0  0  0  0
  2  3  1  0  0  0  0
  2 22  1  0  0  0  0
  2 23  1  0  0  0  0
  3  7  1  0  0  0  0
  3  4  1  0  0  0  0
  3 40  1  0  0  0  0
  4  5  1  0  0  0  0
  4 24  1  0  0  0  0
  4 25  1  0  0  0  0
  5  6  1  0  0  0  0
  5 26  1  0  0  0  0
  5 27  1  0  0  0  0
  6  7  1  0  0  0  0
  6 28  1  0  0  0  0
  6 29  1  0  0  0  0
  7  8  1  0  0  0  0
  7 30  1  0  0  0  0
  8  9  1  0  0  0  0
  8 31  1  0  0  0  0
  8 32  1  0  0  0  0
  9 10  1  0  0  0  0
  9 33  1  0  0  0  0
 10 11  2  0  0  0  0
 10 12  1  0  0  0  0
 12 13  1  0  0  0  0
 12 14  1  0  0  0  0
 12 34  1  0  0  0  0
 13 35  1  0  0  0  0
 13 36  1  0  0  0  0
 13 37  1  0  0  0  0
 14 18  1  0  0  0  0
 14 15  1  0  0  0  0
 15 16  2  0  0  0  0
 15 38  1  0  0  0  0
 16 17  1  0  0  0  0
 17 18  2  0  0  0  0
 17 39  1  0  0  0  0
M  CHG  1   3   1
M  END
> <s_m_source_file>
AV-unprocessed.smi

> <i_m_source_file_index>
3232

> <i_lp_mmshare_version>
43012

> <i_f3d_flags>
0

> <s_epik_input>
W0NIM11bQ0gyXU4xW0NIMl1bQ0gyXVtDSDJdW0NASF0xW0NIMl1bTkhdQyg9TylbQ0BIXShbQ0gzXSluMltjSF1uW2NIXW4y

> <s_epik_cmdline>
J2VwaWtfcHl0aG9uJywgJy1waCcsICc3LjAnLCAnLXRuJywgJzgnLCAnLW1hJywgJzIwMCcsICctbWV0YWxfYmluZGluZycsICctaW1hZScsICc8aW5maWxlLm1hZT4nLCAnLW9tYWUnLCAnPG91dGZpbGUubWFlPic=

> <r_lp_tautomer_probability>
1

> <r_epik_Ionization_Penalty>
0.00177695

> <r_epik_Ionization_Penalty_Charging>
0.00176881

> <r_epik_Ionization_Penalty_Neutral>
8.13528e-06

> <r_epik_State_Penalty>
0.00119827

> <r_epik_Charging_Adjusted_Penalty>
0.00296709

> <i_epik_Tot_Q>
1

> <i_epik_Tot_abs_Q>
1

> <r_epik_Metal_State_Penalty>
-0

> <b_epik_Metal_Only>
0

> <s_lp_Force_Field>
OPLS_2005

> <r_lp_Energy>
38.6691

> <b_lp_Chiralities_Consistent>
1

> <s_lp_Variant>
AV-unprocessed.smi:3232-3

> <Gold.Version>
5.8.1

> <Gold.Id.Protein>
6NUR|6NUR_protein|mol2

> <Gold.PLP.Fitness>
38.5314

> <Gold.PLP.PLP>
-26.5560

> <Gold.PLP.part.hbond>
-4.0000

> <Gold.PLP.part.metal>
0.0000

> <Gold.PLP.part.buried>
-1.8763

> <Gold.PLP.part.nonpolar>
-21.4000

> <Gold.PLP.part.repulsive>
0.1537

> <Gold.PLP.ligand.clash>
0.0000

> <Gold.PLP.ligand.torsion>
1.1353

> <Gold.PLP.Chemscore.Hbond>
4.7040

> <Gold.PLP.Chemscore.CHOScore>
0.0000

> <Gold.PLP.Chemscore.Metal>
0.0000

> <Gold.Chemscore.Hbonds>
donor molecule, donor type, donor heavy atom, donor atom, acceptor molecule, acceptor atom, score
      L1  H     3    40       P1 10175  2.00
      L1  H     9    33       P1  7948  1.00
      P1  H  7989  7998       L1    16  1.00
      P1  H 10752 10765       L1    18  0.72

> <Gold.PLP.Chemscore.Internal.Correction>
0.1340

> <Gold.Rescore>
     Score         DG    S(hbond)    S(metal)    S(lipo)     H(rot)  DE(clash)    DE(int)     intcor
     13.96     -15.51       3.62        0.00      36.74       2.49       0.24       1.31       ----

> <Gold.Chemscore.Fitness>
13.9632

> <Gold.Chemscore.DG>
-15.5078

> <Gold.Chemscore.ZeroCoef>
-5.4800

> <Gold.Chemscore.Hbond>
3.6224

> <Gold.Chemscore.Metal>
0.0000

> <Gold.Chemscore.Lipo>
36.7403

> <Gold.Chemscore.Internal_Hbond>
0.0000

> <Gold.Chemscore.DEClash>
0.2395

> <Gold.Chemscore.DEInternal>
1.3051

> <Gold.Chemscore.Rot>
2.4882

> <Gold.Chemscore.Internal.Correction>
   9.000000E+99

> <Gold.Chemscore.Hbonds>
donor molecule, donor type, donor heavy atom, donor atom, acceptor molecule, acceptor atom, score
      L1  H     3    40       P1 10175  0.95
      L1  H     9    33       P1  7948  0.99
      P1  H  7989  7998       L1    16  0.60
      P1  H 10752 10765       L1    18  0.68

> <Gold.Chemscore.Hbond.Weighted>
-12.0989

> <Gold.Chemscore.Metal.Weighted>
-0.0000

> <Gold.Chemscore.Lipo.Weighted>
-4.2986

> <Gold.Chemscore.Internal_Hbond.Weighted>
0.0000

> <Gold.Chemscore.DEClash.Weighted>
0.2395

> <Gold.Chemscore.DEInternal.Weighted>
1.3051

> <Gold.Chemscore.Rot.Weighted>
6.3697

> <Gold.Chemscore.Internal.Correction.Weighted>
   9.000000E+99

> <Gold.Protein.RotatedTorsions>
[ 6907 6896 6895 6894 ] final  105.90 input  -60.11 | X-H torsion
[ 7974 7965 7964 7962 ] final  -28.01 input  175.53 | X-H torsion
[ 8008 7997 7996 7995 ] final -147.91 input   59.86 | X-H torsion
[ 10167 10162 10161 10158 ] final  -57.93 input  -65.29 | X-H torsion
[ 10718 10713 10712 10709 ] final  161.29 input   66.30 | X-H torsion
[ 10763 10752 10751 10750 ] final  165.97 input  -60.55 | X-H torsion
[ 11005 11000 10999 10996 ] final  -85.01 input  -57.11 | X-H torsion

> <Gold.Protein.ActiveResidues>
 VAL166  LYS551  ARG553  GLY616  TRP617  ASP618  TYR619  PRO620  LYS621  CYS622 
 ASP623  PHE694  ASN695  SER759  ASP760  ASP761  ALA762  ILE779  LEU786  VAL792 
 PHE793  MET794  SER795  GLU796  ALA797  LYS798  CYS799  TRP800  GLU811  SER814 

> <Gold.Protein.RotatedAtoms>
  152.5214  133.9460  159.7648 H   0  0  0  0  0  0  0  0  0  0  0  0  # atno 6907 bound_to 6896
  150.9780  133.6266  159.2734 H   0  0  0  0  0  0  0  0  0  0  0  0  # atno 6908 bound_to 6896
  151.3454  135.0878  159.9438 H   0  0  0  0  0  0  0  0  0  0  0  0  # atno 6909 bound_to 6896
  146.1318  140.5226  142.8690 H   0  0  0  0  0  0  0  0  0  0  0  0  # atno 7974 bound_to 7965
  155.5831  140.0645  157.2778 H   0  0  0  0  0  0  0  0  0  0  0  0  # atno 8008 bound_to 7997
  154.4327  140.1848  156.1043 H   0  0  0  0  0  0  0  0  0  0  0  0  # atno 8009 bound_to 7997
  156.0290  140.3308  155.7123 H   0  0  0  0  0  0  0  0  0  0  0  0  # atno 8010 bound_to 7997
  140.6228  143.2426  151.5437 H   0  0  0  0  0  0  0  0  0  0  0  0  # atno 10167 bound_to 10162
  157.1386  131.0535  151.2337 H   0  0  0  0  0  0  0  0  0  0  0  0  # atno 10718 bound_to 10713
  154.3320  135.2754  155.2467 H   0  0  0  0  0  0  0  0  0  0  0  0  # atno 10763 bound_to 10752
  154.4774  135.5867  153.6369 H   0  0  0  0  0  0  0  0  0  0  0  0  # atno 10764 bound_to 10752
  152.9865  135.6103  154.3513 H   0  0  0  0  0  0  0  0  0  0  0  0  # atno 10765 bound_to 10752
  141.1645  133.7376  156.8953 H   0  0  0  0  0  0  0  0  0  0  0  0  # atno 11005 bound_to 11000
  144.7698  140.5613  143.6678 LP  0  0  0  0  0  0  0  0  0  0  0  0  # atno 17320 bound_to 7965
  145.5243  139.1476  143.3535 LP  0  0  0  0  0  0  0  0  0  0  0  0  # atno 17321 bound_to 7965
  139.5454  144.2536  152.1431 LP  0  0  0  0  0  0  0  0  0  0  0  0  # atno 17342 bound_to 10162
  140.1760  144.4890  150.6553 LP  0  0  0  0  0  0  0  0  0  0  0  0  # atno 17343 bound_to 10162
  157.4327  130.7500  149.7003 LP  0  0  0  0  0  0  0  0  0  0  0  0  # atno 17370 bound_to 10713
  155.9793  130.4041  150.3595 LP  0  0  0  0  0  0  0  0  0  0  0  0  # atno 17371 bound_to 10713
  140.1620  134.9159  157.2727 LP  0  0  0  0  0  0  0  0  0  0  0  0  # atno 17394 bound_to 11000
  140.2600  134.3582  155.7410 LP  0  0  0  0  0  0  0  0  0  0  0  0  # atno 17395 bound_to 11000

$$$$
