AV-unprocessed.smi:164|AV-procd|sdf|1385|dock10
  -GOLD-   2262019123D 1   1.00000     0.00000
 Structure written by MMmdl.
 53 55  0  0  0  0  0  0  0  0  1 V2000
  153.9054  141.3273  159.7156 C   0  0  0  0  0  0  0  0  0  0  0  0
  152.7921  141.2406  158.6857 C   0  0  0  0  0  0  0  0  0  0  0  0
  152.2383  142.4331  158.1764 C   0  0  0  0  0  0  0  0  0  0  0  0
  151.2029  142.3886  157.2263 C   0  0  0  0  0  0  0  0  0  0  0  0
  150.7171  141.1496  156.7660 C   0  0  0  0  0  0  0  0  0  0  0  0
  149.5959  141.1162  155.7437 C   0  0  0  0  0  0  0  0  0  0  0  0
  151.2783  139.9486  157.2571 C   0  0  0  0  0  0  0  0  0  0  0  0
  150.8058  138.7483  156.7939 O   0  0  0  0  0  0  0  0  0  0  0  0
  151.1023  138.5122  155.4236 C   0  0  0  0  0  0  0  0  0  0  0  0
  150.6384  137.1041  155.0198 C   0  0  1  0  0  0  0  0  0  0  0  0
  151.3452  136.7407  153.8511 O   0  0  0  0  0  0  0  0  0  0  0  0
  150.8571  136.0571  156.1345 C   0  0  0  0  0  0  0  0  0  0  0  0
  150.7212  134.6874  155.6680 N   0  0  0  0  0  0  0  0  0  0  0  0
  149.4873  134.3033  155.0894 C   0  0  0  0  0  0  0  0  0  0  0  0
  148.5455  135.0888  154.9696 O   0  0  0  0  0  0  0  0  0  0  0  0
  149.4262  132.9089  154.6652 C   0  0  0  0  0  0  0  0  0  0  0  0
  148.3090  132.4406  154.0836 F   0  0  0  0  0  0  0  0  0  0  0  0
  150.4741  132.0764  154.8475 C   0  0  0  0  0  0  0  0  0  0  0  0
  151.6601  132.4735  155.4441 N   0  0  0  0  0  0  0  0  0  0  0  0
  152.8188  131.5192  155.6464 C   0  0  1  0  0  0  0  0  0  0  0  0
  152.3721  130.2850  156.4537 C   0  0  0  0  0  0  0  0  0  0  0  0
  152.8393  129.1304  155.5895 C   0  0  0  0  0  0  0  0  0  0  0  0
  152.7828  129.7361  154.1953 C   0  0  0  0  0  0  0  0  0  0  0  0
  153.2737  131.0532  154.4077 O   0  0  0  0  0  0  0  0  0  0  0  0
  151.8138  133.8111  155.8696 C   0  0  0  0  0  0  0  0  0  0  0  0
  152.8591  134.1859  156.4071 O   0  0  0  0  0  0  0  0  0  0  0  0
  152.3047  139.9887  158.2343 C   0  0  0  0  0  0  0  0  0  0  0  0
  152.8804  138.6944  158.7940 C   0  0  0  0  0  0  0  0  0  0  0  0
  154.2535  142.3532  159.8384 H   0  0  0  0  0  0  0  0  0  0  0  0
  154.7595  140.7211  159.4129 H   0  0  0  0  0  0  0  0  0  0  0  0
  153.5538  140.9737  160.6852 H   0  0  0  0  0  0  0  0  0  0  0  0
  152.6025  143.3915  158.5170 H   0  0  0  0  0  0  0  0  0  0  0  0
  150.7842  143.3112  156.8517 H   0  0  0  0  0  0  0  0  0  0  0  0
  148.8509  140.3665  156.0120 H   0  0  0  0  0  0  0  0  0  0  0  0
  149.9899  140.8725  154.7570 H   0  0  0  0  0  0  0  0  0  0  0  0
  149.0914  142.0807  155.6792 H   0  0  0  0  0  0  0  0  0  0  0  0
  150.5706  139.2468  154.8174 H   0  0  0  0  0  0  0  0  0  0  0  0
  152.1656  138.6454  155.2166 H   0  0  0  0  0  0  0  0  0  0  0  0
  149.5812  137.1632  154.7575 H   0  0  0  0  0  0  0  0  0  0  0  0
  150.7482  136.7654  153.1188 H   0  0  0  0  0  0  0  0  0  0  0  0
  151.8228  136.1678  156.6307 H   0  0  0  0  0  0  0  0  0  0  0  0
  150.1293  136.1823  156.9385 H   0  0  0  0  0  0  0  0  0  0  0  0
  150.3589  131.0591  154.5064 H   0  0  0  0  0  0  0  0  0  0  0  0
  153.6040  132.1075  156.1248 H   0  0  0  0  0  0  0  0  0  0  0  0
  152.8194  130.2853  157.4482 H   0  0  0  0  0  0  0  0  0  0  0  0
  151.2854  130.2700  156.5533 H   0  0  0  0  0  0  0  0  0  0  0  0
  153.8673  128.8655  155.8401 H   0  0  0  0  0  0  0  0  0  0  0  0
  152.2192  128.2396  155.6937 H   0  0  0  0  0  0  0  0  0  0  0  0
  153.3908  129.1920  153.4725 H   0  0  0  0  0  0  0  0  0  0  0  0
  151.7562  129.7693  153.8278 H   0  0  0  0  0  0  0  0  0  0  0  0
  152.2540  137.8318  158.5681 H   0  0  0  0  0  0  0  0  0  0  0  0
  152.9705  138.7452  159.8788 H   0  0  0  0  0  0  0  0  0  0  0  0
  153.8697  138.5116  158.3744 H   0  0  0  0  0  0  0  0  0  0  0  0
  1  2  1  0  0  0  0
  1 29  1  0  0  0  0
  1 30  1  0  0  0  0
  1 31  1  0  0  0  0
  2 27  1  0  0  0  0
  2  3  2  0  0  0  0
  3  4  1  0  0  0  0
  3 32  1  0  0  0  0
  4  5  2  0  0  0  0
  4 33  1  0  0  0  0
  5  6  1  0  0  0  0
  5  7  1  0  0  0  0
  6 34  1  0  0  0  0
  6 35  1  0  0  0  0
  6 36  1  0  0  0  0
  7  8  1  0  0  0  0
  7 27  2  0  0  0  0
  8  9  1  0  0  0  0
  9 10  1  0  0  0  0
  9 37  1  0  0  0  0
  9 38  1  0  0  0  0
 10 11  1  0  0  0  0
 10 12  1  0  0  0  0
 10 39  1  0  0  0  0
 11 40  1  0  0  0  0
 12 13  1  0  0  0  0
 12 41  1  0  0  0  0
 12 42  1  0  0  0  0
 13 25  1  0  0  0  0
 13 14  1  0  0  0  0
 14 15  2  0  0  0  0
 14 16  1  0  0  0  0
 16 17  1  0  0  0  0
 16 18  2  0  0  0  0
 18 19  1  0  0  0  0
 18 43  1  0  0  0  0
 19 20  1  0  0  0  0
 19 25  1  0  0  0  0
 20 24  1  0  0  0  0
 20 21  1  0  0  0  0
 20 44  1  0  0  0  0
 21 22  1  0  0  0  0
 21 45  1  0  0  0  0
 21 46  1  0  0  0  0
 22 23  1  0  0  0  0
 22 47  1  0  0  0  0
 22 48  1  0  0  0  0
 23 24  1  0  0  0  0
 23 49  1  0  0  0  0
 23 50  1  0  0  0  0
 25 26  2  0  0  0  0
 27 28  1  0  0  0  0
 28 51  1  0  0  0  0
 28 52  1  0  0  0  0
 28 53  1  0  0  0  0
M  END
> <s_m_source_file>
AV-unprocessed.smi

> <i_m_source_file_index>
164

> <i_lp_mmshare_version>
43012

> <i_f3d_flags>
0

> <s_epik_input>
W0NIM11jMVtjSF1bY0hdYyhbQ0gzXSljKGMxW0NIM10pT1tDSDJdW0NASF0oW09IXSlbQ0gyXW4yYyg9TyljKEYpW2NIXW4oYzI9TylbQ0BASF0zW0NIMl1bQ0gyXVtDSDJdTzM=

> <s_epik_cmdline>
J2VwaWtfcHl0aG9uJywgJy1waCcsICc3LjAnLCAnLXRuJywgJzgnLCAnLW1hJywgJzIwMCcsICctbWV0YWxfYmluZGluZycsICctaW1hZScsICc8aW5maWxlLm1hZT4nLCAnLW9tYWUnLCAnPG91dGZpbGUubWFlPic=

> <r_lp_tautomer_probability>
1

> <r_epik_Ionization_Penalty>
1.45842e-07

> <r_epik_Ionization_Penalty_Charging>
2.86622e-08

> <r_epik_Ionization_Penalty_Neutral>
1.1718e-07

> <r_epik_State_Penalty>
-0

> <r_epik_Charging_Adjusted_Penalty>
2.86622e-08

> <i_epik_Tot_Q>
0

> <i_epik_Tot_abs_Q>
0

> <r_epik_Metal_State_Penalty>
-0

> <b_epik_Metal_Only>
0

> <s_epik_Chemistry_Notes>
This compound contains an acetal/aminal-like group ( X-CH(R)-Y where X, Y are N, S, or O) that may be acid/base labile, releasing an aldehyde.

> <s_lp_Force_Field>
OPLS_2005

> <r_lp_Energy>
46.8287

> <b_lp_Chiralities_Consistent>
1

> <s_lp_Variant>
AV-unprocessed.smi:164-4

> <Gold.Version>
5.8.1

> <Gold.Id.Protein>
6NUR|6NUR_protein|mol2

> <Gold.PLP.Fitness>
50.5063

> <Gold.PLP.PLP>
-45.2357

> <Gold.PLP.part.hbond>
-3.0000

> <Gold.PLP.part.metal>
0.0000

> <Gold.PLP.part.buried>
-5.5234

> <Gold.PLP.part.nonpolar>
-38.4188

> <Gold.PLP.part.repulsive>
1.8215

> <Gold.PLP.ligand.clash>
0.0000

> <Gold.PLP.ligand.torsion>
0.3858

> <Gold.PLP.Chemscore.Hbond>
1.9830

> <Gold.PLP.Chemscore.CHOScore>
0.0000

> <Gold.PLP.Chemscore.Metal>
0.0000

> <Gold.Chemscore.Hbonds>
donor molecule, donor type, donor heavy atom, donor atom, acceptor molecule, acceptor atom, score
      L1  H    11    40       P1  7949  0.27
      P1  H 10752 10764       L1    11  0.74

> <Gold.PLP.Chemscore.Internal.Correction>
0.0931

> <Gold.Rescore>
     Score         DG    S(hbond)    S(metal)    S(lipo)     H(rot)  DE(clash)    DE(int)     intcor
     14.24     -15.93       1.66        0.00     101.65       2.73       0.04       1.64       ----

> <Gold.Chemscore.Fitness>
14.2442

> <Gold.Chemscore.DG>
-15.9273

> <Gold.Chemscore.ZeroCoef>
-5.4800

> <Gold.Chemscore.Hbond>
1.6606

> <Gold.Chemscore.Metal>
0.0000

> <Gold.Chemscore.Lipo>
101.6545

> <Gold.Chemscore.Internal_Hbond>
0.0000

> <Gold.Chemscore.DEClash>
0.0448

> <Gold.Chemscore.DEInternal>
1.6382

> <Gold.Chemscore.Rot>
2.7315

> <Gold.Chemscore.Internal.Correction>
   9.000000E+99

> <Gold.Chemscore.Hbonds>
donor molecule, donor type, donor heavy atom, donor atom, acceptor molecule, acceptor atom, score
      L1  H    11    40       P1  7949  0.02
      P1  H 10752 10764       L1    11  0.32

> <Gold.Chemscore.Hbond.Weighted>
-5.5462

> <Gold.Chemscore.Metal.Weighted>
-0.0000

> <Gold.Chemscore.Lipo.Weighted>
-11.8936

> <Gold.Chemscore.Internal_Hbond.Weighted>
0.0000

> <Gold.Chemscore.DEClash.Weighted>
0.0448

> <Gold.Chemscore.DEInternal.Weighted>
1.6382

> <Gold.Chemscore.Rot.Weighted>
6.9925

> <Gold.Chemscore.Internal.Correction.Weighted>
   9.000000E+99

> <Gold.Protein.RotatedTorsions>
[ 6907 6896 6895 6894 ] final   68.13 input  -60.11 | X-H torsion
[ 7974 7965 7964 7962 ] final  108.28 input  175.53 | X-H torsion
[ 8008 7997 7996 7995 ] final -156.78 input   59.86 | X-H torsion
[ 10167 10162 10161 10158 ] final  -71.96 input  -65.29 | X-H torsion
[ 10718 10713 10712 10709 ] final  -19.96 input   66.30 | X-H torsion
[ 10763 10752 10751 10750 ] final  -58.71 input  -60.55 | X-H torsion
[ 11005 11000 10999 10996 ] final   69.30 input  -57.11 | X-H torsion

> <Gold.Protein.ActiveResidues>
 VAL166  LYS551  ARG553  GLY616  TRP617  ASP618  TYR619  PRO620  LYS621  CYS622 
 ASP623  PHE694  ASN695  SER759  ASP760  ASP761  ALA762  ILE779  LEU786  VAL792 
 PHE793  MET794  SER795  GLU796  ALA797  LYS798  CYS799  TRP800  GLU811  SER814 

> <Gold.Protein.RotatedAtoms>
  152.4599  134.5207  159.9781 H   0  0  0  0  0  0  0  0  0  0  0  0  # atno 6907 bound_to 6896
  151.5258  133.3452  159.2917 H   0  0  0  0  0  0  0  0  0  0  0  0  # atno 6908 bound_to 6896
  150.8558  134.7927  159.7107 H   0  0  0  0  0  0  0  0  0  0  0  0  # atno 6909 bound_to 6896
  145.2827  139.2627  143.3907 H   0  0  0  0  0  0  0  0  0  0  0  0  # atno 7974 bound_to 7965
  155.7224  140.0792  157.2325 H   0  0  0  0  0  0  0  0  0  0  0  0  # atno 8008 bound_to 7997
  154.4043  140.1610  156.2472 H   0  0  0  0  0  0  0  0  0  0  0  0  # atno 8009 bound_to 7997
  155.9184  140.3399  155.6156 H   0  0  0  0  0  0  0  0  0  0  0  0  # atno 8010 bound_to 7997
  140.5231  143.2329  151.7395 H   0  0  0  0  0  0  0  0  0  0  0  0  # atno 10167 bound_to 10162
  156.5385  130.4672  149.6511 H   0  0  0  0  0  0  0  0  0  0  0  0  # atno 10718 bound_to 10713
  154.2424  135.6341  153.5211 H   0  0  0  0  0  0  0  0  0  0  0  0  # atno 10763 bound_to 10752
  152.9927  135.5545  154.5896 H   0  0  0  0  0  0  0  0  0  0  0  0  # atno 10764 bound_to 10752
  154.5405  135.2894  155.1074 H   0  0  0  0  0  0  0  0  0  0  0  0  # atno 10765 bound_to 10752
  139.9662  134.6977  156.0541 H   0  0  0  0  0  0  0  0  0  0  0  0  # atno 11005 bound_to 11000
  146.3211  140.3299  142.8639 LP  0  0  0  0  0  0  0  0  0  0  0  0  # atno 17320 bound_to 7965
  144.9239  140.7899  143.5731 LP  0  0  0  0  0  0  0  0  0  0  0  0  # atno 17321 bound_to 7965
  139.4930  144.4225  151.9962 LP  0  0  0  0  0  0  0  0  0  0  0  0  # atno 17342 bound_to 10162
  140.3323  144.3302  150.5985 LP  0  0  0  0  0  0  0  0  0  0  0  0  # atno 17343 bound_to 10162
  156.2993  130.7168  151.2036 LP  0  0  0  0  0  0  0  0  0  0  0  0  # atno 17370 bound_to 10713
  157.7409  131.0510  150.5131 LP  0  0  0  0  0  0  0  0  0  0  0  0  # atno 17371 bound_to 10713
  141.1341  133.6579  156.3545 LP  0  0  0  0  0  0  0  0  0  0  0  0  # atno 17394 bound_to 11000
  140.5392  134.6137  157.5374 LP  0  0  0  0  0  0  0  0  0  0  0  0  # atno 17395 bound_to 11000

$$$$
