AV-unprocessed.smi:189|AV-procd|sdf|1487|dock7
  -GOLD-   2262019303D 1   1.00000     0.00000
 Structure written by MMmdl.
 53 57  0  0  0  0  0  0  0  0  1 V2000
  152.6707  138.4447  159.5109 C   0  0  0  0  0  0  0  0  0  0  0  0
  153.0121  139.9045  159.1791 C   0  0  2  0  0  0  0  0  0  0  0  0
  153.4686  140.7334  160.4042 C   0  0  0  0  0  0  0  0  0  0  0  0
  152.4997  141.9158  160.4208 C   0  0  1  0  0  0  0  0  0  0  0  0
  152.9961  143.2775  160.9207 C   0  0  0  0  0  0  0  0  0  0  0  0
  151.8646  144.3155  160.7578 C   0  0  0  0  0  0  0  0  0  0  0  0
  151.2984  144.3551  159.3187 C   0  0  0  0  0  0  0  0  0  0  0  0
  150.8912  142.9583  158.8031 C   0  0  0  0  0  0  0  0  0  0  0  0
  152.0848  142.0040  158.9625 C   0  0  2  0  0  0  0  0  0  0  0  0
  151.8655  140.6148  158.6045 N   0  0  0  0  0  0  0  0  0  0  0  0
  151.6104  140.3888  157.2960 C   0  0  0  0  0  0  0  0  0  0  0  0
  152.5305  139.7727  156.5075 N   0  0  0  0  0  0  0  0  0  0  0  0
  152.2664  139.5640  155.2141 C   0  0  0  0  0  0  0  0  0  0  0  0
  151.1714  139.8883  154.5221 N   0  0  0  0  0  0  0  0  0  0  0  0
  150.2521  140.5150  155.3121 C   0  0  0  0  0  0  0  0  0  0  0  0
  150.3915  140.8000  156.6986 C   0  0  0  0  0  0  0  0  0  0  0  0
  149.2558  141.4427  157.1728 N   0  0  0  0  0  0  0  0  0  0  0  0
  148.4850  141.5322  156.1233 C   0  0  0  0  0  0  0  0  0  0  0  0
  149.0075  141.0090  154.9610 N   0  0  0  0  0  0  0  0  0  0  0  0
  148.3646  140.9757  153.6559 C   0  0  0  0  0  0  0  0  0  0  0  0
  147.1542  140.0134  153.5829 C   0  0  2  0  0  0  0  0  0  0  0  0
  146.5785  140.0975  152.2915 O   0  0  0  0  0  0  0  0  0  0  0  0
  146.0838  140.3416  154.6262 C   0  0  0  0  0  0  0  0  0  0  0  0
  146.1889  139.1933  155.6225 C   0  0  0  0  0  0  0  0  0  0  0  0
  146.5202  138.0936  154.7939 O   0  0  0  0  0  0  0  0  0  0  0  0
  147.5120  138.5439  153.8825 C   0  0  0  0  0  0  0  0  0  0  0  0
  153.5261  137.9351  159.9545 H   0  0  0  0  0  0  0  0  0  0  0  0
  152.3861  137.8927  158.6148 H   0  0  0  0  0  0  0  0  0  0  0  0
  151.8419  138.3846  160.2171 H   0  0  0  0  0  0  0  0  0  0  0  0
  153.8337  139.9011  158.4612 H   0  0  0  0  0  0  0  0  0  0  0  0
  153.4295  140.1723  161.3385 H   0  0  0  0  0  0  0  0  0  0  0  0
  154.4955  141.0729  160.2618 H   0  0  0  0  0  0  0  0  0  0  0  0
  151.6321  141.6223  161.0160 H   0  0  0  0  0  0  0  0  0  0  0  0
  153.3010  143.2113  161.9655 H   0  0  0  0  0  0  0  0  0  0  0  0
  153.8738  143.5896  160.3534 H   0  0  0  0  0  0  0  0  0  0  0  0
  151.0572  144.0754  161.4509 H   0  0  0  0  0  0  0  0  0  0  0  0
  152.2259  145.3044  161.0415 H   0  0  0  0  0  0  0  0  0  0  0  0
  150.4435  145.0303  159.2747 H   0  0  0  0  0  0  0  0  0  0  0  0
  152.0529  144.7745  158.6519 H   0  0  0  0  0  0  0  0  0  0  0  0
  150.0322  142.5869  159.3638 H   0  0  0  0  0  0  0  0  0  0  0  0
  150.5842  143.0206  157.7586 H   0  0  0  0  0  0  0  0  0  0  0  0
  152.9209  142.3865  158.3727 H   0  0  0  0  0  0  0  0  0  0  0  0
  153.0445  139.0679  154.6529 H   0  0  0  0  0  0  0  0  0  0  0  0
  147.5074  141.9901  156.1669 H   0  0  0  0  0  0  0  0  0  0  0  0
  148.0510  141.9893  153.4027 H   0  0  0  0  0  0  0  0  0  0  0  0
  149.1153  140.6964  152.9152 H   0  0  0  0  0  0  0  0  0  0  0  0
  145.6465  140.2221  152.3883 H   0  0  0  0  0  0  0  0  0  0  0  0
  146.2217  141.3143  155.1001 H   0  0  0  0  0  0  0  0  0  0  0  0
  145.0869  140.3343  154.1816 H   0  0  0  0  0  0  0  0  0  0  0  0
  146.9904  139.3693  156.3419 H   0  0  0  0  0  0  0  0  0  0  0  0
  145.2616  139.0230  156.1697 H   0  0  0  0  0  0  0  0  0  0  0  0
  147.5545  137.9130  152.9937 H   0  0  0  0  0  0  0  0  0  0  0  0
  148.4758  138.4672  154.3858 H   0  0  0  0  0  0  0  0  0  0  0  0
  1  2  1  0  0  0  0
  1 27  1  0  0  0  0
  1 28  1  0  0  0  0
  1 29  1  0  0  0  0
  2 10  1  0  0  0  0
  2  3  1  0  0  0  0
  2 30  1  0  0  0  0
  3  4  1  0  0  0  0
  3 31  1  0  0  0  0
  3 32  1  0  0  0  0
  4  9  1  0  0  0  0
  4  5  1  0  0  0  0
  4 33  1  0  0  0  0
  5  6  1  0  0  0  0
  5 34  1  0  0  0  0
  5 35  1  0  0  0  0
  6  7  1  0  0  0  0
  6 36  1  0  0  0  0
  6 37  1  0  0  0  0
  7  8  1  0  0  0  0
  7 38  1  0  0  0  0
  7 39  1  0  0  0  0
  8  9  1  0  0  0  0
  8 40  1  0  0  0  0
  8 41  1  0  0  0  0
  9 10  1  0  0  0  0
  9 42  1  0  0  0  0
 10 11  1  0  0  0  0
 11 16  1  0  0  0  0
 11 12  2  0  0  0  0
 12 13  1  0  0  0  0
 13 14  2  0  0  0  0
 13 43  1  0  0  0  0
 14 15  1  0  0  0  0
 15 19  1  0  0  0  0
 15 16  2  0  0  0  0
 16 17  1  0  0  0  0
 17 18  2  0  0  0  0
 18 19  1  0  0  0  0
 18 44  1  0  0  0  0
 19 20  1  0  0  0  0
 20 21  1  0  0  0  0
 20 45  1  0  0  0  0
 20 46  1  0  0  0  0
 21 26  1  0  0  0  0
 21 22  1  0  0  0  0
 21 23  1  0  0  0  0
 22 47  1  0  0  0  0
 23 24  1  0  0  0  0
 23 48  1  0  0  0  0
 23 49  1  0  0  0  0
 24 25  1  0  0  0  0
 24 50  1  0  0  0  0
 24 51  1  0  0  0  0
 25 26  1  0  0  0  0
 26 52  1  0  0  0  0
 26 53  1  0  0  0  0
M  END
> <s_m_source_file>
AV-unprocessed.smi

> <i_m_source_file_index>
189

> <i_lp_mmshare_version>
43012

> <i_f3d_flags>
0

> <s_epik_input>
W0NIMl0xW0NIMl1bQ0gyXVtDSDJdW0NASF0oW0NASF0xMilOKFtDQEhdKFtDSDNdKVtDSDJdMiljKG5bY0hdbjMpYyhjMzQpbltjSF1uNFtDSDJdW0NAQF01KFtPSF0pW0NIMl1bQ0gyXU9bQ0gyXTU=

> <s_epik_cmdline>
J2VwaWtfcHl0aG9uJywgJy1waCcsICc3LjAnLCAnLXRuJywgJzgnLCAnLW1hJywgJzIwMCcsICctbWV0YWxfYmluZGluZycsICctaW1hZScsICc8aW5maWxlLm1hZT4nLCAnLW9tYWUnLCAnPG91dGZpbGUubWFlPic=

> <r_lp_tautomer_probability>
1

> <r_epik_Ionization_Penalty>
0.00594261

> <r_epik_Ionization_Penalty_Charging>
0

> <r_epik_Ionization_Penalty_Neutral>
0.00594261

> <r_epik_State_Penalty>
0.00429776

> <r_epik_Charging_Adjusted_Penalty>
0.00429776

> <i_epik_Tot_Q>
0

> <i_epik_Tot_abs_Q>
0

> <r_epik_Metal_State_Penalty>
-0

> <b_epik_Metal_Only>
0

> <s_lp_Force_Field>
OPLS_2005

> <r_lp_Energy>
58.4812

> <b_lp_Chiralities_Consistent>
1

> <s_lp_Variant>
AV-unprocessed.smi:189-13

> <Gold.Version>
5.8.1

> <Gold.Id.Protein>
6NUR|6NUR_protein|mol2

> <Gold.PLP.Fitness>
53.6637

> <Gold.PLP.PLP>
-45.3247

> <Gold.PLP.part.hbond>
-3.3769

> <Gold.PLP.part.metal>
0.0000

> <Gold.PLP.part.buried>
-2.9271

> <Gold.PLP.part.nonpolar>
-38.8304

> <Gold.PLP.part.repulsive>
0.2495

> <Gold.PLP.ligand.clash>
0.0000

> <Gold.PLP.ligand.torsion>
0.3386

> <Gold.PLP.Chemscore.Hbond>
3.0000

> <Gold.PLP.Chemscore.CHOScore>
0.0000

> <Gold.PLP.Chemscore.Metal>
0.0000

> <Gold.Chemscore.Hbonds>
donor molecule, donor type, donor heavy atom, donor atom, acceptor molecule, acceptor atom, score
      L1  H    22    47       P1 10175  1.00
      P1  H  7989  7998       L1    14  0.89
      P1  H  7997  8008       L1    12  1.00

> <Gold.PLP.Chemscore.Internal.Correction>
0.0162

> <Gold.Rescore>
     Score         DG    S(hbond)    S(metal)    S(lipo)     H(rot)  DE(clash)    DE(int)     intcor
     17.44     -19.46       1.87        0.00     110.48       2.03       0.26       1.76       ----

> <Gold.Chemscore.Fitness>
17.4431

> <Gold.Chemscore.DG>
-19.4564

> <Gold.Chemscore.ZeroCoef>
-5.4800

> <Gold.Chemscore.Hbond>
1.8702

> <Gold.Chemscore.Metal>
0.0000

> <Gold.Chemscore.Lipo>
110.4788

> <Gold.Chemscore.Internal_Hbond>
0.0000

> <Gold.Chemscore.DEClash>
0.2561

> <Gold.Chemscore.DEInternal>
1.7572

> <Gold.Chemscore.Rot>
2.0297

> <Gold.Chemscore.Internal.Correction>
   9.000000E+99

> <Gold.Chemscore.Hbonds>
donor molecule, donor type, donor heavy atom, donor atom, acceptor molecule, acceptor atom, score
      L1  H    22    47       P1 10175  0.68
      P1  H  7989  7998       L1    14  0.28
      P1  H  7997  8008       L1    12  0.45

> <Gold.Chemscore.Hbond.Weighted>
-6.2464

> <Gold.Chemscore.Metal.Weighted>
-0.0000

> <Gold.Chemscore.Lipo.Weighted>
-12.9260

> <Gold.Chemscore.Internal_Hbond.Weighted>
0.0000

> <Gold.Chemscore.DEClash.Weighted>
0.2561

> <Gold.Chemscore.DEInternal.Weighted>
1.7572

> <Gold.Chemscore.Rot.Weighted>
5.1960

> <Gold.Chemscore.Internal.Correction.Weighted>
   9.000000E+99

> <Gold.Protein.RotatedTorsions>
[ 6907 6896 6895 6894 ] final -170.36 input  -60.11 | X-H torsion
[ 7974 7965 7964 7962 ] final   78.93 input  175.53 | X-H torsion
[ 8008 7997 7996 7995 ] final  -55.19 input   59.86 | X-H torsion
[ 10167 10162 10161 10158 ] final  -91.75 input  -65.29 | X-H torsion
[ 10718 10713 10712 10709 ] final  112.99 input   66.30 | X-H torsion
[ 10763 10752 10751 10750 ] final  -74.91 input  -60.55 | X-H torsion
[ 11005 11000 10999 10996 ] final   24.03 input  -57.11 | X-H torsion

> <Gold.Protein.ActiveResidues>
 VAL166  LYS551  ARG553  GLY616  TRP617  ASP618  TYR619  PRO620  LYS621  CYS622 
 ASP623  PHE694  ASN695  SER759  ASP760  ASP761  ALA762  ILE779  LEU786  VAL792 
 PHE793  MET794  SER795  GLU796  ALA797  LYS798  CYS799  TRP800  GLU811  SER814 

> <Gold.Protein.RotatedAtoms>
  151.5064  133.3494  159.2877 H   0  0  0  0  0  0  0  0  0  0  0  0  # atno 6907 bound_to 6896
  150.8740  134.8121  159.7187 H   0  0  0  0  0  0  0  0  0  0  0  0  # atno 6908 bound_to 6896
  152.4718  134.4952  159.9759 H   0  0  0  0  0  0  0  0  0  0  0  0  # atno 6909 bound_to 6896
  145.6708  139.2496  143.1869 H   0  0  0  0  0  0  0  0  0  0  0  0  # atno 7974 bound_to 7965
  154.4187  140.1159  156.5436 H   0  0  0  0  0  0  0  0  0  0  0  0  # atno 8008 bound_to 7997
  155.6482  140.3496  155.4720 H   0  0  0  0  0  0  0  0  0  0  0  0  # atno 8009 bound_to 7997
  155.9814  140.1161  157.0712 H   0  0  0  0  0  0  0  0  0  0  0  0  # atno 8010 bound_to 7997
  140.3417  143.2938  151.9827 H   0  0  0  0  0  0  0  0  0  0  0  0  # atno 10167 bound_to 10162
  157.6363  131.0976  150.6976 H   0  0  0  0  0  0  0  0  0  0  0  0  # atno 10718 bound_to 10713
  154.4794  135.5849  153.6379 H   0  0  0  0  0  0  0  0  0  0  0  0  # atno 10763 bound_to 10752
  152.9845  135.6086  154.3265 H   0  0  0  0  0  0  0  0  0  0  0  0  # atno 10764 bound_to 10752
  154.3155  135.2844  155.2524 H   0  0  0  0  0  0  0  0  0  0  0  0  # atno 10765 bound_to 10752
  140.3631  134.2104  155.7671 H   0  0  0  0  0  0  0  0  0  0  0  0  # atno 11005 bound_to 11000
  146.1047  140.7501  142.9532 LP  0  0  0  0  0  0  0  0  0  0  0  0  # atno 17320 bound_to 7965
  144.7057  140.3843  143.7120 LP  0  0  0  0  0  0  0  0  0  0  0  0  # atno 17321 bound_to 7965
  139.4839  144.6151  151.7362 LP  0  0  0  0  0  0  0  0  0  0  0  0  # atno 17342 bound_to 10162
  140.5302  144.0742  150.6051 LP  0  0  0  0  0  0  0  0  0  0  0  0  # atno 17343 bound_to 10162
  156.7307  130.4708  149.5500 LP  0  0  0  0  0  0  0  0  0  0  0  0  # atno 17370 bound_to 10713
  156.1604  130.6370  151.0711 LP  0  0  0  0  0  0  0  0  0  0  0  0  # atno 17371 bound_to 10713
  141.1978  133.8051  157.0612 LP  0  0  0  0  0  0  0  0  0  0  0  0  # atno 17394 bound_to 11000
  140.0611  134.9754  157.1306 LP  0  0  0  0  0  0  0  0  0  0  0  0  # atno 17395 bound_to 11000

$$$$
