AV-unprocessed.smi:1598|AV-procd|sdf|6421|dock5
  -GOLD-   22720 7 63D 1   1.00000     0.00000
 Structure written by MMmdl.
 39 39  0  0  0  0  0  0  0  0  1 V2000
  143.8784  135.7052  163.0042 C   0  0  0  0  0  0  0  0  0  0  0  0
  145.1653  136.0835  162.5499 O   0  0  0  0  0  0  0  0  0  0  0  0
  146.1023  135.0194  162.6197 C   0  0  0  0  0  0  0  0  0  0  0  0
  147.5105  135.5386  162.2788 C   0  0  2  0  0  0  0  0  0  0  0  0
  147.7620  136.9488  162.8301 C   0  0  0  0  0  0  0  0  0  0  0  0
  147.7188  135.5334  160.8352 N   0  0  0  0  0  0  0  0  0  0  0  0
  147.3458  136.5004  159.9798 C   0  0  0  0  0  0  0  0  0  0  0  0
  146.7419  137.5109  160.3370 O   0  0  0  0  0  0  0  0  0  0  0  0
  147.7125  136.3329  158.4926 C   0  0  0  0  0  0  0  0  0  0  0  0
  148.6918  137.3214  157.9682 N   0  0  0  0  0  0  0  0  0  0  0  0
  148.2535  138.3725  157.1020 C   0  0  0  0  0  0  0  0  0  0  0  0
  146.7644  138.4852  156.7432 C   0  0  0  0  0  0  0  0  0  0  0  0
  146.5356  139.5432  155.9638 F   0  0  0  0  0  0  0  0  0  0  0  0
  146.3577  137.4113  156.0655 F   0  0  0  0  0  0  0  0  0  0  0  0
  145.9992  138.6388  157.8234 F   0  0  0  0  0  0  0  0  0  0  0  0
  149.1427  139.2672  156.6329 C   0  0  0  0  0  0  0  0  0  0  0  0
  150.5300  139.1656  156.9930 C   0  0  0  0  0  0  0  0  0  0  0  0
  150.9610  138.1789  157.8113 C   0  0  0  0  0  0  0  0  0  0  0  0
  152.3792  138.0353  158.2129 C   0  0  0  0  0  0  0  0  0  0  0  0
  153.1267  139.1240  157.9920 N   0  0  0  0  0  0  0  0  0  0  0  0
  152.9111  137.0447  158.7139 O   0  0  0  0  0  0  0  0  0  0  0  0
  150.0069  137.1770  158.3527 C   0  0  0  0  0  0  0  0  0  0  0  0
  150.3312  136.2605  159.1138 O   0  0  0  0  0  0  0  0  0  0  0  0
  143.1973  136.5519  162.9203 H   0  0  0  0  0  0  0  0  0  0  0  0
  143.9052  135.3959  164.0498 H   0  0  0  0  0  0  0  0  0  0  0  0
  143.4738  134.8871  162.4068 H   0  0  0  0  0  0  0  0  0  0  0  0
  146.0974  134.5829  163.6198 H   0  0  0  0  0  0  0  0  0  0  0  0
  145.8174  134.2285  161.9239 H   0  0  0  0  0  0  0  0  0  0  0  0
  148.2416  134.8739  162.7420 H   0  0  0  0  0  0  0  0  0  0  0  0
  147.6299  136.9756  163.9119 H   0  0  0  0  0  0  0  0  0  0  0  0
  147.0778  137.6769  162.3932 H   0  0  0  0  0  0  0  0  0  0  0  0
  148.7790  137.2778  162.6140 H   0  0  0  0  0  0  0  0  0  0  0  0
  148.2156  134.7396  160.4578 H   0  0  0  0  0  0  0  0  0  0  0  0
  148.0849  135.3161  158.3560 H   0  0  0  0  0  0  0  0  0  0  0  0
  146.7895  136.3190  157.9210 H   0  0  0  0  0  0  0  0  0  0  0  0
  148.8333  140.0731  155.9843 H   0  0  0  0  0  0  0  0  0  0  0  0
  151.2005  139.9064  156.5835 H   0  0  0  0  0  0  0  0  0  0  0  0
  154.1078  139.1221  158.2302 H   0  0  0  0  0  0  0  0  0  0  0  0
  152.7038  139.9446  157.5832 H   0  0  0  0  0  0  0  0  0  0  0  0
  1  2  1  0  0  0  0
  1 24  1  0  0  0  0
  1 25  1  0  0  0  0
  1 26  1  0  0  0  0
  2  3  1  0  0  0  0
  3  4  1  0  0  0  0
  3 27  1  0  0  0  0
  3 28  1  0  0  0  0
  4  5  1  0  0  0  0
  4  6  1  0  0  0  0
  4 29  1  0  0  0  0
  5 30  1  0  0  0  0
  5 31  1  0  0  0  0
  5 32  1  0  0  0  0
  6  7  1  0  0  0  0
  6 33  1  0  0  0  0
  7  8  2  0  0  0  0
  7  9  1  0  0  0  0
  9 10  1  0  0  0  0
  9 34  1  0  0  0  0
  9 35  1  0  0  0  0
 10 22  1  0  0  0  0
 10 11  1  0  0  0  0
 11 12  1  0  0  0  0
 11 16  2  0  0  0  0
 12 13  1  0  0  0  0
 12 14  1  0  0  0  0
 12 15  1  0  0  0  0
 16 17  1  0  0  0  0
 16 36  1  0  0  0  0
 17 18  2  0  0  0  0
 17 37  1  0  0  0  0
 18 19  1  0  0  0  0
 18 22  1  0  0  0  0
 19 20  1  0  0  0  0
 19 21  2  0  0  0  0
 20 38  1  0  0  0  0
 20 39  1  0  0  0  0
 22 23  2  0  0  0  0
M  END
> <s_m_source_file>
AV-unprocessed.smi

> <i_m_source_file_index>
1598

> <i_lp_mmshare_version>
43012

> <i_f3d_flags>
0

> <s_epik_input>
W0NIM11PW0NIMl1bQ0BIXShbQ0gzXSlbTkhdQyg9TylbQ0gyXW4xYyhDKEYpKEYpRilbY0hdW2NIXWMoYzE9TylDKD1PKVtOSDJd

> <s_epik_cmdline>
J2VwaWtfcHl0aG9uJywgJy1waCcsICc3LjAnLCAnLXRuJywgJzgnLCAnLW1hJywgJzIwMCcsICctbWV0YWxfYmluZGluZycsICctaW1hZScsICc8aW5maWxlLm1hZT4nLCAnLW9tYWUnLCAnPG91dGZpbGUubWFlPic=

> <r_lp_tautomer_probability>
1

> <r_epik_Ionization_Penalty>
2.07884e-06

> <r_epik_Ionization_Penalty_Charging>
8.00383e-10

> <r_epik_Ionization_Penalty_Neutral>
2.07804e-06

> <r_epik_State_Penalty>
-0

> <r_epik_Charging_Adjusted_Penalty>
8.00383e-10

> <i_epik_Tot_Q>
0

> <i_epik_Tot_abs_Q>
0

> <r_epik_Metal_State_Penalty>
-0

> <b_epik_Metal_Only>
0

> <s_lp_Force_Field>
OPLS_2005

> <r_lp_Energy>
25.9184

> <b_lp_Chiralities_Consistent>
1

> <s_lp_Variant>
AV-unprocessed.smi:1598-1

> <Gold.Version>
5.8.1

> <Gold.Id.Protein>
6NUR|6NUR_protein|mol2

> <Gold.PLP.Fitness>
34.3436

> <Gold.PLP.PLP>
-29.9911

> <Gold.PLP.part.hbond>
-2.0000

> <Gold.PLP.part.metal>
0.0000

> <Gold.PLP.part.buried>
-6.7962

> <Gold.PLP.part.nonpolar>
-21.1516

> <Gold.PLP.part.repulsive>
0.2338

> <Gold.PLP.ligand.clash>
3.8773

> <Gold.PLP.ligand.torsion>
0.9051

> <Gold.PLP.Chemscore.Hbond>
2.0000

> <Gold.PLP.Chemscore.CHOScore>
0.0000

> <Gold.PLP.Chemscore.Metal>
0.0000

> <Gold.Chemscore.Hbonds>
donor molecule, donor type, donor heavy atom, donor atom, acceptor molecule, acceptor atom, score
      P1  H  6896  6907       L1    23  1.00
      P1  H  6934  6947       L1     8  1.00

> <Gold.PLP.Chemscore.Internal.Correction>
4.0399

> <Gold.Rescore>
     Score         DG    S(hbond)    S(metal)    S(lipo)     H(rot)  DE(clash)    DE(int)     intcor
      4.10     -11.13       1.99        0.00      44.65       2.43       0.02       7.01       ----

> <Gold.Chemscore.Fitness>
4.1012

> <Gold.Chemscore.DG>
-11.1292

> <Gold.Chemscore.ZeroCoef>
-5.4800

> <Gold.Chemscore.Hbond>
1.9889

> <Gold.Chemscore.Metal>
0.0000

> <Gold.Chemscore.Lipo>
44.6510

> <Gold.Chemscore.Internal_Hbond>
0.0000

> <Gold.Chemscore.DEClash>
0.0228

> <Gold.Chemscore.DEInternal>
7.0052

> <Gold.Chemscore.Rot>
2.4289

> <Gold.Chemscore.Internal.Correction>
   9.000000E+99

> <Gold.Chemscore.Hbonds>
donor molecule, donor type, donor heavy atom, donor atom, acceptor molecule, acceptor atom, score
      P1  H  6896  6907       L1    23  0.97
      P1  H  6934  6947       L1     8  1.00

> <Gold.Chemscore.Hbond.Weighted>
-6.6430

> <Gold.Chemscore.Metal.Weighted>
-0.0000

> <Gold.Chemscore.Lipo.Weighted>
-5.2242

> <Gold.Chemscore.Internal_Hbond.Weighted>
0.0000

> <Gold.Chemscore.DEClash.Weighted>
0.0228

> <Gold.Chemscore.DEInternal.Weighted>
7.0052

> <Gold.Chemscore.Rot.Weighted>
6.2180

> <Gold.Chemscore.Internal.Correction.Weighted>
   9.000000E+99

> <Gold.Protein.RotatedTorsions>
[ 6907 6896 6895 6894 ] final  -44.04 input  -60.11 | X-H torsion
[ 7974 7965 7964 7962 ] final  -81.59 input  175.53 | X-H torsion
[ 8008 7997 7996 7995 ] final -170.81 input   59.86 | X-H torsion
[ 10167 10162 10161 10158 ] final   13.85 input  -65.29 | X-H torsion
[ 10718 10713 10712 10709 ] final -138.21 input   66.30 | X-H torsion
[ 10763 10752 10751 10750 ] final -146.45 input  -60.55 | X-H torsion
[ 11005 11000 10999 10996 ] final   -5.89 input  -57.11 | X-H torsion

> <Gold.Protein.ActiveResidues>
 VAL166  LYS551  ARG553  GLY616  TRP617  ASP618  TYR619  PRO620  LYS621  CYS622 
 ASP623  PHE694  ASN695  SER759  ASP760  ASP761  ALA762  ILE779  LEU786  VAL792 
 PHE793  MET794  SER795  GLU796  ALA797  LYS798  CYS799  TRP800  GLU811  SER814 

> <Gold.Protein.RotatedAtoms>
  150.9372  134.8784  159.7588 H   0  0  0  0  0  0  0  0  0  0  0  0  # atno 6907 bound_to 6896
  152.5064  134.3994  159.9421 H   0  0  0  0  0  0  0  0  0  0  0  0  # atno 6908 bound_to 6896
  151.4017  133.3715  159.2768 H   0  0  0  0  0  0  0  0  0  0  0  0  # atno 6909 bound_to 6896
  145.5446  140.9505  143.1532 H   0  0  0  0  0  0  0  0  0  0  0  0  # atno 7974 bound_to 7965
  155.9233  140.1078  157.1190 H   0  0  0  0  0  0  0  0  0  0  0  0  # atno 8008 bound_to 7997
  154.4058  140.1252  156.4773 H   0  0  0  0  0  0  0  0  0  0  0  0  # atno 8009 bound_to 7997
  155.7169  140.3470  155.5001 H   0  0  0  0  0  0  0  0  0  0  0  0  # atno 8010 bound_to 7997
  140.5975  143.8672  150.6932 H   0  0  0  0  0  0  0  0  0  0  0  0  # atno 10167 bound_to 10162
  156.2968  130.7406  151.1447 H   0  0  0  0  0  0  0  0  0  0  0  0  # atno 10718 bound_to 10713
  154.8335  135.3386  154.6664 H   0  0  0  0  0  0  0  0  0  0  0  0  # atno 10763 bound_to 10752
  153.7281  135.6954  153.5000 H   0  0  0  0  0  0  0  0  0  0  0  0  # atno 10764 bound_to 10752
  153.2332  135.4409  155.0570 H   0  0  0  0  0  0  0  0  0  0  0  0  # atno 10765 bound_to 10752
  140.6961  133.9029  155.8651 H   0  0  0  0  0  0  0  0  0  0  0  0  # atno 11005 bound_to 11000
  144.7560  139.7075  143.7254 LP  0  0  0  0  0  0  0  0  0  0  0  0  # atno 17320 bound_to 7965
  146.1958  139.5223  142.9775 LP  0  0  0  0  0  0  0  0  0  0  0  0  # atno 17321 bound_to 7965
  140.2209  143.3809  152.1643 LP  0  0  0  0  0  0  0  0  0  0  0  0  # atno 17342 bound_to 10162
  139.5268  144.7112  151.5200 LP  0  0  0  0  0  0  0  0  0  0  0  0  # atno 17343 bound_to 10162
  157.7357  131.0569  150.5454 LP  0  0  0  0  0  0  0  0  0  0  0  0  # atno 17370 bound_to 10713
  156.5576  130.4247  149.6078 LP  0  0  0  0  0  0  0  0  0  0  0  0  # atno 17371 bound_to 10713
  141.0202  134.0900  157.4129 LP  0  0  0  0  0  0  0  0  0  0  0  0  # atno 17394 bound_to 11000
  139.8910  135.0115  156.6765 LP  0  0  0  0  0  0  0  0  0  0  0  0  # atno 17395 bound_to 11000

$$$$
