AV-unprocessed.smi:2525|AV-procd|sdf|9928|dock10
  -GOLD-   2272013573D 1   1.00000     0.00000
 Structure written by MMmdl.
 44 45  0  0  0  0  0  0  0  0  1 V2000
  148.5551  141.4950  156.1411 C   0  0  0  0  0  0  0  0  0  0  0  0
  149.4417  140.2462  155.9792 C   0  0  0  0  0  0  0  0  0  0  0  0
  150.5957  140.0658  157.0087 C   0  0  0  0  0  0  0  0  0  0  0  0
  150.8553  141.3973  157.7398 C   0  0  0  0  0  0  0  0  0  0  0  0
  151.9619  141.3385  158.8044 C   0  0  0  0  0  0  0  0  0  0  0  0
  150.5537  138.8125  157.9288 C   0  0  1  0  0  0  0  0  0  0  0  0
  149.2289  138.2529  158.1726 N   0  0  0  0  0  0  0  0  0  0  0  0
  148.9976  137.1057  158.8267 C   0  0  0  0  0  0  0  0  0  0  0  0
  149.8959  136.4066  159.2979 O   0  0  0  0  0  0  0  0  0  0  0  0
  147.5240  136.7110  158.9791 C   0  0  0  0  0  0  0  0  0  0  0  0
  147.1773  136.3624  160.3467 N   0  0  0  0  0  0  0  0  0  0  0  0
  146.7981  135.1356  160.8523 C   0  0  0  0  0  0  0  0  0  0  0  0
  146.6052  135.3860  162.1809 C   0  0  0  0  0  0  0  0  0  0  0  0
  146.8680  136.7329  162.4247 N   0  0  0  0  0  0  0  0  0  0  0  0
  147.2109  137.3091  161.3156 N   0  0  0  0  0  0  0  0  0  0  0  0
  151.3362  138.0214  156.8750 C   0  0  2  0  0  0  0  0  0  0  0  0
  152.2986  136.9366  157.3409 C   0  0  0  0  0  0  0  0  0  0  0  0
  151.8750  139.3930  156.4408 C   0  0  1  0  0  0  0  0  0  0  0  0
  152.0164  139.5685  155.0389 O   0  0  0  0  0  0  0  0  0  0  0  0
  152.8081  138.5667  154.4260 C   0  0  0  0  0  0  0  0  0  0  0  0
  147.7259  141.4623  155.4340 H   0  0  0  0  0  0  0  0  0  0  0  0
  149.1060  142.4129  155.9388 H   0  0  0  0  0  0  0  0  0  0  0  0
  148.1252  141.5761  157.1368 H   0  0  0  0  0  0  0  0  0  0  0  0
  148.7864  139.3755  155.9985 H   0  0  0  0  0  0  0  0  0  0  0  0
  149.8456  140.2576  154.9667 H   0  0  0  0  0  0  0  0  0  0  0  0
  151.0677  142.1972  157.0309 H   0  0  0  0  0  0  0  0  0  0  0  0
  149.9409  141.7172  158.2407 H   0  0  0  0  0  0  0  0  0  0  0  0
  152.0291  142.2862  159.3390 H   0  0  0  0  0  0  0  0  0  0  0  0
  152.9395  141.1449  158.3639 H   0  0  0  0  0  0  0  0  0  0  0  0
  151.7640  140.5588  159.5402 H   0  0  0  0  0  0  0  0  0  0  0  0
  151.1500  138.9435  158.8357 H   0  0  0  0  0  0  0  0  0  0  0  0
  148.4377  138.7739  157.8228 H   0  0  0  0  0  0  0  0  0  0  0  0
  146.8934  137.5366  158.6456 H   0  0  0  0  0  0  0  0  0  0  0  0
  147.3005  135.8562  158.3390 H   0  0  0  0  0  0  0  0  0  0  0  0
  146.7080  134.2407  160.2548 H   0  0  0  0  0  0  0  0  0  0  0  0
  146.3032  134.7171  162.9733 H   0  0  0  0  0  0  0  0  0  0  0  0
  150.6596  137.6333  156.1115 H   0  0  0  0  0  0  0  0  0  0  0  0
  153.0396  137.3325  158.0357 H   0  0  0  0  0  0  0  0  0  0  0  0
  152.8354  136.4916  156.5037 H   0  0  0  0  0  0  0  0  0  0  0  0
  151.7652  136.1343  157.8510 H   0  0  0  0  0  0  0  0  0  0  0  0
  152.7705  139.6866  156.9945 H   0  0  0  0  0  0  0  0  0  0  0  0
  152.9106  138.7850  153.3632 H   0  0  0  0  0  0  0  0  0  0  0  0
  152.3487  137.5834  154.5209 H   0  0  0  0  0  0  0  0  0  0  0  0
  153.8084  138.5319  154.8599 H   0  0  0  0  0  0  0  0  0  0  0  0
  1  2  1  0  0  0  0
  1 21  1  0  0  0  0
  1 22  1  0  0  0  0
  1 23  1  0  0  0  0
  2  3  1  0  0  0  0
  2 24  1  0  0  0  0
  2 25  1  0  0  0  0
  3 18  1  0  0  0  0
  3  4  1  0  0  0  0
  3  6  1  0  0  0  0
  4  5  1  0  0  0  0
  4 26  1  0  0  0  0
  4 27  1  0  0  0  0
  5 28  1  0  0  0  0
  5 29  1  0  0  0  0
  5 30  1  0  0  0  0
  6  7  1  0  0  0  0
  6 16  1  0  0  0  0
  6 31  1  0  0  0  0
  7  8  1  0  0  0  0
  7 32  1  0  0  0  0
  8  9  2  0  0  0  0
  8 10  1  0  0  0  0
 10 11  1  0  0  0  0
 10 33  1  0  0  0  0
 10 34  1  0  0  0  0
 11 15  1  0  0  0  0
 11 12  1  0  0  0  0
 12 13  2  0  0  0  0
 12 35  1  0  0  0  0
 13 14  1  0  0  0  0
 13 36  1  0  0  0  0
 14 15  2  0  0  0  0
 16 17  1  0  0  0  0
 16 18  1  0  0  0  0
 16 37  1  0  0  0  0
 17 38  1  0  0  0  0
 17 39  1  0  0  0  0
 17 40  1  0  0  0  0
 18 19  1  0  0  0  0
 18 41  1  0  0  0  0
 19 20  1  0  0  0  0
 20 42  1  0  0  0  0
 20 43  1  0  0  0  0
 20 44  1  0  0  0  0
M  END
> <s_m_source_file>
AV-unprocessed.smi

> <i_m_source_file_index>
2525

> <i_lp_mmshare_version>
43012

> <i_f3d_flags>
0

> <s_epik_input>
W0NIM11PW0NAQEhdMVtDQEhdKFtDSDNdKVtDQEBIXShDMShbQ0gyXVtDSDNdKVtDSDJdW0NIM10pW05IXUMoPU8pW0NIMl1uMltjSF1bY0hdbm4y

> <s_epik_cmdline>
J2VwaWtfcHl0aG9uJywgJy1waCcsICc3LjAnLCAnLXRuJywgJzgnLCAnLW1hJywgJzIwMCcsICctbWV0YWxfYmluZGluZycsICctaW1hZScsICc8aW5maWxlLm1hZT4nLCAnLW9tYWUnLCAnPG91dGZpbGUubWFlPic=

> <r_lp_tautomer_probability>
1

> <r_epik_Ionization_Penalty>
1.18045e-06

> <r_epik_Ionization_Penalty_Charging>
0

> <r_epik_Ionization_Penalty_Neutral>
1.18045e-06

> <r_epik_State_Penalty>
-0

> <r_epik_Charging_Adjusted_Penalty>
0

> <i_epik_Tot_Q>
0

> <i_epik_Tot_abs_Q>
0

> <r_epik_Metal_State_Penalty>
-0

> <b_epik_Metal_Only>
0

> <s_lp_Force_Field>
OPLS_2005

> <r_lp_Energy>
27.7257

> <b_lp_Chiralities_Consistent>
1

> <s_lp_Variant>
AV-unprocessed.smi:2525-3

> <Gold.Version>
5.8.1

> <Gold.Id.Protein>
6NUR|6NUR_protein|mol2

> <Gold.PLP.Fitness>
39.4202

> <Gold.PLP.PLP>
-30.4193

> <Gold.PLP.part.hbond>
-4.0519

> <Gold.PLP.part.metal>
0.0000

> <Gold.PLP.part.buried>
-6.8417

> <Gold.PLP.part.nonpolar>
-19.8594

> <Gold.PLP.part.repulsive>
0.1748

> <Gold.PLP.ligand.clash>
0.0000

> <Gold.PLP.ligand.torsion>
1.3688

> <Gold.PLP.Chemscore.Hbond>
3.7120

> <Gold.PLP.Chemscore.CHOScore>
0.0000

> <Gold.PLP.Chemscore.Metal>
0.0000

> <Gold.Chemscore.Hbonds>
donor molecule, donor type, donor heavy atom, donor atom, acceptor molecule, acceptor atom, score
      P1  H  6896  6908       L1     9  1.00
      P1  H  6931  6943       L1    15  0.59
      P1  H  6934  6947       L1    15  1.00
      P1  H  7989  7998       L1    19  0.89

> <Gold.PLP.Chemscore.Internal.Correction>
0.6025

> <Gold.Rescore>
     Score         DG    S(hbond)    S(metal)    S(lipo)     H(rot)  DE(clash)    DE(int)     intcor
     16.40     -17.59       2.67        0.00      70.74       1.98       0.01       1.18       ----

> <Gold.Chemscore.Fitness>
16.3978

> <Gold.Chemscore.DG>
-17.5905

> <Gold.Chemscore.ZeroCoef>
-5.4800

> <Gold.Chemscore.Hbond>
2.6668

> <Gold.Chemscore.Metal>
0.0000

> <Gold.Chemscore.Lipo>
70.7404

> <Gold.Chemscore.Internal_Hbond>
0.0000

> <Gold.Chemscore.DEClash>
0.0096

> <Gold.Chemscore.DEInternal>
1.1831

> <Gold.Chemscore.Rot>
1.9817

> <Gold.Chemscore.Internal.Correction>
   9.000000E+99

> <Gold.Chemscore.Hbonds>
donor molecule, donor type, donor heavy atom, donor atom, acceptor molecule, acceptor atom, score
      P1  H  6896  6908       L1     9  1.00
      P1  H  6931  6943       L1    15  0.18
      P1  H  6934  6947       L1    15  0.95
      P1  H  7989  7998       L1    19  0.29

> <Gold.Chemscore.Hbond.Weighted>
-8.9070

> <Gold.Chemscore.Metal.Weighted>
-0.0000

> <Gold.Chemscore.Lipo.Weighted>
-8.2766

> <Gold.Chemscore.Internal_Hbond.Weighted>
0.0000

> <Gold.Chemscore.DEClash.Weighted>
0.0096

> <Gold.Chemscore.DEInternal.Weighted>
1.1831

> <Gold.Chemscore.Rot.Weighted>
5.0731

> <Gold.Chemscore.Internal.Correction.Weighted>
   9.000000E+99

> <Gold.Protein.RotatedTorsions>
[ 6907 6896 6895 6894 ] final -169.93 input  -60.11 | X-H torsion
[ 7974 7965 7964 7962 ] final -174.28 input  175.53 | X-H torsion
[ 8008 7997 7996 7995 ] final  -49.27 input   59.86 | X-H torsion
[ 10167 10162 10161 10158 ] final -129.39 input  -65.29 | X-H torsion
[ 10718 10713 10712 10709 ] final  -74.54 input   66.30 | X-H torsion
[ 10763 10752 10751 10750 ] final -131.85 input  -60.55 | X-H torsion
[ 11005 11000 10999 10996 ] final -144.93 input  -57.11 | X-H torsion

> <Gold.Protein.ActiveResidues>
 VAL166  LYS551  ARG553  GLY616  TRP617  ASP618  TYR619  PRO620  LYS621  CYS622 
 ASP623  PHE694  ASN695  SER759  ASP760  ASP761  ALA762  ILE779  LEU786  VAL792 
 PHE793  MET794  SER795  GLU796  ALA797  LYS798  CYS799  TRP800  GLU811  SER814 

> <Gold.Protein.RotatedAtoms>
  151.4995  133.3507  159.2866 H   0  0  0  0  0  0  0  0  0  0  0  0  # atno 6907 bound_to 6896
  150.8782  134.8171  159.7216 H   0  0  0  0  0  0  0  0  0  0  0  0  # atno 6908 bound_to 6896
  152.4745  134.4889  159.9741 H   0  0  0  0  0  0  0  0  0  0  0  0  # atno 6909 bound_to 6896
  144.7133  140.1495  143.6385 H   0  0  0  0  0  0  0  0  0  0  0  0  # atno 7974 bound_to 7965
  154.4041  140.1301  156.4474 H   0  0  0  0  0  0  0  0  0  0  0  0  # atno 8008 bound_to 7997
  155.7399  140.3490  155.5079 H   0  0  0  0  0  0  0  0  0  0  0  0  # atno 8009 bound_to 7997
  155.9049  140.1025  157.1313 H   0  0  0  0  0  0  0  0  0  0  0  0  # atno 8010 bound_to 7997
  139.9403  143.6171  152.2505 H   0  0  0  0  0  0  0  0  0  0  0  0  # atno 10167 bound_to 10162
  156.0239  130.4419  150.2907 H   0  0  0  0  0  0  0  0  0  0  0  0  # atno 10718 bound_to 10713
  154.8748  135.3817  154.4314 H   0  0  0  0  0  0  0  0  0  0  0  0  # atno 10763 bound_to 10752
  153.5008  135.7030  153.5838 H   0  0  0  0  0  0  0  0  0  0  0  0  # atno 10764 bound_to 10752
  153.4171  135.3910  155.2054 H   0  0  0  0  0  0  0  0  0  0  0  0  # atno 10765 bound_to 10752
  140.7974  134.2897  157.4991 H   0  0  0  0  0  0  0  0  0  0  0  0  # atno 11005 bound_to 11000
  145.9129  139.2498  143.1427 LP  0  0  0  0  0  0  0  0  0  0  0  0  # atno 17320 bound_to 7965
  145.9698  140.8769  143.0168 LP  0  0  0  0  0  0  0  0  0  0  0  0  # atno 17321 bound_to 7965
  139.6710  144.7661  151.1783 LP  0  0  0  0  0  0  0  0  0  0  0  0  # atno 17342 bound_to 10162
  140.7613  143.5865  150.8840 LP  0  0  0  0  0  0  0  0  0  0  0  0  # atno 17343 bound_to 10162
  157.1011  131.0196  151.3085 LP  0  0  0  0  0  0  0  0  0  0  0  0  # atno 17370 bound_to 10713
  157.4779  130.7747  149.7386 LP  0  0  0  0  0  0  0  0  0  0  0  0  # atno 17371 bound_to 10713
  139.8725  134.9410  156.3785 LP  0  0  0  0  0  0  0  0  0  0  0  0  # atno 17394 bound_to 11000
  140.9329  133.7567  156.0047 LP  0  0  0  0  0  0  0  0  0  0  0  0  # atno 17395 bound_to 11000

$$$$
