AV-unprocessed.smi:103|AV-procd|sdf|982|dock7
  -GOLD-   2262017543D 1   1.00000     0.00000
 Structure written by MMmdl.
 53 55  0  0  0  0  0  0  0  0  1 V2000
  151.4470  142.7799  157.6332 C   0  0  0  0  0  0  0  0  0  0  0  0
  150.4391  141.7184  157.2126 C   0  0  0  0  0  0  0  0  0  0  0  0
  149.7968  141.8232  156.1675 O   0  0  0  0  0  0  0  0  0  0  0  0
  150.3598  140.7096  158.0957 O   0  0  0  0  0  0  0  0  0  0  0  0
  149.4075  139.6735  157.9098 C   0  0  0  0  0  0  0  0  0  0  0  0
  149.9360  138.3758  158.5448 C   0  0  1  0  0  0  0  0  0  0  0  0
  148.8446  137.7781  159.2464 O   0  0  0  0  0  0  0  0  0  0  0  0
  148.6343  136.4808  158.7951 C   0  0  1  0  0  0  0  0  0  0  0  0
  147.1675  136.1904  158.8028 N   0  0  0  0  0  0  0  0  0  0  0  0
  146.2758  136.1716  159.8570 C   0  0  0  0  0  0  0  0  0  0  0  0
  146.6384  136.5539  161.5666 S   0  0  0  0  0  0  0  0  0  0  0  0
  147.0676  134.8974  162.2388 C   0  0  0  0  0  0  0  0  0  0  0  0
  147.8370  137.4071  161.5720 O   0  0  0  0  0  0  0  0  0  0  0  0
  145.3882  137.0200  162.1853 O   0  0  0  0  0  0  0  0  0  0  0  0
  145.0229  135.9552  159.5600 N   0  0  0  0  0  0  0  0  0  0  0  0
  145.0563  135.7424  158.1893 C   0  0  0  0  0  0  0  0  0  0  0  0
  144.0729  135.4378  157.2146 C   0  0  0  0  0  0  0  0  0  0  0  0
  142.7742  135.2853  157.5087 N   0  0  0  0  0  0  0  0  0  0  0  0
  144.4615  135.2963  155.9258 N   0  0  0  0  0  0  0  0  0  0  0  0
  145.7510  135.4454  155.6065 C   0  0  0  0  0  0  0  0  0  0  0  0
  146.7808  135.7313  156.4068 N   0  0  0  0  0  0  0  0  0  0  0  0
  146.3895  135.8757  157.7063 C   0  0  0  0  0  0  0  0  0  0  0  0
  149.1991  136.4084  157.3849 C   0  0  2  0  0  0  0  0  0  0  0  0
  149.5742  135.0723  157.0852 O   0  0  0  0  0  0  0  0  0  0  0  0
  150.1105  134.7715  155.8924 C   0  0  0  0  0  0  0  0  0  0  0  0
  149.9733  133.2936  155.5532 C   0  0  0  0  0  0  0  0  0  0  0  0
  150.6634  135.5597  155.1254 O   0  0  0  0  0  0  0  0  0  0  0  0
  150.4070  137.3146  157.5279 C   0  0  1  0  0  0  0  0  0  0  0  0
  150.7573  137.8512  156.2576 O   0  0  0  0  0  0  0  0  0  0  0  0
  151.8635  138.6004  156.1206 C   0  0  0  0  0  0  0  0  0  0  0  0
  152.0550  139.0940  154.6930 C   0  0  0  0  0  0  0  0  0  0  0  0
  152.6584  138.8902  157.0146 O   0  0  0  0  0  0  0  0  0  0  0  0
  151.4159  142.9316  158.7123 H   0  0  0  0  0  0  0  0  0  0  0  0
  151.2263  143.7296  157.1456 H   0  0  0  0  0  0  0  0  0  0  0  0
  152.4552  142.4735  157.3542 H   0  0  0  0  0  0  0  0  0  0  0  0
  148.4389  139.9278  158.3403 H   0  0  0  0  0  0  0  0  0  0  0  0
  149.2569  139.5420  156.8381 H   0  0  0  0  0  0  0  0  0  0  0  0
  150.7444  138.6059  159.2395 H   0  0  0  0  0  0  0  0  0  0  0  0
  149.0985  135.7875  159.4946 H   0  0  0  0  0  0  0  0  0  0  0  0
  147.3216  134.9897  163.2944 H   0  0  0  0  0  0  0  0  0  0  0  0
  147.9217  134.4958  161.6936 H   0  0  0  0  0  0  0  0  0  0  0  0
  146.2181  134.2245  162.1263 H   0  0  0  0  0  0  0  0  0  0  0  0
  142.4592  135.3877  158.4628 H   0  0  0  0  0  0  0  0  0  0  0  0
  142.1137  135.0668  156.7768 H   0  0  0  0  0  0  0  0  0  0  0  0
  145.9928  135.3214  154.5610 H   0  0  0  0  0  0  0  0  0  0  0  0
  148.4691  136.8240  156.6878 H   0  0  0  0  0  0  0  0  0  0  0  0
  148.9569  132.9514  155.7495 H   0  0  0  0  0  0  0  0  0  0  0  0
  150.6614  132.7022  156.1573 H   0  0  0  0  0  0  0  0  0  0  0  0
  150.1988  133.1195  154.5011 H   0  0  0  0  0  0  0  0  0  0  0  0
  151.2257  136.7362  157.9606 H   0  0  0  0  0  0  0  0  0  0  0  0
  151.8803  138.2849  153.9836 H   0  0  0  0  0  0  0  0  0  0  0  0
  153.0696  139.4658  154.5494 H   0  0  0  0  0  0  0  0  0  0  0  0
  151.3560  139.9019  154.4767 H   0  0  0  0  0  0  0  0  0  0  0  0
  1  2  1  0  0  0  0
  1 33  1  0  0  0  0
  1 34  1  0  0  0  0
  1 35  1  0  0  0  0
  2  3  2  0  0  0  0
  2  4  1  0  0  0  0
  4  5  1  0  0  0  0
  5  6  1  0  0  0  0
  5 36  1  0  0  0  0
  5 37  1  0  0  0  0
  6 28  1  0  0  0  0
  6  7  1  0  0  0  0
  6 38  1  0  0  0  0
  7  8  1  0  0  0  0
  8  9  1  0  0  0  0
  8 23  1  0  0  0  0
  8 39  1  0  0  0  0
  9 22  1  0  0  0  0
  9 10  1  0  0  0  0
 10 11  1  0  0  0  0
 10 15  2  0  0  0  0
 11 12  1  0  0  0  0
 11 13  2  0  0  0  0
 11 14  2  0  0  0  0
 12 40  1  0  0  0  0
 12 41  1  0  0  0  0
 12 42  1  0  0  0  0
 15 16  1  0  0  0  0
 16 22  2  0  0  0  0
 16 17  1  0  0  0  0
 17 18  1  0  0  0  0
 17 19  2  0  0  0  0
 18 43  1  0  0  0  0
 18 44  1  0  0  0  0
 19 20  1  0  0  0  0
 20 21  2  0  0  0  0
 20 45  1  0  0  0  0
 21 22  1  0  0  0  0
 23 24  1  0  0  0  0
 23 28  1  0  0  0  0
 23 46  1  0  0  0  0
 24 25  1  0  0  0  0
 25 26  1  0  0  0  0
 25 27  2  0  0  0  0
 26 47  1  0  0  0  0
 26 48  1  0  0  0  0
 26 49  1  0  0  0  0
 28 29  1  0  0  0  0
 28 50  1  0  0  0  0
 29 30  1  0  0  0  0
 30 31  1  0  0  0  0
 30 32  2  0  0  0  0
 31 51  1  0  0  0  0
 31 52  1  0  0  0  0
 31 53  1  0  0  0  0
M  END
> <s_m_source_file>
AV-unprocessed.smi

> <i_m_source_file_index>
103

> <i_lp_mmshare_version>
43012

> <i_f3d_flags>
0

> <s_epik_input>
W0NIM11DKD1PKU9bQ0gyXVtDQEBIXTFPW0NASF0oW0NAQEhdKE9DKD1PKVtDSDNdKVtDQEhdMU9DKD1PKVtDSDNdKW4oYyhuMilTKD1PKSg9TylbQ0gzXSljKGMyMyluW2NIXW5jM1tOSDJd

> <s_epik_cmdline>
J2VwaWtfcHl0aG9uJywgJy1waCcsICc3LjAnLCAnLXRuJywgJzgnLCAnLW1hJywgJzIwMCcsICctbWV0YWxfYmluZGluZycsICctaW1hZScsICc8aW5maWxlLm1hZT4nLCAnLW9tYWUnLCAnPG91dGZpbGUubWFlPic=

> <r_lp_tautomer_probability>
1

> <r_epik_Ionization_Penalty>
1.51338e-05

> <r_epik_Ionization_Penalty_Charging>
0

> <r_epik_Ionization_Penalty_Neutral>
1.51338e-05

> <r_epik_State_Penalty>
-0

> <r_epik_Charging_Adjusted_Penalty>
0

> <i_epik_Tot_Q>
0

> <i_epik_Tot_abs_Q>
0

> <r_epik_Metal_State_Penalty>
-0

> <b_epik_Metal_Only>
0

> <s_epik_Chemistry_Notes>
This compound has an ester and may undergo hydrolysis at high or low pH. This compound contains an acetal/aminal-like group ( X-CH(R)-Y where X, Y are N, S, or O) that may be acid/base labile, releasing an aldehyde.

> <s_lp_Force_Field>
OPLS_2005

> <r_lp_Energy>
15.9567

> <b_lp_Chiralities_Consistent>
1

> <s_lp_Variant>
AV-unprocessed.smi:103-6

> <Gold.Version>
5.8.1

> <Gold.Id.Protein>
6NUR|6NUR_protein|mol2

> <Gold.PLP.Fitness>
40.1662

> <Gold.PLP.PLP>
-32.3568

> <Gold.PLP.part.hbond>
-6.1279

> <Gold.PLP.part.metal>
0.0000

> <Gold.PLP.part.buried>
-5.3153

> <Gold.PLP.part.nonpolar>
-21.0776

> <Gold.PLP.part.repulsive>
0.2679

> <Gold.PLP.ligand.clash>
1.9790

> <Gold.PLP.ligand.torsion>
2.1939

> <Gold.PLP.Chemscore.Hbond>
3.9982

> <Gold.PLP.Chemscore.CHOScore>
0.0000

> <Gold.PLP.Chemscore.Metal>
0.0000

> <Gold.Chemscore.Hbonds>
donor molecule, donor type, donor heavy atom, donor atom, acceptor molecule, acceptor atom, score
      L1  H    18    44       P1 11000  0.34
      P1  H  6931  6943       L1    13  0.87
      P1  H  6934  6947       L1    13  0.64
      P1  H  7997  8009       L1    32  0.71
      P1  H 10752 10764       L1    27  0.24

> <Gold.PLP.Chemscore.Internal.Correction>
2.1817

> <Gold.Rescore>
     Score         DG    S(hbond)    S(metal)    S(lipo)     H(rot)  DE(clash)    DE(int)     intcor
      3.42     -11.61       3.64        0.00      41.29       4.25       0.03       8.17       ----

> <Gold.Chemscore.Fitness>
3.4151

> <Gold.Chemscore.DG>
-11.6091

> <Gold.Chemscore.ZeroCoef>
-5.4800

> <Gold.Chemscore.Hbond>
3.6428

> <Gold.Chemscore.Metal>
0.0000

> <Gold.Chemscore.Lipo>
41.2878

> <Gold.Chemscore.Internal_Hbond>
0.0000

> <Gold.Chemscore.DEClash>
0.0279

> <Gold.Chemscore.DEInternal>
8.1661

> <Gold.Chemscore.Rot>
4.2456

> <Gold.Chemscore.Internal.Correction>
   9.000000E+99

> <Gold.Chemscore.Hbonds>
donor molecule, donor type, donor heavy atom, donor atom, acceptor molecule, acceptor atom, score
      L1  H    18    44       P1 11000  0.02
      P1  H  6931  6943       L1    13  0.82
      P1  H  6934  6947       L1    13  0.25
      P1  H  7997  8009       L1    32  0.71
      P1  H 10752 10764       L1    27  0.24

> <Gold.Chemscore.Hbond.Weighted>
-12.1671

> <Gold.Chemscore.Metal.Weighted>
-0.0000

> <Gold.Chemscore.Lipo.Weighted>
-4.8307

> <Gold.Chemscore.Internal_Hbond.Weighted>
0.0000

> <Gold.Chemscore.DEClash.Weighted>
0.0279

> <Gold.Chemscore.DEInternal.Weighted>
8.1661

> <Gold.Chemscore.Rot.Weighted>
10.8687

> <Gold.Chemscore.Internal.Correction.Weighted>
   9.000000E+99

> <Gold.Protein.RotatedTorsions>
[ 6907 6896 6895 6894 ] final  -86.55 input  -60.11 | X-H torsion
[ 7974 7965 7964 7962 ] final -140.05 input  175.53 | X-H torsion
[ 8008 7997 7996 7995 ] final  168.48 input   59.86 | X-H torsion
[ 10167 10162 10161 10158 ] final  -73.68 input  -65.29 | X-H torsion
[ 10718 10713 10712 10709 ] final   76.59 input   66.30 | X-H torsion
[ 10763 10752 10751 10750 ] final  -49.12 input  -60.55 | X-H torsion
[ 11005 11000 10999 10996 ] final  102.19 input  -57.11 | X-H torsion

> <Gold.Protein.ActiveResidues>
 VAL166  LYS551  ARG553  GLY616  TRP617  ASP618  TYR619  PRO620  LYS621  CYS622 
 ASP623  PHE694  ASN695  SER759  ASP760  ASP761  ALA762  ILE779  LEU786  VAL792 
 PHE793  MET794  SER795  GLU796  ALA797  LYS798  CYS799  TRP800  GLU811  SER814 

> <Gold.Protein.RotatedAtoms>
  150.6867  134.3034  159.4715 H   0  0  0  0  0  0  0  0  0  0  0  0  # atno 6907 bound_to 6896
  152.0927  134.9393  160.0580 H   0  0  0  0  0  0  0  0  0  0  0  0  # atno 6908 bound_to 6896
  152.0703  133.4068  159.4493 H   0  0  0  0  0  0  0  0  0  0  0  0  # atno 6909 bound_to 6896
  144.8628  140.6246  143.5317 H   0  0  0  0  0  0  0  0  0  0  0  0  # atno 7974 bound_to 7965
  156.1543  140.1589  156.8718 H   0  0  0  0  0  0  0  0  0  0  0  0  # atno 8008 bound_to 7997
  154.5100  140.0803  156.8008 H   0  0  0  0  0  0  0  0  0  0  0  0  # atno 8009 bound_to 7997
  155.3834  140.3406  155.4250 H   0  0  0  0  0  0  0  0  0  0  0  0  # atno 8010 bound_to 7997
  140.5090  143.2348  151.7625 H   0  0  0  0  0  0  0  0  0  0  0  0  # atno 10167 bound_to 10162
  157.6679  130.9781  150.1519 H   0  0  0  0  0  0  0  0  0  0  0  0  # atno 10718 bound_to 10713
  154.0889  135.6580  153.4849 H   0  0  0  0  0  0  0  0  0  0  0  0  # atno 10763 bound_to 10752
  153.0329  135.5198  154.7400 H   0  0  0  0  0  0  0  0  0  0  0  0  # atno 10764 bound_to 10752
  154.6517  135.3002  154.9946 H   0  0  0  0  0  0  0  0  0  0  0  0  # atno 10765 bound_to 10752
  139.8776  134.9214  156.5020 H   0  0  0  0  0  0  0  0  0  0  0  0  # atno 11005 bound_to 11000
  145.4280  139.1553  143.4038 LP  0  0  0  0  0  0  0  0  0  0  0  0  # atno 17320 bound_to 7965
  146.2873  140.4394  142.8753 LP  0  0  0  0  0  0  0  0  0  0  0  0  # atno 17321 bound_to 7965
  139.4891  144.4417  151.9756 LP  0  0  0  0  0  0  0  0  0  0  0  0  # atno 17342 bound_to 10162
  140.3509  144.3090  150.5949 LP  0  0  0  0  0  0  0  0  0  0  0  0  # atno 17343 bound_to 10162
  156.2316  130.3682  149.8439 LP  0  0  0  0  0  0  0  0  0  0  0  0  # atno 17370 bound_to 10713
  156.6264  130.8647  151.3486 LP  0  0  0  0  0  0  0  0  0  0  0  0  # atno 17371 bound_to 10713
  140.8583  133.8079  155.9238 LP  0  0  0  0  0  0  0  0  0  0  0  0  # atno 17394 bound_to 11000
  140.9075  134.2301  157.5005 LP  0  0  0  0  0  0  0  0  0  0  0  0  # atno 17395 bound_to 11000

$$$$
