AV-unprocessed.smi:2424|AV-procd|sdf|9567|dock3
  -GOLD-   2272013193D 1   1.00000     0.00000
 Structure written by MMmdl.
 49 50  0  0  0  0  0  0  0  0  2 V2000
  148.8122  140.5560  154.2145 C   0  0  0  0  0  0  0  0  0  0  0  0
  148.0964  139.1955  154.2252 C   0  0  0  0  0  0  0  0  0  0  0  0
  148.1952  138.4095  155.5594 C   0  0  0  0  0  0  0  0  0  0  0  0
  147.7187  139.3301  156.7103 C   0  0  0  0  0  0  0  0  0  0  0  0
  148.7590  140.3426  157.2183 C   0  0  0  0  0  0  0  0  0  0  0  0
  147.5808  136.9792  155.6042 C   0  0  1  0  0  0  0  0  0  0  0  0
  147.4965  136.3364  154.2912 N   0  0  0  0  0  0  0  0  0  0  0  0
  146.5263  135.5044  153.8921 C   0  0  0  0  0  0  0  0  0  0  0  0
  145.5867  135.1648  154.6109 O   0  0  0  0  0  0  0  0  0  0  0  0
  146.7272  135.1189  152.6198 N   0  0  0  0  0  0  0  0  0  0  0  0
  145.9590  134.2478  151.8373 C   0  0  0  0  0  0  0  0  0  0  0  0
  145.1601  134.7413  150.8260 C   0  0  0  0  0  0  0  0  0  0  0  0
  144.3565  134.0671  149.9753 N   0  5  0  0  0  0  0  0  0  0  0  0
  144.2931  132.7097  150.0912 C   0  0  0  0  0  0  0  0  0  0  0  0
  143.5781  132.0298  149.3559 O   0  0  0  0  0  0  0  0  0  0  0  0
  145.1079  132.0447  151.1280 C   0  0  0  0  0  0  0  0  0  0  0  0
  145.0461  130.5313  151.2454 C   0  0  0  0  0  0  0  0  0  0  0  0
  145.8909  132.7908  151.9466 C   0  0  0  0  0  0  0  0  0  0  0  0
  148.8056  136.4970  156.4001 C   0  0  1  0  0  0  0  0  0  0  0  0
  149.3543  135.0820  156.2285 C   0  0  0  0  0  0  0  0  0  0  0  0
  149.5582  137.7213  155.8457 C   0  0  1  0  0  0  0  0  0  0  0  0
  150.2714  137.4293  154.6485 O   0  0  0  0  0  0  0  0  0  0  0  0
  151.0872  138.5021  154.2098 C   0  0  0  0  0  0  0  0  0  0  0  0
  148.8059  140.9808  153.2105 H   0  0  0  0  0  0  0  0  0  0  0  0
  149.8530  140.4609  154.5244 H   0  0  0  0  0  0  0  0  0  0  0  0
  148.3268  141.2787  154.8695 H   0  0  0  0  0  0  0  0  0  0  0  0
  147.0562  139.3287  153.9302 H   0  0  0  0  0  0  0  0  0  0  0  0
  148.5307  138.6167  153.4104 H   0  0  0  0  0  0  0  0  0  0  0  0
  146.8490  139.9020  156.3872 H   0  0  0  0  0  0  0  0  0  0  0  0
  147.3510  138.7418  157.5505 H   0  0  0  0  0  0  0  0  0  0  0  0
  148.3044  141.0279  157.9340 H   0  0  0  0  0  0  0  0  0  0  0  0
  149.1691  140.9420  156.4060 H   0  0  0  0  0  0  0  0  0  0  0  0
  149.5876  139.8531  157.7290 H   0  0  0  0  0  0  0  0  0  0  0  0
  146.6630  136.9171  156.1906 H   0  0  0  0  0  0  0  0  0  0  0  0
  148.2301  136.5578  153.6339 H   0  0  0  0  0  0  0  0  0  0  0  0
  147.5342  135.5069  152.1535 H   0  0  0  0  0  0  0  0  0  0  0  0
  145.1631  135.8435  150.6823 H   0  0  0  0  0  0  0  0  0  0  0  0
  145.7031  130.1663  152.0354 H   0  0  0  0  0  0  0  0  0  0  0  0
  145.3534  130.0635  150.3097 H   0  0  0  0  0  0  0  0  0  0  0  0
  144.0304  130.2084  151.4755 H   0  0  0  0  0  0  0  0  0  0  0  0
  146.4769  132.2700  152.6861 H   0  0  0  0  0  0  0  0  0  0  0  0
  148.6059  136.6716  157.4586 H   0  0  0  0  0  0  0  0  0  0  0  0
  149.6447  134.8770  155.1978 H   0  0  0  0  0  0  0  0  0  0  0  0
  148.6100  134.3377  156.5121 H   0  0  0  0  0  0  0  0  0  0  0  0
  150.2317  134.9223  156.8547 H   0  0  0  0  0  0  0  0  0  0  0  0
  150.1561  138.2557  156.5867 H   0  0  0  0  0  0  0  0  0  0  0  0
  151.6376  138.2010  153.3188 H   0  0  0  0  0  0  0  0  0  0  0  0
  151.8113  138.7952  154.9700 H   0  0  0  0  0  0  0  0  0  0  0  0
  150.4814  139.3717  153.9522 H   0  0  0  0  0  0  0  0  0  0  0  0
  1  2  1  0  0  0  0
  1 24  1  0  0  0  0
  1 25  1  0  0  0  0
  1 26  1  0  0  0  0
  2  3  1  0  0  0  0
  2 27  1  0  0  0  0
  2 28  1  0  0  0  0
  3 21  1  0  0  0  0
  3  4  1  0  0  0  0
  3  6  1  0  0  0  0
  4  5  1  0  0  0  0
  4 29  1  0  0  0  0
  4 30  1  0  0  0  0
  5 31  1  0  0  0  0
  5 32  1  0  0  0  0
  5 33  1  0  0  0  0
  6  7  1  0  0  0  0
  6 19  1  0  0  0  0
  6 34  1  0  0  0  0
  7  8  1  0  0  0  0
  7 35  1  0  0  0  0
  8  9  2  0  0  0  0
  8 10  1  0  0  0  0
 10 11  1  0  0  0  0
 10 36  1  0  0  0  0
 11 18  1  0  0  0  0
 11 12  2  0  0  0  0
 12 13  1  0  0  0  0
 12 37  1  0  0  0  0
 13 14  1  0  0  0  0
 14 15  2  0  0  0  0
 14 16  1  0  0  0  0
 16 17  1  0  0  0  0
 16 18  2  0  0  0  0
 17 38  1  0  0  0  0
 17 39  1  0  0  0  0
 17 40  1  0  0  0  0
 18 41  1  0  0  0  0
 19 20  1  0  0  0  0
 19 21  1  0  0  0  0
 19 42  1  0  0  0  0
 20 43  1  0  0  0  0
 20 44  1  0  0  0  0
 20 45  1  0  0  0  0
 21 22  1  0  0  0  0
 21 46  1  0  0  0  0
 22 23  1  0  0  0  0
 23 47  1  0  0  0  0
 23 48  1  0  0  0  0
 23 49  1  0  0  0  0
M  CHG  1  13  -1
M  END
> <s_m_source_file>
AV-unprocessed.smi

> <i_m_source_file_index>
2424

> <i_lp_mmshare_version>
43012

> <i_f3d_flags>
0

> <s_epik_input>
W0NIM11PW0NAQEhdMVtDQEhdKFtDSDNdKVtDQEBIXShDMShbQ0gyXVtDSDNdKVtDSDJdW0NIM10pW05IXUMoPU8pW05IXWMyW2NIXVtuSF1jKD1PKWMoW0NIM10pW2NIXTI=

> <s_epik_cmdline>
J2VwaWtfcHl0aG9uJywgJy1waCcsICc3LjAnLCAnLXRuJywgJzgnLCAnLW1hJywgJzIwMCcsICctbWV0YWxfYmluZGluZycsICctaW1hZScsICc8aW5maWxlLm1hZT4nLCAnLW9tYWUnLCAnPG91dGZpbGUubWFlPic=

> <r_lp_tautomer_probability>
1

> <r_epik_Ionization_Penalty>
7.6122

> <r_epik_Ionization_Penalty_Charging>
1.53843

> <r_epik_Ionization_Penalty_Neutral>
6.07377

> <r_epik_State_Penalty>
6.07371

> <r_epik_Charging_Adjusted_Penalty>
7.61214

> <i_epik_Tot_Q>
-1

> <i_epik_Tot_abs_Q>
1

> <r_epik_Metal_State_Penalty>
2.02136

> <b_epik_Metal_Only>
1

> <s_lp_Force_Field>
OPLS_2005

> <r_lp_Energy>
42.7103

> <b_lp_Chiralities_Consistent>
1

> <s_lp_Variant>
AV-unprocessed.smi:2424-9

> <Gold.Version>
5.8.1

> <Gold.Id.Protein>
6NUR|6NUR_protein|mol2

> <Gold.PLP.Fitness>
33.9437

> <Gold.PLP.PLP>
-27.6757

> <Gold.PLP.part.hbond>
-3.0000

> <Gold.PLP.part.metal>
0.0000

> <Gold.PLP.part.buried>
-6.9103

> <Gold.PLP.part.nonpolar>
-19.4705

> <Gold.PLP.part.repulsive>
1.6772

> <Gold.PLP.ligand.clash>
0.0000

> <Gold.PLP.ligand.torsion>
1.4777

> <Gold.PLP.Chemscore.Hbond>
2.8560

> <Gold.PLP.Chemscore.CHOScore>
0.0000

> <Gold.PLP.Chemscore.Metal>
0.0000

> <Gold.Chemscore.Hbonds>
donor molecule, donor type, donor heavy atom, donor atom, acceptor molecule, acceptor atom, score
      L1  H     7    35       P1  7948  0.93
      L1  H    10    36       P1  7948  1.00
      P1  H 10785 10796       L1    15  0.94

> <Gold.PLP.Chemscore.Internal.Correction>
0.6553

> <Gold.Rescore>
     Score         DG    S(hbond)    S(metal)    S(lipo)     H(rot)  DE(clash)    DE(int)     intcor
     17.04     -18.83       2.89        0.00      64.87       1.52       0.07       1.72       ----

> <Gold.Chemscore.Fitness>
17.0386

> <Gold.Chemscore.DG>
-18.8309

> <Gold.Chemscore.ZeroCoef>
-5.4800

> <Gold.Chemscore.Hbond>
2.8901

> <Gold.Chemscore.Metal>
0.0000

> <Gold.Chemscore.Lipo>
64.8742

> <Gold.Chemscore.Internal_Hbond>
0.0000

> <Gold.Chemscore.DEClash>
0.0691

> <Gold.Chemscore.DEInternal>
1.7232

> <Gold.Chemscore.Rot>
1.5204

> <Gold.Chemscore.Internal.Correction>
   9.000000E+99

> <Gold.Chemscore.Hbonds>
donor molecule, donor type, donor heavy atom, donor atom, acceptor molecule, acceptor atom, score
      L1  H     7    35       P1  7948  0.89
      L1  H    10    36       P1  7948  0.98
      P1  H 10785 10796       L1    15  0.86

> <Gold.Chemscore.Hbond.Weighted>
-9.6529

> <Gold.Chemscore.Metal.Weighted>
-0.0000

> <Gold.Chemscore.Lipo.Weighted>
-7.5903

> <Gold.Chemscore.Internal_Hbond.Weighted>
0.0000

> <Gold.Chemscore.DEClash.Weighted>
0.0691

> <Gold.Chemscore.DEInternal.Weighted>
1.7232

> <Gold.Chemscore.Rot.Weighted>
3.8922

> <Gold.Chemscore.Internal.Correction.Weighted>
   9.000000E+99

> <Gold.Protein.RotatedTorsions>
[ 6907 6896 6895 6894 ] final  -70.26 input  -60.11 | X-H torsion
[ 7974 7965 7964 7962 ] final   72.15 input  175.53 | X-H torsion
[ 8008 7997 7996 7995 ] final  -20.42 input   59.86 | X-H torsion
[ 10167 10162 10161 10158 ] final  163.75 input  -65.29 | X-H torsion
[ 10718 10713 10712 10709 ] final    2.13 input   66.30 | X-H torsion
[ 10763 10752 10751 10750 ] final   47.91 input  -60.55 | X-H torsion
[ 11005 11000 10999 10996 ] final -174.90 input  -57.11 | X-H torsion

> <Gold.Protein.ActiveResidues>
 VAL166  LYS551  ARG553  GLY616  TRP617  ASP618  TYR619  PRO620  LYS621  CYS622 
 ASP623  PHE694  ASN695  SER759  ASP760  ASP761  ALA762  ILE779  LEU786  VAL792 
 PHE793  MET794  SER795  GLU796  ALA797  LYS798  CYS799  TRP800  GLU811  SER814 

> <Gold.Protein.RotatedAtoms>
  150.7266  134.5478  159.5779 H   0  0  0  0  0  0  0  0  0  0  0  0  # atno 6907 bound_to 6896
  152.2973  134.7649  160.0374 H   0  0  0  0  0  0  0  0  0  0  0  0  # atno 6908 bound_to 6896
  151.8242  133.3363  159.3630 H   0  0  0  0  0  0  0  0  0  0  0  0  # atno 6909 bound_to 6896
  145.7570  139.2784  143.1398 H   0  0  0  0  0  0  0  0  0  0  0  0  # atno 7974 bound_to 7965
  154.4771  140.2062  155.9852 H   0  0  0  0  0  0  0  0  0  0  0  0  # atno 8008 bound_to 7997
  156.1107  140.3229  155.8038 H   0  0  0  0  0  0  0  0  0  0  0  0  # atno 8009 bound_to 7997
  155.4640  140.0526  157.2978 H   0  0  0  0  0  0  0  0  0  0  0  0  # atno 8010 bound_to 7997
  139.4878  144.4305  151.9076 H   0  0  0  0  0  0  0  0  0  0  0  0  # atno 10167 bound_to 10162
  156.8585  130.5578  149.5664 H   0  0  0  0  0  0  0  0  0  0  0  0  # atno 10718 bound_to 10713
  152.9796  135.5961  154.3840 H   0  0  0  0  0  0  0  0  0  0  0  0  # atno 10763 bound_to 10752
  154.3501  135.2767  155.2378 H   0  0  0  0  0  0  0  0  0  0  0  0  # atno 10764 bound_to 10752
  154.4421  135.6010  153.6191 H   0  0  0  0  0  0  0  0  0  0  0  0  # atno 10765 bound_to 10752
  140.4694  134.6180  157.4875 H   0  0  0  0  0  0  0  0  0  0  0  0  # atno 11005 bound_to 11000
  146.0301  140.8266  142.9880 LP  0  0  0  0  0  0  0  0  0  0  0  0  # atno 17320 bound_to 7965
  144.6838  140.2757  143.7299 LP  0  0  0  0  0  0  0  0  0  0  0  0  # atno 17321 bound_to 7965
  140.3753  144.2805  150.5915 LP  0  0  0  0  0  0  0  0  0  0  0  0  # atno 17342 bound_to 10162
  140.5282  143.2249  151.8280 LP  0  0  0  0  0  0  0  0  0  0  0  0  # atno 17343 bound_to 10162
  156.0790  130.5805  150.9527 LP  0  0  0  0  0  0  0  0  0  0  0  0  # atno 17370 bound_to 10713
  157.6263  131.0925  150.8526 LP  0  0  0  0  0  0  0  0  0  0  0  0  # atno 17371 bound_to 10713
  139.9895  134.7008  155.9715 LP  0  0  0  0  0  0  0  0  0  0  0  0  # atno 17394 bound_to 11000
  141.1584  133.6541  156.4237 LP  0  0  0  0  0  0  0  0  0  0  0  0  # atno 17395 bound_to 11000

$$$$
