AV-unprocessed.smi:112|AV-procd|sdf|1083|dock7
  -GOLD-   2262018173D 1   1.00000     0.00000
 Structure written by MMmdl.
 54 57  0  0  0  0  0  0  0  0  3 V2000
  146.2329  141.9383  158.3518 C   0  0  0  0  0  0  0  0  0  0  0  0
  147.4412  141.5949  157.4944 C   0  0  0  0  0  0  0  0  0  0  0  0
  147.3520  140.7774  156.4200 C   0  0  0  0  0  0  0  0  0  0  0  0
  148.4312  140.4473  155.6198 N   0  0  0  0  0  0  0  0  0  0  0  0
  148.2898  139.5538  154.4062 C   0  0  2  0  0  0  0  0  0  0  0  0
  147.8006  140.3635  153.1965 C   0  0  0  0  0  0  0  0  0  0  0  0
  146.7326  139.4663  152.6018 C   0  0  1  0  0  0  0  0  0  0  0  0
  147.2973  138.5739  151.6596 O   0  0  0  0  0  0  0  0  0  0  0  0
  146.1966  138.7405  153.8420 C   0  0  1  0  0  0  0  0  0  0  0  0
  145.4606  137.4102  153.6073 C   0  0  0  0  0  0  0  0  0  0  0  0
  144.4316  137.5804  152.6559 O   0  0  0  0  0  0  0  0  0  0  0  0
  147.3473  138.5518  154.6599 O   0  0  0  0  0  0  0  0  0  0  0  0
  149.7012  140.9863  155.9060 C   0  0  0  0  0  0  0  0  0  0  0  0
  150.6705  140.7315  155.1871 O   0  0  0  0  0  0  0  0  0  0  0  0
  149.8307  141.8357  157.0277 N   0  0  0  0  0  0  0  0  0  0  0  0
  151.1598  142.4162  157.3245 C   0  0  0  0  0  0  0  0  0  0  0  0
  152.0725  141.4859  158.1538 C   0  0  0  0  0  0  0  0  0  0  0  0
  152.4419  140.4199  157.6595 O   0  0  0  0  0  0  0  0  0  0  0  0
  152.4277  141.8913  159.3984 N   0  0  0  0  0  0  0  0  0  0  0  0
  151.9993  143.1712  159.9896 C   0  0  0  0  0  0  0  0  0  0  0  0
  152.6199  143.2259  161.4027 C   0  0  0  0  0  0  0  0  0  0  0  0
  153.3696  141.9297  161.4943 C   0  0  0  0  0  0  0  0  0  0  0  0
  154.1209  141.4704  162.5895 C   0  0  0  0  0  0  0  0  0  0  0  0
  154.7631  140.2102  162.4990 C   0  0  0  0  0  0  0  0  0  0  0  0
  155.5580  139.6937  163.6310 N   0  3  0  0  0  0  0  0  0  0  0  0
  155.7457  140.4304  164.5939 O   0  0  0  0  0  0  0  0  0  0  0  0
  155.9971  138.5504  163.5588 O   0  5  0  0  0  0  0  0  0  0  0  0
  154.6300  139.4519  161.3055 C   0  0  0  0  0  0  0  0  0  0  0  0
  153.8716  139.9293  160.2143 C   0  0  0  0  0  0  0  0  0  0  0  0
  153.2394  141.1866  160.3268 C   0  0  0  0  0  0  0  0  0  0  0  0
  148.7339  142.1826  157.8543 C   0  0  0  0  0  0  0  0  0  0  0  0
  148.8847  142.9461  158.8101 O   0  0  0  0  0  0  0  0  0  0  0  0
  145.3315  141.4318  158.0055 H   0  0  0  0  0  0  0  0  0  0  0  0
  146.0420  143.0118  158.3280 H   0  0  0  0  0  0  0  0  0  0  0  0
  146.4028  141.6430  159.3879 H   0  0  0  0  0  0  0  0  0  0  0  0
  146.3801  140.3719  156.1842 H   0  0  0  0  0  0  0  0  0  0  0  0
  149.2601  139.0775  154.2551 H   0  0  0  0  0  0  0  0  0  0  0  0
  147.3505  141.2968  153.5394 H   0  0  0  0  0  0  0  0  0  0  0  0
  148.6210  140.6008  152.5180 H   0  0  0  0  0  0  0  0  0  0  0  0
  145.9525  140.0425  152.1035 H   0  0  0  0  0  0  0  0  0  0  0  0
  148.0944  138.9567  151.3257 H   0  0  0  0  0  0  0  0  0  0  0  0
  145.5322  139.4220  154.3756 H   0  0  0  0  0  0  0  0  0  0  0  0
  146.1425  136.6264  153.2771 H   0  0  0  0  0  0  0  0  0  0  0  0
  145.0114  137.0668  154.5393 H   0  0  0  0  0  0  0  0  0  0  0  0
  144.3586  138.5009  152.4537 H   0  0  0  0  0  0  0  0  0  0  0  0
  151.6747  142.6871  156.4020 H   0  0  0  0  0  0  0  0  0  0  0  0
  151.0442  143.3635  157.8532 H   0  0  0  0  0  0  0  0  0  0  0  0
  152.3501  144.0116  159.3892 H   0  0  0  0  0  0  0  0  0  0  0  0
  150.9117  143.2250  160.0529 H   0  0  0  0  0  0  0  0  0  0  0  0
  153.3008  144.0701  161.5157 H   0  0  0  0  0  0  0  0  0  0  0  0
  151.8565  143.2812  162.1796 H   0  0  0  0  0  0  0  0  0  0  0  0
  154.1975  142.0784  163.4788 H   0  0  0  0  0  0  0  0  0  0  0  0
  155.1111  138.4891  161.2142 H   0  0  0  0  0  0  0  0  0  0  0  0
  153.7955  139.3210  159.3271 H   0  0  0  0  0  0  0  0  0  0  0  0
  1  2  1  0  0  0  0
  1 33  1  0  0  0  0
  1 34  1  0  0  0  0
  1 35  1  0  0  0  0
  2 31  1  0  0  0  0
  2  3  2  0  0  0  0
  3  4  1  0  0  0  0
  3 36  1  0  0  0  0
  4  5  1  0  0  0  0
  4 13  1  0  0  0  0
  5 12  1  0  0  0  0
  5  6  1  0  0  0  0
  5 37  1  0  0  0  0
  6  7  1  0  0  0  0
  6 38  1  0  0  0  0
  6 39  1  0  0  0  0
  7  8  1  0  0  0  0
  7  9  1  0  0  0  0
  7 40  1  0  0  0  0
  8 41  1  0  0  0  0
  9 10  1  0  0  0  0
  9 12  1  0  0  0  0
  9 42  1  0  0  0  0
 10 11  1  0  0  0  0
 10 43  1  0  0  0  0
 10 44  1  0  0  0  0
 11 45  1  0  0  0  0
 13 14  2  0  0  0  0
 13 15  1  0  0  0  0
 15 16  1  0  0  0  0
 15 31  1  0  0  0  0
 16 17  1  0  0  0  0
 16 46  1  0  0  0  0
 16 47  1  0  0  0  0
 17 18  2  0  0  0  0
 17 19  1  0  0  0  0
 19 30  1  0  0  0  0
 19 20  1  0  0  0  0
 20 21  1  0  0  0  0
 20 48  1  0  0  0  0
 20 49  1  0  0  0  0
 21 22  1  0  0  0  0
 21 50  1  0  0  0  0
 21 51  1  0  0  0  0
 22 30  2  0  0  0  0
 22 23  1  0  0  0  0
 23 24  2  0  0  0  0
 23 52  1  0  0  0  0
 24 25  1  0  0  0  0
 24 28  1  0  0  0  0
 25 26  2  0  0  0  0
 25 27  1  0  0  0  0
 28 29  2  0  0  0  0
 28 53  1  0  0  0  0
 29 30  1  0  0  0  0
 29 54  1  0  0  0  0
 31 32  2  0  0  0  0
M  CHG  1  25   1
M  CHG  1  27  -1
M  END
> <s_m_source_file>
AV-unprocessed.smi

> <i_m_source_file_index>
112

> <i_lp_mmshare_version>
43012

> <i_f3d_flags>
0

> <s_epik_input>
W09IXVtDSDJdW0NAQEhdKE8xKVtDQEhdKFtPSF0pW0NIMl1bQ0BIXTFuKFtjSF1jMltDSDNdKWMoPU8pbihjMj1PKVtDSDJdQyg9TylOKFtDSDJdW0NIMl0zKWMoYzM0KVtjSF1bY0hdYyhbY0hdNClbTitdKD1PKVtPLV0=

> <s_epik_cmdline>
J2VwaWtfcHl0aG9uJywgJy1waCcsICc3LjAnLCAnLXRuJywgJzgnLCAnLW1hJywgJzIwMCcsICctbWV0YWxfYmluZGluZycsICctaW1hZScsICc8aW5maWxlLm1hZT4nLCAnLW9tYWUnLCAnPG91dGZpbGUubWFlPic=

> <r_lp_tautomer_probability>
1

> <r_epik_Ionization_Penalty>
2.5696e-07

> <r_epik_Ionization_Penalty_Charging>
1.04886e-08

> <r_epik_Ionization_Penalty_Neutral>
2.46472e-07

> <r_epik_State_Penalty>
-0

> <r_epik_Charging_Adjusted_Penalty>
1.04886e-08

> <i_epik_Tot_Q>
0

> <i_epik_Tot_abs_Q>
2

> <r_epik_Metal_State_Penalty>
-0

> <b_epik_Metal_Only>
0

> <s_epik_Chemistry_Notes>
This compound contains an acetal/aminal-like group ( X-CH(R)-Y where X, Y are N, S, or O) that may be acid/base labile, releasing an aldehyde.

> <s_lp_Force_Field>
OPLS_2005

> <r_lp_Energy>
59.5699

> <b_lp_Chiralities_Consistent>
1

> <s_lp_Variant>
AV-unprocessed.smi:112-1

> <Gold.Version>
5.8.1

> <Gold.Id.Protein>
6NUR|6NUR_protein|mol2

> <Gold.PLP.Fitness>
60.2163

> <Gold.PLP.PLP>
-51.1359

> <Gold.PLP.part.hbond>
-7.1906

> <Gold.PLP.part.metal>
0.0000

> <Gold.PLP.part.buried>
-0.4331

> <Gold.PLP.part.nonpolar>
-42.7172

> <Gold.PLP.part.repulsive>
0.3296

> <Gold.PLP.ligand.clash>
0.0000

> <Gold.PLP.ligand.torsion>
1.0796

> <Gold.PLP.Chemscore.Hbond>
3.7396

> <Gold.PLP.Chemscore.CHOScore>
0.0000

> <Gold.PLP.Chemscore.Metal>
0.0000

> <Gold.Chemscore.Hbonds>
donor molecule, donor type, donor heavy atom, donor atom, acceptor molecule, acceptor atom, score
      L1  H     8    41       P1  7957  1.00
      L1  H    11    45       P1 10175  0.93
      P1  H  7989  7998       L1    14  0.88
      P1  H  7997  8010       L1    18  0.52

> <Gold.PLP.Chemscore.Internal.Correction>
0.0209

> <Gold.Rescore>
     Score         DG    S(hbond)    S(metal)    S(lipo)     H(rot)  DE(clash)    DE(int)     intcor
     18.26     -21.79       3.50        0.00     111.53       3.29       1.37       2.16       ----

> <Gold.Chemscore.Fitness>
18.2644

> <Gold.Chemscore.DG>
-21.7933

> <Gold.Chemscore.ZeroCoef>
-5.4800

> <Gold.Chemscore.Hbond>
3.5001

> <Gold.Chemscore.Metal>
0.0000

> <Gold.Chemscore.Lipo>
111.5334

> <Gold.Chemscore.Internal_Hbond>
0.0000

> <Gold.Chemscore.DEClash>
1.3705

> <Gold.Chemscore.DEInternal>
2.1583

> <Gold.Chemscore.Rot>
3.2916

> <Gold.Chemscore.Internal.Correction>
   9.000000E+99

> <Gold.Chemscore.Hbonds>
donor molecule, donor type, donor heavy atom, donor atom, acceptor molecule, acceptor atom, score
      L1  H     8    41       P1  7957  0.55
      L1  H    11    45       P1 10175  0.88
      P1  H  7989  7998       L1    14  0.86
      P1  H  7997  8010       L1    18  0.51

> <Gold.Chemscore.Hbond.Weighted>
-11.6904

> <Gold.Chemscore.Metal.Weighted>
-0.0000

> <Gold.Chemscore.Lipo.Weighted>
-13.0494

> <Gold.Chemscore.Internal_Hbond.Weighted>
0.0000

> <Gold.Chemscore.DEClash.Weighted>
1.3705

> <Gold.Chemscore.DEInternal.Weighted>
2.1583

> <Gold.Chemscore.Rot.Weighted>
8.4265

> <Gold.Chemscore.Internal.Correction.Weighted>
   9.000000E+99

> <Gold.Protein.RotatedTorsions>
[ 6907 6896 6895 6894 ] final  122.82 input  -60.11 | X-H torsion
[ 7974 7965 7964 7962 ] final -156.42 input  175.53 | X-H torsion
[ 8008 7997 7996 7995 ] final   48.76 input   59.86 | X-H torsion
[ 10167 10162 10161 10158 ] final   17.67 input  -65.29 | X-H torsion
[ 10718 10713 10712 10709 ] final  116.56 input   66.30 | X-H torsion
[ 10763 10752 10751 10750 ] final   81.77 input  -60.55 | X-H torsion
[ 11005 11000 10999 10996 ] final -148.67 input  -57.11 | X-H torsion

> <Gold.Protein.ActiveResidues>
 VAL166  LYS551  ARG553  GLY616  TRP617  ASP618  TYR619  PRO620  LYS621  CYS622 
 ASP623  PHE694  ASN695  SER759  ASP760  ASP761  ALA762  ILE779  LEU786  VAL792 
 PHE793  MET794  SER795  GLU796  ALA797  LYS798  CYS799  TRP800  GLU811  SER814 

> <Gold.Protein.RotatedAtoms>
  152.4212  133.7120  159.6483 H   0  0  0  0  0  0  0  0  0  0  0  0  # atno 6907 bound_to 6896
  150.8088  133.8449  159.3198 H   0  0  0  0  0  0  0  0  0  0  0  0  # atno 6908 bound_to 6896
  151.6165  135.1038  160.0144 H   0  0  0  0  0  0  0  0  0  0  0  0  # atno 6909 bound_to 6896
  144.7594  140.4112  143.5988 H   0  0  0  0  0  0  0  0  0  0  0  0  # atno 7974 bound_to 7965
  155.3910  140.3433  155.4251 H   0  0  0  0  0  0  0  0  0  0  0  0  # atno 8008 bound_to 7997
  156.1557  140.1585  156.8729 H   0  0  0  0  0  0  0  0  0  0  0  0  # atno 8009 bound_to 7997
  154.5093  140.0794  156.7939 H   0  0  0  0  0  0  0  0  0  0  0  0  # atno 8010 bound_to 7997
  140.5709  143.9163  150.6712 H   0  0  0  0  0  0  0  0  0  0  0  0  # atno 10167 bound_to 10162
  157.6152  131.1027  150.7490 H   0  0  0  0  0  0  0  0  0  0  0  0  # atno 10718 bound_to 10713
  153.1145  135.4753  154.9092 H   0  0  0  0  0  0  0  0  0  0  0  0  # atno 10763 bound_to 10752
  154.7515  135.3107  154.8551 H   0  0  0  0  0  0  0  0  0  0  0  0  # atno 10764 bound_to 10752
  153.9132  135.6863  153.4804 H   0  0  0  0  0  0  0  0  0  0  0  0  # atno 10765 bound_to 10752
  140.7588  134.3322  157.5107 H   0  0  0  0  0  0  0  0  0  0  0  0  # atno 11005 bound_to 11000
  145.6670  139.1592  143.2776 LP  0  0  0  0  0  0  0  0  0  0  0  0  # atno 17320 bound_to 7965
  146.1640  140.6745  142.9264 LP  0  0  0  0  0  0  0  0  0  0  0  0  # atno 17321 bound_to 7965
  140.2638  143.3505  152.1299 LP  0  0  0  0  0  0  0  0  0  0  0  0  # atno 17342 bound_to 10162
  139.5117  144.6905  151.5773 LP  0  0  0  0  0  0  0  0  0  0  0  0  # atno 17343 bound_to 10162
  156.7859  130.4874  149.5393 LP  0  0  0  0  0  0  0  0  0  0  0  0  # atno 17370 bound_to 10713
  156.1272  130.6152  151.0280 LP  0  0  0  0  0  0  0  0  0  0  0  0  # atno 17371 bound_to 10713
  139.8774  134.9189  156.3213 LP  0  0  0  0  0  0  0  0  0  0  0  0  # atno 17394 bound_to 11000
  140.9683  133.7344  156.0497 LP  0  0  0  0  0  0  0  0  0  0  0  0  # atno 17395 bound_to 11000

$$$$
