#       Name:                AV-unprocessed.smi:3324
#       Creating user name   scv26
#       Creation time:       Fri Mar 27 19:13:03 2020


#       File generated by GOLD software.
#

@<TRIPOS>MOLECULE
AV-unprocessed.smi:3324
    34    34     1
SMALL
NO_CHARGES


@<TRIPOS>ATOM
      1 ****        -2.6645   2.3221   1.6942 O.2            1 S1                 0.0000
      2 ****        -2.2161   1.8235   0.6572 C.2            1 S1                 0.0000
      3 ****        -1.7830   0.3566   0.6847 C.3            1 S1                 0.0000
      4 ****        -0.3163   0.2771   0.5430 N.4            1 S1                 1.0000
      5 ****         0.2157  -1.0978   0.5406 C.3            1 S1                 0.0000
      6 ****         1.7426  -1.0967   0.3858 C.3            1 S1                 0.0000
      7 ****         2.2820  -2.4424   0.4012 N.pl3          1 S1                 0.0000
      8 ****         2.9077  -3.1051   1.4362 C.2            1 S1                 0.0000
      9 ****         3.2364  -4.3498   0.9809 C.2            1 S1                 0.0000
     10 ****         2.7658  -4.3539  -0.3621 C.2            1 S1                 0.0000
     11 ****         2.1938  -3.2107  -0.7055 N.2            1 S1                 0.0000
     12 ****        -2.0201   2.3656  -0.5757 N.pl3          1 S1                -1.0000
     13 ****        -2.3366   3.7557  -0.9065 C.3            1 S1                 0.0000
     14 ****        -2.0849   4.0324  -2.4008 C.3            1 S1                 0.0000
     15 ****        -2.3745   5.3061  -2.6660 F              1 S1                 0.0000
     16 ****        -0.8054   3.8157  -2.7107 F              1 S1                 0.0000
     17 ****        -2.8581   3.2550  -3.1607 F              1 S1                 0.0000
     18 ****        -2.0878  -0.1037   1.6257 H              1 S1                 0.0000
     19 ****        -2.2716  -0.1937  -0.1213 H              1 S1                 0.0000
     20 ****        -0.0703   0.7294  -0.3266 H              1 S1                 0.0000
     21 ****        -0.0653  -1.5920   1.4718 H              1 S1                 0.0000
     22 ****        -0.2449  -1.6574  -0.2748 H              1 S1                 0.0000
     23 ****         2.0333  -0.6148  -0.5492 H              1 S1                 0.0000
     24 ****         2.2070  -0.5284   1.1929 H              1 S1                 0.0000
     25 ****         3.0647  -2.6424   2.3996 H              1 S1                 0.0000
     26 ****         3.7371  -5.1377   1.5241 H              1 S1                 0.0000
     27 ****         2.8217  -5.1478  -1.0921 H              1 S1                 0.0000
     28 ****        -3.3757   3.9941  -0.6746 H              1 S1                 0.0000
     29 ****        -1.7361   4.4478  -0.3144 H              1 S1                 0.0000
     30 ****         0.1022   0.7936   1.3028 H              1 S1                 0.0000
     31 ****        -2.7371   1.7690   2.5242 LP             1 S1                 0.0000
     32 ****        -2.9549   3.2789   1.7040 LP             1 S1                 0.0000
     33 ****         1.7875  -2.9701  -1.5869 LP             1 S1                 0.0000
     34 ****        -1.6395   1.7830  -1.2939 LP             1 S1                 0.0000
@<TRIPOS>BOND
    1    1    2 2     
    2    2    3 1     
    3    2   12 1     
    4    3    4 1     
    5    3   18 1     
    6    3   19 1     
    7    4    5 1     
    8    4   20 1     
    9    4   30 1     
   10    5    6 1     
   11    5   21 1     
   12    5   22 1     
   13    6    7 1     
   14    6   23 1     
   15    6   24 1     
   16    7   11 1     
   17    7    8 1     
   18    8    9 2     
   19    8   25 1     
   20    9   10 1     
   21    9   26 1     
   22   10   11 2     
   23   10   27 1     
   24   12   13 1     
   25   13   14 1     
   26   13   28 1     
   27   13   29 1     
   28   14   15 1     
   29   14   16 1     
   30   14   17 1     
   31    1   31 1     
   32    1   32 1     
   33   11   33 1     
   34   12   34 1     
@<TRIPOS>SUBSTRUCTURE
      1 S1             1
@<TRIPOS>SET
LONE_PAIRS      STATIC     ATOMS    <user>   **** ""
4 31 32 33 34
DONOR_HYDROGENS      STATIC     ATOMS    <user>   **** ""
2 20 30
ATOM$BLUE        STATIC     ATOMS    COLORGROUP SYSTEM
4 31 32 33 34
ATOM$RED        STATIC     ATOMS    COLORGROUP SYSTEM
2 20 30
