AV-unprocessed.smi:157|AV-procd|sdf|1321|dock5
  -GOLD-   2262019 13D 1   1.00000     0.00000
 Structure written by MMmdl.
 36 38  0  0  0  0  0  0  0  0  2 V2000
  150.3338  136.3217  158.5560 O   0  0  0  0  0  0  0  0  0  0  0  0
  150.1110  136.0652  157.1860 C   0  0  0  0  0  0  0  0  0  0  0  0
  150.0719  137.3851  156.3961 C   0  0  1  0  0  0  0  0  0  0  0  0
  151.0952  138.2746  156.8315 O   0  0  0  0  0  0  0  0  0  0  0  0
  151.4636  139.1340  155.7918 C   0  0  2  0  0  0  0  0  0  0  0  0
  151.0886  140.5325  156.1657 N   0  0  0  0  0  0  0  0  0  0  0  0
  150.2287  141.3420  155.5112 C   0  0  0  0  0  0  0  0  0  0  0  0
  150.0864  142.5389  156.0551 N   0  3  0  0  0  0  0  0  0  0  0  0
  150.9082  142.5657  157.1620 C   0  0  0  0  0  0  0  0  0  0  0  0
  151.5156  141.3089  157.2179 C   0  0  0  0  0  0  0  0  0  0  0  0
  152.4423  140.7981  158.1395 N   0  0  0  0  0  0  0  0  0  0  0  0
  152.6636  141.3455  159.2903 C   0  0  0  0  0  0  0  0  0  0  0  0
  152.1531  142.5236  159.8093 N   0  0  0  0  0  0  0  0  0  0  0  0
  152.1075  143.7656  159.0581 C   0  0  0  0  0  0  0  0  0  0  0  0
  150.9999  143.8047  157.9968 C   0  0  2  0  0  0  0  0  0  0  0  0
  149.7782  144.1222  158.6308 O   0  0  0  0  0  0  0  0  0  0  0  0
  150.6962  138.7052  154.5356 C   0  0  0  0  0  0  0  0  0  0  0  0
  150.2748  137.2908  154.8779 C   0  0  1  0  0  0  0  0  0  0  0  0
  151.2882  136.3676  154.5271 O   0  0  0  0  0  0  0  0  0  0  0  0
  149.1210  137.8858  156.5873 H   0  0  0  0  0  0  0  0  0  0  0  0
  152.5475  139.1425  155.6712 H   0  0  0  0  0  0  0  0  0  0  0  0
  151.2152  144.6383  157.3272 H   0  0  0  0  0  0  0  0  0  0  0  0
  149.3563  137.0068  154.3633 H   0  0  0  0  0  0  0  0  0  0  0  0
  150.8190  137.1292  158.6357 H   0  0  0  0  0  0  0  0  0  0  0  0
  150.9231  135.4374  156.8192 H   0  0  0  0  0  0  0  0  0  0  0  0
  149.1901  135.4952  157.0621 H   0  0  0  0  0  0  0  0  0  0  0  0
  149.7064  141.0378  154.6220 H   0  0  0  0  0  0  0  0  0  0  0  0
  153.3463  140.8549  159.9855 H   0  0  0  0  0  0  0  0  0  0  0  0
  152.2489  142.6947  160.8002 H   0  0  0  0  0  0  0  0  0  0  0  0
  152.0152  144.6075  159.7451 H   0  0  0  0  0  0  0  0  0  0  0  0
  153.0736  143.8828  158.5646 H   0  0  0  0  0  0  0  0  0  0  0  0
  149.2918  144.7128  158.0765 H   0  0  0  0  0  0  0  0  0  0  0  0
  149.8136  139.3342  154.4079 H   0  0  0  0  0  0  0  0  0  0  0  0
  151.3165  138.7872  153.6422 H   0  0  0  0  0  0  0  0  0  0  0  0
  151.1311  136.0724  153.6430 H   0  0  0  0  0  0  0  0  0  0  0  0
  149.4955  143.2870  155.7157 H   0  0  0  0  0  0  0  0  0  0  0  0
  1  2  1  0  0  0  0
  1 24  1  0  0  0  0
  2  3  1  0  0  0  0
  2 25  1  0  0  0  0
  2 26  1  0  0  0  0
  3 20  1  0  0  0  0
  3 18  1  0  0  0  0
  3  4  1  0  0  0  0
  4  5  1  0  0  0  0
  5 21  1  0  0  0  0
  5  6  1  0  0  0  0
  5 17  1  0  0  0  0
  6 10  1  0  0  0  0
  6  7  1  0  0  0  0
  7  8  2  0  0  0  0
  7 27  1  0  0  0  0
  8  9  1  0  0  0  0
  8 36  1  0  0  0  0
  9 15  1  0  0  0  0
  9 10  2  0  0  0  0
 10 11  1  0  0  0  0
 11 12  2  0  0  0  0
 12 13  1  0  0  0  0
 12 28  1  0  0  0  0
 13 14  1  0  0  0  0
 13 29  1  0  0  0  0
 14 15  1  0  0  0  0
 14 30  1  0  0  0  0
 14 31  1  0  0  0  0
 15 22  1  0  0  0  0
 15 16  1  0  0  0  0
 16 32  1  0  0  0  0
 17 18  1  0  0  0  0
 17 33  1  0  0  0  0
 17 34  1  0  0  0  0
 18 23  1  0  0  0  0
 18 19  1  0  0  0  0
 19 35  1  0  0  0  0
M  CHG  1   8   1
M  END
> <s_m_source_file>
AV-unprocessed.smi

> <i_m_source_file_index>
157

> <i_lp_mmshare_version>
43012

> <i_f3d_flags>
0

> <s_epik_input>
W09IXVtDSDJdW0NASF0xT1tDQEhdKFtDSDJdW0NAQEhdMVtPSF0pbihbY0hdbjIpYyhjMjMpTj1bQ0hdW05IXVtDSDJdW0NASF0zW09IXQ==

> <s_epik_cmdline>
J2VwaWtfcHl0aG9uJywgJy1waCcsICc3LjAnLCAnLXRuJywgJzgnLCAnLW1hJywgJzIwMCcsICctbWV0YWxfYmluZGluZycsICctaW1hZScsICc8aW5maWxlLm1hZT4nLCAnLW9tYWUnLCAnPG91dGZpbGUubWFlPic=

> <r_epik_Ionization_Penalty>
1.68594

> <r_epik_Ionization_Penalty_Charging>
0

> <r_epik_Ionization_Penalty_Neutral>
1.68594

> <r_epik_State_Penalty>
1.79006

> <r_epik_Charging_Adjusted_Penalty>
1.79006

> <i_epik_Tot_Q>
1

> <i_epik_Tot_abs_Q>
1

> <r_epik_Metal_State_Penalty>
5.85324

> <b_epik_Metal_Only>
0

> <s_epik_Chemistry_Notes>
This compound has an imine and may undergo hydrolysis. This compound contains an acetal/aminal-like group ( X-CH(R)-Y where X, Y are N, S, or O) that may be acid/base labile, releasing an aldehyde.

> <s_lp_Force_Field>
OPLS_2005

> <r_lp_Energy>
54.2112

> <b_lp_Chiralities_Consistent>
1

> <s_lp_Variant>
AV-unprocessed.smi:157-31

> <Gold.Version>
5.8.1

> <Gold.Id.Protein>
6NUR|6NUR_protein|mol2

> <Gold.PLP.Fitness>
49.6888

> <Gold.PLP.PLP>
-33.3620

> <Gold.PLP.part.hbond>
-6.0051

> <Gold.PLP.part.metal>
0.0000

> <Gold.PLP.part.buried>
-3.5848

> <Gold.PLP.part.nonpolar>
-23.9390

> <Gold.PLP.part.repulsive>
0.2084

> <Gold.PLP.ligand.clash>
0.0000

> <Gold.PLP.ligand.torsion>
0.1584

> <Gold.PLP.Chemscore.Hbond>
5.5461

> <Gold.PLP.Chemscore.CHOScore>
0.0000

> <Gold.PLP.Chemscore.Metal>
0.0000

> <Gold.Chemscore.Hbonds>
donor molecule, donor type, donor heavy atom, donor atom, acceptor molecule, acceptor atom, score
      L1  H     8    36       P1  8028  2.00
      L1  H    16    32       P1  8029  0.85
      L1  H    19    35       P1  7949  0.71
      P1  H  6896  6907       L1     1  1.00
      P1  H 10752 10765       L1    19  0.45

> <Gold.PLP.Chemscore.Internal.Correction>
0.0052

> <Gold.Rescore>
     Score         DG    S(hbond)    S(metal)    S(lipo)     H(rot)  DE(clash)    DE(int)     intcor
     11.74     -11.93       2.98        0.00      50.22       3.67       0.02       0.17       ----

> <Gold.Chemscore.Fitness>
11.7391

> <Gold.Chemscore.DG>
-11.9328

> <Gold.Chemscore.ZeroCoef>
-5.4800

> <Gold.Chemscore.Hbond>
2.9827

> <Gold.Chemscore.Metal>
0.0000

> <Gold.Chemscore.Lipo>
50.2179

> <Gold.Chemscore.Internal_Hbond>
0.0000

> <Gold.Chemscore.DEClash>
0.0203

> <Gold.Chemscore.DEInternal>
0.1734

> <Gold.Chemscore.Rot>
3.6659

> <Gold.Chemscore.Internal.Correction>
   9.000000E+99

> <Gold.Chemscore.Hbonds>
donor molecule, donor type, donor heavy atom, donor atom, acceptor molecule, acceptor atom, score
      L1  H     8    36       P1  8028  0.95
      L1  H    16    32       P1  8029  0.14
      L1  H    19    35       P1  7949  0.24
      P1  H  6896  6907       L1     1  0.84
      P1  H 10752 10765       L1    19  0.02

> <Gold.Chemscore.Hbond.Weighted>
-9.9621

> <Gold.Chemscore.Metal.Weighted>
-0.0000

> <Gold.Chemscore.Lipo.Weighted>
-5.8755

> <Gold.Chemscore.Internal_Hbond.Weighted>
0.0000

> <Gold.Chemscore.DEClash.Weighted>
0.0203

> <Gold.Chemscore.DEInternal.Weighted>
0.1734

> <Gold.Chemscore.Rot.Weighted>
9.3848

> <Gold.Chemscore.Internal.Correction.Weighted>
   9.000000E+99

> <Gold.Protein.RotatedTorsions>
[ 6907 6896 6895 6894 ] final  -45.84 input  -60.11 | X-H torsion
[ 7974 7965 7964 7962 ] final   -2.29 input  175.53 | X-H torsion
[ 8008 7997 7996 7995 ] final  102.61 input   59.86 | X-H torsion
[ 10167 10162 10161 10158 ] final  -53.02 input  -65.29 | X-H torsion
[ 10718 10713 10712 10709 ] final  178.28 input   66.30 | X-H torsion
[ 10763 10752 10751 10750 ] final  172.74 input  -60.55 | X-H torsion
[ 11005 11000 10999 10996 ] final  178.31 input  -57.11 | X-H torsion

> <Gold.Protein.ActiveResidues>
 VAL166  LYS551  ARG553  GLY616  TRP617  ASP618  TYR619  PRO620  LYS621  CYS622 
 ASP623  PHE694  ASN695  SER759  ASP760  ASP761  ALA762  ILE779  LEU786  VAL792 
 PHE793  MET794  SER795  GLU796  ALA797  LYS798  CYS799  TRP800  GLU811  SER814 

> <Gold.Protein.RotatedAtoms>
  150.9176  134.8594  159.7467 H   0  0  0  0  0  0  0  0  0  0  0  0  # atno 6907 bound_to 6896
  152.4976  134.4266  159.9508 H   0  0  0  0  0  0  0  0  0  0  0  0  # atno 6908 bound_to 6896
  151.4303  133.3633  159.2803 H   0  0  0  0  0  0  0  0  0  0  0  0  # atno 6909 bound_to 6896
  146.2406  140.1548  142.8333 H   0  0  0  0  0  0  0  0  0  0  0  0  # atno 7974 bound_to 7965
  156.1408  140.3178  155.8493 H   0  0  0  0  0  0  0  0  0  0  0  0  # atno 8008 bound_to 7997
  155.4157  140.0509  157.3046 H   0  0  0  0  0  0  0  0  0  0  0  0  # atno 8009 bound_to 7997
  154.4975  140.2116  155.9428 H   0  0  0  0  0  0  0  0  0  0  0  0  # atno 8010 bound_to 7997
  140.6507  143.2564  151.4732 H   0  0  0  0  0  0  0  0  0  0  0  0  # atno 10167 bound_to 10162
  156.8929  130.9853  151.3047 H   0  0  0  0  0  0  0  0  0  0  0  0  # atno 10718 bound_to 10713
  154.4302  135.2759  155.1917 H   0  0  0  0  0  0  0  0  0  0  0  0  # atno 10763 bound_to 10752
  154.3826  135.6084  153.5803 H   0  0  0  0  0  0  0  0  0  0  0  0  # atno 10764 bound_to 10752
  152.9836  135.5884  154.4613 H   0  0  0  0  0  0  0  0  0  0  0  0  # atno 10765 bound_to 10752
  140.3937  134.6839  157.4522 H   0  0  0  0  0  0  0  0  0  0  0  0  # atno 11005 bound_to 11000
  145.0137  140.8736  143.5208 LP  0  0  0  0  0  0  0  0  0  0  0  0  # atno 17320 bound_to 7965
  145.1586  139.2472  143.5403 LP  0  0  0  0  0  0  0  0  0  0  0  0  # atno 17321 bound_to 7965
  139.5721  144.1903  152.1852 LP  0  0  0  0  0  0  0  0  0  0  0  0  # atno 17342 bound_to 10162
  140.1203  144.5379  150.6867 LP  0  0  0  0  0  0  0  0  0  0  0  0  # atno 17343 bound_to 10162
  157.6073  130.8556  149.8895 LP  0  0  0  0  0  0  0  0  0  0  0  0  # atno 17370 bound_to 10713
  156.0620  130.3698  150.0961 LP  0  0  0  0  0  0  0  0  0  0  0  0  # atno 17371 bound_to 10713
  140.0387  134.6299  155.9009 LP  0  0  0  0  0  0  0  0  0  0  0  0  # atno 17394 bound_to 11000
  141.1881  133.6562  156.5312 LP  0  0  0  0  0  0  0  0  0  0  0  0  # atno 17395 bound_to 11000

$$$$
