#       Name:                AV-unprocessed.smi:2226
#       Creating user name   scv26
#       Creation time:       Fri Mar 27 12:22:05 2020


#       File generated by GOLD software.
#

@<TRIPOS>MOLECULE
AV-unprocessed.smi:2226
    45    47     1
SMALL
NO_CHARGES


@<TRIPOS>ATOM
      1 ****        -3.1870  -3.0596   0.0007 C.3            1 S1                 0.0000
      2 ****        -2.0244  -2.1401   0.0005 N.4            1 S1                 1.0000
      3 ****        -1.8926  -1.3014  -1.2158 C.3            1 S1                 0.0000
      4 ****        -3.0049  -0.2238  -1.2811 C.3            1 S1                 0.0000
      5 ****        -3.1339   0.6227  -0.0006 C.3            1 S1                 0.0000
      6 ****        -3.0052  -0.2231   1.2805 C.3            1 S1                 0.0000
      7 ****        -1.8927  -1.3005   1.2161 C.3            1 S1                 0.0000
      8 ****        -0.4500  -0.7491   1.2873 C.3            1 S1                 0.0000
      9 ****         0.0290  -0.0359  -0.0004 C.3            1 S1                 0.0000
     10 ****         1.4902   0.0189  -0.0003 N.am           1 S1                 0.0000
     11 ****         2.2517   1.1240   0.0005 C.2            1 S1                 0.0000
     12 ****         1.7579   2.2560   0.0014 O.2            1 S1                 0.0000
     13 ****         3.5929   0.7679   0.0003 N.2            1 S1                 0.0000
     14 ****         4.5122   1.6844   0.0002 C.2            1 S1                 0.0000
     15 ****         4.4673   3.0762   0.0002 N.pl3          1 S1                 0.0000
     16 ****         5.7514   3.5442   0.0001 C.2            1 S1                 0.0000
     17 ****         6.5712   2.4975  -0.0000 C.2            1 S1                 0.0000
     18 ****         5.8420   1.3464  -0.0000 O.3            1 S1                 0.0000
     19 ****        -0.4499  -0.7504  -1.2874 C.3            1 S1                 0.0000
     20 ****        -4.1372  -2.5263   0.0002 H              1 S1                 0.0000
     21 ****        -3.1616  -3.7028   0.8807 H              1 S1                 0.0000
     22 ****        -3.1611  -3.7039  -0.8784 H              1 S1                 0.0000
     23 ****        -2.0188  -1.9503  -2.0838 H              1 S1                 0.0000
     24 ****        -2.8459   0.4291  -2.1400 H              1 S1                 0.0000
     25 ****        -3.9603  -0.7158  -1.4658 H              1 S1                 0.0000
     26 ****        -2.4001   1.4240  -0.0007 H              1 S1                 0.0000
     27 ****        -4.0957   1.1368  -0.0008 H              1 S1                 0.0000
     28 ****        -2.8466   0.4304   2.1389 H              1 S1                 0.0000
     29 ****        -3.9605  -0.7150   1.4653 H              1 S1                 0.0000
     30 ****        -2.0188  -1.9487   2.0845 H              1 S1                 0.0000
     31 ****        -0.3393  -0.0850   2.1454 H              1 S1                 0.0000
     32 ****         0.2114  -1.5950   1.4837 H              1 S1                 0.0000
     33 ****        -0.3650   0.9765  -0.0010 H              1 S1                 0.0000
     34 ****         1.9727  -0.8683  -0.0010 H              1 S1                 0.0000
     35 ****         3.6549   3.6764   0.0003 H              1 S1                 0.0000
     36 ****         5.9466   4.6064   0.0001 H              1 S1                 0.0000
     37 ****         7.6474   2.4087  -0.0001 H              1 S1                 0.0000
     38 ****         0.2115  -1.5966  -1.4827 H              1 S1                 0.0000
     39 ****        -0.3389  -0.0872  -2.1463 H              1 S1                 0.0000
     40 ****        -1.2183  -2.7487   0.0008 H              1 S1                 0.0000
     41 ****         0.7642   2.3681   0.0015 LP             1 S1                 0.0000
     42 ****         2.3517   3.0606   0.0019 LP             1 S1                 0.0000
     43 ****         3.8520  -0.1979   0.0002 LP             1 S1                 0.0000
     44 ****         6.0553   0.8100  -0.8166 LP             1 S1                 0.0000
     45 ****         6.0555   0.8099   0.8164 LP             1 S1                 0.0000
@<TRIPOS>BOND
    1    1    2 1     
    2    1   20 1     
    3    1   21 1     
    4    1   22 1     
    5    2    7 1     
    6    2    3 1     
    7    2   40 1     
    8    3   19 1     
    9    3    4 1     
   10    3   23 1     
   11    4    5 1     
   12    4   24 1     
   13    4   25 1     
   14    5    6 1     
   15    5   26 1     
   16    5   27 1     
   17    6    7 1     
   18    6   28 1     
   19    6   29 1     
   20    7    8 1     
   21    7   30 1     
   22    8    9 1     
   23    8   31 1     
   24    8   32 1     
   25    9   10 1     
   26    9   19 1     
   27    9   33 1     
   28   10   34 1     
   29   10   11 am    
   30   11   13 1     
   31   11   12 2     
   32   13   14 2     
   33   14   18 1     
   34   14   15 1     
   35   15   35 1     
   36   15   16 1     
   37   16   36 1     
   38   16   17 2     
   39   17   37 1     
   40   17   18 1     
   41   19   38 1     
   42   19   39 1     
   43   12   41 1     
   44   12   42 1     
   45   13   43 1     
   46   18   44 1     
   47   18   45 1     
@<TRIPOS>SUBSTRUCTURE
      1 S1             1
@<TRIPOS>SET
LONE_PAIRS      STATIC     ATOMS    <user>   **** ""
5 41 42 43 44 45
DONOR_HYDROGENS      STATIC     ATOMS    <user>   **** ""
3 40 34 35
ATOM$BLUE        STATIC     ATOMS    COLORGROUP SYSTEM
5 41 42 43 44 45
ATOM$RED        STATIC     ATOMS    COLORGROUP SYSTEM
3 40 34 35
