AV-unprocessed.smi:1873|AV-procd|sdf|7607|dock2
  -GOLD-   22720 9323D 1   1.00000     0.00000
 Structure written by MMmdl.
 36 38  0  0  0  0  0  0  0  0  1 V2000
  150.9887  139.9296  154.6701 O   0  0  0  0  0  0  0  0  0  0  0  0
  150.7066  140.9883  155.5658 C   0  0  2  0  0  0  0  0  0  0  0  0
  151.1370  140.5940  156.9919 C   0  0  0  0  0  0  0  0  0  0  0  0
  151.4108  141.7488  157.8277 N   0  0  0  0  0  0  0  0  0  0  0  0
  151.0580  143.0273  157.5926 C   0  0  0  0  0  0  0  0  0  0  0  0
  151.4134  143.9336  158.4991 N   0  0  0  0  0  0  0  0  0  0  0  0
  152.0742  143.1522  159.4315 C   0  0  0  0  0  0  0  0  0  0  0  0
  152.6985  143.5064  160.6491 C   0  0  0  0  0  0  0  0  0  0  0  0
  153.3182  142.5221  161.4472 C   0  0  0  0  0  0  0  0  0  0  0  0
  153.3242  141.1716  161.0414 C   0  0  0  0  0  0  0  0  0  0  0  0
  152.7090  140.7944  159.8322 C   0  0  0  0  0  0  0  0  0  0  0  0
  152.0914  141.7797  159.0394 C   0  0  0  0  0  0  0  0  0  0  0  0
  149.2450  141.4062  155.5265 C   0  0  0  0  0  0  0  0  0  0  0  0
  148.4753  141.4542  156.7086 C   0  0  0  0  0  0  0  0  0  0  0  0
  147.1263  141.8547  156.6610 C   0  0  0  0  0  0  0  0  0  0  0  0
  146.5246  142.2082  155.4367 C   0  0  0  0  0  0  0  0  0  0  0  0
  145.2071  142.6068  155.4598 O   0  0  0  0  0  0  0  0  0  0  0  0
  144.9003  143.9130  155.2396 C   0  0  0  0  0  0  0  0  0  0  0  0
  145.1355  144.2257  153.9425 F   0  0  0  0  0  0  0  0  0  0  0  0
  143.5856  144.1384  155.4824 F   0  0  0  0  0  0  0  0  0  0  0  0
  147.3022  142.1727  154.2543 C   0  0  0  0  0  0  0  0  0  0  0  0
  148.6514  141.7723  154.3007 C   0  0  0  0  0  0  0  0  0  0  0  0
  150.1707  139.5904  154.3403 H   0  0  0  0  0  0  0  0  0  0  0  0
  151.3084  141.8376  155.2399 H   0  0  0  0  0  0  0  0  0  0  0  0
  150.3522  140.0089  157.4734 H   0  0  0  0  0  0  0  0  0  0  0  0
  152.0258  139.9617  156.9638 H   0  0  0  0  0  0  0  0  0  0  0  0
  150.5063  143.3079  156.7071 H   0  0  0  0  0  0  0  0  0  0  0  0
  152.6997  144.5376  160.9699 H   0  0  0  0  0  0  0  0  0  0  0  0
  153.7915  142.8052  162.3759 H   0  0  0  0  0  0  0  0  0  0  0  0
  153.8013  140.4251  161.6594 H   0  0  0  0  0  0  0  0  0  0  0  0
  152.7105  139.7613  159.5178 H   0  0  0  0  0  0  0  0  0  0  0  0
  148.9177  141.1886  157.6576 H   0  0  0  0  0  0  0  0  0  0  0  0
  146.5481  141.8901  157.5727 H   0  0  0  0  0  0  0  0  0  0  0  0
  145.5036  144.5792  155.8568 H   0  0  0  0  0  0  0  0  0  0  0  0
  146.8785  142.4587  153.3033 H   0  0  0  0  0  0  0  0  0  0  0  0
  149.2309  141.7533  153.3891 H   0  0  0  0  0  0  0  0  0  0  0  0
  1  2  1  0  0  0  0
  1 23  1  0  0  0  0
  2  3  1  0  0  0  0
  2 13  1  0  0  0  0
  2 24  1  0  0  0  0
  3  4  1  0  0  0  0
  3 25  1  0  0  0  0
  3 26  1  0  0  0  0
  4 12  1  0  0  0  0
  4  5  1  0  0  0  0
  5  6  2  0  0  0  0
  5 27  1  0  0  0  0
  6  7  1  0  0  0  0
  7 12  2  0  0  0  0
  7  8  1  0  0  0  0
  8  9  2  0  0  0  0
  8 28  1  0  0  0  0
  9 10  1  0  0  0  0
  9 29  1  0  0  0  0
 10 11  2  0  0  0  0
 10 30  1  0  0  0  0
 11 12  1  0  0  0  0
 11 31  1  0  0  0  0
 13 22  1  0  0  0  0
 13 14  2  0  0  0  0
 14 15  1  0  0  0  0
 14 32  1  0  0  0  0
 15 16  2  0  0  0  0
 15 33  1  0  0  0  0
 16 17  1  0  0  0  0
 16 21  1  0  0  0  0
 17 18  1  0  0  0  0
 18 19  1  0  0  0  0
 18 20  1  0  0  0  0
 18 34  1  0  0  0  0
 21 22  2  0  0  0  0
 21 35  1  0  0  0  0
 22 36  1  0  0  0  0
M  END
> <s_m_source_file>
AV-unprocessed.smi

> <i_m_source_file_index>
1873

> <i_lp_mmshare_version>
43012

> <i_f3d_flags>
0

> <s_epik_input>
RltDSF0oRilPYyhbY0hdW2NIXTEpW2NIXVtjSF1jMVtDQEhdKFtPSF0pW0NIMl1uKFtjSF1uMiljKGMyMylbY0hdW2NIXVtjSF1bY0hdMw==

> <s_epik_cmdline>
J2VwaWtfcHl0aG9uJywgJy1waCcsICc3LjAnLCAnLXRuJywgJzgnLCAnLW1hJywgJzIwMCcsICctbWV0YWxfYmluZGluZycsICctaW1hZScsICc8aW5maWxlLm1hZT4nLCAnLW9tYWUnLCAnPG91dGZpbGUubWFlPic=

> <r_lp_tautomer_probability>
1

> <r_epik_Ionization_Penalty>
0.0696507

> <r_epik_Ionization_Penalty_Charging>
0

> <r_epik_Ionization_Penalty_Neutral>
0.0696507

> <r_epik_State_Penalty>
0.0610247

> <r_epik_Charging_Adjusted_Penalty>
0.0610247

> <i_epik_Tot_Q>
0

> <i_epik_Tot_abs_Q>
0

> <r_epik_Metal_State_Penalty>
6.42746e-05

> <b_epik_Metal_Only>
0

> <s_lp_Force_Field>
OPLS_2005

> <r_lp_Energy>
11.1273

> <b_lp_Chiralities_Consistent>
1

> <s_lp_Variant>
AV-unprocessed.smi:1873-1

> <Gold.Version>
5.8.1

> <Gold.Id.Protein>
6NUR|6NUR_protein|mol2

> <Gold.PLP.Fitness>
51.2984

> <Gold.PLP.PLP>
-46.7102

> <Gold.PLP.part.hbond>
-1.0000

> <Gold.PLP.part.metal>
0.0000

> <Gold.PLP.part.buried>
-6.2147

> <Gold.PLP.part.nonpolar>
-39.8327

> <Gold.PLP.part.repulsive>
0.2407

> <Gold.PLP.ligand.clash>
0.0000

> <Gold.PLP.ligand.torsion>
0.5968

> <Gold.PLP.Chemscore.Hbond>
0.9000

> <Gold.PLP.Chemscore.CHOScore>
1.0000

> <Gold.PLP.Chemscore.Metal>
0.0000

> <Gold.Chemscore.Hbonds>
donor molecule, donor type, donor heavy atom, donor atom, acceptor molecule, acceptor atom, score
      P1  H  7989  7998       L1     1  0.80
      L1  C     5    27       P1  8028  1.00

> <Gold.PLP.Chemscore.Internal.Correction>
0.0818

> <Gold.Rescore>
     Score         DG    S(hbond)    S(metal)    S(lipo)     H(rot)  DE(clash)    DE(int)     intcor
     12.62     -14.11       0.67        0.00     107.22       2.40       0.79       0.71       ----

> <Gold.Chemscore.Fitness>
12.6156

> <Gold.Chemscore.DG>
-14.1150

> <Gold.Chemscore.ZeroCoef>
-5.4800

> <Gold.Chemscore.Hbond>
0.6678

> <Gold.Chemscore.Metal>
0.0000

> <Gold.Chemscore.Lipo>
107.2219

> <Gold.Chemscore.Internal_Hbond>
0.0000

> <Gold.Chemscore.DEClash>
0.7891

> <Gold.Chemscore.DEInternal>
0.7103

> <Gold.Chemscore.Rot>
2.3986

> <Gold.Chemscore.Internal.Correction>
   9.000000E+99

> <Gold.Chemscore.Hbonds>
donor molecule, donor type, donor heavy atom, donor atom, acceptor molecule, acceptor atom, score
      P1  H  7989  7998       L1     1  0.07

> <Gold.Chemscore.Hbond.Weighted>
-2.2305

> <Gold.Chemscore.Metal.Weighted>
-0.0000

> <Gold.Chemscore.Lipo.Weighted>
-12.5450

> <Gold.Chemscore.Internal_Hbond.Weighted>
0.0000

> <Gold.Chemscore.DEClash.Weighted>
0.7891

> <Gold.Chemscore.DEInternal.Weighted>
0.7103

> <Gold.Chemscore.Rot.Weighted>
6.1405

> <Gold.Chemscore.Internal.Correction.Weighted>
   9.000000E+99

> <Gold.Protein.RotatedTorsions>
[ 6907 6896 6895 6894 ] final   79.26 input  -60.11 | X-H torsion
[ 7974 7965 7964 7962 ] final  -92.60 input  175.53 | X-H torsion
[ 8008 7997 7996 7995 ] final    2.08 input   59.86 | X-H torsion
[ 10167 10162 10161 10158 ] final  -67.66 input  -65.29 | X-H torsion
[ 10718 10713 10712 10709 ] final  158.75 input   66.30 | X-H torsion
[ 10763 10752 10751 10750 ] final -105.31 input  -60.55 | X-H torsion
[ 11005 11000 10999 10996 ] final   14.00 input  -57.11 | X-H torsion

> <Gold.Protein.ActiveResidues>
 VAL166  LYS551  ARG553  GLY616  TRP617  ASP618  TYR619  PRO620  LYS621  CYS622 
 ASP623  PHE694  ASN695  SER759  ASP760  ASP761  ALA762  ILE779  LEU786  VAL792 
 PHE793  MET794  SER795  GLU796  ALA797  LYS798  CYS799  TRP800  GLU811  SER814 

> <Gold.Protein.RotatedAtoms>
  152.5192  134.3538  159.9260 H   0  0  0  0  0  0  0  0  0  0  0  0  # atno 6907 bound_to 6896
  151.3489  133.3927  159.2686 H   0  0  0  0  0  0  0  0  0  0  0  0  # atno 6908 bound_to 6896
  150.9743  134.9129  159.7864 H   0  0  0  0  0  0  0  0  0  0  0  0  # atno 6909 bound_to 6896
  145.3977  140.9534  143.2304 H   0  0  0  0  0  0  0  0  0  0  0  0  # atno 7974 bound_to 7965
  154.6874  140.2645  155.6847 H   0  0  0  0  0  0  0  0  0  0  0  0  # atno 8008 bound_to 7997
  156.2719  140.2798  156.1362 H   0  0  0  0  0  0  0  0  0  0  0  0  # atno 8009 bound_to 7997
  155.0946  140.0374  157.2669 H   0  0  0  0  0  0  0  0  0  0  0  0  # atno 8010 bound_to 7997
  140.5566  143.2312  151.6808 H   0  0  0  0  0  0  0  0  0  0  0  0  # atno 10167 bound_to 10162
  157.1736  131.0616  151.2170 H   0  0  0  0  0  0  0  0  0  0  0  0  # atno 10718 bound_to 10713
  154.7938  135.4754  154.0113 H   0  0  0  0  0  0  0  0  0  0  0  0  # atno 10763 bound_to 10752
  153.1671  135.6819  153.8667 H   0  0  0  0  0  0  0  0  0  0  0  0  # atno 10764 bound_to 10752
  153.8261  135.3198  155.3392 H   0  0  0  0  0  0  0  0  0  0  0  0  # atno 10765 bound_to 10752
  140.4744  134.0998  155.7739 H   0  0  0  0  0  0  0  0  0  0  0  0  # atno 11005 bound_to 11000
  144.8395  139.5494  143.6906 LP  0  0  0  0  0  0  0  0  0  0  0  0  # atno 17320 bound_to 7965
  146.2767  139.6770  142.9258 LP  0  0  0  0  0  0  0  0  0  0  0  0  # atno 17321 bound_to 7965
  139.5051  144.3730  152.0451 LP  0  0  0  0  0  0  0  0  0  0  0  0  # atno 17342 bound_to 10162
  140.2852  144.3815  150.6106 LP  0  0  0  0  0  0  0  0  0  0  0  0  # atno 17343 bound_to 10162
  157.4020  130.7338  149.6774 LP  0  0  0  0  0  0  0  0  0  0  0  0  # atno 17370 bound_to 10713
  155.9734  130.4118  150.4001 LP  0  0  0  0  0  0  0  0  0  0  0  0  # atno 17371 bound_to 10713
  141.1561  133.8879  157.1973 LP  0  0  0  0  0  0  0  0  0  0  0  0  # atno 17394 bound_to 11000
  139.9865  135.0080  156.9874 LP  0  0  0  0  0  0  0  0  0  0  0  0  # atno 17395 bound_to 11000

$$$$
