AV-unprocessed.smi:2974|AV-procd|sdf|11354|dock1
  -GOLD-   2272016273D 1   1.00000     0.00000
 Structure written by MMmdl.
 26 27  0  0  0  0  0  0  0  0  2 V2000
  152.3370  137.7068  154.5564 O   0  0  0  0  0  0  0  0  0  0  0  0
  152.7202  138.5248  155.4228 C   0  0  0  0  0  0  0  0  0  0  0  0
  153.8338  138.4265  155.9865 O   0  5  0  0  0  0  0  0  0  0  0  0
  151.8110  139.6643  155.7986 C   0  0  0  0  0  0  0  0  0  0  0  0
  152.0605  140.4249  156.9660 C   0  0  0  0  0  0  0  0  0  0  0  0
  151.1889  141.4873  157.2935 C   0  0  0  0  0  0  0  0  0  0  0  0
  151.3758  142.2797  158.4346 N   0  0  0  0  0  0  0  0  0  0  0  0
  152.5026  141.8514  159.2536 C   0  0  0  0  0  0  0  0  0  0  0  0
  152.5680  142.6940  160.5394 C   0  0  0  0  0  0  0  0  0  0  0  0
  152.6368  144.0771  160.2025 O   0  0  0  0  0  0  0  0  0  0  0  0
  151.4970  144.5052  159.4619 C   0  0  0  0  0  0  0  0  0  0  0  0
  151.4053  143.7085  158.1487 C   0  0  0  0  0  0  0  0  0  0  0  0
  150.0995  141.7486  156.4406 C   0  0  0  0  0  0  0  0  0  0  0  0
  149.9309  140.9398  155.3012 C   0  0  0  0  0  0  0  0  0  0  0  0
  150.7601  139.9245  154.9836 N   0  0  0  0  0  0  0  0  0  0  0  0
  152.9044  140.1991  157.6018 H   0  0  0  0  0  0  0  0  0  0  0  0
  152.3984  140.7945  159.5027 H   0  0  0  0  0  0  0  0  0  0  0  0
  153.4319  141.9613  158.6929 H   0  0  0  0  0  0  0  0  0  0  0  0
  151.6990  142.5063  161.1721 H   0  0  0  0  0  0  0  0  0  0  0  0
  153.4500  142.4250  161.1206 H   0  0  0  0  0  0  0  0  0  0  0  0
  150.5930  144.3759  160.0593 H   0  0  0  0  0  0  0  0  0  0  0  0
  151.5899  145.5703  159.2499 H   0  0  0  0  0  0  0  0  0  0  0  0
  152.2616  143.9434  157.5151 H   0  0  0  0  0  0  0  0  0  0  0  0
  150.5079  143.9942  157.5984 H   0  0  0  0  0  0  0  0  0  0  0  0
  149.4071  142.5502  156.6522 H   0  0  0  0  0  0  0  0  0  0  0  0
  149.1063  141.1132  154.6259 H   0  0  0  0  0  0  0  0  0  0  0  0
  1  2  2  0  0  0  0
  2  3  1  0  0  0  0
  2  4  1  0  0  0  0
  4 15  1  0  0  0  0
  4  5  2  0  0  0  0
  5  6  1  0  0  0  0
  5 16  1  0  0  0  0
  6  7  1  0  0  0  0
  6 13  2  0  0  0  0
  7 12  1  0  0  0  0
  7  8  1  0  0  0  0
  8  9  1  0  0  0  0
  8 17  1  0  0  0  0
  8 18  1  0  0  0  0
  9 10  1  0  0  0  0
  9 19  1  0  0  0  0
  9 20  1  0  0  0  0
 10 11  1  0  0  0  0
 11 12  1  0  0  0  0
 11 21  1  0  0  0  0
 11 22  1  0  0  0  0
 12 23  1  0  0  0  0
 12 24  1  0  0  0  0
 13 14  1  0  0  0  0
 13 25  1  0  0  0  0
 14 15  2  0  0  0  0
 14 26  1  0  0  0  0
M  CHG  1   3  -1
M  END
> <s_m_source_file>
AV-unprocessed.smi

> <i_m_source_file_index>
2974

> <i_lp_mmshare_version>
43012

> <i_f3d_flags>
0

> <s_epik_input>
Tz1DKFtPSF0pYzFbY0hdYyhbY0hdW2NIXW4xKU4yW0NIMl1bQ0gyXU9bQ0gyXVtDSDJdMg==

> <s_epik_cmdline>
J2VwaWtfcHl0aG9uJywgJy1waCcsICc3LjAnLCAnLXRuJywgJzgnLCAnLW1hJywgJzIwMCcsICctbWV0YWxfYmluZGluZycsICctaW1hZScsICc8aW5maWxlLm1hZT4nLCAnLW9tYWUnLCAnPG91dGZpbGUubWFlPic=

> <r_epik_Ionization_Penalty>
1.89136

> <r_epik_Ionization_Penalty_Charging>
0.000208402

> <r_epik_Ionization_Penalty_Neutral>
1.89115

> <r_epik_State_Penalty>
2.01169

> <r_epik_Charging_Adjusted_Penalty>
2.0119

> <i_epik_Tot_Q>
-1

> <i_epik_Tot_abs_Q>
1

> <r_epik_Metal_State_Penalty>
0.0168368

> <b_epik_Metal_Only>
0

> <s_lp_Force_Field>
OPLS_2005

> <r_lp_Energy>
22.2384

> <b_lp_Chiralities_Consistent>
1

> <s_lp_Variant>
AV-unprocessed.smi:2974-2

> <Gold.Version>
5.8.1

> <Gold.Id.Protein>
6NUR|6NUR_protein|mol2

> <Gold.PLP.Fitness>
40.0350

> <Gold.PLP.PLP>
-31.5862

> <Gold.PLP.part.hbond>
-3.0000

> <Gold.PLP.part.metal>
0.0000

> <Gold.PLP.part.buried>
-4.1263

> <Gold.PLP.part.nonpolar>
-26.4723

> <Gold.PLP.part.repulsive>
0.2042

> <Gold.PLP.ligand.clash>
0.6548

> <Gold.PLP.ligand.torsion>
0.1466

> <Gold.PLP.Chemscore.Hbond>
3.0999

> <Gold.PLP.Chemscore.CHOScore>
0.0000

> <Gold.PLP.Chemscore.Metal>
0.0000

> <Gold.Chemscore.Hbonds>
donor molecule, donor type, donor heavy atom, donor atom, acceptor molecule, acceptor atom, score
      P1  H  7989  7998       L1    15  0.75
      P1  H  7997  8008       L1     3  1.09
      P1  H 10752 10765       L1     1  0.92

> <Gold.PLP.Chemscore.Internal.Correction>
0.0971

> <Gold.Rescore>
     Score         DG    S(hbond)    S(metal)    S(lipo)     H(rot)  DE(clash)    DE(int)     intcor
     16.64     -17.01       1.38        0.00      80.90       1.00       0.12       0.26       ----

> <Gold.Chemscore.Fitness>
16.6359

> <Gold.Chemscore.DG>
-17.0088

> <Gold.Chemscore.ZeroCoef>
-5.4800

> <Gold.Chemscore.Hbond>
1.3843

> <Gold.Chemscore.Metal>
0.0000

> <Gold.Chemscore.Lipo>
80.9002

> <Gold.Chemscore.Internal_Hbond>
0.0000

> <Gold.Chemscore.DEClash>
0.1164

> <Gold.Chemscore.DEInternal>
0.2565

> <Gold.Chemscore.Rot>
1.0000

> <Gold.Chemscore.Internal.Correction>
   9.000000E+99

> <Gold.Chemscore.Hbonds>
donor molecule, donor type, donor heavy atom, donor atom, acceptor molecule, acceptor atom, score
      P1  H  7989  7998       L1    15  0.03
      P1  H  7997  8008       L1     3  0.40
      P1  H 10752 10765       L1     1  0.45

> <Gold.Chemscore.Hbond.Weighted>
-4.6235

> <Gold.Chemscore.Metal.Weighted>
-0.0000

> <Gold.Chemscore.Lipo.Weighted>
-9.4653

> <Gold.Chemscore.Internal_Hbond.Weighted>
0.0000

> <Gold.Chemscore.DEClash.Weighted>
0.1164

> <Gold.Chemscore.DEInternal.Weighted>
0.2565

> <Gold.Chemscore.Rot.Weighted>
2.5600

> <Gold.Chemscore.Internal.Correction.Weighted>
   9.000000E+99

> <Gold.Protein.RotatedTorsions>
[ 6907 6896 6895 6894 ] final -110.89 input  -60.11 | X-H torsion
[ 7974 7965 7964 7962 ] final -168.06 input  175.53 | X-H torsion
[ 8008 7997 7996 7995 ] final  -57.01 input   59.86 | X-H torsion
[ 10167 10162 10161 10158 ] final -126.11 input  -65.29 | X-H torsion
[ 10718 10713 10712 10709 ] final -157.49 input   66.30 | X-H torsion
[ 10763 10752 10751 10750 ] final  171.74 input  -60.55 | X-H torsion
[ 11005 11000 10999 10996 ] final -179.64 input  -57.11 | X-H torsion

> <Gold.Protein.ActiveResidues>
 VAL166  LYS551  ARG553  GLY616  TRP617  ASP618  TYR619  PRO620  LYS621  CYS622 
 ASP623  PHE694  ASN695  SER759  ASP760  ASP761  ALA762  ILE779  LEU786  VAL792 
 PHE793  MET794  SER795  GLU796  ALA797  LYS798  CYS799  TRP800  GLU811  SER814 

> <Gold.Protein.RotatedAtoms>
  150.7654  133.9315  159.3428 H   0  0  0  0  0  0  0  0  0  0  0  0  # atno 6907 bound_to 6896
  151.7214  135.0891  160.0294 H   0  0  0  0  0  0  0  0  0  0  0  0  # atno 6908 bound_to 6896
  152.3647  133.6304  159.6077 H   0  0  0  0  0  0  0  0  0  0  0  0  # atno 6909 bound_to 6896
  144.7210  140.2426  143.6289 H   0  0  0  0  0  0  0  0  0  0  0  0  # atno 7974 bound_to 7965
  154.4252  140.1116  156.5729 H   0  0  0  0  0  0  0  0  0  0  0  0  # atno 8008 bound_to 7997
  155.6193  140.3495  155.4628 H   0  0  0  0  0  0  0  0  0  0  0  0  # atno 8009 bound_to 7997
  156.0037  140.1204  157.0512 H   0  0  0  0  0  0  0  0  0  0  0  0  # atno 8010 bound_to 7997
  139.9750  143.5805  152.2399 H   0  0  0  0  0  0  0  0  0  0  0  0  # atno 10167 bound_to 10162
  156.5411  130.8563  151.2749 H   0  0  0  0  0  0  0  0  0  0  0  0  # atno 10718 bound_to 10713
  154.4163  135.2757  155.2005 H   0  0  0  0  0  0  0  0  0  0  0  0  # atno 10763 bound_to 10752
  154.3969  135.6053  153.5878 H   0  0  0  0  0  0  0  0  0  0  0  0  # atno 10764 bound_to 10752
  152.9832  135.5917  154.4452 H   0  0  0  0  0  0  0  0  0  0  0  0  # atno 10765 bound_to 10752
  140.4164  134.6645  157.4641 H   0  0  0  0  0  0  0  0  0  0  0  0  # atno 11005 bound_to 11000
  145.8305  139.2084  143.1885 LP  0  0  0  0  0  0  0  0  0  0  0  0  # atno 17320 bound_to 7965
  146.0435  140.8141  142.9817 LP  0  0  0  0  0  0  0  0  0  0  0  0  # atno 17321 bound_to 7965
  139.6453  144.7657  151.2257 LP  0  0  0  0  0  0  0  0  0  0  0  0  # atno 17342 bound_to 10162
  140.7509  143.6250  150.8477 LP  0  0  0  0  0  0  0  0  0  0  0  0  # atno 17343 bound_to 10162
  157.7405  130.9852  150.2382 LP  0  0  0  0  0  0  0  0  0  0  0  0  # atno 17370 bound_to 10713
  156.2971  130.3753  149.7786 LP  0  0  0  0  0  0  0  0  0  0  0  0  # atno 17371 bound_to 10713
  140.0231  134.6518  155.9211 LP  0  0  0  0  0  0  0  0  0  0  0  0  # atno 17394 bound_to 11000
  141.1801  133.6545  156.4986 LP  0  0  0  0  0  0  0  0  0  0  0  0  # atno 17395 bound_to 11000

$$$$
