AV-unprocessed.smi:1774|AV-procd|sdf|7169|dock9
  -GOLD-   22720 8403D 1   1.00000     0.00000
 Structure written by MMmdl.
 46 47  0  0  0  0  0  0  0  0  2 V2000
  148.8256  138.7659  154.3416 C   0  0  0  0  0  0  0  0  0  0  0  0
  150.1807  138.5323  154.9892 C   0  0  0  0  0  0  0  0  0  0  0  0
  150.8711  139.6236  155.5584 C   0  0  0  0  0  0  0  0  0  0  0  0
  152.1234  139.4054  156.1575 C   0  0  0  0  0  0  0  0  0  0  0  0
  152.6360  138.0968  156.1615 C   0  0  0  0  0  0  0  0  0  0  0  0
  151.9828  137.0484  155.6204 N   0  0  0  0  0  0  0  0  0  0  0  0
  150.7719  137.2416  155.0396 C   0  0  0  0  0  0  0  0  0  0  0  0
  150.0252  136.1811  154.4521 N   0  0  0  0  0  0  0  0  0  0  0  0
  149.8135  134.9432  154.9326 C   0  0  0  0  0  0  0  0  0  0  0  0
  150.2640  134.4991  155.9891 O   0  0  0  0  0  0  0  0  0  0  0  0
  149.0306  134.2281  154.1114 N   0  0  0  0  0  0  0  0  0  0  0  0
  148.5846  132.8647  154.3734 C   0  0  0  0  0  0  0  0  0  0  0  0
  148.0287  132.1933  153.1031 C   0  0  0  0  0  0  0  0  0  0  0  0
  146.9899  133.0227  152.4443 N   0  3  1  0  0  0  0  0  0  0  0  0
  146.2815  132.2997  151.3635 C   0  0  0  0  0  0  0  0  0  0  0  0
  145.2974  133.2406  150.6444 C   0  0  1  0  0  0  0  0  0  0  0  0
  144.4796  132.5089  149.5747 C   0  0  0  0  0  0  0  0  0  0  0  0
  144.3864  133.7911  151.5925 O   0  0  0  0  0  0  0  0  0  0  0  0
  144.9960  134.5060  152.6674 C   0  0  2  0  0  0  0  0  0  0  0  0
  145.5842  135.8538  152.2134 C   0  0  0  0  0  0  0  0  0  0  0  0
  146.0124  133.6057  153.3964 C   0  0  0  0  0  0  0  0  0  0  0  0
  148.5190  139.8085  154.4279 H   0  0  0  0  0  0  0  0  0  0  0  0
  148.0617  138.1520  154.8195 H   0  0  0  0  0  0  0  0  0  0  0  0
  148.8615  138.5128  153.2817 H   0  0  0  0  0  0  0  0  0  0  0  0
  150.4485  140.6173  155.5386 H   0  0  0  0  0  0  0  0  0  0  0  0
  152.6769  140.2192  156.6021 H   0  0  0  0  0  0  0  0  0  0  0  0
  153.5950  137.8854  156.6107 H   0  0  0  0  0  0  0  0  0  0  0  0
  149.5836  136.4026  153.5722 H   0  0  0  0  0  0  0  0  0  0  0  0
  148.7024  134.6638  153.2617 H   0  0  0  0  0  0  0  0  0  0  0  0
  149.4119  132.2951  154.7979 H   0  0  0  0  0  0  0  0  0  0  0  0
  147.8111  132.9028  155.1410 H   0  0  0  0  0  0  0  0  0  0  0  0
  148.8596  132.0387  152.4130 H   0  0  0  0  0  0  0  0  0  0  0  0
  147.6229  131.2040  153.3211 H   0  0  0  0  0  0  0  0  0  0  0  0
  147.0037  131.9109  150.6445 H   0  0  0  0  0  0  0  0  0  0  0  0
  145.7530  131.4423  151.7841 H   0  0  0  0  0  0  0  0  0  0  0  0
  145.8494  134.0436  150.1558 H   0  0  0  0  0  0  0  0  0  0  0  0
  145.1279  132.0711  148.8152 H   0  0  0  0  0  0  0  0  0  0  0  0
  143.7959  133.1931  149.0718 H   0  0  0  0  0  0  0  0  0  0  0  0
  143.8851  131.7058  150.0111 H   0  0  0  0  0  0  0  0  0  0  0  0
  144.1935  134.7345  153.3694 H   0  0  0  0  0  0  0  0  0  0  0  0
  145.9209  136.4365  153.0712 H   0  0  0  0  0  0  0  0  0  0  0  0
  144.8354  136.4468  151.6878 H   0  0  0  0  0  0  0  0  0  0  0  0
  146.4400  135.7313  151.5502 H   0  0  0  0  0  0  0  0  0  0  0  0
  145.4832  132.7958  153.9014 H   0  0  0  0  0  0  0  0  0  0  0  0
  146.5182  134.1783  154.1732 H   0  0  0  0  0  0  0  0  0  0  0  0
  147.4723  133.7918  152.0018 H   0  0  0  0  0  0  0  0  0  0  0  0
  1  2  1  0  0  0  0
  1 22  1  0  0  0  0
  1 23  1  0  0  0  0
  1 24  1  0  0  0  0
  2  7  1  0  0  0  0
  2  3  2  0  0  0  0
  3  4  1  0  0  0  0
  3 25  1  0  0  0  0
  4  5  2  0  0  0  0
  4 26  1  0  0  0  0
  5  6  1  0  0  0  0
  5 27  1  0  0  0  0
  6  7  2  0  0  0  0
  7  8  1  0  0  0  0
  8  9  1  0  0  0  0
  8 28  1  0  0  0  0
  9 10  2  0  0  0  0
  9 11  1  0  0  0  0
 11 12  1  0  0  0  0
 11 29  1  0  0  0  0
 12 13  1  0  0  0  0
 12 30  1  0  0  0  0
 12 31  1  0  0  0  0
 13 14  1  0  0  0  0
 13 32  1  0  0  0  0
 13 33  1  0  0  0  0
 14 21  1  0  0  0  0
 14 15  1  0  0  0  0
 14 46  1  0  0  0  0
 15 16  1  0  0  0  0
 15 34  1  0  0  0  0
 15 35  1  0  0  0  0
 16 17  1  0  0  0  0
 16 18  1  0  0  0  0
 16 36  1  0  0  0  0
 17 37  1  0  0  0  0
 17 38  1  0  0  0  0
 17 39  1  0  0  0  0
 18 19  1  0  0  0  0
 19 20  1  0  0  0  0
 19 21  1  0  0  0  0
 19 40  1  0  0  0  0
 20 41  1  0  0  0  0
 20 42  1  0  0  0  0
 20 43  1  0  0  0  0
 21 44  1  0  0  0  0
 21 45  1  0  0  0  0
M  CHG  1  14   1
M  END
> <s_m_source_file>
AV-unprocessed.smi

> <i_m_source_file_index>
1774

> <i_lp_mmshare_version>
43012

> <i_f3d_flags>
0

> <s_epik_input>
W0NIM11jMVtjSF1bY0hdW2NIXW5jMVtOSF1DKD1PKVtOSF1bQ0gyXVtDSDJdTjJbQ0gyXVtDQEBIXShbQ0gzXSlPW0NAQEhdKFtDSDNdKVtDSDJdMg==

> <s_epik_cmdline>
J2VwaWtfcHl0aG9uJywgJy1waCcsICc3LjAnLCAnLXRuJywgJzgnLCAnLW1hJywgJzIwMCcsICctbWV0YWxfYmluZGluZycsICctaW1hZScsICc8aW5maWxlLm1hZT4nLCAnLW9tYWUnLCAnPG91dGZpbGUubWFlPic=

> <r_epik_Ionization_Penalty>
0.602573

> <r_epik_Ionization_Penalty_Charging>
0.602531

> <r_epik_Ionization_Penalty_Neutral>
4.21996e-05

> <r_epik_State_Penalty>
0.617039

> <r_epik_Charging_Adjusted_Penalty>
1.21957

> <i_epik_Tot_Q>
1

> <i_epik_Tot_abs_Q>
1

> <r_epik_Metal_State_Penalty>
0.617042

> <b_epik_Metal_Only>
0

> <s_lp_Force_Field>
OPLS_2005

> <r_lp_Energy>
18.7656

> <b_lp_Chiralities_Consistent>
1

> <s_lp_Variant>
AV-unprocessed.smi:1774-6

> <Gold.Version>
5.8.1

> <Gold.Id.Protein>
6NUR|6NUR_protein|mol2

> <Gold.PLP.Fitness>
43.4426

> <Gold.PLP.PLP>
-36.3969

> <Gold.PLP.part.hbond>
-4.0000

> <Gold.PLP.part.metal>
0.0000

> <Gold.PLP.part.buried>
-1.9262

> <Gold.PLP.part.nonpolar>
-30.9575

> <Gold.PLP.part.repulsive>
0.3014

> <Gold.PLP.ligand.clash>
0.0000

> <Gold.PLP.ligand.torsion>
0.5550

> <Gold.PLP.Chemscore.Hbond>
2.7120

> <Gold.PLP.Chemscore.CHOScore>
0.0000

> <Gold.PLP.Chemscore.Metal>
0.0000

> <Gold.Chemscore.Hbonds>
donor molecule, donor type, donor heavy atom, donor atom, acceptor molecule, acceptor atom, score
      L1  H     8    28       P1  7948  1.00
      L1  H    11    29       P1  7948  0.83
      P1  H 10752 10763       L1     6  0.90

> <Gold.PLP.Chemscore.Internal.Correction>
0.0196

> <Gold.Rescore>
     Score         DG    S(hbond)    S(metal)    S(lipo)     H(rot)  DE(clash)    DE(int)     intcor
     16.35     -16.89       1.99        0.00      73.36       1.49       0.01       0.53       ----

> <Gold.Chemscore.Fitness>
16.3530

> <Gold.Chemscore.DG>
-16.8913

> <Gold.Chemscore.ZeroCoef>
-5.4800

> <Gold.Chemscore.Hbond>
1.9921

> <Gold.Chemscore.Metal>
0.0000

> <Gold.Chemscore.Lipo>
73.3642

> <Gold.Chemscore.Internal_Hbond>
0.0000

> <Gold.Chemscore.DEClash>
0.0108

> <Gold.Chemscore.DEInternal>
0.5275

> <Gold.Chemscore.Rot>
1.4946

> <Gold.Chemscore.Internal.Correction>
   9.000000E+99

> <Gold.Chemscore.Hbonds>
donor molecule, donor type, donor heavy atom, donor atom, acceptor molecule, acceptor atom, score
      L1  H     8    28       P1  7948  0.55
      L1  H    11    29       P1  7948  0.23
      P1  H 10752 10763       L1     6  0.54

> <Gold.Chemscore.Hbond.Weighted>
-6.6538

> <Gold.Chemscore.Metal.Weighted>
-0.0000

> <Gold.Chemscore.Lipo.Weighted>
-8.5836

> <Gold.Chemscore.Internal_Hbond.Weighted>
0.0000

> <Gold.Chemscore.DEClash.Weighted>
0.0108

> <Gold.Chemscore.DEInternal.Weighted>
0.5275

> <Gold.Chemscore.Rot.Weighted>
3.8261

> <Gold.Chemscore.Internal.Correction.Weighted>
   9.000000E+99

> <Gold.Protein.RotatedTorsions>
[ 6907 6896 6895 6894 ] final  -10.03 input  -60.11 | X-H torsion
[ 7974 7965 7964 7962 ] final  115.28 input  175.53 | X-H torsion
[ 8008 7997 7996 7995 ] final  139.40 input   59.86 | X-H torsion
[ 10167 10162 10161 10158 ] final  150.37 input  -65.29 | X-H torsion
[ 10718 10713 10712 10709 ] final   86.56 input   66.30 | X-H torsion
[ 10763 10752 10751 10750 ] final   58.21 input  -60.55 | X-H torsion
[ 11005 11000 10999 10996 ] final  -44.08 input  -57.11 | X-H torsion

> <Gold.Protein.ActiveResidues>
 VAL166  LYS551  ARG553  GLY616  TRP617  ASP618  TYR619  PRO620  LYS621  CYS622 
 ASP623  PHE694  ASN695  SER759  ASP760  ASP761  ALA762  ILE779  LEU786  VAL792 
 PHE793  MET794  SER795  GLU796  ALA797  LYS798  CYS799  TRP800  GLU811  SER814 

> <Gold.Protein.RotatedAtoms>
  151.4085  135.0981  159.9577 H   0  0  0  0  0  0  0  0  0  0  0  0  # atno 6907 bound_to 6896
  152.5028  133.8820  159.7361 H   0  0  0  0  0  0  0  0  0  0  0  0  # atno 6908 bound_to 6896
  150.9310  133.6710  159.2839 H   0  0  0  0  0  0  0  0  0  0  0  0  # atno 6909 bound_to 6896
  145.1939  139.2986  143.4354 H   0  0  0  0  0  0  0  0  0  0  0  0  # atno 7974 bound_to 7965
  156.2990  140.2368  156.4231 H   0  0  0  0  0  0  0  0  0  0  0  0  # atno 8008 bound_to 7997
  154.8337  140.0431  157.1515 H   0  0  0  0  0  0  0  0  0  0  0  0  # atno 8009 bound_to 7997
  154.9179  140.2999  155.5235 H   0  0  0  0  0  0  0  0  0  0  0  0  # atno 8010 bound_to 7997
  139.4851  144.5527  151.7371 H   0  0  0  0  0  0  0  0  0  0  0  0  # atno 10167 bound_to 10162
  157.6930  131.0220  150.2990 H   0  0  0  0  0  0  0  0  0  0  0  0  # atno 10718 bound_to 10713
  152.9866  135.5614  154.5516 H   0  0  0  0  0  0  0  0  0  0  0  0  # atno 10763 bound_to 10752
  154.4952  135.2794  155.1467 H   0  0  0  0  0  0  0  0  0  0  0  0  # atno 10764 bound_to 10752
  154.2920  135.6324  153.5442 H   0  0  0  0  0  0  0  0  0  0  0  0  # atno 10765 bound_to 10752
  141.0427  133.6774  156.2822 H   0  0  0  0  0  0  0  0  0  0  0  0  # atno 11005 bound_to 11000
  146.3431  140.2161  142.8590 LP  0  0  0  0  0  0  0  0  0  0  0  0  # atno 17320 bound_to 7965
  145.0014  140.8635  143.5279 LP  0  0  0  0  0  0  0  0  0  0  0  0  # atno 17321 bound_to 7965
  140.5084  144.1062  150.5988 LP  0  0  0  0  0  0  0  0  0  0  0  0  # atno 17342 bound_to 10162
  140.3980  143.2718  151.9982 LP  0  0  0  0  0  0  0  0  0  0  0  0  # atno 17343 bound_to 10162
  156.3509  130.3831  149.7330 LP  0  0  0  0  0  0  0  0  0  0  0  0  # atno 17370 bound_to 10713
  156.4808  130.8040  151.3054 LP  0  0  0  0  0  0  0  0  0  0  0  0  # atno 17371 bound_to 10713
  140.6205  134.5366  157.5547 LP  0  0  0  0  0  0  0  0  0  0  0  0  # atno 17394 bound_to 11000
  139.9288  134.8004  156.0992 LP  0  0  0  0  0  0  0  0  0  0  0  0  # atno 17395 bound_to 11000

$$$$
