AV-unprocessed.smi:3004|AV-procd|sdf|11439|dock4
  -GOLD-   2272016363D 1   1.00000     0.00000
 Structure written by MMmdl.
 47 48  0  0  0  0  0  0  0  0  2 V2000
  144.7474  137.5748  162.4019 C   0  0  0  0  0  0  0  0  0  0  0  0
  145.8189  136.6955  161.8286 C   0  0  0  0  0  0  0  0  0  0  0  0
  146.0377  135.3087  162.0595 C   0  0  0  0  0  0  0  0  0  0  0  0
  147.1292  135.0066  161.2952 C   0  0  0  0  0  0  0  0  0  0  0  0
  147.8430  133.7081  161.1088 C   0  0  0  0  0  0  0  0  0  0  0  0
  147.5113  136.1762  160.6616 N   0  0  0  0  0  0  0  0  0  0  0  0
  148.6042  136.4017  159.7291 C   0  0  0  0  0  0  0  0  0  0  0  0
  148.5799  135.3733  158.5970 C   0  0  0  0  0  0  0  0  0  0  0  0
  149.1261  134.2799  158.7438 O   0  0  0  0  0  0  0  0  0  0  0  0
  147.9370  135.7324  157.4751 N   0  0  0  0  0  0  0  0  0  0  0  0
  147.7620  134.8882  156.2989 C   0  0  0  0  0  0  0  0  0  0  0  0
  148.2963  135.5689  155.0196 C   0  0  0  0  0  0  0  0  0  0  0  0
  147.7861  134.9620  153.7549 N   0  3  2  0  0  0  0  0  0  0  0  0
  146.3773  135.3617  153.4660 C   0  0  0  0  0  0  0  0  0  0  0  0
  145.8967  134.8416  152.1037 C   0  0  0  0  0  0  0  0  0  0  0  0
  146.0277  133.3212  152.0298 C   0  0  0  0  0  0  0  0  0  0  0  0
  147.4754  132.9248  152.3262 C   0  0  0  0  0  0  0  0  0  0  0  0
  147.9565  133.4722  153.6882 C   0  0  1  0  0  0  0  0  0  0  0  0
  149.4103  133.0097  153.9193 C   0  0  0  0  0  0  0  0  0  0  0  0
  146.7063  137.2100  160.9927 N   0  0  0  0  0  0  0  0  0  0  0  0
  144.0429  136.9972  163.0006 H   0  0  0  0  0  0  0  0  0  0  0  0
  144.1817  138.0705  161.6126 H   0  0  0  0  0  0  0  0  0  0  0  0
  145.1740  138.3461  163.0434 H   0  0  0  0  0  0  0  0  0  0  0  0
  145.4754  134.6356  162.6896 H   0  0  0  0  0  0  0  0  0  0  0  0
  147.3563  132.9121  161.6724 H   0  0  0  0  0  0  0  0  0  0  0  0
  148.8747  133.7793  161.4532 H   0  0  0  0  0  0  0  0  0  0  0  0
  147.8534  133.4163  160.0587 H   0  0  0  0  0  0  0  0  0  0  0  0
  148.5338  137.4160  159.3321 H   0  0  0  0  0  0  0  0  0  0  0  0
  149.5534  136.3380  160.2613 H   0  0  0  0  0  0  0  0  0  0  0  0
  147.5110  136.6480  157.4486 H   0  0  0  0  0  0  0  0  0  0  0  0
  148.2578  133.9376  156.4945 H   0  0  0  0  0  0  0  0  0  0  0  0
  146.6982  134.6742  156.1922 H   0  0  0  0  0  0  0  0  0  0  0  0
  147.9938  136.6115  155.0850 H   0  0  0  0  0  0  0  0  0  0  0  0
  149.3871  135.5623  155.0035 H   0  0  0  0  0  0  0  0  0  0  0  0
  145.7242  134.9941  154.2593 H   0  0  0  0  0  0  0  0  0  0  0  0
  146.2742  136.4447  153.4503 H   0  0  0  0  0  0  0  0  0  0  0  0
  144.8594  135.1337  151.9376 H   0  0  0  0  0  0  0  0  0  0  0  0
  146.4803  135.3032  151.3056 H   0  0  0  0  0  0  0  0  0  0  0  0
  145.3564  132.8525  152.7507 H   0  0  0  0  0  0  0  0  0  0  0  0
  145.7313  132.9629  151.0435 H   0  0  0  0  0  0  0  0  0  0  0  0
  147.5582  131.8375  152.3079 H   0  0  0  0  0  0  0  0  0  0  0  0
  148.1234  133.2946  151.5298 H   0  0  0  0  0  0  0  0  0  0  0  0
  147.3362  133.0295  154.4696 H   0  0  0  0  0  0  0  0  0  0  0  0
  149.5205  131.9474  153.6989 H   0  0  0  0  0  0  0  0  0  0  0  0
  149.7259  133.1339  154.9546 H   0  0  0  0  0  0  0  0  0  0  0  0
  150.1077  133.5508  153.2790 H   0  0  0  0  0  0  0  0  0  0  0  0
  148.3520  135.3427  153.0098 H   0  0  0  0  0  0  0  0  0  0  0  0
  1  2  1  0  0  0  0
  1 21  1  0  0  0  0
  1 22  1  0  0  0  0
  1 23  1  0  0  0  0
  2 20  2  0  0  0  0
  2  3  1  0  0  0  0
  3  4  2  0  0  0  0
  3 24  1  0  0  0  0
  4  5  1  0  0  0  0
  4  6  1  0  0  0  0
  5 25  1  0  0  0  0
  5 26  1  0  0  0  0
  5 27  1  0  0  0  0
  6  7  1  0  0  0  0
  6 20  1  0  0  0  0
  7  8  1  0  0  0  0
  7 28  1  0  0  0  0
  7 29  1  0  0  0  0
  8  9  2  0  0  0  0
  8 10  1  0  0  0  0
 10 11  1  0  0  0  0
 10 30  1  0  0  0  0
 11 12  1  0  0  0  0
 11 31  1  0  0  0  0
 11 32  1  0  0  0  0
 12 13  1  0  0  0  0
 12 33  1  0  0  0  0
 12 34  1  0  0  0  0
 13 18  1  0  0  0  0
 13 14  1  0  0  0  0
 13 47  1  0  0  0  0
 14 15  1  0  0  0  0
 14 35  1  0  0  0  0
 14 36  1  0  0  0  0
 15 16  1  0  0  0  0
 15 37  1  0  0  0  0
 15 38  1  0  0  0  0
 16 17  1  0  0  0  0
 16 39  1  0  0  0  0
 16 40  1  0  0  0  0
 17 18  1  0  0  0  0
 17 41  1  0  0  0  0
 17 42  1  0  0  0  0
 18 19  1  0  0  0  0
 18 43  1  0  0  0  0
 19 44  1  0  0  0  0
 19 45  1  0  0  0  0
 19 46  1  0  0  0  0
M  CHG  1  13   1
M  END
> <s_m_source_file>
AV-unprocessed.smi

> <i_m_source_file_index>
3004

> <i_lp_mmshare_version>
43012

> <i_f3d_flags>
0

> <s_epik_input>
W0NIM11jMVtjSF1jKFtDSDNdKW4objEpW0NIMl1DKD1PKVtOSF1bQ0gyXVtDSDJdTjJbQ0gyXVtDSDJdW0NIMl1bQ0gyXVtDQEhdMltDSDNd

> <s_epik_cmdline>
J2VwaWtfcHl0aG9uJywgJy1waCcsICc3LjAnLCAnLXRuJywgJzgnLCAnLW1hJywgJzIwMCcsICctbWV0YWxfYmluZGluZycsICctaW1hZScsICc8aW5maWxlLm1hZT4nLCAnLW9tYWUnLCAnPG91dGZpbGUubWFlPic=

> <r_lp_tautomer_probability>
1

> <r_epik_Ionization_Penalty>
0.00303644

> <r_epik_Ionization_Penalty_Charging>
0.00284254

> <r_epik_Ionization_Penalty_Neutral>
0.000193908

> <r_epik_State_Penalty>
-0

> <r_epik_Charging_Adjusted_Penalty>
0.00284254

> <i_epik_Tot_Q>
1

> <i_epik_Tot_abs_Q>
1

> <r_epik_Metal_State_Penalty>
-0

> <b_epik_Metal_Only>
0

> <s_lp_Force_Field>
OPLS_2005

> <r_lp_Energy>
17.9788

> <b_lp_Chiralities_Consistent>
1

> <s_lp_Variant>
AV-unprocessed.smi:3004-1

> <Gold.Version>
5.8.1

> <Gold.Id.Protein>
6NUR|6NUR_protein|mol2

> <Gold.PLP.Fitness>
40.9713

> <Gold.PLP.PLP>
-30.1384

> <Gold.PLP.part.hbond>
-3.0000

> <Gold.PLP.part.metal>
0.0000

> <Gold.PLP.part.buried>
-3.6755

> <Gold.PLP.part.nonpolar>
-23.7313

> <Gold.PLP.part.repulsive>
0.0190

> <Gold.PLP.ligand.clash>
0.0000

> <Gold.PLP.ligand.torsion>
0.6040

> <Gold.PLP.Chemscore.Hbond>
4.0000

> <Gold.PLP.Chemscore.CHOScore>
0.0000

> <Gold.PLP.Chemscore.Metal>
0.0000

> <Gold.Chemscore.Hbonds>
donor molecule, donor type, donor heavy atom, donor atom, acceptor molecule, acceptor atom, score
      L1  H    13    47       P1  7948  2.00
      P1  H  6896  6909       L1     9  1.00
      P1  H  6934  6947       L1    20  1.00

> <Gold.PLP.Chemscore.Internal.Correction>
0.0409

> <Gold.Rescore>
     Score         DG    S(hbond)    S(metal)    S(lipo)     H(rot)  DE(clash)    DE(int)     intcor
     17.22     -19.19       2.99        0.00      68.40       1.67       0.01       1.96       ----

> <Gold.Chemscore.Fitness>
17.2200

> <Gold.Chemscore.DG>
-19.1924

> <Gold.Chemscore.ZeroCoef>
-5.4800

> <Gold.Chemscore.Hbond>
2.9862

> <Gold.Chemscore.Metal>
0.0000

> <Gold.Chemscore.Lipo>
68.3974

> <Gold.Chemscore.Internal_Hbond>
0.0000

> <Gold.Chemscore.DEClash>
0.0106

> <Gold.Chemscore.DEInternal>
1.9618

> <Gold.Chemscore.Rot>
1.6657

> <Gold.Chemscore.Internal.Correction>
   9.000000E+99

> <Gold.Chemscore.Hbonds>
donor molecule, donor type, donor heavy atom, donor atom, acceptor molecule, acceptor atom, score
      L1  H    13    47       P1  7948  0.93
      P1  H  6896  6909       L1     9  0.90
      P1  H  6934  6947       L1    20  0.99

> <Gold.Chemscore.Hbond.Weighted>
-9.9740

> <Gold.Chemscore.Metal.Weighted>
-0.0000

> <Gold.Chemscore.Lipo.Weighted>
-8.0025

> <Gold.Chemscore.Internal_Hbond.Weighted>
0.0000

> <Gold.Chemscore.DEClash.Weighted>
0.0106

> <Gold.Chemscore.DEInternal.Weighted>
1.9618

> <Gold.Chemscore.Rot.Weighted>
4.2641

> <Gold.Chemscore.Internal.Correction.Weighted>
   9.000000E+99

> <Gold.Protein.RotatedTorsions>
[ 6907 6896 6895 6894 ] final   35.00 input  -60.11 | X-H torsion
[ 7974 7965 7964 7962 ] final  105.82 input  175.53 | X-H torsion
[ 8008 7997 7996 7995 ] final  107.23 input   59.86 | X-H torsion
[ 10167 10162 10161 10158 ] final  -26.52 input  -65.29 | X-H torsion
[ 10718 10713 10712 10709 ] final  -36.23 input   66.30 | X-H torsion
[ 10763 10752 10751 10750 ] final   46.59 input  -60.55 | X-H torsion
[ 11005 11000 10999 10996 ] final  -37.77 input  -57.11 | X-H torsion

> <Gold.Protein.ActiveResidues>
 VAL166  LYS551  ARG553  GLY616  TRP617  ASP618  TYR619  PRO620  LYS621  CYS622 
 ASP623  PHE694  ASN695  SER759  ASP760  ASP761  ALA762  ILE779  LEU786  VAL792 
 PHE793  MET794  SER795  GLU796  ALA797  LYS798  CYS799  TRP800  GLU811  SER814 

> <Gold.Protein.RotatedAtoms>
  152.1101  134.9280  160.0566 H   0  0  0  0  0  0  0  0  0  0  0  0  # atno 6907 bound_to 6896
  152.0461  133.3993  159.4365 H   0  0  0  0  0  0  0  0  0  0  0  0  # atno 6908 bound_to 6896
  150.6843  134.3281  159.4859 H   0  0  0  0  0  0  0  0  0  0  0  0  # atno 6909 bound_to 6896
  145.3147  139.2530  143.3744 H   0  0  0  0  0  0  0  0  0  0  0  0  # atno 7974 bound_to 7965
  156.1807  140.3098  155.9144 H   0  0  0  0  0  0  0  0  0  0  0  0  # atno 8008 bound_to 7997
  155.3389  140.0465  157.3061 H   0  0  0  0  0  0  0  0  0  0  0  0  # atno 8009 bound_to 7997
  154.5340  140.2240  155.8765 H   0  0  0  0  0  0  0  0  0  0  0  0  # atno 8010 bound_to 7997
  140.7282  143.4171  151.1011 H   0  0  0  0  0  0  0  0  0  0  0  0  # atno 10167 bound_to 10162
  156.3292  130.4277  149.7888 H   0  0  0  0  0  0  0  0  0  0  0  0  # atno 10718 bound_to 10713
  152.9809  135.6003  154.3624 H   0  0  0  0  0  0  0  0  0  0  0  0  # atno 10763 bound_to 10752
  154.3305  135.2768  155.2476 H   0  0  0  0  0  0  0  0  0  0  0  0  # atno 10764 bound_to 10752
  154.4602  135.5968  153.6306 H   0  0  0  0  0  0  0  0  0  0  0  0  # atno 10765 bound_to 10752
  140.9977  133.6971  156.1965 H   0  0  0  0  0  0  0  0  0  0  0  0  # atno 11005 bound_to 11000
  146.3105  140.3691  142.8672 LP  0  0  0  0  0  0  0  0  0  0  0  0  # atno 17320 bound_to 7965
  144.8987  140.7615  143.5881 LP  0  0  0  0  0  0  0  0  0  0  0  0  # atno 17321 bound_to 7965
  139.7812  143.8352  152.3138 LP  0  0  0  0  0  0  0  0  0  0  0  0  # atno 17342 bound_to 10162
  139.8304  144.7256  150.9457 LP  0  0  0  0  0  0  0  0  0  0  0  0  # atno 17343 bound_to 10162
  156.5166  130.8196  151.3188 LP  0  0  0  0  0  0  0  0  0  0  0  0  # atno 17370 bound_to 10713
  157.7427  130.9896  150.2537 LP  0  0  0  0  0  0  0  0  0  0  0  0  # atno 17371 bound_to 10713
  140.6939  134.4636  157.5588 LP  0  0  0  0  0  0  0  0  0  0  0  0  # atno 17394 bound_to 11000
  139.9023  134.8528  156.1845 LP  0  0  0  0  0  0  0  0  0  0  0  0  # atno 17395 bound_to 11000

$$$$
