AV-unprocessed.smi:2706|AV-procd|sdf|10455|dock6
  -GOLD-   2272014493D 1   1.00000     0.00000
 Structure written by MMmdl.
 43 46  0  0  0  0  0  0  0  0  1 V2000
  151.8945  145.2592  160.4079 C   0  0  0  0  0  0  0  0  0  0  0  0
  151.7371  144.2878  159.3388 N   0  0  0  0  0  0  0  0  0  0  0  0
  151.2758  144.8139  158.0654 C   0  0  0  0  0  0  0  0  0  0  0  0
  152.2742  143.0186  159.4383 C   0  0  0  0  0  0  0  0  0  0  0  0
  152.9567  142.6748  160.5470 C   0  0  0  0  0  0  0  0  0  0  0  0
  153.5212  141.3457  160.6552 C   0  0  0  0  0  0  0  0  0  0  0  0
  153.3748  140.4444  159.6626 C   0  0  0  0  0  0  0  0  0  0  0  0
  152.6456  140.7763  158.4504 C   0  0  0  0  0  0  0  0  0  0  0  0
  152.5193  139.8871  157.5080 N   0  0  0  0  0  0  0  0  0  0  0  0
  151.8353  140.1358  156.3228 C   0  0  0  0  0  0  0  0  0  0  0  0
  152.1991  139.9302  155.1609 O   0  0  0  0  0  0  0  0  0  0  0  0
  150.6367  140.6677  156.5995 N   0  0  0  0  0  0  0  0  0  0  0  0
  149.6436  141.0603  155.6518 C   0  0  2  0  0  0  0  0  0  0  0  0
  148.2830  140.3881  155.6144 C   0  0  2  0  0  0  0  0  0  0  0  0
  147.8549  138.9599  155.9714 C   0  0  2  0  0  0  0  0  0  0  0  0
  148.9665  138.1436  156.6614 C   0  0  0  0  0  0  0  0  0  0  0  0
  149.9744  137.9209  155.5128 C   0  0  0  0  0  0  0  0  0  0  0  0
  149.2939  138.6419  154.3318 C   0  0  1  0  0  0  0  0  0  0  0  0
  147.8340  138.2937  154.6002 C   0  0  0  0  0  0  0  0  0  0  0  0
  149.2796  140.1680  154.4789 C   0  0  2  0  0  0  0  0  0  0  0  0
  152.1254  142.0840  158.4149 N   0  0  0  0  0  0  0  0  0  0  0  0
  151.9932  144.7598  161.3723 H   0  0  0  0  0  0  0  0  0  0  0  0
  151.0320  145.9243  160.4588 H   0  0  0  0  0  0  0  0  0  0  0  0
  152.7872  145.8625  160.2417 H   0  0  0  0  0  0  0  0  0  0  0  0
  150.9469  144.0067  157.4101 H   0  0  0  0  0  0  0  0  0  0  0  0
  152.0806  145.3538  157.5660 H   0  0  0  0  0  0  0  0  0  0  0  0
  150.4373  145.4962  158.2075 H   0  0  0  0  0  0  0  0  0  0  0  0
  153.0862  143.3810  161.3546 H   0  0  0  0  0  0  0  0  0  0  0  0
  154.0683  141.0722  161.5454 H   0  0  0  0  0  0  0  0  0  0  0  0
  153.8183  139.4691  159.8009 H   0  0  0  0  0  0  0  0  0  0  0  0
  150.4048  140.8081  157.5724 H   0  0  0  0  0  0  0  0  0  0  0  0
  149.6194  142.1249  155.4241 H   0  0  0  0  0  0  0  0  0  0  0  0
  147.4438  141.0423  155.3851 H   0  0  0  0  0  0  0  0  0  0  0  0
  146.9010  138.9403  156.4991 H   0  0  0  0  0  0  0  0  0  0  0  0
  149.3874  138.6430  157.5329 H   0  0  0  0  0  0  0  0  0  0  0  0
  148.5748  137.1856  157.0054 H   0  0  0  0  0  0  0  0  0  0  0  0
  150.9769  138.2918  155.7217 H   0  0  0  0  0  0  0  0  0  0  0  0
  150.0702  136.8551  155.3013 H   0  0  0  0  0  0  0  0  0  0  0  0
  149.6615  138.3304  153.3537 H   0  0  0  0  0  0  0  0  0  0  0  0
  147.6337  137.2209  154.6324 H   0  0  0  0  0  0  0  0  0  0  0  0
  147.1414  138.7657  153.9007 H   0  0  0  0  0  0  0  0  0  0  0  0
  149.0560  140.6862  153.5481 H   0  0  0  0  0  0  0  0  0  0  0  0
  151.6040  142.4006  157.6100 H   0  0  0  0  0  0  0  0  0  0  0  0
  1  2  1  0  0  0  0
  1 22  1  0  0  0  0
  1 23  1  0  0  0  0
  1 24  1  0  0  0  0
  2  3  1  0  0  0  0
  2  4  1  0  0  0  0
  3 25  1  0  0  0  0
  3 26  1  0  0  0  0
  3 27  1  0  0  0  0
  4 21  1  0  0  0  0
  4  5  2  0  0  0  0
  5  6  1  0  0  0  0
  5 28  1  0  0  0  0
  6  7  2  0  0  0  0
  6 29  1  0  0  0  0
  7  8  1  0  0  0  0
  7 30  1  0  0  0  0
  8  9  2  0  0  0  0
  8 21  1  0  0  0  0
  9 10  1  0  0  0  0
 10 11  2  0  0  0  0
 10 12  1  0  0  0  0
 12 13  1  0  0  0  0
 12 31  1  0  0  0  0
 13 20  1  0  0  0  0
 13 14  1  0  0  0  0
 13 32  1  0  0  0  0
 14 20  1  0  0  0  0
 14 15  1  0  0  0  0
 14 33  1  0  0  0  0
 15 19  1  0  0  0  0
 15 16  1  0  0  0  0
 15 34  1  0  0  0  0
 16 17  1  0  0  0  0
 16 35  1  0  0  0  0
 16 36  1  0  0  0  0
 17 18  1  0  0  0  0
 17 37  1  0  0  0  0
 17 38  1  0  0  0  0
 18 19  1  0  0  0  0
 18 20  1  0  0  0  0
 18 39  1  0  0  0  0
 19 40  1  0  0  0  0
 19 41  1  0  0  0  0
 20 42  1  0  0  0  0
 21 43  1  0  0  0  0
M  END
> <s_m_source_file>
AV-unprocessed.smi

> <i_m_source_file_index>
2706

> <i_lp_mmshare_version>
43012

> <i_f3d_flags>
0

> <s_epik_input>
W0NIM11OKFtDSDNdKWMxW2NIXVtjSF1bY0hdYyhuMSlbTkhdQyg9TylbTkhdW0NASF0yW0NAQEhdM1tDQEBIXShbQ0gyXTQpW0NIMl1bQ0gyXVtDQEBIXTRbQ0BIXTIz

> <s_epik_cmdline>
J2VwaWtfcHl0aG9uJywgJy1waCcsICc3LjAnLCAnLXRuJywgJzgnLCAnLW1hJywgJzIwMCcsICctbWV0YWxfYmluZGluZycsICctaW1hZScsICc8aW5maWxlLm1hZT4nLCAnLW9tYWUnLCAnPG91dGZpbGUubWFlPic=

> <r_lp_tautomer_probability>
0.999994

> <r_epik_Ionization_Penalty>
2.07242

> <r_epik_Ionization_Penalty_Charging>
2.07242

> <r_epik_Ionization_Penalty_Neutral>
9.73808e-07

> <r_epik_State_Penalty>
3.96009

> <r_epik_Charging_Adjusted_Penalty>
6.03251

> <i_epik_Tot_Q>
0

> <i_epik_Tot_abs_Q>
0

> <r_epik_Metal_State_Penalty>
3.98849

> <b_epik_Metal_Only>
1

> <s_lp_Force_Field>
OPLS_2005

> <r_lp_Energy>
108.692

> <b_lp_Chiralities_Consistent>
1

> <s_lp_Variant>
AV-unprocessed.smi:2706-12

> <Gold.Version>
5.8.1

> <Gold.Id.Protein>
6NUR|6NUR_protein|mol2

> <Gold.PLP.Fitness>
44.3024

> <Gold.PLP.PLP>
-41.5829

> <Gold.PLP.part.hbond>
-2.3346

> <Gold.PLP.part.metal>
0.0000

> <Gold.PLP.part.buried>
-4.4221

> <Gold.PLP.part.nonpolar>
-34.3641

> <Gold.PLP.part.repulsive>
0.1700

> <Gold.PLP.ligand.clash>
0.5893

> <Gold.PLP.ligand.torsion>
0.5780

> <Gold.PLP.Chemscore.Hbond>
1.4320

> <Gold.PLP.Chemscore.CHOScore>
0.0000

> <Gold.PLP.Chemscore.Metal>
0.0000

> <Gold.Chemscore.Hbonds>
donor molecule, donor type, donor heavy atom, donor atom, acceptor molecule, acceptor atom, score
      P1  H  7989  7998       L1    11  0.75
      P1  H  7997  8010       L1     9  0.65

> <Gold.PLP.Chemscore.Internal.Correction>
0.1688

> <Gold.Rescore>
     Score         DG    S(hbond)    S(metal)    S(lipo)     H(rot)  DE(clash)    DE(int)     intcor
     13.21     -15.21       0.69        0.00      85.37       1.00       0.01       1.98       ----

> <Gold.Chemscore.Fitness>
13.2115

> <Gold.Chemscore.DG>
-15.2094

> <Gold.Chemscore.ZeroCoef>
-5.4800

> <Gold.Chemscore.Hbond>
0.6888

> <Gold.Chemscore.Metal>
0.0000

> <Gold.Chemscore.Lipo>
85.3748

> <Gold.Chemscore.Internal_Hbond>
0.0000

> <Gold.Chemscore.DEClash>
0.0149

> <Gold.Chemscore.DEInternal>
1.9830

> <Gold.Chemscore.Rot>
1.0000

> <Gold.Chemscore.Internal.Correction>
   9.000000E+99

> <Gold.Chemscore.Hbonds>
donor molecule, donor type, donor heavy atom, donor atom, acceptor molecule, acceptor atom, score
      P1  H  7989  7998       L1    11  0.74
      P1  H  7997  8010       L1     9  0.02

> <Gold.Chemscore.Hbond.Weighted>
-2.3006

> <Gold.Chemscore.Metal.Weighted>
-0.0000

> <Gold.Chemscore.Lipo.Weighted>
-9.9888

> <Gold.Chemscore.Internal_Hbond.Weighted>
0.0000

> <Gold.Chemscore.DEClash.Weighted>
0.0149

> <Gold.Chemscore.DEInternal.Weighted>
1.9830

> <Gold.Chemscore.Rot.Weighted>
2.5600

> <Gold.Chemscore.Internal.Correction.Weighted>
   9.000000E+99

> <Gold.Protein.RotatedTorsions>
[ 6907 6896 6895 6894 ] final -155.98 input  -60.11 | X-H torsion
[ 7974 7965 7964 7962 ] final  -18.41 input  175.53 | X-H torsion
[ 8008 7997 7996 7995 ] final   46.14 input   59.86 | X-H torsion
[ 10167 10162 10161 10158 ] final   -4.24 input  -65.29 | X-H torsion
[ 10718 10713 10712 10709 ] final   -4.07 input   66.30 | X-H torsion
[ 10763 10752 10751 10750 ] final  102.59 input  -60.55 | X-H torsion
[ 11005 11000 10999 10996 ] final -160.77 input  -57.11 | X-H torsion

> <Gold.Protein.ActiveResidues>
 VAL166  LYS551  ARG553  GLY616  TRP617  ASP618  TYR619  PRO620  LYS621  CYS622 
 ASP623  PHE694  ASN695  SER759  ASP760  ASP761  ALA762  ILE779  LEU786  VAL792 
 PHE793  MET794  SER795  GLU796  ALA797  LYS798  CYS799  TRP800  GLU811  SER814 

> <Gold.Protein.RotatedAtoms>
  151.2808  133.4211  159.2626 H   0  0  0  0  0  0  0  0  0  0  0  0  # atno 6907 bound_to 6896
  151.0363  134.9575  159.8148 H   0  0  0  0  0  0  0  0  0  0  0  0  # atno 6908 bound_to 6896
  152.5356  134.2767  159.9044 H   0  0  0  0  0  0  0  0  0  0  0  0  # atno 6909 bound_to 6896
  146.1893  140.3917  142.8464 H   0  0  0  0  0  0  0  0  0  0  0  0  # atno 7974 bound_to 7965
  155.3475  140.3411  155.4239 H   0  0  0  0  0  0  0  0  0  0  0  0  # atno 8008 bound_to 7997
  156.1781  140.1654  156.8360 H   0  0  0  0  0  0  0  0  0  0  0  0  # atno 8009 bound_to 7997
  154.5304  140.0746  156.8317 H   0  0  0  0  0  0  0  0  0  0  0  0  # atno 8010 bound_to 7997
  140.6920  143.6447  150.8404 H   0  0  0  0  0  0  0  0  0  0  0  0  # atno 10167 bound_to 10162
  156.7667  130.5287  149.5775 H   0  0  0  0  0  0  0  0  0  0  0  0  # atno 10718 bound_to 10713
  153.3415  135.4005  155.1576 H   0  0  0  0  0  0  0  0  0  0  0  0  # atno 10763 bound_to 10752
  154.8644  135.3635  154.5339 H   0  0  0  0  0  0  0  0  0  0  0  0  # atno 10764 bound_to 10752
  153.5784  135.7077  153.5533 H   0  0  0  0  0  0  0  0  0  0  0  0  # atno 10765 bound_to 10752
  140.6278  134.4682  157.5228 H   0  0  0  0  0  0  0  0  0  0  0  0  # atno 11005 bound_to 11000
  144.8457  140.6925  143.6201 LP  0  0  0  0  0  0  0  0  0  0  0  0  # atno 17320 bound_to 7965
  145.3841  139.1630  143.4265 LP  0  0  0  0  0  0  0  0  0  0  0  0  # atno 17321 bound_to 7965
  140.0160  143.5592  152.2820 LP  0  0  0  0  0  0  0  0  0  0  0  0  # atno 17342 bound_to 10162
  139.6333  144.7647  151.2490 LP  0  0  0  0  0  0  0  0  0  0  0  0  # atno 17343 bound_to 10162
  156.1304  130.6174  151.0325 LP  0  0  0  0  0  0  0  0  0  0  0  0  # atno 17370 bound_to 10713
  157.6710  131.0861  150.7613 LP  0  0  0  0  0  0  0  0  0  0  0  0  # atno 17371 bound_to 10713
  139.9128  134.8309  156.1470 LP  0  0  0  0  0  0  0  0  0  0  0  0  # atno 17394 bound_to 11000
  141.0697  133.6803  156.2115 LP  0  0  0  0  0  0  0  0  0  0  0  0  # atno 17395 bound_to 11000

$$$$
