AV-unprocessed.smi:2564|AV-procd|sdf|10062|dock1
  -GOLD-   2272014103D 1   1.00000     0.00000
 Structure written by MMmdl.
 29 30  0  0  0  0  0  0  0  0  2 V2000
  150.6952  138.9919  154.3959 C   0  0  0  0  0  0  0  0  0  0  0  0
  151.1120  137.6482  154.4110 C   0  0  0  0  0  0  0  0  0  0  0  0
  151.9261  137.1494  155.3683 N   0  0  0  0  0  0  0  0  0  0  0  0
  152.3680  137.9419  156.3512 N   0  0  0  0  0  0  0  0  0  0  0  0
  152.0055  139.2486  156.3998 C   0  0  0  0  0  0  0  0  0  0  0  0
  152.4884  140.0522  157.4412 N   0  0  0  0  0  0  0  0  0  0  0  0
  151.6594  140.3282  158.6062 C   0  0  0  0  0  0  0  0  0  0  0  0
  151.4061  141.8319  158.7785 C   0  0  2  0  0  0  0  0  0  0  0  0
  150.7790  142.4518  157.5139 C   0  0  0  0  0  0  0  0  0  0  0  0
  150.6292  143.9107  157.6815 N   0  3  0  0  0  0  0  0  0  0  0  0
  151.9109  144.5511  158.0348 C   0  0  0  0  0  0  0  0  0  0  0  0
  152.5165  143.8683  159.2725 C   0  0  0  0  0  0  0  0  0  0  0  0
  152.6560  142.4734  159.0239 O   0  0  0  0  0  0  0  0  0  0  0  0
  151.1599  139.8230  155.4299 C   0  0  0  0  0  0  0  0  0  0  0  0
  150.0448  139.3689  153.6207 H   0  0  0  0  0  0  0  0  0  0  0  0
  150.7886  136.9611  153.6434 H   0  0  0  0  0  0  0  0  0  0  0  0
  153.3564  140.5549  157.3255 H   0  0  0  0  0  0  0  0  0  0  0  0
  150.7127  139.7928  158.5207 H   0  0  0  0  0  0  0  0  0  0  0  0
  152.1691  139.9428  159.4902 H   0  0  0  0  0  0  0  0  0  0  0  0
  150.7384  141.9883  159.6283 H   0  0  0  0  0  0  0  0  0  0  0  0
  151.4039  142.2544  156.6417 H   0  0  0  0  0  0  0  0  0  0  0  0
  149.8009  142.0132  157.3146 H   0  0  0  0  0  0  0  0  0  0  0  0
  150.2760  144.3140  156.8253 H   0  0  0  0  0  0  0  0  0  0  0  0
  152.5956  144.4743  157.1892 H   0  0  0  0  0  0  0  0  0  0  0  0
  151.7469  145.6126  158.2218 H   0  0  0  0  0  0  0  0  0  0  0  0
  153.4975  144.2898  159.4928 H   0  0  0  0  0  0  0  0  0  0  0  0
  151.8939  144.0322  160.1535 H   0  0  0  0  0  0  0  0  0  0  0  0
  150.8764  140.8643  155.4744 H   0  0  0  0  0  0  0  0  0  0  0  0
  149.9667  144.0829  158.4244 H   0  0  0  0  0  0  0  0  0  0  0  0
  1 14  1  0  0  0  0
  1  2  2  0  0  0  0
  1 15  1  0  0  0  0
  2  3  1  0  0  0  0
  2 16  1  0  0  0  0
  3  4  2  0  0  0  0
  4  5  1  0  0  0  0
  5  6  1  0  0  0  0
  5 14  2  0  0  0  0
  6  7  1  0  0  0  0
  6 17  1  0  0  0  0
  7  8  1  0  0  0  0
  7 18  1  0  0  0  0
  7 19  1  0  0  0  0
  8 13  1  0  0  0  0
  8  9  1  0  0  0  0
  8 20  1  0  0  0  0
  9 10  1  0  0  0  0
  9 21  1  0  0  0  0
  9 22  1  0  0  0  0
 10 11  1  0  0  0  0
 10 23  1  0  0  0  0
 10 29  1  0  0  0  0
 11 12  1  0  0  0  0
 11 24  1  0  0  0  0
 11 25  1  0  0  0  0
 12 13  1  0  0  0  0
 12 26  1  0  0  0  0
 12 27  1  0  0  0  0
 14 28  1  0  0  0  0
M  CHG  1  10   1
M  END
> <s_m_source_file>
AV-unprocessed.smi

> <i_m_source_file_index>
2564

> <i_lp_mmshare_version>
43012

> <i_f3d_flags>
0

> <s_epik_input>
W2NIXTFbY0hdW2NIXW5uYzFbTkhdW0NIMl1bQ0BASF0yW0NIMl1bTkhdW0NIMl1bQ0gyXU8y

> <s_epik_cmdline>
J2VwaWtfcHl0aG9uJywgJy1waCcsICc3LjAnLCAnLXRuJywgJzgnLCAnLW1hJywgJzIwMCcsICctbWV0YWxfYmluZGluZycsICctaW1hZScsICc8aW5maWxlLm1hZT4nLCAnLW9tYWUnLCAnPG91dGZpbGUubWFlPic=

> <r_lp_tautomer_probability>
0.999978

> <r_epik_Ionization_Penalty>
0.0278973

> <r_epik_Ionization_Penalty_Charging>
0.00959556

> <r_epik_Ionization_Penalty_Neutral>
0.0183017

> <r_epik_State_Penalty>
0.0323017

> <r_epik_Charging_Adjusted_Penalty>
0.0418973

> <i_epik_Tot_Q>
1

> <i_epik_Tot_abs_Q>
1

> <r_epik_Metal_State_Penalty>
0.0301524

> <b_epik_Metal_Only>
0

> <s_lp_Force_Field>
OPLS_2005

> <r_lp_Energy>
19.9275

> <b_lp_Chiralities_Consistent>
1

> <s_lp_Variant>
AV-unprocessed.smi:2564-1

> <Gold.Version>
5.8.1

> <Gold.Id.Protein>
6NUR|6NUR_protein|mol2

> <Gold.PLP.Fitness>
40.4647

> <Gold.PLP.PLP>
-29.7410

> <Gold.PLP.part.hbond>
-2.0000

> <Gold.PLP.part.metal>
0.0000

> <Gold.PLP.part.buried>
-4.2008

> <Gold.PLP.part.nonpolar>
-24.3852

> <Gold.PLP.part.repulsive>
1.0553

> <Gold.PLP.ligand.clash>
0.0000

> <Gold.PLP.ligand.torsion>
0.7402

> <Gold.PLP.Chemscore.Hbond>
2.9920

> <Gold.PLP.Chemscore.CHOScore>
1.0755

> <Gold.PLP.Chemscore.Metal>
0.0000

> <Gold.Chemscore.Hbonds>
donor molecule, donor type, donor heavy atom, donor atom, acceptor molecule, acceptor atom, score
      L1  H    10    23       P1  8028  2.00
      P1  H 10752 10765       L1     3  0.99
      L1  C     2    16       P1  7948  0.27
      L1  C     2    16       P1  7949  0.81

> <Gold.PLP.Chemscore.Internal.Correction>
0.0017

> <Gold.Rescore>
     Score         DG    S(hbond)    S(metal)    S(lipo)     H(rot)  DE(clash)    DE(int)     intcor
     15.27     -16.35       1.81        0.00      70.11       1.33       0.34       0.74       ----

> <Gold.Chemscore.Fitness>
15.2686

> <Gold.Chemscore.DG>
-16.3513

> <Gold.Chemscore.ZeroCoef>
-5.4800

> <Gold.Chemscore.Hbond>
1.8147

> <Gold.Chemscore.Metal>
0.0000

> <Gold.Chemscore.Lipo>
70.1067

> <Gold.Chemscore.Internal_Hbond>
0.0000

> <Gold.Chemscore.DEClash>
0.3392

> <Gold.Chemscore.DEInternal>
0.7434

> <Gold.Chemscore.Rot>
1.3251

> <Gold.Chemscore.Internal.Correction>
   9.000000E+99

> <Gold.Chemscore.Hbonds>
donor molecule, donor type, donor heavy atom, donor atom, acceptor molecule, acceptor atom, score
      L1  H    10    23       P1  8028  0.91
      P1  H 10752 10765       L1     3  0.73

> <Gold.Chemscore.Hbond.Weighted>
-6.0612

> <Gold.Chemscore.Metal.Weighted>
-0.0000

> <Gold.Chemscore.Lipo.Weighted>
-8.2025

> <Gold.Chemscore.Internal_Hbond.Weighted>
0.0000

> <Gold.Chemscore.DEClash.Weighted>
0.3392

> <Gold.Chemscore.DEInternal.Weighted>
0.7434

> <Gold.Chemscore.Rot.Weighted>
3.3924

> <Gold.Chemscore.Internal.Correction.Weighted>
   9.000000E+99

> <Gold.Protein.RotatedTorsions>
[ 6907 6896 6895 6894 ] final   -7.04 input  -60.11 | X-H torsion
[ 7974 7965 7964 7962 ] final -159.20 input  175.53 | X-H torsion
[ 8008 7997 7996 7995 ] final  -29.79 input   59.86 | X-H torsion
[ 10167 10162 10161 10158 ] final   58.51 input  -65.29 | X-H torsion
[ 10718 10713 10712 10709 ] final -158.37 input   66.30 | X-H torsion
[ 10763 10752 10751 10750 ] final -172.22 input  -60.55 | X-H torsion
[ 11005 11000 10999 10996 ] final -152.93 input  -57.11 | X-H torsion

> <Gold.Protein.ActiveResidues>
 VAL166  LYS551  ARG553  GLY616  TRP617  ASP618  TYR619  PRO620  LYS621  CYS622 
 ASP623  PHE694  ASN695  SER759  ASP760  ASP761  ALA762  ILE779  LEU786  VAL792 
 PHE793  MET794  SER795  GLU796  ALA797  LYS798  CYS799  TRP800  GLU811  SER814 

> <Gold.Protein.RotatedAtoms>
  151.4559  135.1034  159.9710 H   0  0  0  0  0  0  0  0  0  0  0  0  # atno 6907 bound_to 6896
  152.4871  133.8397  159.7157 H   0  0  0  0  0  0  0  0  0  0  0  0  # atno 6908 bound_to 6896
  150.8990  133.7083  159.2911 H   0  0  0  0  0  0  0  0  0  0  0  0  # atno 6909 bound_to 6896
  144.7474  140.3718  143.6074 H   0  0  0  0  0  0  0  0  0  0  0  0  # atno 7974 bound_to 7965
  154.4276  140.1809  156.1304 H   0  0  0  0  0  0  0  0  0  0  0  0  # atno 8008 bound_to 7997
  156.0072  140.3354  155.6879 H   0  0  0  0  0  0  0  0  0  0  0  0  # atno 8009 bound_to 7997
  155.6161  140.0655  157.2683 H   0  0  0  0  0  0  0  0  0  0  0  0  # atno 8010 bound_to 7997
  140.1865  144.4129  150.6591 H   0  0  0  0  0  0  0  0  0  0  0  0  # atno 10167 bound_to 10162
  156.5532  130.8614  151.2786 H   0  0  0  0  0  0  0  0  0  0  0  0  # atno 10718 bound_to 10713
  154.6217  135.2876  155.0318 H   0  0  0  0  0  0  0  0  0  0  0  0  # atno 10763 bound_to 10752
  154.1511  135.6503  153.4967 H   0  0  0  0  0  0  0  0  0  0  0  0  # atno 10764 bound_to 10752
  153.0239  135.5356  154.7009 H   0  0  0  0  0  0  0  0  0  0  0  0  # atno 10765 bound_to 10752
  140.7136  134.3805  157.5194 H   0  0  0  0  0  0  0  0  0  0  0  0  # atno 11005 bound_to 11000
  145.7069  139.1675  143.2561 LP  0  0  0  0  0  0  0  0  0  0  0  0  # atno 17320 bound_to 7965
  146.1375  140.7103  142.9383 LP  0  0  0  0  0  0  0  0  0  0  0  0  # atno 17321 bound_to 7965
  140.6485  143.2219  151.6132 LP  0  0  0  0  0  0  0  0  0  0  0  0  # atno 17342 bound_to 10162
  139.5274  144.3018  152.1067 LP  0  0  0  0  0  0  0  0  0  0  0  0  # atno 17343 bound_to 10162
  157.7383  130.9812  150.2246 LP  0  0  0  0  0  0  0  0  0  0  0  0  # atno 17370 bound_to 10713
  156.2866  130.3740  149.7882 LP  0  0  0  0  0  0  0  0  0  0  0  0  # atno 17371 bound_to 10713
  139.8865  134.8907  156.2580 LP  0  0  0  0  0  0  0  0  0  0  0  0  # atno 17394 bound_to 11000
  141.0063  133.7122  156.1040 LP  0  0  0  0  0  0  0  0  0  0  0  0  # atno 17395 bound_to 11000

$$$$
