#       Name:                AV-unprocessed.smi:2504
#       Creating user name   scv26
#       Creation time:       Fri Mar 27 13:47:50 2020


#       File generated by GOLD software.
#

@<TRIPOS>MOLECULE
AV-unprocessed.smi:2504
    50    52     1
SMALL
NO_CHARGES


@<TRIPOS>ATOM
      1 ****        -4.2211   1.2209   1.4229 O.2            1 S1                 0.0000
      2 ****        -3.0074   1.3140   1.6104 C.2            1 S1                 0.0000
      3 ****        -2.4316   1.4905   3.0320 C.3            1 S1                 0.0000
      4 ****        -3.4963   1.7921   4.1083 C.3            1 S1                 0.0000
      5 ****        -2.7909   2.6832   5.1277 C.3            1 S1                 0.0000
      6 ****        -1.8815   3.5590   4.2724 C.3            1 S1                 0.0000
      7 ****        -1.4031   2.6424   3.1415 C.3            1 S1                 0.0000
      8 ****        -2.0995   1.1527   0.5590 N.am           1 S1                 0.0000
      9 ****        -0.8576   0.4114   0.7223 C.3            1 S1                 0.0000
     10 ****        -0.9794   0.1103  -0.7777 C.3            1 S1                 0.0000
     11 ****        -0.6747  -1.6520  -1.2399 S.o2           1 S1                 0.0000
     12 ****        -1.0265  -2.5258  -0.1097 O.2            1 S1                 0.0000
     13 ****        -1.2529  -1.9037  -2.5686 O.2            1 S1                 0.0000
     14 ****         1.0386  -1.6891  -1.4109 N.3            1 S1                 0.0000
     15 ****         1.6909  -2.9925  -1.5294 C.3            1 S1                 0.0000
     16 ****         3.2111  -2.8271  -1.6782 C.3            1 S1                 0.0000
     17 ****         3.6027  -2.0451  -2.9196 C.ar           1 S1                 0.0000
     18 ****         3.6284  -2.6651  -4.1858 C.ar           1 S1                 0.0000
     19 ****         3.9892  -1.8976  -5.3100 C.ar           1 S1                 0.0000
     20 ****         4.3095  -0.5386  -5.1194 C.ar           1 S1                 0.0000
     21 ****         4.2897   0.0656  -3.9116 N.ar           1 S1                 0.0000
     22 ****         3.9450  -0.6782  -2.8386 C.ar           1 S1                 0.0000
     23 ****        -2.4700   0.4483  -0.6596 C.3            1 S1                 0.0000
     24 ****        -1.9357   0.5604   3.3124 H              1 S1                 0.0000
     25 ****        -4.3428   2.3424   3.6944 H              1 S1                 0.0000
     26 ****        -3.8882   0.8835   4.5667 H              1 S1                 0.0000
     27 ****        -3.4876   3.2646   5.7323 H              1 S1                 0.0000
     28 ****        -2.1894   2.0720   5.8022 H              1 S1                 0.0000
     29 ****        -2.4594   4.3846   3.8547 H              1 S1                 0.0000
     30 ****        -1.0559   3.9872   4.8420 H              1 S1                 0.0000
     31 ****        -0.4235   2.2310   3.3878 H              1 S1                 0.0000
     32 ****        -1.2841   3.2110   2.2179 H              1 S1                 0.0000
     33 ****        -0.0009   1.0314   0.9873 H              1 S1                 0.0000
     34 ****        -0.9583  -0.4614   1.3692 H              1 S1                 0.0000
     35 ****        -0.4324   0.8005  -1.4222 H              1 S1                 0.0000
     36 ****         1.3410  -1.0664  -2.1600 H              1 S1                 0.0000
     37 ****         1.4645  -3.5869  -0.6438 H              1 S1                 0.0000
     38 ****         1.2780  -3.5233  -2.3880 H              1 S1                 0.0000
     39 ****         3.6208  -2.3351  -0.7948 H              1 S1                 0.0000
     40 ****         3.6820  -3.8098  -1.7232 H              1 S1                 0.0000
     41 ****         3.3742  -3.7093  -4.2948 H              1 S1                 0.0000
     42 ****         4.0192  -2.3392  -6.2951 H              1 S1                 0.0000
     43 ****         4.5892   0.0796  -5.9596 H              1 S1                 0.0000
     44 ****         3.9344  -0.1642  -1.8885 H              1 S1                 0.0000
     45 ****        -3.1040  -0.4233  -0.4833 H              1 S1                 0.0000
     46 ****        -2.8532   1.0953  -1.4489 H              1 S1                 0.0000
     47 ****        -4.8512   1.2592   2.1984 LP             1 S1                 0.0000
     48 ****        -4.5764   1.1070   0.4951 LP             1 S1                 0.0000
     49 ****         1.3530  -1.3660  -0.5184 LP             1 S1                 0.0000
     50 ****         4.5229   1.0332  -3.8151 LP             1 S1                 0.0000
@<TRIPOS>BOND
    1    1    2 2     
    2    2    3 1     
    3    2    8 am    
    4    3    7 1     
    5    3    4 1     
    6    3   24 1     
    7    4    5 1     
    8    4   25 1     
    9    4   26 1     
   10    5    6 1     
   11    5   27 1     
   12    5   28 1     
   13    6    7 1     
   14    6   29 1     
   15    6   30 1     
   16    7   31 1     
   17    7   32 1     
   18    8   23 1     
   19    8    9 1     
   20    9   10 1     
   21    9   33 1     
   22    9   34 1     
   23   10   11 1     
   24   10   23 1     
   25   10   35 1     
   26   11   12 2     
   27   11   13 2     
   28   11   14 1     
   29   14   15 1     
   30   14   36 1     
   31   15   16 1     
   32   15   37 1     
   33   15   38 1     
   34   16   17 1     
   35   16   39 1     
   36   16   40 1     
   37   17   22 ar    
   38   17   18 ar    
   39   18   19 ar    
   40   18   41 1     
   41   19   20 ar    
   42   19   42 1     
   43   20   21 ar    
   44   20   43 1     
   45   21   22 ar    
   46   22   44 1     
   47   23   45 1     
   48   23   46 1     
   49    1   47 1     
   50    1   48 1     
   51   14   49 1     
   52   21   50 1     
@<TRIPOS>SUBSTRUCTURE
      1 S1             1
@<TRIPOS>SET
LONE_PAIRS      STATIC     ATOMS    <user>   **** ""
6 47 48 12 13 49 50
DONOR_HYDROGENS      STATIC     ATOMS    <user>   **** ""
1 36
ATOM$BLUE        STATIC     ATOMS    COLORGROUP SYSTEM
6 47 48 12 13 49 50
ATOM$RED        STATIC     ATOMS    COLORGROUP SYSTEM
1 36
