AV-unprocessed.smi:2845|AV-procd|sdf|10948|dock8
  -GOLD-   2272015403D 1   1.00000     0.00000
 Structure written by MMmdl.
 43 45  0  0  0  0  0  0  0  0  2 V2000
  153.1026  142.6754  161.4981 C   0  0  0  0  0  0  0  0  0  0  0  0
  152.5473  142.3342  160.1258 C   0  0  0  0  0  0  0  0  0  0  0  0
  152.6327  140.9966  159.6763 C   0  0  0  0  0  0  0  0  0  0  0  0
  152.1142  140.7159  158.4176 C   0  0  0  0  0  0  0  0  0  0  0  0
  152.0446  139.5191  157.7002 N   0  3  0  0  0  0  0  0  0  0  0  0
  151.4398  139.7423  156.5000 C   0  0  0  0  0  0  0  0  0  0  0  0
  151.1259  141.0648  156.4405 N   0  0  0  0  0  0  0  0  0  0  0  0
  150.4630  141.8378  155.3835 C   0  0  0  0  0  0  0  0  0  0  0  0
  149.0109  141.3753  155.1350 C   0  0  1  0  0  0  0  0  0  0  0  0
  148.3104  142.3843  154.4364 O   0  0  0  0  0  0  0  0  0  0  0  0
  148.9102  140.0567  154.3404 C   0  0  0  0  0  0  0  0  0  0  0  0
  149.1809  138.8814  155.1515 N   0  0  0  0  0  0  0  0  0  0  0  0
  149.7192  137.7033  154.8214 C   0  0  0  0  0  0  0  0  0  0  0  0
  149.8104  136.8487  155.8329 N   0  0  0  0  0  0  0  0  0  0  0  0
  149.2576  137.6201  156.8133 C   0  0  0  0  0  0  0  0  0  0  0  0
  149.1219  137.0335  158.5306 S   0  0  1  0  0  0  0  0  0  0  0  0
  147.2783  137.2075  158.6248 C   0  0  0  0  0  0  0  0  0  0  0  0
  149.4219  135.5334  158.4885 O   0  0  0  0  0  0  0  0  0  0  0  0
  148.8434  138.8349  156.4626 N   0  0  0  0  0  0  0  0  0  0  0  0
  151.5261  141.7115  157.6144 C   0  0  0  0  0  0  0  0  0  0  0  0
  151.4349  143.0342  158.0409 C   0  0  0  0  0  0  0  0  0  0  0  0
  151.9567  143.3402  159.3175 C   0  0  0  0  0  0  0  0  0  0  0  0
  151.8723  144.7753  159.8087 C   0  0  0  0  0  0  0  0  0  0  0  0
  153.5304  141.7987  161.9854 H   0  0  0  0  0  0  0  0  0  0  0  0
  152.3145  143.0639  162.1436 H   0  0  0  0  0  0  0  0  0  0  0  0
  153.8877  143.4279  161.4181 H   0  0  0  0  0  0  0  0  0  0  0  0
  153.0815  140.2261  160.2862 H   0  0  0  0  0  0  0  0  0  0  0  0
  151.2452  139.0045  155.7346 H   0  0  0  0  0  0  0  0  0  0  0  0
  150.4838  142.8890  155.6746 H   0  0  0  0  0  0  0  0  0  0  0  0
  151.0723  141.7583  154.4827 H   0  0  0  0  0  0  0  0  0  0  0  0
  148.5047  141.2431  156.0920 H   0  0  0  0  0  0  0  0  0  0  0  0
  148.2160  143.1322  155.0059 H   0  0  0  0  0  0  0  0  0  0  0  0
  147.9138  139.9481  153.9101 H   0  0  0  0  0  0  0  0  0  0  0  0
  149.6145  140.0664  153.5070 H   0  0  0  0  0  0  0  0  0  0  0  0
  150.0605  137.4693  153.8237 H   0  0  0  0  0  0  0  0  0  0  0  0
  146.9663  138.1911  158.2730 H   0  0  0  0  0  0  0  0  0  0  0  0
  146.9426  137.0869  159.6544 H   0  0  0  0  0  0  0  0  0  0  0  0
  146.7928  136.4492  158.0107 H   0  0  0  0  0  0  0  0  0  0  0  0
  150.9874  143.8003  157.4256 H   0  0  0  0  0  0  0  0  0  0  0  0
  151.3939  145.4209  159.0724 H   0  0  0  0  0  0  0  0  0  0  0  0
  152.8686  145.1741  160.0010 H   0  0  0  0  0  0  0  0  0  0  0  0
  151.2909  144.8325  160.7289 H   0  0  0  0  0  0  0  0  0  0  0  0
  152.3823  138.6152  158.0055 H   0  0  0  0  0  0  0  0  0  0  0  0
  1  2  1  0  0  0  0
  1 24  1  0  0  0  0
  1 25  1  0  0  0  0
  1 26  1  0  0  0  0
  2 22  1  0  0  0  0
  2  3  2  0  0  0  0
  3  4  1  0  0  0  0
  3 27  1  0  0  0  0
  4 20  2  0  0  0  0
  4  5  1  0  0  0  0
  5  6  2  0  0  0  0
  5 43  1  0  0  0  0
  6  7  1  0  0  0  0
  6 28  1  0  0  0  0
  7  8  1  0  0  0  0
  7 20  1  0  0  0  0
  8  9  1  0  0  0  0
  8 29  1  0  0  0  0
  8 30  1  0  0  0  0
  9 10  1  0  0  0  0
  9 11  1  0  0  0  0
  9 31  1  0  0  0  0
 10 32  1  0  0  0  0
 11 12  1  0  0  0  0
 11 33  1  0  0  0  0
 11 34  1  0  0  0  0
 12 19  1  0  0  0  0
 12 13  1  0  0  0  0
 13 14  2  0  0  0  0
 13 35  1  0  0  0  0
 14 15  1  0  0  0  0
 15 16  1  0  0  0  0
 15 19  2  0  0  0  0
 16 17  1  0  0  0  0
 16 18  2  0  0  0  0
 17 36  1  0  0  0  0
 17 37  1  0  0  0  0
 17 38  1  0  0  0  0
 20 21  1  0  0  0  0
 21 22  2  0  0  0  0
 21 39  1  0  0  0  0
 22 23  1  0  0  0  0
 23 40  1  0  0  0  0
 23 41  1  0  0  0  0
 23 42  1  0  0  0  0
M  CHG  1   5   1
M  END
> <s_m_source_file>
AV-unprocessed.smi

> <i_m_source_file_index>
2845

> <i_lp_mmshare_version>
43012

> <i_f3d_flags>
0

> <s_epik_input>
W0NIM11jKFtjSF0xKWMoW0NIM10pW2NIXWMoYzEyKW4oW2NIXW4yKVtDSDJdW0NASF0oW09IXSlbQ0gyXW4zW2NIXW5jKG4zKVtTQF0oPU8pW0NIM10=

> <s_epik_cmdline>
J2VwaWtfcHl0aG9uJywgJy1waCcsICc3LjAnLCAnLXRuJywgJzgnLCAnLW1hJywgJzIwMCcsICctbWV0YWxfYmluZGluZycsICctaW1hZScsICc8aW5maWxlLm1hZT4nLCAnLW9tYWUnLCAnPG91dGZpbGUubWFlPic=

> <r_lp_tautomer_probability>
1

> <r_epik_Ionization_Penalty>
1.12076

> <r_epik_Ionization_Penalty_Charging>
1.12075

> <r_epik_Ionization_Penalty_Neutral>
1.54566e-06

> <r_epik_State_Penalty>
1.17957

> <r_epik_Charging_Adjusted_Penalty>
2.30033

> <i_epik_Tot_Q>
1

> <i_epik_Tot_abs_Q>
1

> <r_epik_Metal_State_Penalty>
1.26402

> <b_epik_Metal_Only>
0

> <s_lp_Force_Field>
OPLS_2005

> <r_lp_Energy>
13.65

> <b_lp_Chiralities_Consistent>
1

> <s_lp_Variant>
AV-unprocessed.smi:2845-6

> <Gold.Version>
5.8.1

> <Gold.Id.Protein>
6NUR|6NUR_protein|mol2

> <Gold.PLP.Fitness>
47.6630

> <Gold.PLP.PLP>
-40.1932

> <Gold.PLP.part.hbond>
-3.0000

> <Gold.PLP.part.metal>
0.0000

> <Gold.PLP.part.buried>
-4.5874

> <Gold.PLP.part.nonpolar>
-33.7730

> <Gold.PLP.part.repulsive>
0.1332

> <Gold.PLP.ligand.clash>
0.0000

> <Gold.PLP.ligand.torsion>
1.2715

> <Gold.PLP.Chemscore.Hbond>
2.0000

> <Gold.PLP.Chemscore.CHOScore>
0.9957

> <Gold.PLP.Chemscore.Metal>
0.0000

> <Gold.Chemscore.Hbonds>
donor molecule, donor type, donor heavy atom, donor atom, acceptor molecule, acceptor atom, score
      L1  H    10    32       P1  8028  0.99
      P1  H  6896  6907       L1    18  1.00
      L1  C    13    35       P1  7948  1.00

> <Gold.PLP.Chemscore.Internal.Correction>
1.0258

> <Gold.Rescore>
     Score         DG    S(hbond)    S(metal)    S(lipo)     H(rot)  DE(clash)    DE(int)     intcor
     13.82     -16.68       1.93        0.00     101.11       2.77       0.13       2.72       ----

> <Gold.Chemscore.Fitness>
13.8214

> <Gold.Chemscore.DG>
-16.6787

> <Gold.Chemscore.ZeroCoef>
-5.4800

> <Gold.Chemscore.Hbond>
1.9326

> <Gold.Chemscore.Metal>
0.0000

> <Gold.Chemscore.Lipo>
101.1108

> <Gold.Chemscore.Internal_Hbond>
0.0000

> <Gold.Chemscore.DEClash>
0.1334

> <Gold.Chemscore.DEInternal>
2.7239

> <Gold.Chemscore.Rot>
2.7681

> <Gold.Chemscore.Internal.Correction>
   9.000000E+99

> <Gold.Chemscore.Hbonds>
donor molecule, donor type, donor heavy atom, donor atom, acceptor molecule, acceptor atom, score
      L1  H    10    32       P1  8028  0.92
      P1  H  6896  6907       L1    18  1.00

> <Gold.Chemscore.Hbond.Weighted>
-6.4550

> <Gold.Chemscore.Metal.Weighted>
-0.0000

> <Gold.Chemscore.Lipo.Weighted>
-11.8300

> <Gold.Chemscore.Internal_Hbond.Weighted>
0.0000

> <Gold.Chemscore.DEClash.Weighted>
0.1334

> <Gold.Chemscore.DEInternal.Weighted>
2.7239

> <Gold.Chemscore.Rot.Weighted>
7.0863

> <Gold.Chemscore.Internal.Correction.Weighted>
   9.000000E+99

> <Gold.Protein.RotatedTorsions>
[ 6907 6896 6895 6894 ] final  -71.23 input  -60.11 | X-H torsion
[ 7974 7965 7964 7962 ] final   48.62 input  175.53 | X-H torsion
[ 8008 7997 7996 7995 ] final   -7.19 input   59.86 | X-H torsion
[ 10167 10162 10161 10158 ] final -105.06 input  -65.29 | X-H torsion
[ 10718 10713 10712 10709 ] final  102.78 input   66.30 | X-H torsion
[ 10763 10752 10751 10750 ] final -140.66 input  -60.55 | X-H torsion
[ 11005 11000 10999 10996 ] final  -54.85 input  -57.11 | X-H torsion

> <Gold.Protein.ActiveResidues>
 VAL166  LYS551  ARG553  GLY616  TRP617  ASP618  TYR619  PRO620  LYS621  CYS622 
 ASP623  PHE694  ASN695  SER759  ASP760  ASP761  ALA762  ILE779  LEU786  VAL792 
 PHE793  MET794  SER795  GLU796  ALA797  LYS798  CYS799  TRP800  GLU811  SER814 

> <Gold.Protein.RotatedAtoms>
  150.7221  134.5338  159.5713 H   0  0  0  0  0  0  0  0  0  0  0  0  # atno 6907 bound_to 6896
  152.2865  134.7767  160.0395 H   0  0  0  0  0  0  0  0  0  0  0  0  # atno 6908 bound_to 6896
  151.8396  133.3386  159.3675 H   0  0  0  0  0  0  0  0  0  0  0  0  # atno 6909 bound_to 6896
  146.0187  139.4626  142.9911 H   0  0  0  0  0  0  0  0  0  0  0  0  # atno 7974 bound_to 7965
  154.5863  140.2413  155.7983 H   0  0  0  0  0  0  0  0  0  0  0  0  # atno 8008 bound_to 7997
  156.2215  140.2996  155.9919 H   0  0  0  0  0  0  0  0  0  0  0  0  # atno 8009 bound_to 7997
  155.2453  140.0408  157.2970 H   0  0  0  0  0  0  0  0  0  0  0  0  # atno 8010 bound_to 7997
  140.2025  143.3807  152.1117 H   0  0  0  0  0  0  0  0  0  0  0  0  # atno 10167 bound_to 10162
  157.6792  131.0762  150.5455 H   0  0  0  0  0  0  0  0  0  0  0  0  # atno 10718 bound_to 10713
  154.8571  135.3546  154.5744 H   0  0  0  0  0  0  0  0  0  0  0  0  # atno 10763 bound_to 10752
  153.6356  135.7000  153.5264 H   0  0  0  0  0  0  0  0  0  0  0  0  # atno 10764 bound_to 10752
  153.3013  135.4205  155.1214 H   0  0  0  0  0  0  0  0  0  0  0  0  # atno 10765 bound_to 10752
  141.1046  133.6614  156.4382 H   0  0  0  0  0  0  0  0  0  0  0  0  # atno 11005 bound_to 11000
  145.7228  141.0069  143.1393 LP  0  0  0  0  0  0  0  0  0  0  0  0  # atno 17320 bound_to 7965
  144.6981  139.8891  143.7452 LP  0  0  0  0  0  0  0  0  0  0  0  0  # atno 17321 bound_to 7965
  139.5211  144.7042  151.5404 LP  0  0  0  0  0  0  0  0  0  0  0  0  # atno 17342 bound_to 10162
  140.6380  143.8946  150.6665 LP  0  0  0  0  0  0  0  0  0  0  0  0  # atno 17343 bound_to 10162
  156.5761  130.4292  149.5998 LP  0  0  0  0  0  0  0  0  0  0  0  0  # atno 17370 bound_to 10713
  156.2700  130.7011  151.1806 LP  0  0  0  0  0  0  0  0  0  0  0  0  # atno 17371 bound_to 10713
  140.4936  134.6552  157.5220 LP  0  0  0  0  0  0  0  0  0  0  0  0  # atno 17394 bound_to 11000
  139.9910  134.6985  155.9689 LP  0  0  0  0  0  0  0  0  0  0  0  0  # atno 17395 bound_to 11000

$$$$
