#       Name:                AV-unprocessed.smi:1616
#       Creating user name   scv26
#       Creation time:       Fri Mar 27 07:14:25 2020


#       File generated by GOLD software.
#

@<TRIPOS>MOLECULE
AV-unprocessed.smi:1616
    44    45     1
SMALL
NO_CHARGES


@<TRIPOS>ATOM
      1 ****        -3.6674   2.6890   1.2979 C.3            1 S1                 0.0000
      2 ****        -3.1153   1.2891   1.3115 C.2            1 S1                 0.0000
      3 ****        -1.8284   1.1726   1.2901 N.2            1 S1                 0.0000
      4 ****        -1.2178  -0.0666   1.2933 N.am           1 S1                 0.0000
      5 ****         0.2507  -0.0093   1.2432 C.3            1 S1                 0.0000
      6 ****         0.8262  -0.1948  -0.1690 C.2            1 S1                 0.0000
      7 ****         0.0967  -0.1621  -1.1615 O.2            1 S1                 0.0000
      8 ****         2.1539  -0.3777  -0.2379 N.am           1 S1                 0.0000
      9 ****         2.9240  -0.5622  -1.4640 C.3            1 S1                 0.0000
     10 ****         2.9229  -2.0476  -1.8581 C.3            1 S1                 0.0000
     11 ****         4.3414  -0.0355  -1.3421 C.3            1 S1                 0.0000
     12 ****         4.6604   1.4151  -1.6138 C.3            1 S1                 0.0000
     13 ****         5.1399   0.3429  -2.5666 C.3            1 S1                 0.0000
     14 ****        -1.8805  -1.2589   1.3245 C.2            1 S1                 0.0000
     15 ****        -1.2943  -2.3425   1.3252 O.2            1 S1                 0.0000
     16 ****        -3.3383  -1.1192   1.3527 C.2            1 S1                 0.0000
     17 ****        -4.0719  -2.3432   1.3844 C.1            1 S1                 0.0000
     18 ****        -4.6853  -3.3247   1.4136 N.1            1 S1                 0.0000
     19 ****        -3.9493   0.0921   1.3469 C.2            1 S1                 0.0000
     20 ****        -5.4587   0.2918   1.3719 C.3            1 S1                 0.0000
     21 ****        -4.2427   2.8867   2.2027 H              1 S1                 0.0000
     22 ****        -4.3231   2.8378   0.4397 H              1 S1                 0.0000
     23 ****        -2.8760   3.4382   1.2403 H              1 S1                 0.0000
     24 ****         0.6008   0.9509   1.6268 H              1 S1                 0.0000
     25 ****         0.6794  -0.7615   1.9082 H              1 S1                 0.0000
     26 ****         2.6737  -0.3876   0.6277 H              1 S1                 0.0000
     27 ****         2.4413  -0.0022  -2.2673 H              1 S1                 0.0000
     28 ****         3.4654  -2.2057  -2.7908 H              1 S1                 0.0000
     29 ****         1.9080  -2.4189  -2.0042 H              1 S1                 0.0000
     30 ****         3.3950  -2.6622  -1.0908 H              1 S1                 0.0000
     31 ****         4.9103  -0.5021  -0.5397 H              1 S1                 0.0000
     32 ****         3.8496   2.0588  -1.9492 H              1 S1                 0.0000
     33 ****         5.4033   1.8934  -0.9790 H              1 S1                 0.0000
     34 ****         6.2020   0.1072  -2.5659 H              1 S1                 0.0000
     35 ****         4.6475   0.2763  -3.5347 H              1 S1                 0.0000
     36 ****        -5.9990  -0.6519   1.4398 H              1 S1                 0.0000
     37 ****        -5.7918   0.7961   0.4644 H              1 S1                 0.0000
     38 ****        -5.7524   0.8973   2.2300 H              1 S1                 0.0000
     39 ****        -1.2626   1.9970   1.2708 LP             1 S1                 0.0000
     40 ****        -0.8863  -0.0129  -1.0548 LP             1 S1                 0.0000
     41 ****         0.4877  -0.2847  -2.0737 LP             1 S1                 0.0000
     42 ****        -0.2950  -2.3703   1.3023 LP             1 S1                 0.0000
     43 ****        -1.8178  -3.1942   1.3486 LP             1 S1                 0.0000
     44 ****        -5.2151  -4.1724   1.4388 LP             1 S1                 0.0000
@<TRIPOS>BOND
    1    1    2 1     
    2    1   21 1     
    3    1   22 1     
    4    1   23 1     
    5    2   19 1     
    6    2    3 2     
    7    3    4 1     
    8    4    5 1     
    9    4   14 am    
   10    5    6 1     
   11    5   24 1     
   12    5   25 1     
   13    6    7 2     
   14    6    8 am    
   15    8    9 1     
   16    8   26 1     
   17    9   10 1     
   18    9   11 1     
   19    9   27 1     
   20   10   28 1     
   21   10   29 1     
   22   10   30 1     
   23   11   13 1     
   24   11   12 1     
   25   11   31 1     
   26   12   13 1     
   27   12   32 1     
   28   12   33 1     
   29   13   34 1     
   30   13   35 1     
   31   14   15 2     
   32   14   16 1     
   33   16   17 1     
   34   16   19 2     
   35   17   18 3     
   36   19   20 1     
   37   20   36 1     
   38   20   37 1     
   39   20   38 1     
   40    3   39 1     
   41    7   40 1     
   42    7   41 1     
   43   15   42 1     
   44   15   43 1     
   45   18   44 1     
@<TRIPOS>SUBSTRUCTURE
      1 S1             1
@<TRIPOS>SET
LONE_PAIRS      STATIC     ATOMS    <user>   **** ""
6 39 40 41 42 43 44
DONOR_HYDROGENS      STATIC     ATOMS    <user>   **** ""
1 26
ATOM$BLUE        STATIC     ATOMS    COLORGROUP SYSTEM
6 39 40 41 42 43 44
ATOM$RED        STATIC     ATOMS    COLORGROUP SYSTEM
1 26
