AV-unprocessed.smi:1593|AV-procd|sdf|6413|dock4
  -GOLD-   22720 7 43D 1   1.00000     0.00000
 Structure written by MMmdl.
 36 37  0  0  0  0  0  0  0  0  3 V2000
  150.7506  141.8687  157.8603 C   0  0  0  0  0  0  0  0  0  0  0  0
  150.3819  141.2504  156.5556 C   0  0  0  0  0  0  0  0  0  0  0  0
  149.2754  141.3466  155.7597 C   0  0  0  0  0  0  0  0  0  0  0  0
  149.5911  140.4968  154.6661 C   0  0  0  0  0  0  0  0  0  0  0  0
  148.6773  140.3298  153.5921 N   0  0  0  0  0  0  0  0  0  0  0  0
  147.3819  140.6879  153.5245 C   0  0  0  0  0  0  0  0  0  0  0  0
  146.8504  141.2885  154.4663 O   0  0  0  0  0  0  0  0  0  0  0  0
  146.8060  140.3148  152.3486 N   0  5  0  0  0  0  0  0  0  0  0  0
  146.8017  138.9516  151.8227 C   0  0  0  0  0  0  0  0  0  0  0  0
  146.4171  137.9641  152.9411 C   0  0  0  0  0  0  0  0  0  0  0  0
  146.5248  136.5494  152.4950 N   0  3  0  0  0  0  0  0  0  0  0  0
  146.2960  135.5762  153.5906 C   0  0  0  0  0  0  0  0  0  0  0  0
  146.5092  134.1398  153.0833 C   0  0  0  0  0  0  0  0  0  0  0  0
  145.6459  133.8869  151.9816 O   0  0  0  0  0  0  0  0  0  0  0  0
  145.9050  134.7607  150.8896 C   0  0  0  0  0  0  0  0  0  0  0  0
  145.6677  136.2155  151.3266 C   0  0  0  0  0  0  0  0  0  0  0  0
  150.7837  139.9322  154.7859 N   0  0  0  0  0  0  0  0  0  0  0  0
  151.2962  140.4120  155.9969 O   0  0  0  0  0  0  0  0  0  0  0  0
  149.9577  142.5258  158.2183 H   0  0  0  0  0  0  0  0  0  0  0  0
  151.6615  142.4596  157.7636 H   0  0  0  0  0  0  0  0  0  0  0  0
  150.9220  141.1023  158.6162 H   0  0  0  0  0  0  0  0  0  0  0  0
  148.3851  141.9324  155.9329 H   0  0  0  0  0  0  0  0  0  0  0  0
  149.0453  139.8651  152.7756 H   0  0  0  0  0  0  0  0  0  0  0  0
  146.1006  138.8323  150.9956 H   0  0  0  0  0  0  0  0  0  0  0  0
  147.7789  138.6731  151.4263 H   0  0  0  0  0  0  0  0  0  0  0  0
  147.0891  138.1332  153.7844 H   0  0  0  0  0  0  0  0  0  0  0  0
  145.4108  138.1640  153.3131 H   0  0  0  0  0  0  0  0  0  0  0  0
  146.9821  135.7761  154.4145 H   0  0  0  0  0  0  0  0  0  0  0  0
  145.2827  135.6924  153.9786 H   0  0  0  0  0  0  0  0  0  0  0  0
  147.5485  133.9809  152.7908 H   0  0  0  0  0  0  0  0  0  0  0  0
  146.2887  133.4248  153.8760 H   0  0  0  0  0  0  0  0  0  0  0  0
  146.9263  134.6228  150.5306 H   0  0  0  0  0  0  0  0  0  0  0  0
  145.2399  134.5029  150.0653 H   0  0  0  0  0  0  0  0  0  0  0  0
  144.6183  136.3585  151.5890 H   0  0  0  0  0  0  0  0  0  0  0  0
  145.8812  136.8851  150.4929 H   0  0  0  0  0  0  0  0  0  0  0  0
  147.4841  136.4248  152.2044 H   0  0  0  0  0  0  0  0  0  0  0  0
  1  2  1  0  0  0  0
  1 19  1  0  0  0  0
  1 20  1  0  0  0  0
  1 21  1  0  0  0  0
  2 18  1  0  0  0  0
  2  3  2  0  0  0  0
  3  4  1  0  0  0  0
  3 22  1  0  0  0  0
  4  5  1  0  0  0  0
  4 17  2  0  0  0  0
  5  6  1  0  0  0  0
  5 23  1  0  0  0  0
  6  7  2  0  0  0  0
  6  8  1  0  0  0  0
  8  9  1  0  0  0  0
  9 10  1  0  0  0  0
  9 24  1  0  0  0  0
  9 25  1  0  0  0  0
 10 11  1  0  0  0  0
 10 26  1  0  0  0  0
 10 27  1  0  0  0  0
 11 16  1  0  0  0  0
 11 12  1  0  0  0  0
 11 36  1  0  0  0  0
 12 13  1  0  0  0  0
 12 28  1  0  0  0  0
 12 29  1  0  0  0  0
 13 14  1  0  0  0  0
 13 30  1  0  0  0  0
 13 31  1  0  0  0  0
 14 15  1  0  0  0  0
 15 16  1  0  0  0  0
 15 32  1  0  0  0  0
 15 33  1  0  0  0  0
 16 34  1  0  0  0  0
 16 35  1  0  0  0  0
 17 18  1  0  0  0  0
M  CHG  1   8  -1
M  CHG  1  11   1
M  END
> <s_m_source_file>
AV-unprocessed.smi

> <i_m_source_file_index>
1593

> <i_lp_mmshare_version>
43012

> <i_f3d_flags>
0

> <s_epik_input>
W0NIM11jMVtjSF1jKG5vMSlbTkhdQyg9TylbTkhdW0NIMl1bQ0gyXU4yW0NIMl1bQ0gyXU9bQ0gyXVtDSDJdMg==

> <s_epik_cmdline>
J2VwaWtfcHl0aG9uJywgJy1waCcsICc3LjAnLCAnLXRuJywgJzgnLCAnLW1hJywgJzIwMCcsICctbWV0YWxfYmluZGluZycsICctaW1hZScsICc8aW5maWxlLm1hZT4nLCAnLW9tYWUnLCAnPG91dGZpbGUubWFlPic=

> <r_epik_Ionization_Penalty>
6.79272

> <r_epik_Ionization_Penalty_Charging>
6.79272

> <r_epik_Ionization_Penalty_Neutral>
5.6208e-06

> <r_epik_State_Penalty>
7.45901

> <r_epik_Charging_Adjusted_Penalty>
14.2517

> <i_epik_Tot_Q>
0

> <i_epik_Tot_abs_Q>
2

> <r_epik_Metal_State_Penalty>
3.38639

> <b_epik_Metal_Only>
1

> <s_lp_Force_Field>
OPLS_2005

> <r_lp_Energy>
12.9182

> <b_lp_Chiralities_Consistent>
1

> <s_lp_Variant>
AV-unprocessed.smi:1593-5

> <Gold.Version>
5.8.1

> <Gold.Id.Protein>
6NUR|6NUR_protein|mol2

> <Gold.PLP.Fitness>
40.0651

> <Gold.PLP.PLP>
-29.3522

> <Gold.PLP.part.hbond>
-3.4563

> <Gold.PLP.part.metal>
0.0000

> <Gold.PLP.part.buried>
-3.0005

> <Gold.PLP.part.nonpolar>
-24.7148

> <Gold.PLP.part.repulsive>
1.6401

> <Gold.PLP.ligand.clash>
0.0366

> <Gold.PLP.ligand.torsion>
0.6330

> <Gold.PLP.Chemscore.Hbond>
3.9440

> <Gold.PLP.Chemscore.CHOScore>
0.0000

> <Gold.PLP.Chemscore.Metal>
0.0000

> <Gold.Chemscore.Hbonds>
donor molecule, donor type, donor heavy atom, donor atom, acceptor molecule, acceptor atom, score
      L1  H     5    23       P1  7957  0.93
      L1  H    11    36       P1  7948  1.89
      P1  H  7989  7998       L1    17  0.90

> <Gold.PLP.Chemscore.Internal.Correction>
0.1836

> <Gold.Rescore>
     Score         DG    S(hbond)    S(metal)    S(lipo)     H(rot)  DE(clash)    DE(int)     intcor
     14.07     -16.39       2.88        0.00      46.54       1.62       0.18       2.14       ----

> <Gold.Chemscore.Fitness>
14.0691

> <Gold.Chemscore.DG>
-16.3914

> <Gold.Chemscore.ZeroCoef>
-5.4800

> <Gold.Chemscore.Hbond>
2.8803

> <Gold.Chemscore.Metal>
0.0000

> <Gold.Chemscore.Lipo>
46.5439

> <Gold.Chemscore.Internal_Hbond>
0.0000

> <Gold.Chemscore.DEClash>
0.1781

> <Gold.Chemscore.DEInternal>
2.1442

> <Gold.Chemscore.Rot>
1.6228

> <Gold.Chemscore.Internal.Correction>
   9.000000E+99

> <Gold.Chemscore.Hbonds>
donor molecule, donor type, donor heavy atom, donor atom, acceptor molecule, acceptor atom, score
      L1  H     5    23       P1  7957  0.91
      L1  H    11    36       P1  7948  0.90
      P1  H  7989  7998       L1    17  0.10

> <Gold.Chemscore.Hbond.Weighted>
-9.6200

> <Gold.Chemscore.Metal.Weighted>
-0.0000

> <Gold.Chemscore.Lipo.Weighted>
-5.4456

> <Gold.Chemscore.Internal_Hbond.Weighted>
0.0000

> <Gold.Chemscore.DEClash.Weighted>
0.1781

> <Gold.Chemscore.DEInternal.Weighted>
2.1442

> <Gold.Chemscore.Rot.Weighted>
4.1542

> <Gold.Chemscore.Internal.Correction.Weighted>
   9.000000E+99

> <Gold.Protein.RotatedTorsions>
[ 6907 6896 6895 6894 ] final -141.74 input  -60.11 | X-H torsion
[ 7974 7965 7964 7962 ] final  127.11 input  175.53 | X-H torsion
[ 8008 7997 7996 7995 ] final   29.54 input   59.86 | X-H torsion
[ 10167 10162 10161 10158 ] final -144.94 input  -65.29 | X-H torsion
[ 10718 10713 10712 10709 ] final  159.98 input   66.30 | X-H torsion
[ 10763 10752 10751 10750 ] final   32.29 input  -60.55 | X-H torsion
[ 11005 11000 10999 10996 ] final  145.37 input  -57.11 | X-H torsion

> <Gold.Protein.ActiveResidues>
 VAL166  LYS551  ARG553  GLY616  TRP617  ASP618  TYR619  PRO620  LYS621  CYS622 
 ASP623  PHE694  ASN695  SER759  ASP760  ASP761  ALA762  ILE779  LEU786  VAL792 
 PHE793  MET794  SER795  GLU796  ALA797  LYS798  CYS799  TRP800  GLU811  SER814 

> <Gold.Protein.RotatedAtoms>
  151.0777  133.5415  159.2622 H   0  0  0  0  0  0  0  0  0  0  0  0  # atno 6907 bound_to 6896
  151.2330  135.0560  159.9005 H   0  0  0  0  0  0  0  0  0  0  0  0  # atno 6908 bound_to 6896
  152.5420  134.0563  159.8186 H   0  0  0  0  0  0  0  0  0  0  0  0  # atno 6909 bound_to 6896
  145.0542  139.3858  143.5039 H   0  0  0  0  0  0  0  0  0  0  0  0  # atno 7974 bound_to 7965
  155.0761  140.3205  155.4615 H   0  0  0  0  0  0  0  0  0  0  0  0  # atno 8008 bound_to 7997
  156.2779  140.2103  156.5834 H   0  0  0  0  0  0  0  0  0  0  0  0  # atno 8009 bound_to 7997
  154.7016  140.0506  157.0450 H   0  0  0  0  0  0  0  0  0  0  0  0  # atno 8010 bound_to 7997
  139.7852  143.8044  152.2643 H   0  0  0  0  0  0  0  0  0  0  0  0  # atno 10167 bound_to 10162
  157.1567  131.0577  151.2253 H   0  0  0  0  0  0  0  0  0  0  0  0  # atno 10718 bound_to 10713
  153.0270  135.6417  154.1332 H   0  0  0  0  0  0  0  0  0  0  0  0  # atno 10763 bound_to 10752
  154.1059  135.2856  155.3243 H   0  0  0  0  0  0  0  0  0  0  0  0  # atno 10764 bound_to 10752
  154.6365  135.5474  153.7803 H   0  0  0  0  0  0  0  0  0  0  0  0  # atno 10765 bound_to 10752
  140.0706  134.9153  157.1339 H   0  0  0  0  0  0  0  0  0  0  0  0  # atno 11005 bound_to 11000
  146.3520  140.0207  142.8659 LP  0  0  0  0  0  0  0  0  0  0  0  0  # atno 17320 bound_to 7965
  145.1489  140.9612  143.4444 LP  0  0  0  0  0  0  0  0  0  0  0  0  # atno 17321 bound_to 7965
  139.8119  144.7332  150.9686 LP  0  0  0  0  0  0  0  0  0  0  0  0  # atno 17342 bound_to 10162
  140.7819  143.4242  151.0793 LP  0  0  0  0  0  0  0  0  0  0  0  0  # atno 17343 bound_to 10162
  157.4171  130.7417  149.6884 LP  0  0  0  0  0  0  0  0  0  0  0  0  # atno 17370 bound_to 10713
  155.9761  130.4080  150.3804 LP  0  0  0  0  0  0  0  0  0  0  0  0  # atno 17371 bound_to 10713
  140.3632  134.2471  155.7185 LP  0  0  0  0  0  0  0  0  0  0  0  0  # atno 17394 bound_to 11000
  141.2010  133.7973  157.0460 LP  0  0  0  0  0  0  0  0  0  0  0  0  # atno 17395 bound_to 11000

$$$$
