#       Name:                AV-unprocessed.smi:1570
#       Creating user name   scv26
#       Creation time:       Fri Mar 27 06:53:08 2020


#       File generated by GOLD software.
#

@<TRIPOS>MOLECULE
AV-unprocessed.smi:1570
    58    60     1
SMALL
NO_CHARGES


@<TRIPOS>ATOM
      1 ****        -2.4959   3.2962   2.0067 C.3            1 S1                 0.0000
      2 ****        -3.6834   2.6505   1.2814 C.3            1 S1                 0.0000
      3 ****        -3.2301   1.6768   0.2917 N.am           1 S1                 0.0000
      4 ****        -3.0198   0.3557   0.4988 C.2            1 S1                 0.0000
      5 ****        -3.1911  -0.2472   1.5581 O.2            1 S1                 0.0000
      6 ****        -2.5492  -0.1813  -0.6519 N.am           1 S1                 0.0000
      7 ****        -2.1435  -1.5699  -0.8667 C.3            1 S1                 0.0000
      8 ****        -0.6134  -1.7455  -0.7833 C.3            1 S1                 0.0000
      9 ****        -0.3041  -3.0576  -1.2072 O.3            1 S1                 0.0000
     10 ****        -0.0533  -1.5434   0.6418 C.3            1 S1                 0.0000
     11 ****         1.4297  -1.5866   0.6854 N.4            1 S1                 1.0000
     12 ****         2.0717  -0.3390   0.2054 C.3            1 S1                 0.0000
     13 ****         3.6030  -0.4913   0.1969 C.3            1 S1                 0.0000
     14 ****         4.3056   0.8087  -0.2101 C.3            1 S1                 0.0000
     15 ****         4.0521  -0.8428   1.5029 O.3            1 S1                 0.0000
     16 ****         3.4820  -2.0400   2.0314 C.3            1 S1                 0.0000
     17 ****         4.0213  -3.3008   1.3330 C.3            1 S1                 0.0000
     18 ****         1.9436  -1.9440   2.0285 C.3            1 S1                 0.0000
     19 ****        -2.4438   0.8289  -1.6187 C.ar           1 S1                 0.0000
     20 ****        -1.9993   0.7898  -2.9517 C.ar           1 S1                 0.0000
     21 ****        -2.0045   2.0079  -3.6708 C.ar           1 S1                 0.0000
     22 ****        -2.4414   3.2115  -3.0589 C.ar           1 S1                 0.0000
     23 ****        -2.8832   3.2226  -1.7150 C.ar           1 S1                 0.0000
     24 ****        -2.8703   1.9981  -1.0247 C.ar           1 S1                 0.0000
     25 ****        -2.8398   4.0212   2.7442 H              1 S1                 0.0000
     26 ****        -1.8425   3.8186   1.3073 H              1 S1                 0.0000
     27 ****        -1.8987   2.5487   2.5298 H              1 S1                 0.0000
     28 ****        -4.3405   2.1662   2.0053 H              1 S1                 0.0000
     29 ****        -4.2854   3.4167   0.7925 H              1 S1                 0.0000
     30 ****        -2.6413  -2.2267  -0.1511 H              1 S1                 0.0000
     31 ****        -2.5015  -1.8763  -1.8507 H              1 S1                 0.0000
     32 ****        -0.1455  -1.0558  -1.4846 H              1 S1                 0.0000
     33 ****        -0.6525  -3.1842  -2.0771 H              1 S1                 0.0000
     34 ****        -0.3804  -0.5929   1.0634 H              1 S1                 0.0000
     35 ****        -0.4669  -2.3188   1.2890 H              1 S1                 0.0000
     36 ****         1.7299  -0.0959  -0.7998 H              1 S1                 0.0000
     37 ****         1.7790   0.4920   0.8494 H              1 S1                 0.0000
     38 ****         3.8905  -1.2665  -0.5136 H              1 S1                 0.0000
     39 ****         4.0097   1.1182  -1.2127 H              1 S1                 0.0000
     40 ****         5.3886   0.6839  -0.2077 H              1 S1                 0.0000
     41 ****         4.0631   1.6209   0.4758 H              1 S1                 0.0000
     42 ****         3.8077  -2.0945   3.0706 H              1 S1                 0.0000
     43 ****         3.6754  -4.2011   1.8410 H              1 S1                 0.0000
     44 ****         5.1113  -3.3153   1.3457 H              1 S1                 0.0000
     45 ****         3.6974  -3.3712   0.2950 H              1 S1                 0.0000
     46 ****         1.6219  -1.1852   2.7436 H              1 S1                 0.0000
     47 ****         1.5122  -2.8902   2.3577 H              1 S1                 0.0000
     48 ****        -1.6654  -0.1285  -3.4114 H              1 S1                 0.0000
     49 ****        -1.6708   2.0227  -4.6979 H              1 S1                 0.0000
     50 ****        -2.4362   4.1308  -3.6258 H              1 S1                 0.0000
     51 ****        -3.2139   4.1361  -1.2434 H              1 S1                 0.0000
     52 ****         1.7123  -2.3312   0.0637 H              1 S1                 0.0000
     53 ****        -3.5147   0.2445   2.3665 LP             1 S1                 0.0000
     54 ****        -3.0067  -1.2286   1.6103 LP             1 S1                 0.0000
     55 ****        -0.7148  -3.7196  -0.5803 LP             1 S1                 0.0000
     56 ****         0.6880  -3.1821  -1.2204 LP             1 S1                 0.0000
     57 ****         3.8258  -0.0910   2.1222 LP             1 S1                 0.0000
     58 ****         5.0447  -0.9597   1.4693 LP             1 S1                 0.0000
@<TRIPOS>BOND
    1    1    2 1     
    2    1   25 1     
    3    1   26 1     
    4    1   27 1     
    5    2    3 1     
    6    2   28 1     
    7    2   29 1     
    8    3   24 1     
    9    3    4 am    
   10    4    5 2     
   11    4    6 am    
   12    6    7 1     
   13    6   19 1     
   14    7    8 1     
   15    7   30 1     
   16    7   31 1     
   17    8    9 1     
   18    8   10 1     
   19    8   32 1     
   20    9   33 1     
   21   10   11 1     
   22   10   34 1     
   23   10   35 1     
   24   11   18 1     
   25   11   12 1     
   26   11   52 1     
   27   12   13 1     
   28   12   36 1     
   29   12   37 1     
   30   13   14 1     
   31   13   15 1     
   32   13   38 1     
   33   14   39 1     
   34   14   40 1     
   35   14   41 1     
   36   15   16 1     
   37   16   17 1     
   38   16   18 1     
   39   16   42 1     
   40   17   43 1     
   41   17   44 1     
   42   17   45 1     
   43   18   46 1     
   44   18   47 1     
   45   19   24 ar    
   46   19   20 ar    
   47   20   21 ar    
   48   20   48 1     
   49   21   22 ar    
   50   21   49 1     
   51   22   23 ar    
   52   22   50 1     
   53   23   24 ar    
   54   23   51 1     
   55    5   53 1     
   56    5   54 1     
   57    9   55 1     
   58    9   56 1     
   59   15   57 1     
   60   15   58 1     
@<TRIPOS>SUBSTRUCTURE
      1 S1             1
@<TRIPOS>SET
LONE_PAIRS      STATIC     ATOMS    <user>   **** ""
6 53 54 55 56 57 58
DONOR_HYDROGENS      STATIC     ATOMS    <user>   **** ""
2 33 52
ATOM$BLUE        STATIC     ATOMS    COLORGROUP SYSTEM
6 53 54 55 56 57 58
ATOM$RED        STATIC     ATOMS    COLORGROUP SYSTEM
2 33 52
