AV-unprocessed.smi:2090|AV-procd|sdf|8534|dock8
  -GOLD-   2272011253D 1   1.00000     0.00000
 Structure written by MMmdl.
 41 42  0  0  0  0  0  0  0  0  3 V2000
  151.3499  140.8650  156.5843 C   0  0  0  0  0  0  0  0  0  0  0  0
  151.7484  139.5927  155.9173 C   0  0  0  0  0  0  0  0  0  0  0  0
  151.0379  138.5061  155.4921 C   0  0  0  0  0  0  0  0  0  0  0  0
  152.0375  137.6607  154.9379 C   0  0  0  0  0  0  0  0  0  0  0  0
  151.8330  136.4515  154.3923 N   0  5  0  0  0  0  0  0  0  0  0  0
  150.9802  135.5780  154.9747 C   0  0  0  0  0  0  0  0  0  0  0  0
  150.8835  135.3404  156.1810 O   0  0  0  0  0  0  0  0  0  0  0  0
  150.1887  134.9368  154.1049 N   0  0  0  0  0  0  0  0  0  0  0  0
  149.1845  133.9445  154.4618 C   0  0  0  0  0  0  0  0  0  0  0  0
  147.7768  134.5552  154.3867 C   0  0  0  0  0  0  0  0  0  0  0  0
  147.1501  134.3563  153.0561 N   0  3  2  0  0  0  0  0  0  0  0  0
  145.7793  134.9250  152.9881 C   0  0  0  0  0  0  0  0  0  0  0  0
  145.2082  134.8326  151.5629 C   0  0  0  0  0  0  0  0  0  0  0  0
  145.2103  133.3821  151.0526 C   0  0  1  0  0  0  0  0  0  0  0  0
  144.6728  133.2835  149.6178 C   0  0  0  0  0  0  0  0  0  0  0  0
  146.6319  132.8069  151.1693 C   0  0  0  0  0  0  0  0  0  0  0  0
  147.1741  132.9404  152.6026 C   0  0  0  0  0  0  0  0  0  0  0  0
  153.2499  138.1801  155.0351 N   0  0  0  0  0  0  0  0  0  0  0  0
  153.0722  139.4230  155.6546 O   0  0  0  0  0  0  0  0  0  0  0  0
  150.6899  140.6670  157.4287 H   0  0  0  0  0  0  0  0  0  0  0  0
  150.8225  141.5160  155.8870 H   0  0  0  0  0  0  0  0  0  0  0  0
  152.2214  141.4036  156.9571 H   0  0  0  0  0  0  0  0  0  0  0  0
  149.9729  138.3428  155.5617 H   0  0  0  0  0  0  0  0  0  0  0  0
  150.2945  135.1606  153.1260 H   0  0  0  0  0  0  0  0  0  0  0  0
  149.2550  133.0920  153.7841 H   0  0  0  0  0  0  0  0  0  0  0  0
  149.4051  133.5804  155.4653 H   0  0  0  0  0  0  0  0  0  0  0  0
  147.1311  134.1477  155.1664 H   0  0  0  0  0  0  0  0  0  0  0  0
  147.8647  135.6242  154.5877 H   0  0  0  0  0  0  0  0  0  0  0  0
  145.1304  134.3991  153.6902 H   0  0  0  0  0  0  0  0  0  0  0  0
  145.7979  135.9714  153.2955 H   0  0  0  0  0  0  0  0  0  0  0  0
  144.1937  135.2323  151.5479 H   0  0  0  0  0  0  0  0  0  0  0  0
  145.7972  135.4620  150.8939 H   0  0  0  0  0  0  0  0  0  0  0  0
  144.5519  132.7944  151.6944 H   0  0  0  0  0  0  0  0  0  0  0  0
  145.2854  133.8588  148.9230 H   0  0  0  0  0  0  0  0  0  0  0  0
  143.6524  133.6627  149.5542 H   0  0  0  0  0  0  0  0  0  0  0  0
  144.6616  132.2490  149.2735 H   0  0  0  0  0  0  0  0  0  0  0  0
  146.6353  131.7570  150.8740 H   0  0  0  0  0  0  0  0  0  0  0  0
  147.2997  133.3239  150.4786 H   0  0  0  0  0  0  0  0  0  0  0  0
  148.1903  132.5487  152.6311 H   0  0  0  0  0  0  0  0  0  0  0  0
  146.5822  132.3285  153.2851 H   0  0  0  0  0  0  0  0  0  0  0  0
  147.7064  134.8861  152.4002 H   0  0  0  0  0  0  0  0  0  0  0  0
  1  2  1  0  0  0  0
  1 20  1  0  0  0  0
  1 21  1  0  0  0  0
  1 22  1  0  0  0  0
  2 19  1  0  0  0  0
  2  3  2  0  0  0  0
  3  4  1  0  0  0  0
  3 23  1  0  0  0  0
  4  5  1  0  0  0  0
  4 18  2  0  0  0  0
  5  6  1  0  0  0  0
  6  7  2  0  0  0  0
  6  8  1  0  0  0  0
  8  9  1  0  0  0  0
  8 24  1  0  0  0  0
  9 10  1  0  0  0  0
  9 25  1  0  0  0  0
  9 26  1  0  0  0  0
 10 11  1  0  0  0  0
 10 27  1  0  0  0  0
 10 28  1  0  0  0  0
 11 17  1  0  0  0  0
 11 12  1  0  0  0  0
 11 41  1  0  0  0  0
 12 13  1  0  0  0  0
 12 29  1  0  0  0  0
 12 30  1  0  0  0  0
 13 14  1  0  0  0  0
 13 31  1  0  0  0  0
 13 32  1  0  0  0  0
 14 15  1  0  0  0  0
 14 16  1  0  0  0  0
 14 33  1  0  0  0  0
 15 34  1  0  0  0  0
 15 35  1  0  0  0  0
 15 36  1  0  0  0  0
 16 17  1  0  0  0  0
 16 37  1  0  0  0  0
 16 38  1  0  0  0  0
 17 39  1  0  0  0  0
 17 40  1  0  0  0  0
 18 19  1  0  0  0  0
M  CHG  1   5  -1
M  CHG  1  11   1
M  END
> <s_m_source_file>
AV-unprocessed.smi

> <i_m_source_file_index>
2090

> <i_lp_mmshare_version>
43012

> <i_f3d_flags>
0

> <s_epik_input>
W0NIM11jMVtjSF1jKG5vMSlbTkhdQyg9TylbTkhdW0NIMl1bQ0gyXU4yW0NIMl1bQ0gyXVtDSF0oW0NIM10pW0NIMl1bQ0gyXTI=

> <s_epik_cmdline>
J2VwaWtfcHl0aG9uJywgJy1waCcsICc3LjAnLCAnLXRuJywgJzgnLCAnLW1hJywgJzIwMCcsICctbWV0YWxfYmluZGluZycsICctaW1hZScsICc8aW5maWxlLm1hZT4nLCAnLW9tYWUnLCAnPG91dGZpbGUubWFlPic=

> <r_epik_Ionization_Penalty>
6.22503

> <r_epik_Ionization_Penalty_Charging>
6.22494

> <r_epik_Ionization_Penalty_Neutral>
9.3589e-05

> <r_epik_State_Penalty>
6.22491

> <r_epik_Charging_Adjusted_Penalty>
12.4498

> <i_epik_Tot_Q>
0

> <i_epik_Tot_abs_Q>
2

> <r_epik_Metal_State_Penalty>
2.16853

> <b_epik_Metal_Only>
1

> <s_lp_Force_Field>
OPLS_2005

> <r_lp_Energy>
5.4778

> <b_lp_Chiralities_Consistent>
1

> <s_lp_Variant>
AV-unprocessed.smi:2090-3

> <Gold.Version>
5.8.1

> <Gold.Id.Protein>
6NUR|6NUR_protein|mol2

> <Gold.PLP.Fitness>
45.1160

> <Gold.PLP.PLP>
-32.1053

> <Gold.PLP.part.hbond>
-5.5788

> <Gold.PLP.part.metal>
0.0000

> <Gold.PLP.part.buried>
-1.2268

> <Gold.PLP.part.nonpolar>
-24.1600

> <Gold.PLP.part.repulsive>
1.0101

> <Gold.PLP.ligand.clash>
0.0000

> <Gold.PLP.ligand.torsion>
1.0131

> <Gold.PLP.Chemscore.Hbond>
5.0000

> <Gold.PLP.Chemscore.CHOScore>
0.0000

> <Gold.PLP.Chemscore.Metal>
0.0000

> <Gold.Chemscore.Hbonds>
donor molecule, donor type, donor heavy atom, donor atom, acceptor molecule, acceptor atom, score
      L1  H    11    41       P1  7948  2.00
      P1  H  7997  8010       L1    19  1.00
      P1  H 10752 10764       L1     5  0.97

> <Gold.PLP.Chemscore.Internal.Correction>
0.0369

> <Gold.Rescore>
     Score         DG    S(hbond)    S(metal)    S(lipo)     H(rot)  DE(clash)    DE(int)     intcor
     15.75     -16.86       2.51        0.00      59.32       1.54       0.16       0.94       ----

> <Gold.Chemscore.Fitness>
15.7512

> <Gold.Chemscore.DG>
-16.8551

> <Gold.Chemscore.ZeroCoef>
-5.4800

> <Gold.Chemscore.Hbond>
2.5086

> <Gold.Chemscore.Metal>
0.0000

> <Gold.Chemscore.Lipo>
59.3236

> <Gold.Chemscore.Internal_Hbond>
0.0000

> <Gold.Chemscore.DEClash>
0.1650

> <Gold.Chemscore.DEInternal>
0.9389

> <Gold.Chemscore.Rot>
1.5409

> <Gold.Chemscore.Internal.Correction>
   9.000000E+99

> <Gold.Chemscore.Hbonds>
donor molecule, donor type, donor heavy atom, donor atom, acceptor molecule, acceptor atom, score
      L1  H    11    41       P1  7948  0.90
      P1  H  7997  8010       L1    19  0.91
      P1  H 10752 10764       L1     5  0.08

> <Gold.Chemscore.Hbond.Weighted>
-8.3789

> <Gold.Chemscore.Metal.Weighted>
-0.0000

> <Gold.Chemscore.Lipo.Weighted>
-6.9409

> <Gold.Chemscore.Internal_Hbond.Weighted>
0.0000

> <Gold.Chemscore.DEClash.Weighted>
0.1650

> <Gold.Chemscore.DEInternal.Weighted>
0.9389

> <Gold.Chemscore.Rot.Weighted>
3.9446

> <Gold.Chemscore.Internal.Correction.Weighted>
   9.000000E+99

> <Gold.Protein.RotatedTorsions>
[ 6907 6896 6895 6894 ] final   52.07 input  -60.11 | X-H torsion
[ 7974 7965 7964 7962 ] final -124.50 input  175.53 | X-H torsion
[ 8008 7997 7996 7995 ] final   85.39 input   59.86 | X-H torsion
[ 10167 10162 10161 10158 ] final -158.60 input  -65.29 | X-H torsion
[ 10718 10713 10712 10709 ] final   86.59 input   66.30 | X-H torsion
[ 10763 10752 10751 10750 ] final  -71.82 input  -60.55 | X-H torsion
[ 11005 11000 10999 10996 ] final  167.64 input  -57.11 | X-H torsion

> <Gold.Protein.ActiveResidues>
 VAL166  LYS551  ARG553  GLY616  TRP617  ASP618  TYR619  PRO620  LYS621  CYS622 
 ASP623  PHE694  ASN695  SER759  ASP760  ASP761  ALA762  ILE779  LEU786  VAL792 
 PHE793  MET794  SER795  GLU796  ALA797  LYS798  CYS799  TRP800  GLU811  SER814 

> <Gold.Protein.RotatedAtoms>
  152.3194  134.7399  160.0317 H   0  0  0  0  0  0  0  0  0  0  0  0  # atno 6907 bound_to 6896
  151.7853  133.3348  159.3491 H   0  0  0  0  0  0  0  0  0  0  0  0  # atno 6908 bound_to 6896
  150.7362  134.5824  159.5990 H   0  0  0  0  0  0  0  0  0  0  0  0  # atno 6909 bound_to 6896
  145.0075  140.7876  143.4459 H   0  0  0  0  0  0  0  0  0  0  0  0  # atno 7974 bound_to 7965
  155.9494  140.3402  155.6394 H   0  0  0  0  0  0  0  0  0  0  0  0  # atno 8008 bound_to 7997
  155.6940  140.0752  157.2455 H   0  0  0  0  0  0  0  0  0  0  0  0  # atno 8009 bound_to 7997
  154.4118  140.1652  156.2105 H   0  0  0  0  0  0  0  0  0  0  0  0  # atno 8010 bound_to 7997
  139.6680  143.9795  152.2266 H   0  0  0  0  0  0  0  0  0  0  0  0  # atno 10167 bound_to 10162
  157.6930  131.0221  150.2995 H   0  0  0  0  0  0  0  0  0  0  0  0  # atno 10718 bound_to 10713
  154.4371  135.5950  153.6105 H   0  0  0  0  0  0  0  0  0  0  0  0  # atno 10763 bound_to 10752
  152.9803  135.5989  154.3768 H   0  0  0  0  0  0  0  0  0  0  0  0  # atno 10764 bound_to 10752
  154.3613  135.2841  155.2297 H   0  0  0  0  0  0  0  0  0  0  0  0  # atno 10765 bound_to 10752
  140.2789  134.7766  157.3741 H   0  0  0  0  0  0  0  0  0  0  0  0  # atno 11005 bound_to 11000
  145.2069  139.2224  143.5163 LP  0  0  0  0  0  0  0  0  0  0  0  0  # atno 17320 bound_to 7965
  146.3464  140.1898  142.8589 LP  0  0  0  0  0  0  0  0  0  0  0  0  # atno 17321 bound_to 7965
  139.9552  144.6594  150.8133 LP  0  0  0  0  0  0  0  0  0  0  0  0  # atno 17342 bound_to 10162
  140.7607  143.3157  151.2739 LP  0  0  0  0  0  0  0  0  0  0  0  0  # atno 17343 bound_to 10162
  156.3513  130.3831  149.7326 LP  0  0  0  0  0  0  0  0  0  0  0  0  # atno 17370 bound_to 10713
  156.4803  130.8038  151.3052 LP  0  0  0  0  0  0  0  0  0  0  0  0  # atno 17371 bound_to 10713
  140.1302  134.5105  155.8111 LP  0  0  0  0  0  0  0  0  0  0  0  0  # atno 17394 bound_to 11000
  141.2166  133.6787  156.7026 LP  0  0  0  0  0  0  0  0  0  0  0  0  # atno 17395 bound_to 11000

$$$$
