AV-unprocessed.smi:2428|AV-procd|sdf|9581|dock1
  -GOLD-   2272013213D 1   1.00000     0.00000
 Structure written by MMmdl.
 30 31  0  0  0  0  0  0  0  0  1 V2000
  152.3672  144.5564  158.0903 F   0  0  0  0  0  0  0  0  0  0  0  0
  151.7903  143.9718  159.1393 C   0  0  0  0  0  0  0  0  0  0  0  0
  151.7884  144.8295  160.1602 F   0  0  0  0  0  0  0  0  0  0  0  0
  150.5259  143.6841  158.8297 F   0  0  0  0  0  0  0  0  0  0  0  0
  152.5438  142.6965  159.4807 C   0  0  0  0  0  0  0  0  0  0  0  0
  153.1932  142.5605  160.7249 C   0  0  0  0  0  0  0  0  0  0  0  0
  153.8779  141.3639  161.0125 C   0  0  0  0  0  0  0  0  0  0  0  0
  153.8908  140.3384  160.0446 C   0  0  0  0  0  0  0  0  0  0  0  0
  154.5727  139.1490  160.3351 N   0  0  0  0  0  0  0  0  0  0  0  0
  155.4360  139.0569  161.5035 C   0  0  0  0  0  0  0  0  0  0  0  0
  154.6939  138.4517  162.7017 C   0  0  1  0  0  0  0  0  0  0  0  0
  154.4552  136.9482  162.5795 C   0  0  0  0  0  0  0  0  0  0  0  0
  154.3415  136.4857  164.0242 C   0  0  0  0  0  0  0  0  0  0  0  0
  154.9086  137.6542  164.8360 C   0  0  0  0  0  0  0  0  0  0  0  0
  155.4857  138.5286  163.8763 O   0  0  0  0  0  0  0  0  0  0  0  0
  153.2644  140.4605  158.8502 N   0  0  0  0  0  0  0  0  0  0  0  0
  152.6093  141.6104  158.5809 C   0  0  0  0  0  0  0  0  0  0  0  0
  153.1672  143.3606  161.4499 H   0  0  0  0  0  0  0  0  0  0  0  0
  154.3830  141.2401  161.9595 H   0  0  0  0  0  0  0  0  0  0  0  0
  154.3190  138.2982  159.8542 H   0  0  0  0  0  0  0  0  0  0  0  0
  156.2922  138.4291  161.2535 H   0  0  0  0  0  0  0  0  0  0  0  0
  155.8220  140.0453  161.7569 H   0  0  0  0  0  0  0  0  0  0  0  0
  153.7438  138.9636  162.8686 H   0  0  0  0  0  0  0  0  0  0  0  0
  153.5724  136.7097  161.9856 H   0  0  0  0  0  0  0  0  0  0  0  0
  155.3154  136.4680  162.1107 H   0  0  0  0  0  0  0  0  0  0  0  0
  153.3048  136.2925  164.3025 H   0  0  0  0  0  0  0  0  0  0  0  0
  154.9093  135.5684  164.1853 H   0  0  0  0  0  0  0  0  0  0  0  0
  154.1097  138.1775  165.3633 H   0  0  0  0  0  0  0  0  0  0  0  0
  155.6483  137.3347  165.5701 H   0  0  0  0  0  0  0  0  0  0  0  0
  152.1239  141.6564  157.6176 H   0  0  0  0  0  0  0  0  0  0  0  0
  1  2  1  0  0  0  0
  2  3  1  0  0  0  0
  2  4  1  0  0  0  0
  2  5  1  0  0  0  0
  5 17  1  0  0  0  0
  5  6  2  0  0  0  0
  6  7  1  0  0  0  0
  6 18  1  0  0  0  0
  7  8  2  0  0  0  0
  7 19  1  0  0  0  0
  8  9  1  0  0  0  0
  8 16  1  0  0  0  0
  9 10  1  0  0  0  0
  9 20  1  0  0  0  0
 10 11  1  0  0  0  0
 10 21  1  0  0  0  0
 10 22  1  0  0  0  0
 11 15  1  0  0  0  0
 11 12  1  0  0  0  0
 11 23  1  0  0  0  0
 12 13  1  0  0  0  0
 12 24  1  0  0  0  0
 12 25  1  0  0  0  0
 13 14  1  0  0  0  0
 13 26  1  0  0  0  0
 13 27  1  0  0  0  0
 14 15  1  0  0  0  0
 14 28  1  0  0  0  0
 14 29  1  0  0  0  0
 16 17  2  0  0  0  0
 17 30  1  0  0  0  0
M  END
> <s_m_source_file>
AV-unprocessed.smi

> <i_m_source_file_index>
2428

> <i_lp_mmshare_version>
43012

> <i_f3d_flags>
0

> <s_epik_input>
RkMoRikoRiljMVtjSF1bY0hdYyhuW2NIXTEpW05IXVtDSDJdW0NAQEhdMltDSDJdW0NIMl1bQ0gyXU8y

> <s_epik_cmdline>
J2VwaWtfcHl0aG9uJywgJy1waCcsICc3LjAnLCAnLXRuJywgJzgnLCAnLW1hJywgJzIwMCcsICctbWV0YWxfYmluZGluZycsICctaW1hZScsICc8aW5maWxlLm1hZT4nLCAnLW9tYWUnLCAnPG91dGZpbGUubWFlPic=

> <r_lp_tautomer_probability>
1

> <r_epik_Ionization_Penalty>
0.000819842

> <r_epik_Ionization_Penalty_Charging>
0

> <r_epik_Ionization_Penalty_Neutral>
0.000819842

> <r_epik_State_Penalty>
0.000527207

> <r_epik_Charging_Adjusted_Penalty>
0.000527207

> <i_epik_Tot_Q>
0

> <i_epik_Tot_abs_Q>
0

> <r_epik_Metal_State_Penalty>
-0

> <b_epik_Metal_Only>
0

> <s_lp_Force_Field>
OPLS_2005

> <r_lp_Energy>
19.0115

> <b_lp_Chiralities_Consistent>
1

> <s_lp_Variant>
AV-unprocessed.smi:2428-2

> <Gold.Version>
5.8.1

> <Gold.Id.Protein>
6NUR|6NUR_protein|mol2

> <Gold.PLP.Fitness>
44.4725

> <Gold.PLP.PLP>
-44.6021

> <Gold.PLP.part.hbond>
-0.7568

> <Gold.PLP.part.metal>
0.0000

> <Gold.PLP.part.buried>
-4.5617

> <Gold.PLP.part.nonpolar>
-39.0449

> <Gold.PLP.part.repulsive>
0.0545

> <Gold.PLP.ligand.clash>
0.8064

> <Gold.PLP.ligand.torsion>
0.2930

> <Gold.PLP.Chemscore.Hbond>
0.3786

> <Gold.PLP.Chemscore.CHOScore>
0.0000

> <Gold.PLP.Chemscore.Metal>
0.0000

> <Gold.Chemscore.Hbonds>
donor molecule, donor type, donor heavy atom, donor atom, acceptor molecule, acceptor atom, score
      P1  H  7997  8009       L1    16  0.34

> <Gold.PLP.Chemscore.Internal.Correction>
0.1272

> <Gold.Rescore>
     Score         DG    S(hbond)    S(metal)    S(lipo)     H(rot)  DE(clash)    DE(int)     intcor
     13.97     -14.29       0.43        0.00      90.41       1.25       0.09       0.24       ----

> <Gold.Chemscore.Fitness>
13.9675

> <Gold.Chemscore.DG>
-14.2928

> <Gold.Chemscore.ZeroCoef>
-5.4800

> <Gold.Chemscore.Hbond>
0.4306

> <Gold.Chemscore.Metal>
0.0000

> <Gold.Chemscore.Lipo>
90.4103

> <Gold.Chemscore.Internal_Hbond>
0.0000

> <Gold.Chemscore.DEClash>
0.0872

> <Gold.Chemscore.DEInternal>
0.2381

> <Gold.Chemscore.Rot>
1.2514

> <Gold.Chemscore.Internal.Correction>
   9.000000E+99

> <Gold.Chemscore.Hbonds>
donor molecule, donor type, donor heavy atom, donor atom, acceptor molecule, acceptor atom, score
      P1  H  7997  8009       L1    16  0.16

> <Gold.Chemscore.Hbond.Weighted>
-1.4383

> <Gold.Chemscore.Metal.Weighted>
-0.0000

> <Gold.Chemscore.Lipo.Weighted>
-10.5780

> <Gold.Chemscore.Internal_Hbond.Weighted>
0.0000

> <Gold.Chemscore.DEClash.Weighted>
0.0872

> <Gold.Chemscore.DEInternal.Weighted>
0.2381

> <Gold.Chemscore.Rot.Weighted>
3.2036

> <Gold.Chemscore.Internal.Correction.Weighted>
   9.000000E+99

> <Gold.Protein.RotatedTorsions>
[ 6907 6896 6895 6894 ] final  -10.96 input  -60.11 | X-H torsion
[ 7974 7965 7964 7962 ] final   12.44 input  175.53 | X-H torsion
[ 8008 7997 7996 7995 ] final  148.78 input   59.86 | X-H torsion
[ 10167 10162 10161 10158 ] final -107.59 input  -65.29 | X-H torsion
[ 10718 10713 10712 10709 ] final  -49.59 input   66.30 | X-H torsion
[ 10763 10752 10751 10750 ] final   78.50 input  -60.55 | X-H torsion
[ 11005 11000 10999 10996 ] final  113.48 input  -57.11 | X-H torsion

> <Gold.Protein.ActiveResidues>
 VAL166  LYS551  ARG553  GLY616  TRP617  ASP618  TYR619  PRO620  LYS621  CYS622 
 ASP623  PHE694  ASN695  SER759  ASP760  ASP761  ALA762  ILE779  LEU786  VAL792 
 PHE793  MET794  SER795  GLU796  ALA797  LYS798  CYS799  TRP800  GLU811  SER814 

> <Gold.Protein.RotatedAtoms>
  151.3937  135.0960  159.9533 H   0  0  0  0  0  0  0  0  0  0  0  0  # atno 6907 bound_to 6896
  152.5072  133.8955  159.7425 H   0  0  0  0  0  0  0  0  0  0  0  0  # atno 6908 bound_to 6896
  150.9414  133.6596  159.2818 H   0  0  0  0  0  0  0  0  0  0  0  0  # atno 6909 bound_to 6896
  146.2351  139.9336  142.8493 H   0  0  0  0  0  0  0  0  0  0  0  0  # atno 7974 bound_to 7965
  156.2779  140.2119  156.5754 H   0  0  0  0  0  0  0  0  0  0  0  0  # atno 8008 bound_to 7997
  154.7102  140.0513  157.0566 H   0  0  0  0  0  0  0  0  0  0  0  0  # atno 8009 bound_to 7997
  155.0616  140.3167  155.4662 H   0  0  0  0  0  0  0  0  0  0  0  0  # atno 8010 bound_to 7997
  140.1753  143.4010  152.1323 H   0  0  0  0  0  0  0  0  0  0  0  0  # atno 10167 bound_to 10162
  156.1879  130.4152  149.9413 H   0  0  0  0  0  0  0  0  0  0  0  0  # atno 10718 bound_to 10713
  153.0879  135.4875  154.8632 H   0  0  0  0  0  0  0  0  0  0  0  0  # atno 10763 bound_to 10752
  154.7233  135.3044  154.9014 H   0  0  0  0  0  0  0  0  0  0  0  0  # atno 10764 bound_to 10752
  153.9672  135.6805  153.4799 H   0  0  0  0  0  0  0  0  0  0  0  0  # atno 10765 bound_to 10752
  139.8954  134.9550  156.6745 H   0  0  0  0  0  0  0  0  0  0  0  0  # atno 11005 bound_to 11000
  145.2021  140.9859  143.4150 LP  0  0  0  0  0  0  0  0  0  0  0  0  # atno 17320 bound_to 7965
  144.9765  139.3827  143.6283 LP  0  0  0  0  0  0  0  0  0  0  0  0  # atno 17321 bound_to 7965
  139.5320  144.7169  151.5024 LP  0  0  0  0  0  0  0  0  0  0  0  0  # atno 17342 bound_to 10162
  140.6555  143.8608  150.6831 LP  0  0  0  0  0  0  0  0  0  0  0  0  # atno 17343 bound_to 10162
  156.7163  130.8989  151.3614 LP  0  0  0  0  0  0  0  0  0  0  0  0  # atno 17370 bound_to 10713
  157.6910  130.9234  150.0514 LP  0  0  0  0  0  0  0  0  0  0  0  0  # atno 17371 bound_to 10713
  140.7347  133.9029  155.8236 LP  0  0  0  0  0  0  0  0  0  0  0  0  # atno 17394 bound_to 11000
  141.0125  134.1000  157.4206 LP  0  0  0  0  0  0  0  0  0  0  0  0  # atno 17395 bound_to 11000

$$$$
