AV-unprocessed.smi:3248|AV-procd|sdf|12416|dock5
  -GOLD-   2272018303D 1   1.00000     0.00000
 Structure written by MMmdl.
 38 39  0  0  0  0  0  0  0  0  1 V2000
  150.7360  141.5706  155.9960 C   0  0  0  0  0  0  0  0  0  0  0  0
  151.3390  140.7512  157.1447 C   0  0  1  0  0  0  0  0  0  0  0  0
  152.2534  139.6261  156.6171 C   0  0  0  0  0  0  0  0  0  0  0  0
  151.5664  138.7359  155.6973 N   0  0  0  0  0  0  0  0  0  0  0  0
  151.3312  137.3838  155.8295 C   0  0  0  0  0  0  0  0  0  0  0  0
  150.6708  136.9751  154.7067 C   0  0  0  0  0  0  0  0  0  0  0  0
  150.5443  138.1648  153.9366 C   0  0  0  0  0  0  0  0  0  0  0  0
  151.0788  139.2178  154.5332 N   0  0  0  0  0  0  0  0  0  0  0  0
  152.0848  141.6446  158.0297 N   0  0  0  0  0  0  0  0  0  0  0  0
  151.5519  142.5632  158.8544 C   0  0  0  0  0  0  0  0  0  0  0  0
  150.3513  142.8349  158.8593 O   0  0  0  0  0  0  0  0  0  0  0  0
  152.4804  143.2191  159.5919 N   0  0  0  0  0  0  0  0  0  0  0  0
  153.6509  142.5060  160.1242 C   0  0  0  0  0  0  0  0  0  0  0  0
  153.3209  142.0279  161.5518 C   0  0  0  0  0  0  0  0  0  0  0  0
  152.9755  143.1439  162.3689 O   0  0  0  0  0  0  0  0  0  0  0  0
  151.8759  143.8973  161.8615 C   0  0  0  0  0  0  0  0  0  0  0  0
  152.2114  144.3957  160.4413 C   0  0  2  0  0  0  0  0  0  0  0  0
  151.1599  145.3821  159.8914 C   0  0  0  0  0  0  0  0  0  0  0  0
  150.1486  140.9377  155.3302 H   0  0  0  0  0  0  0  0  0  0  0  0
  151.5120  142.0514  155.3995 H   0  0  0  0  0  0  0  0  0  0  0  0
  150.0749  142.3507  156.3750 H   0  0  0  0  0  0  0  0  0  0  0  0
  150.5077  140.2958  157.6858 H   0  0  0  0  0  0  0  0  0  0  0  0
  153.1074  140.0541  156.0907 H   0  0  0  0  0  0  0  0  0  0  0  0
  152.6600  139.0421  157.4447 H   0  0  0  0  0  0  0  0  0  0  0  0
  151.6561  136.8310  156.6987 H   0  0  0  0  0  0  0  0  0  0  0  0
  150.3316  135.9778  154.4699 H   0  0  0  0  0  0  0  0  0  0  0  0
  150.0842  138.2938  152.9682 H   0  0  0  0  0  0  0  0  0  0  0  0
  153.0862  141.5193  158.0575 H   0  0  0  0  0  0  0  0  0  0  0  0
  153.9469  141.6503  159.5161 H   0  0  0  0  0  0  0  0  0  0  0  0
  154.5149  143.1716  160.1385 H   0  0  0  0  0  0  0  0  0  0  0  0
  152.5003  141.3093  161.5422 H   0  0  0  0  0  0  0  0  0  0  0  0
  154.1816  141.5225  161.9896 H   0  0  0  0  0  0  0  0  0  0  0  0
  150.9702  143.2888  161.8640 H   0  0  0  0  0  0  0  0  0  0  0  0
  151.6971  144.7404  162.5292 H   0  0  0  0  0  0  0  0  0  0  0  0
  153.1402  144.9663  160.4988 H   0  0  0  0  0  0  0  0  0  0  0  0
  151.1727  146.3093  160.4649 H   0  0  0  0  0  0  0  0  0  0  0  0
  150.1452  144.9899  159.9536 H   0  0  0  0  0  0  0  0  0  0  0  0
  151.3639  145.6404  158.8521 H   0  0  0  0  0  0  0  0  0  0  0  0
  1  2  1  0  0  0  0
  1 19  1  0  0  0  0
  1 20  1  0  0  0  0
  1 21  1  0  0  0  0
  2  3  1  0  0  0  0
  2  9  1  0  0  0  0
  2 22  1  0  0  0  0
  3  4  1  0  0  0  0
  3 23  1  0  0  0  0
  3 24  1  0  0  0  0
  4  8  1  0  0  0  0
  4  5  1  0  0  0  0
  5  6  2  0  0  0  0
  5 25  1  0  0  0  0
  6  7  1  0  0  0  0
  6 26  1  0  0  0  0
  7  8  2  0  0  0  0
  7 27  1  0  0  0  0
  9 10  1  0  0  0  0
  9 28  1  0  0  0  0
 10 11  2  0  0  0  0
 10 12  1  0  0  0  0
 12 17  1  0  0  0  0
 12 13  1  0  0  0  0
 13 14  1  0  0  0  0
 13 29  1  0  0  0  0
 13 30  1  0  0  0  0
 14 15  1  0  0  0  0
 14 31  1  0  0  0  0
 14 32  1  0  0  0  0
 15 16  1  0  0  0  0
 16 17  1  0  0  0  0
 16 33  1  0  0  0  0
 16 34  1  0  0  0  0
 17 18  1  0  0  0  0
 17 35  1  0  0  0  0
 18 36  1  0  0  0  0
 18 37  1  0  0  0  0
 18 38  1  0  0  0  0
M  END
> <s_m_source_file>
AV-unprocessed.smi

> <i_m_source_file_index>
3248

> <i_lp_mmshare_version>
43012

> <i_f3d_flags>
0

> <s_epik_input>
bjFbY0hdW2NIXVtjSF1uMVtDSDJdW0NAQEhdKFtDSDNdKVtOSF1DKD1PKU4yW0NIMl1bQ0gyXU9bQ0gyXVtDQEhdMltDSDNd

> <s_epik_cmdline>
J2VwaWtfcHl0aG9uJywgJy1waCcsICc3LjAnLCAnLXRuJywgJzgnLCAnLW1hJywgJzIwMCcsICctbWV0YWxfYmluZGluZycsICctaW1hZScsICc8aW5maWxlLm1hZT4nLCAnLW9tYWUnLCAnPG91dGZpbGUubWFlPic=

> <r_lp_tautomer_probability>
1

> <r_epik_Ionization_Penalty>
4.45233e-05

> <r_epik_Ionization_Penalty_Charging>
0

> <r_epik_Ionization_Penalty_Neutral>
4.45233e-05

> <r_epik_State_Penalty>
-0

> <r_epik_Charging_Adjusted_Penalty>
0

> <i_epik_Tot_Q>
0

> <i_epik_Tot_abs_Q>
0

> <r_epik_Metal_State_Penalty>
-0

> <b_epik_Metal_Only>
0

> <s_lp_Force_Field>
OPLS_2005

> <r_lp_Energy>
30.7838

> <b_lp_Chiralities_Consistent>
1

> <s_lp_Variant>
AV-unprocessed.smi:3248-4

> <Gold.Version>
5.8.1

> <Gold.Id.Protein>
6NUR|6NUR_protein|mol2

> <Gold.PLP.Fitness>
46.5115

> <Gold.PLP.PLP>
-38.4919

> <Gold.PLP.part.hbond>
-1.3152

> <Gold.PLP.part.metal>
0.0000

> <Gold.PLP.part.buried>
-1.6744

> <Gold.PLP.part.nonpolar>
-36.2030

> <Gold.PLP.part.repulsive>
0.3810

> <Gold.PLP.ligand.clash>
0.0000

> <Gold.PLP.ligand.torsion>
0.4077

> <Gold.PLP.Chemscore.Hbond>
1.0000

> <Gold.PLP.Chemscore.CHOScore>
1.7708

> <Gold.PLP.Chemscore.Metal>
0.0000

> <Gold.Chemscore.Hbonds>
donor molecule, donor type, donor heavy atom, donor atom, acceptor molecule, acceptor atom, score
      P1  H  7989  7998       L1     8  1.00
      L1  C     7    27       P1  7948  0.74
      L1  C     7    27       P1  7957  0.99

> <Gold.PLP.Chemscore.Internal.Correction>
0.5224

> <Gold.Rescore>
     Score         DG    S(hbond)    S(metal)    S(lipo)     H(rot)  DE(clash)    DE(int)     intcor
     13.49     -16.76       1.00        0.00      99.02       1.42       0.15       3.12       ----

> <Gold.Chemscore.Fitness>
13.4882

> <Gold.Chemscore.DG>
-16.7570

> <Gold.Chemscore.ZeroCoef>
-5.4800

> <Gold.Chemscore.Hbond>
0.9952

> <Gold.Chemscore.Metal>
0.0000

> <Gold.Chemscore.Lipo>
99.0244

> <Gold.Chemscore.Internal_Hbond>
0.0000

> <Gold.Chemscore.DEClash>
0.1457

> <Gold.Chemscore.DEInternal>
3.1231

> <Gold.Chemscore.Rot>
1.4191

> <Gold.Chemscore.Internal.Correction>
   9.000000E+99

> <Gold.Chemscore.Hbonds>
donor molecule, donor type, donor heavy atom, donor atom, acceptor molecule, acceptor atom, score
      P1  H  7989  7998       L1     8  0.93

> <Gold.Chemscore.Hbond.Weighted>
-3.3241

> <Gold.Chemscore.Metal.Weighted>
-0.0000

> <Gold.Chemscore.Lipo.Weighted>
-11.5859

> <Gold.Chemscore.Internal_Hbond.Weighted>
0.0000

> <Gold.Chemscore.DEClash.Weighted>
0.1457

> <Gold.Chemscore.DEInternal.Weighted>
3.1231

> <Gold.Chemscore.Rot.Weighted>
3.6330

> <Gold.Chemscore.Internal.Correction.Weighted>
   9.000000E+99

> <Gold.Protein.RotatedTorsions>
[ 6907 6896 6895 6894 ] final -178.84 input  -60.11 | X-H torsion
[ 7974 7965 7964 7962 ] final   40.36 input  175.53 | X-H torsion
[ 8008 7997 7996 7995 ] final  155.36 input   59.86 | X-H torsion
[ 10167 10162 10161 10158 ] final  -31.65 input  -65.29 | X-H torsion
[ 10718 10713 10712 10709 ] final -161.52 input   66.30 | X-H torsion
[ 10763 10752 10751 10750 ] final  168.64 input  -60.55 | X-H torsion
[ 11005 11000 10999 10996 ] final   49.21 input  -57.11 | X-H torsion

> <Gold.Protein.ActiveResidues>
 VAL166  LYS551  ARG553  GLY616  TRP617  ASP618  TYR619  PRO620  LYS621  CYS622 
 ASP623  PHE694  ASN695  SER759  ASP760  ASP761  ALA762  ILE779  LEU786  VAL792 
 PHE793  MET794  SER795  GLU796  ALA797  LYS798  CYS799  TRP800  GLU811  SER814 

> <Gold.Protein.RotatedAtoms>
  151.6438  133.3324  159.3135 H   0  0  0  0  0  0  0  0  0  0  0  0  # atno 6907 bound_to 6896
  150.7994  134.7082  159.6598 H   0  0  0  0  0  0  0  0  0  0  0  0  # atno 6908 bound_to 6896
  152.4085  134.6169  160.0092 H   0  0  0  0  0  0  0  0  0  0  0  0  # atno 6909 bound_to 6896
  146.0911  139.5542  142.9475 H   0  0  0  0  0  0  0  0  0  0  0  0  # atno 7974 bound_to 7965
  156.2482  140.1941  156.6789 H   0  0  0  0  0  0  0  0  0  0  0  0  # atno 8008 bound_to 7997
  154.6337  140.0592  156.9788 H   0  0  0  0  0  0  0  0  0  0  0  0  # atno 8009 bound_to 7997
  155.1671  140.3265  155.4402 H   0  0  0  0  0  0  0  0  0  0  0  0  # atno 8010 bound_to 7997
  140.7233  143.3755  151.1698 H   0  0  0  0  0  0  0  0  0  0  0  0  # atno 10167 bound_to 10162
  156.5974  130.8796  151.2905 H   0  0  0  0  0  0  0  0  0  0  0  0  # atno 10718 bound_to 10713
  154.3715  135.2753  155.2264 H   0  0  0  0  0  0  0  0  0  0  0  0  # atno 10763 bound_to 10752
  154.4409  135.5954  153.6132 H   0  0  0  0  0  0  0  0  0  0  0  0  # atno 10764 bound_to 10752
  152.9838  135.6018  154.3947 H   0  0  0  0  0  0  0  0  0  0  0  0  # atno 10765 bound_to 10752
  140.1123  134.4938  155.8667 H   0  0  0  0  0  0  0  0  0  0  0  0  # atno 11005 bound_to 11000
  145.6037  141.0351  143.2004 LP  0  0  0  0  0  0  0  0  0  0  0  0  # atno 17320 bound_to 7965
  144.7361  139.7582  143.7329 LP  0  0  0  0  0  0  0  0  0  0  0  0  # atno 17321 bound_to 7965
  139.7334  143.9037  152.3027 LP  0  0  0  0  0  0  0  0  0  0  0  0  # atno 17342 bound_to 10162
  139.8834  144.7005  150.8852 LP  0  0  0  0  0  0  0  0  0  0  0  0  # atno 17343 bound_to 10162
  157.7288  130.9662  150.1760 LP  0  0  0  0  0  0  0  0  0  0  0  0  # atno 17370 bound_to 10713
  156.2498  130.3699  149.8245 LP  0  0  0  0  0  0  0  0  0  0  0  0  # atno 17371 bound_to 10713
  141.2133  133.6731  156.6729 LP  0  0  0  0  0  0  0  0  0  0  0  0  # atno 17394 bound_to 11000
  140.3074  134.8114  157.4148 LP  0  0  0  0  0  0  0  0  0  0  0  0  # atno 17395 bound_to 11000

$$$$
