AV-unprocessed.smi:866|AV-procd|sdf|3993|dock2
  -GOLD-   22720 1473D 1   1.00000     0.00000
 Structure written by MMmdl.
 34 34  0  0  0  0  0  0  0  0  2 V2000
  153.4258  142.7176  163.6403 C   0  0  0  0  0  0  0  0  0  0  0  0
  153.0114  142.8202  162.2005 C   0  0  0  0  0  0  0  0  0  0  0  0
  153.3898  141.9743  161.1192 C   0  0  0  0  0  0  0  0  0  0  0  0
  152.8474  142.3377  159.9682 N   0  0  0  0  0  0  0  0  0  0  0  0
  152.1088  143.4255  160.2722 N   0  0  0  0  0  0  0  0  0  0  0  0
  151.3551  144.0964  159.2310 C   0  0  0  0  0  0  0  0  0  0  0  0
  151.5874  143.4559  157.8550 C   0  0  0  0  0  0  0  0  0  0  0  0
  150.3457  142.8344  157.3485 N   0  3  0  0  0  0  0  0  0  0  0  0
  150.5160  141.9074  156.2065 C   0  0  1  0  0  0  0  0  0  0  0  0
  151.4221  140.7195  156.5880 C   0  0  0  0  0  0  0  0  0  0  0  0
  149.1236  141.4471  155.7166 C   0  0  0  0  0  0  0  0  0  0  0  0
  149.0439  141.1796  154.2084 C   0  0  0  0  0  0  0  0  0  0  0  0
  149.7262  140.1309  153.7423 N   0  0  0  0  0  0  0  0  0  0  0  0
  148.3739  141.9023  153.4736 O   0  0  0  0  0  0  0  0  0  0  0  0
  152.1876  143.7378  161.6127 C   0  0  0  0  0  0  0  0  0  0  0  0
  153.8034  141.7242  163.8833 H   0  0  0  0  0  0  0  0  0  0  0  0
  152.5932  142.9171  164.3154 H   0  0  0  0  0  0  0  0  0  0  0  0
  154.2150  143.4294  163.8827 H   0  0  0  0  0  0  0  0  0  0  0  0
  154.0388  141.1110  161.1372 H   0  0  0  0  0  0  0  0  0  0  0  0
  150.2972  144.0644  159.4957 H   0  0  0  0  0  0  0  0  0  0  0  0
  151.6466  145.1475  159.2148 H   0  0  0  0  0  0  0  0  0  0  0  0
  151.9278  144.2138  157.1480 H   0  0  0  0  0  0  0  0  0  0  0  0
  152.3730  142.7038  157.9260 H   0  0  0  0  0  0  0  0  0  0  0  0
  149.8881  142.3435  158.1034 H   0  0  0  0  0  0  0  0  0  0  0  0
  150.9943  142.4691  155.4023 H   0  0  0  0  0  0  0  0  0  0  0  0
  151.5556  140.0335  155.7514 H   0  0  0  0  0  0  0  0  0  0  0  0
  151.0000  140.1499  157.4167 H   0  0  0  0  0  0  0  0  0  0  0  0
  152.4184  141.0471  156.8834 H   0  0  0  0  0  0  0  0  0  0  0  0
  148.8134  140.5564  156.2658 H   0  0  0  0  0  0  0  0  0  0  0  0
  148.3846  142.2174  155.9409 H   0  0  0  0  0  0  0  0  0  0  0  0
  149.7119  139.9109  152.7567 H   0  0  0  0  0  0  0  0  0  0  0  0
  150.2611  139.5593  154.3808 H   0  0  0  0  0  0  0  0  0  0  0  0
  151.6566  144.5786  162.0346 H   0  0  0  0  0  0  0  0  0  0  0  0
  149.7419  143.5842  157.0427 H   0  0  0  0  0  0  0  0  0  0  0  0
  1  2  1  0  0  0  0
  1 16  1  0  0  0  0
  1 17  1  0  0  0  0
  1 18  1  0  0  0  0
  2 15  2  0  0  0  0
  2  3  1  0  0  0  0
  3  4  2  0  0  0  0
  3 19  1  0  0  0  0
  4  5  1  0  0  0  0
  5  6  1  0  0  0  0
  5 15  1  0  0  0  0
  6  7  1  0  0  0  0
  6 20  1  0  0  0  0
  6 21  1  0  0  0  0
  7  8  1  0  0  0  0
  7 22  1  0  0  0  0
  7 23  1  0  0  0  0
  8  9  1  0  0  0  0
  8 24  1  0  0  0  0
  8 34  1  0  0  0  0
  9 10  1  0  0  0  0
  9 11  1  0  0  0  0
  9 25  1  0  0  0  0
 10 26  1  0  0  0  0
 10 27  1  0  0  0  0
 10 28  1  0  0  0  0
 11 12  1  0  0  0  0
 11 29  1  0  0  0  0
 11 30  1  0  0  0  0
 12 13  1  0  0  0  0
 12 14  2  0  0  0  0
 13 31  1  0  0  0  0
 13 32  1  0  0  0  0
 15 33  1  0  0  0  0
M  CHG  1   8   1
M  END
> <s_m_source_file>
AV-unprocessed.smi

> <i_m_source_file_index>
866

> <i_lp_mmshare_version>
43012

> <i_f3d_flags>
0

> <s_epik_input>
W0NIM11jMVtjSF1ubihbY0hdMSlbQ0gyXVtDSDJdW05IXVtDQEhdKFtDSDNdKVtDSDJdQyg9TylbTkgyXQ==

> <s_epik_cmdline>
J2VwaWtfcHl0aG9uJywgJy1waCcsICc3LjAnLCAnLXRuJywgJzgnLCAnLW1hJywgJzIwMCcsICctbWV0YWxfYmluZGluZycsICctaW1hZScsICc8aW5maWxlLm1hZT4nLCAnLW9tYWUnLCAnPG91dGZpbGUubWFlPic=

> <r_lp_tautomer_probability>
1

> <r_epik_Ionization_Penalty>
0.0061413

> <r_epik_Ionization_Penalty_Charging>
0.00613574

> <r_epik_Ionization_Penalty_Neutral>
5.56035e-06

> <r_epik_State_Penalty>
0.00452343

> <r_epik_Charging_Adjusted_Penalty>
0.0106592

> <i_epik_Tot_Q>
1

> <i_epik_Tot_abs_Q>
1

> <r_epik_Metal_State_Penalty>
-0

> <b_epik_Metal_Only>
0

> <s_lp_Force_Field>
OPLS_2005

> <r_lp_Energy>
3.04196

> <b_lp_Chiralities_Consistent>
1

> <s_lp_Variant>
AV-unprocessed.smi:866-2

> <Gold.Version>
5.8.1

> <Gold.Id.Protein>
6NUR|6NUR_protein|mol2

> <Gold.PLP.Fitness>
48.8408

> <Gold.PLP.PLP>
-39.5872

> <Gold.PLP.part.hbond>
-3.0000

> <Gold.PLP.part.metal>
0.0000

> <Gold.PLP.part.buried>
-5.2716

> <Gold.PLP.part.nonpolar>
-32.8644

> <Gold.PLP.part.repulsive>
0.9220

> <Gold.PLP.ligand.clash>
0.0000

> <Gold.PLP.ligand.torsion>
0.8827

> <Gold.PLP.Chemscore.Hbond>
3.6080

> <Gold.PLP.Chemscore.CHOScore>
0.0000

> <Gold.PLP.Chemscore.Metal>
0.0000

> <Gold.Chemscore.Hbonds>
donor molecule, donor type, donor heavy atom, donor atom, acceptor molecule, acceptor atom, score
      L1  H     8    34       P1  8028  2.00
      L1  H    13    31       P1  7957  1.00
      P1  H  8011  8017       L1    14  0.42

> <Gold.PLP.Chemscore.Internal.Correction>
0.1951

> <Gold.Rescore>
     Score         DG    S(hbond)    S(metal)    S(lipo)     H(rot)  DE(clash)    DE(int)     intcor
     15.49     -16.87       2.39        0.00      89.78       2.77       0.31       1.07       ----

> <Gold.Chemscore.Fitness>
15.4924

> <Gold.Chemscore.DG>
-16.8742

> <Gold.Chemscore.ZeroCoef>
-5.4800

> <Gold.Chemscore.Hbond>
2.3925

> <Gold.Chemscore.Metal>
0.0000

> <Gold.Chemscore.Lipo>
89.7822

> <Gold.Chemscore.Internal_Hbond>
0.0000

> <Gold.Chemscore.DEClash>
0.3106

> <Gold.Chemscore.DEInternal>
1.0711

> <Gold.Chemscore.Rot>
2.7740

> <Gold.Chemscore.Internal.Correction>
   9.000000E+99

> <Gold.Chemscore.Hbonds>
donor molecule, donor type, donor heavy atom, donor atom, acceptor molecule, acceptor atom, score
      L1  H     8    34       P1  8028  0.91
      L1  H    13    31       P1  7957  0.98
      P1  H  8011  8017       L1    14  0.07

> <Gold.Chemscore.Hbond.Weighted>
-7.9911

> <Gold.Chemscore.Metal.Weighted>
-0.0000

> <Gold.Chemscore.Lipo.Weighted>
-10.5045

> <Gold.Chemscore.Internal_Hbond.Weighted>
0.0000

> <Gold.Chemscore.DEClash.Weighted>
0.3106

> <Gold.Chemscore.DEInternal.Weighted>
1.0711

> <Gold.Chemscore.Rot.Weighted>
7.1014

> <Gold.Chemscore.Internal.Correction.Weighted>
   9.000000E+99

> <Gold.Protein.RotatedTorsions>
[ 6907 6896 6895 6894 ] final  -92.44 input  -60.11 | X-H torsion
[ 7974 7965 7964 7962 ] final  130.55 input  175.53 | X-H torsion
[ 8008 7997 7996 7995 ] final    5.88 input   59.86 | X-H torsion
[ 10167 10162 10161 10158 ] final   -5.11 input  -65.29 | X-H torsion
[ 10718 10713 10712 10709 ] final    8.95 input   66.30 | X-H torsion
[ 10763 10752 10751 10750 ] final -178.38 input  -60.55 | X-H torsion
[ 11005 11000 10999 10996 ] final  164.88 input  -57.11 | X-H torsion

> <Gold.Protein.ActiveResidues>
 VAL166  LYS551  ARG553  GLY616  TRP617  ASP618  TYR619  PRO620  LYS621  CYS622 
 ASP623  PHE694  ASN695  SER759  ASP760  ASP761  ALA762  ILE779  LEU786  VAL792 
 PHE793  MET794  SER795  GLU796  ALA797  LYS798  CYS799  TRP800  GLU811  SER814 

> <Gold.Protein.RotatedAtoms>
  150.6906  134.2122  159.4363 H   0  0  0  0  0  0  0  0  0  0  0  0  # atno 6907 bound_to 6896
  152.0083  134.9888  160.0576 H   0  0  0  0  0  0  0  0  0  0  0  0  # atno 6908 bound_to 6896
  152.1513  133.4489  159.4852 H   0  0  0  0  0  0  0  0  0  0  0  0  # atno 6909 bound_to 6896
  145.0167  139.4170  143.5218 H   0  0  0  0  0  0  0  0  0  0  0  0  # atno 7974 bound_to 7965
  154.7339  140.2736  155.6432 H   0  0  0  0  0  0  0  0  0  0  0  0  # atno 8008 bound_to 7997
  156.2857  140.2710  156.1973 H   0  0  0  0  0  0  0  0  0  0  0  0  # atno 8009 bound_to 7997
  155.0345  140.0371  157.2476 H   0  0  0  0  0  0  0  0  0  0  0  0  # atno 8010 bound_to 7997
  140.6951  143.6346  150.8491 H   0  0  0  0  0  0  0  0  0  0  0  0  # atno 10167 bound_to 10162
  156.9592  130.5926  149.5661 H   0  0  0  0  0  0  0  0  0  0  0  0  # atno 10718 bound_to 10713
  154.5484  135.2811  155.1032 H   0  0  0  0  0  0  0  0  0  0  0  0  # atno 10763 bound_to 10752
  154.2487  135.6343  153.5236 H   0  0  0  0  0  0  0  0  0  0  0  0  # atno 10764 bound_to 10752
  152.9996  135.5577  154.6043 H   0  0  0  0  0  0  0  0  0  0  0  0  # atno 10765 bound_to 10752
  140.2504  134.7981  157.3496 H   0  0  0  0  0  0  0  0  0  0  0  0  # atno 11005 bound_to 11000
  146.3479  139.9642  142.8714 LP  0  0  0  0  0  0  0  0  0  0  0  0  # atno 17320 bound_to 7965
  145.1950  140.9829  143.4189 LP  0  0  0  0  0  0  0  0  0  0  0  0  # atno 17321 bound_to 7965
  140.0063  143.5690  152.2856 LP  0  0  0  0  0  0  0  0  0  0  0  0  # atno 17342 bound_to 10162
  139.6398  144.7653  151.2363 LP  0  0  0  0  0  0  0  0  0  0  0  0  # atno 17343 bound_to 10162
  156.0329  130.5419  150.8581 LP  0  0  0  0  0  0  0  0  0  0  0  0  # atno 17370 bound_to 10713
  157.5669  131.0946  150.9475 LP  0  0  0  0  0  0  0  0  0  0  0  0  # atno 17371 bound_to 10713
  140.1564  134.4785  155.7925 LP  0  0  0  0  0  0  0  0  0  0  0  0  # atno 17394 bound_to 11000
  141.2202  133.6883  156.7467 LP  0  0  0  0  0  0  0  0  0  0  0  0  # atno 17395 bound_to 11000

$$$$
