#       Name:                AV-unprocessed.smi:3331
#       Creating user name   scv26
#       Creation time:       Fri Mar 27 19:19:07 2020


#       File generated by GOLD software.
#

@<TRIPOS>MOLECULE
AV-unprocessed.smi:3331
    50    51     1
SMALL
NO_CHARGES


@<TRIPOS>ATOM
      1 ****        -3.2230  -0.9734   3.0916 C.3            1 S1                 0.0000
      2 ****        -2.4885  -0.4944   1.8317 C.3            1 S1                 0.0000
      3 ****        -3.0370   0.8636   1.3370 C.3            1 S1                 0.0000
      4 ****        -2.4078   1.3023  -0.0049 C.3            1 S1                 0.0000
      5 ****        -3.0571   2.5861  -0.5391 C.3            1 S1                 0.0000
      6 ****        -2.4984   0.1496  -1.0252 C.3            1 S1                 0.0000
      7 ****        -1.8212  -1.0240  -0.4597 N.am           1 S1                 0.0000
      8 ****        -0.6013  -1.4966  -0.8194 C.2            1 S1                 0.0000
      9 ****        -0.0924  -2.4748  -0.2685 O.2            1 S1                 0.0000
     10 ****         0.1940  -0.8073  -1.9489 C.3            1 S1                 0.0000
     11 ****        -0.2239  -1.3775  -3.3140 C.3            1 S1                 0.0000
     12 ****         1.6559  -0.9729  -1.7715 N.4            1 S1                 1.0000
     13 ****         2.2584  -0.1174  -0.7265 C.3            1 S1                 0.0000
     14 ****         3.7702  -0.3604  -0.6200 C.3            1 S1                 0.0000
     15 ****         4.3765   0.4715   0.4013 N.pl3          1 S1                 0.0000
     16 ****         4.8724   0.0958   1.6321 C.2            1 S1                 0.0000
     17 ****         5.3443   1.2234   2.2407 C.2            1 S1                 0.0000
     18 ****         5.0926   2.2517   1.2899 C.2            1 S1                 0.0000
     19 ****         4.5141   1.7981   0.1891 N.2            1 S1                 0.0000
     20 ****        -2.5544  -1.5437   0.7012 C.3            1 S1                 0.0000
     21 ****        -4.2824  -1.1400   2.8943 H              1 S1                 0.0000
     22 ****        -3.1449  -0.2396   3.8942 H              1 S1                 0.0000
     23 ****        -2.8014  -1.9093   3.4590 H              1 S1                 0.0000
     24 ****        -1.4395  -0.3547   2.0978 H              1 S1                 0.0000
     25 ****        -4.1184   0.7865   1.2141 H              1 S1                 0.0000
     26 ****        -2.8698   1.6300   2.0948 H              1 S1                 0.0000
     27 ****        -1.3522   1.5169   0.1701 H              1 S1                 0.0000
     28 ****        -4.1187   2.4395  -0.7403 H              1 S1                 0.0000
     29 ****        -2.5832   2.9092  -1.4664 H              1 S1                 0.0000
     30 ****        -2.9636   3.4007   0.1798 H              1 S1                 0.0000
     31 ****        -3.5447  -0.0973  -1.2128 H              1 S1                 0.0000
     32 ****        -2.1099   0.4551  -1.9946 H              1 S1                 0.0000
     33 ****         0.0104   0.2665  -1.9443 H              1 S1                 0.0000
     34 ****        -1.2952  -1.2681  -3.4856 H              1 S1                 0.0000
     35 ****         0.0159  -2.4387  -3.3947 H              1 S1                 0.0000
     36 ****         0.2882  -0.8603  -4.1259 H              1 S1                 0.0000
     37 ****         1.8435  -1.9418  -1.5553 H              1 S1                 0.0000
     38 ****         2.0630   0.9287  -0.9666 H              1 S1                 0.0000
     39 ****         1.7856  -0.3197   0.2353 H              1 S1                 0.0000
     40 ****         3.9701  -1.4056  -0.3798 H              1 S1                 0.0000
     41 ****         4.2615  -0.1530  -1.5718 H              1 S1                 0.0000
     42 ****         4.8481  -0.9299   1.9698 H              1 S1                 0.0000
     43 ****         5.8010   1.3019   3.2163 H              1 S1                 0.0000
     44 ****         5.3116   3.3065   1.3668 H              1 S1                 0.0000
     45 ****        -2.1637  -2.4997   1.0529 H              1 S1                 0.0000
     46 ****        -3.5912  -1.7369   0.4218 H              1 S1                 0.0000
     47 ****         2.1042  -0.7443  -2.6471 H              1 S1                 0.0000
     48 ****        -0.5806  -2.9447   0.4669 LP             1 S1                 0.0000
     49 ****         0.8088  -2.7986  -0.5569 LP             1 S1                 0.0000
     50 ****         4.2404   2.3205  -0.6184 LP             1 S1                 0.0000
@<TRIPOS>BOND
    1    1    2 1     
    2    1   21 1     
    3    1   22 1     
    4    1   23 1     
    5    2   20 1     
    6    2    3 1     
    7    2   24 1     
    8    3    4 1     
    9    3   25 1     
   10    3   26 1     
   11    4    5 1     
   12    4    6 1     
   13    4   27 1     
   14    5   28 1     
   15    5   29 1     
   16    5   30 1     
   17    6    7 1     
   18    6   31 1     
   19    6   32 1     
   20    7    8 am    
   21    7   20 1     
   22    8    9 2     
   23    8   10 1     
   24   10   11 1     
   25   10   12 1     
   26   10   33 1     
   27   11   34 1     
   28   11   35 1     
   29   11   36 1     
   30   12   13 1     
   31   12   37 1     
   32   12   47 1     
   33   13   14 1     
   34   13   38 1     
   35   13   39 1     
   36   14   15 1     
   37   14   40 1     
   38   14   41 1     
   39   15   19 1     
   40   15   16 1     
   41   16   17 2     
   42   16   42 1     
   43   17   18 1     
   44   17   43 1     
   45   18   19 2     
   46   18   44 1     
   47   20   45 1     
   48   20   46 1     
   49    9   48 1     
   50    9   49 1     
   51   19   50 1     
@<TRIPOS>SUBSTRUCTURE
      1 S1             1
@<TRIPOS>SET
LONE_PAIRS      STATIC     ATOMS    <user>   **** ""
3 48 49 50
DONOR_HYDROGENS      STATIC     ATOMS    <user>   **** ""
2 37 47
ATOM$BLUE        STATIC     ATOMS    COLORGROUP SYSTEM
3 48 49 50
ATOM$RED        STATIC     ATOMS    COLORGROUP SYSTEM
2 37 47
