AV-unprocessed.smi:2822|AV-procd|sdf|10883|dock9
  -GOLD-   2272015323D 1   1.00000     0.00000
 Structure written by MMmdl.
 39 41  0  0  0  0  0  0  0  0  1 V2000
  146.3019  142.2927  153.7505 Cl  0  0  0  0  0  0  0  0  0  0  0  0
  147.5681  141.1289  153.9315 C   0  0  0  0  0  0  0  0  0  0  0  0
  148.8788  141.5621  154.2190 C   0  0  0  0  0  0  0  0  0  0  0  0
  149.9233  140.7219  154.3756 N   0  0  0  0  0  0  0  0  0  0  0  0
  149.6886  139.3992  154.2485 C   0  0  0  0  0  0  0  0  0  0  0  0
  148.4183  138.8599  153.9634 C   0  0  0  0  0  0  0  0  0  0  0  0
  147.3242  139.7423  153.7993 C   0  0  0  0  0  0  0  0  0  0  0  0
  146.0270  139.2911  153.5110 N   0  0  0  0  0  0  0  0  0  0  0  0
  145.5945  137.9581  153.9015 C   0  0  0  0  0  0  0  0  0  0  0  0
  145.5350  137.0076  152.6980 C   0  0  1  0  0  0  0  0  0  0  0  0
  146.0300  135.5964  153.0656 C   0  0  0  0  0  0  0  0  0  0  0  0
  145.8995  134.6645  151.9525 N   0  0  0  0  0  0  0  0  0  0  0  0
  146.3623  133.3276  152.3220 C   0  0  0  0  0  0  0  0  0  0  0  0
  146.2682  132.3315  151.1551 C   0  0  0  0  0  0  0  0  0  0  0  0
  144.8295  132.2681  150.6233 C   0  0  0  0  0  0  0  0  0  0  0  0
  144.3283  133.6813  150.2878 C   0  0  0  0  0  0  0  0  0  0  0  0
  144.5087  134.6310  151.4902 C   0  0  2  0  0  0  0  0  0  0  0  0
  144.0110  136.0491  151.1447 C   0  0  0  0  0  0  0  0  0  0  0  0
  144.1796  136.9087  152.2675 O   0  0  0  0  0  0  0  0  0  0  0  0
  149.0958  142.6147  154.3267 H   0  0  0  0  0  0  0  0  0  0  0  0
  150.5407  138.7484  154.3770 H   0  0  0  0  0  0  0  0  0  0  0  0
  148.3077  137.7898  153.8749 H   0  0  0  0  0  0  0  0  0  0  0  0
  145.3260  139.9582  153.2214 H   0  0  0  0  0  0  0  0  0  0  0  0
  146.3020  137.5678  154.6338 H   0  0  0  0  0  0  0  0  0  0  0  0
  144.6189  138.0112  154.3869 H   0  0  0  0  0  0  0  0  0  0  0  0
  146.1486  137.4062  151.8874 H   0  0  0  0  0  0  0  0  0  0  0  0
  147.0735  135.6484  153.3787 H   0  0  0  0  0  0  0  0  0  0  0  0
  145.4657  135.2272  153.9237 H   0  0  0  0  0  0  0  0  0  0  0  0
  147.3972  133.3798  152.6623 H   0  0  0  0  0  0  0  0  0  0  0  0
  145.7791  132.9536  153.1649 H   0  0  0  0  0  0  0  0  0  0  0  0
  146.9436  132.6389  150.3557 H   0  0  0  0  0  0  0  0  0  0  0  0
  146.5945  131.3422  151.4770 H   0  0  0  0  0  0  0  0  0  0  0  0
  144.7778  131.6276  149.7424 H   0  0  0  0  0  0  0  0  0  0  0  0
  144.1807  131.8188  151.3761 H   0  0  0  0  0  0  0  0  0  0  0  0
  144.8777  134.0669  149.4277 H   0  0  0  0  0  0  0  0  0  0  0  0
  143.2792  133.6394  149.9930 H   0  0  0  0  0  0  0  0  0  0  0  0
  143.8843  134.2566  152.3033 H   0  0  0  0  0  0  0  0  0  0  0  0
  144.5498  136.4548  150.2867 H   0  0  0  0  0  0  0  0  0  0  0  0
  142.9544  136.0274  150.8768 H   0  0  0  0  0  0  0  0  0  0  0  0
  1  2  1  0  0  0  0
  2  7  1  0  0  0  0
  2  3  2  0  0  0  0
  3  4  1  0  0  0  0
  3 20  1  0  0  0  0
  4  5  2  0  0  0  0
  5  6  1  0  0  0  0
  5 21  1  0  0  0  0
  6  7  2  0  0  0  0
  6 22  1  0  0  0  0
  7  8  1  0  0  0  0
  8  9  1  0  0  0  0
  8 23  1  0  0  0  0
  9 10  1  0  0  0  0
  9 24  1  0  0  0  0
  9 25  1  0  0  0  0
 10 19  1  0  0  0  0
 10 11  1  0  0  0  0
 10 26  1  0  0  0  0
 11 12  1  0  0  0  0
 11 27  1  0  0  0  0
 11 28  1  0  0  0  0
 12 17  1  0  0  0  0
 12 13  1  0  0  0  0
 13 14  1  0  0  0  0
 13 29  1  0  0  0  0
 13 30  1  0  0  0  0
 14 15  1  0  0  0  0
 14 31  1  0  0  0  0
 14 32  1  0  0  0  0
 15 16  1  0  0  0  0
 15 33  1  0  0  0  0
 15 34  1  0  0  0  0
 16 17  1  0  0  0  0
 16 35  1  0  0  0  0
 16 36  1  0  0  0  0
 17 18  1  0  0  0  0
 17 37  1  0  0  0  0
 18 19  1  0  0  0  0
 18 38  1  0  0  0  0
 18 39  1  0  0  0  0
M  END
> <s_m_source_file>
AV-unprocessed.smi

> <i_m_source_file_index>
2822

> <i_lp_mmshare_version>
43012

> <i_f3d_flags>
0

> <s_epik_input>
Q2xjMVtjSF1uW2NIXVtjSF1jMVtOSF1bQ0gyXVtDQEhdKFtDSDJdMilPW0NIMl1bQ0BASF0oTjIzKVtDSDJdW0NIMl1bQ0gyXVtDSDJdMw==

> <s_epik_cmdline>
J2VwaWtfcHl0aG9uJywgJy1waCcsICc3LjAnLCAnLXRuJywgJzgnLCAnLW1hJywgJzIwMCcsICctbWV0YWxfYmluZGluZycsICctaW1hZScsICc8aW5maWxlLm1hZT4nLCAnLW9tYWUnLCAnPG91dGZpbGUubWFlPic=

> <r_lp_tautomer_probability>
0.999999

> <r_epik_Ionization_Penalty>
2.10064

> <r_epik_Ionization_Penalty_Charging>
0

> <r_epik_Ionization_Penalty_Neutral>
2.10064

> <r_epik_State_Penalty>
2.1757

> <r_epik_Charging_Adjusted_Penalty>
2.1757

> <i_epik_Tot_Q>
0

> <i_epik_Tot_abs_Q>
0

> <r_epik_Metal_State_Penalty>
1.25425

> <b_epik_Metal_Only>
0

> <s_lp_Force_Field>
OPLS_2005

> <r_lp_Energy>
37.6932

> <b_lp_Chiralities_Consistent>
1

> <s_lp_Variant>
AV-unprocessed.smi:2822-24

> <Gold.Version>
5.8.1

> <Gold.Id.Protein>
6NUR|6NUR_protein|mol2

> <Gold.PLP.Fitness>
38.3190

> <Gold.PLP.PLP>
-31.3308

> <Gold.PLP.part.hbond>
-2.0000

> <Gold.PLP.part.metal>
0.0000

> <Gold.PLP.part.buried>
-3.0103

> <Gold.PLP.part.nonpolar>
-27.3261

> <Gold.PLP.part.repulsive>
1.0795

> <Gold.PLP.ligand.clash>
0.0000

> <Gold.PLP.ligand.torsion>
0.7877

> <Gold.PLP.Chemscore.Hbond>
1.8553

> <Gold.PLP.Chemscore.CHOScore>
0.9991

> <Gold.PLP.Chemscore.Metal>
0.0000

> <Gold.Chemscore.Hbonds>
donor molecule, donor type, donor heavy atom, donor atom, acceptor molecule, acceptor atom, score
      L1  H     8    23       P1 10175  1.00
      P1  H  7989  7998       L1     4  0.72
      L1  C     3    20       P1  8028  1.00

> <Gold.PLP.Chemscore.Internal.Correction>
0.0007

> <Gold.Rescore>
     Score         DG    S(hbond)    S(metal)    S(lipo)     H(rot)  DE(clash)    DE(int)     intcor
     16.25     -17.52       1.49        0.00      85.50       1.15       0.55       0.71       ----

> <Gold.Chemscore.Fitness>
16.2492

> <Gold.Chemscore.DG>
-17.5171

> <Gold.Chemscore.ZeroCoef>
-5.4800

> <Gold.Chemscore.Hbond>
1.4916

> <Gold.Chemscore.Metal>
0.0000

> <Gold.Chemscore.Lipo>
85.5023

> <Gold.Chemscore.Internal_Hbond>
0.0000

> <Gold.Chemscore.DEClash>
0.5532

> <Gold.Chemscore.DEInternal>
0.7147

> <Gold.Chemscore.Rot>
1.1519

> <Gold.Chemscore.Internal.Correction>
   9.000000E+99

> <Gold.Chemscore.Hbonds>
donor molecule, donor type, donor heavy atom, donor atom, acceptor molecule, acceptor atom, score
      L1  H     8    23       P1 10175  0.98
      P1  H  7989  7998       L1     4  0.21

> <Gold.Chemscore.Hbond.Weighted>
-4.9821

> <Gold.Chemscore.Metal.Weighted>
-0.0000

> <Gold.Chemscore.Lipo.Weighted>
-10.0038

> <Gold.Chemscore.Internal_Hbond.Weighted>
0.0000

> <Gold.Chemscore.DEClash.Weighted>
0.5532

> <Gold.Chemscore.DEInternal.Weighted>
0.7147

> <Gold.Chemscore.Rot.Weighted>
2.9487

> <Gold.Chemscore.Internal.Correction.Weighted>
   9.000000E+99

> <Gold.Protein.RotatedTorsions>
[ 6907 6896 6895 6894 ] final  164.21 input  -60.11 | X-H torsion
[ 7974 7965 7964 7962 ] final  -36.00 input  175.53 | X-H torsion
[ 8008 7997 7996 7995 ] final   54.05 input   59.86 | X-H torsion
[ 10167 10162 10161 10158 ] final  118.21 input  -65.29 | X-H torsion
[ 10718 10713 10712 10709 ] final -150.74 input   66.30 | X-H torsion
[ 10763 10752 10751 10750 ] final  -70.31 input  -60.55 | X-H torsion
[ 11005 11000 10999 10996 ] final  -85.33 input  -57.11 | X-H torsion

> <Gold.Protein.ActiveResidues>
 VAL166  LYS551  ARG553  GLY616  TRP617  ASP618  TYR619  PRO620  LYS621  CYS622 
 ASP623  PHE694  ASN695  SER759  ASP760  ASP761  ALA762  ILE779  LEU786  VAL792 
 PHE793  MET794  SER795  GLU796  ALA797  LYS798  CYS799  TRP800  GLU811  SER814 

> <Gold.Protein.RotatedAtoms>
  151.9134  133.3567  159.3871 H   0  0  0  0  0  0  0  0  0  0  0  0  # atno 6907 bound_to 6896
  150.7053  134.4709  159.5434 H   0  0  0  0  0  0  0  0  0  0  0  0  # atno 6908 bound_to 6896
  152.2319  134.8314  160.0523 H   0  0  0  0  0  0  0  0  0  0  0  0  # atno 6909 bound_to 6896
  146.0699  140.6226  142.8957 H   0  0  0  0  0  0  0  0  0  0  0  0  # atno 7974 bound_to 7965
  155.4783  140.3467  155.4336 H   0  0  0  0  0  0  0  0  0  0  0  0  # atno 8008 bound_to 7997
  156.1056  140.1447  156.9438 H   0  0  0  0  0  0  0  0  0  0  0  0  # atno 8009 bound_to 7997
  154.4722  140.0897  156.7151 H   0  0  0  0  0  0  0  0  0  0  0  0  # atno 8010 bound_to 7997
  139.6127  144.7085  151.2809 H   0  0  0  0  0  0  0  0  0  0  0  0  # atno 10167 bound_to 10162
  156.4500  130.8163  151.2394 H   0  0  0  0  0  0  0  0  0  0  0  0  # atno 10718 bound_to 10713
  154.4158  135.5998  153.5980 H   0  0  0  0  0  0  0  0  0  0  0  0  # atno 10763 bound_to 10752
  152.9792  135.5940  154.4015 H   0  0  0  0  0  0  0  0  0  0  0  0  # atno 10764 bound_to 10752
  154.3833  135.2841  155.2177 H   0  0  0  0  0  0  0  0  0  0  0  0  # atno 10765 bound_to 10752
  141.1642  133.7394  156.9000 H   0  0  0  0  0  0  0  0  0  0  0  0  # atno 11005 bound_to 11000
  144.7225  140.4420  143.6997 LP  0  0  0  0  0  0  0  0  0  0  0  0  # atno 17320 bound_to 7965
  145.6410  139.1550  143.2915 LP  0  0  0  0  0  0  0  0  0  0  0  0  # atno 17321 bound_to 7965
  140.7330  143.6808  150.8003 LP  0  0  0  0  0  0  0  0  0  0  0  0  # atno 17342 bound_to 10162
  140.0405  143.5351  152.2720 LP  0  0  0  0  0  0  0  0  0  0  0  0  # atno 17343 bound_to 10162
  157.7503  131.0141  150.3449 LP  0  0  0  0  0  0  0  0  0  0  0  0  # atno 17370 bound_to 10713
  156.3826  130.3883  149.7090 LP  0  0  0  0  0  0  0  0  0  0  0  0  # atno 17371 bound_to 10713
  140.1589  134.9179  157.2689 LP  0  0  0  0  0  0  0  0  0  0  0  0  # atno 17394 bound_to 11000
  140.2634  134.3544  155.7398 LP  0  0  0  0  0  0  0  0  0  0  0  0  # atno 17395 bound_to 11000

$$$$
