AV-unprocessed.smi:33|AV-procd|sdf|203|dock6
  -GOLD-   2262015483D 1   1.00000     0.00000
 Structure written by MMmdl.
 67 72  0  0  0  0  0  0  0  0  1 V2000
  140.1397  136.8888  158.8374 O   0  0  0  0  0  0  0  0  0  0  0  0
  140.7110  136.9573  159.9276 C   0  0  0  0  0  0  0  0  0  0  0  0
  142.0516  136.9731  160.0671 O   0  0  0  0  0  0  0  0  0  0  0  0
  142.8845  136.9092  158.9209 C   0  0  0  0  0  0  0  0  0  0  0  0
  144.2879  136.4544  159.3406 C   0  0  2  0  0  0  0  0  0  0  0  0
  145.1134  136.2207  158.2046 O   0  0  0  0  0  0  0  0  0  0  0  0
  146.1759  135.3853  158.5619 C   0  0  1  0  0  0  0  0  0  0  0  0
  147.3950  136.2467  158.7038 N   0  0  0  0  0  0  0  0  0  0  0  0
  147.6377  137.2891  159.5762 C   0  0  0  0  0  0  0  0  0  0  0  0
  148.7954  137.8774  159.4407 N   0  0  0  0  0  0  0  0  0  0  0  0
  149.3908  137.2024  158.3845 C   0  0  0  0  0  0  0  0  0  0  0  0
  150.6334  137.3264  157.7081 C   0  0  0  0  0  0  0  0  0  0  0  0
  151.5587  138.2549  158.0423 N   0  0  0  0  0  0  0  0  0  0  0  0
  151.8934  139.2587  157.0219 C   0  0  0  0  0  0  0  0  0  0  0  0
  152.9908  139.8190  157.0564 O   0  0  0  0  0  0  0  0  0  0  0  0
  150.9259  139.5749  155.9172 C   0  0  0  0  0  0  0  0  0  0  0  0
  150.6177  138.5976  154.9456 C   0  0  0  0  0  0  0  0  0  0  0  0
  149.7209  138.8936  153.9008 C   0  0  0  0  0  0  0  0  0  0  0  0
  149.1421  140.1739  153.8099 C   0  0  0  0  0  0  0  0  0  0  0  0
  149.4683  141.1620  154.7582 C   0  0  0  0  0  0  0  0  0  0  0  0
  150.3643  140.8667  155.8035 C   0  0  0  0  0  0  0  0  0  0  0  0
  152.1455  138.1626  159.3875 C   0  0  0  0  0  0  0  0  0  0  0  0
  152.1422  137.0807  159.9783 O   0  0  0  0  0  0  0  0  0  0  0  0
  152.7970  139.3576  160.0240 C   0  0  0  0  0  0  0  0  0  0  0  0
  153.7202  139.1793  161.0778 C   0  0  0  0  0  0  0  0  0  0  0  0
  154.3231  140.2945  161.6907 C   0  0  0  0  0  0  0  0  0  0  0  0
  153.9928  141.5958  161.2667 C   0  0  0  0  0  0  0  0  0  0  0  0
  153.0524  141.7820  160.2355 C   0  0  0  0  0  0  0  0  0  0  0  0
  152.4493  140.6671  159.6217 C   0  0  0  0  0  0  0  0  0  0  0  0
  150.8887  136.4790  156.6783 N   0  0  0  0  0  0  0  0  0  0  0  0
  149.9785  135.5629  156.3338 C   0  0  0  0  0  0  0  0  0  0  0  0
  148.7791  135.3320  156.8742 N   0  0  0  0  0  0  0  0  0  0  0  0
  148.5210  136.1833  157.9099 C   0  0  0  0  0  0  0  0  0  0  0  0
  145.7996  134.7229  159.9014 C   0  0  2  0  0  0  0  0  0  0  0  0
  145.9696  133.3200  159.9086 O   0  0  0  0  0  0  0  0  0  0  0  0
  144.3299  135.0971  160.0399 C   0  0  2  0  0  0  0  0  0  0  0  0
  143.5567  134.2415  159.3641 F   0  0  0  0  0  0  0  0  0  0  0  0
  139.9895  137.0319  161.2312 C   0  0  0  0  0  0  0  0  0  0  0  0
  138.7136  137.6408  161.2828 C   0  0  0  0  0  0  0  0  0  0  0  0
  138.0091  137.7289  162.4992 C   0  0  0  0  0  0  0  0  0  0  0  0
  138.5721  137.2093  163.6794 C   0  0  0  0  0  0  0  0  0  0  0  0
  139.8401  136.6004  163.6413 C   0  0  0  0  0  0  0  0  0  0  0  0
  140.5460  136.5111  162.4257 C   0  0  0  0  0  0  0  0  0  0  0  0
  142.4618  136.1919  158.2159 H   0  0  0  0  0  0  0  0  0  0  0  0
  142.9245  137.8788  158.4226 H   0  0  0  0  0  0  0  0  0  0  0  0
  144.7432  137.2078  159.9840 H   0  0  0  0  0  0  0  0  0  0  0  0
  146.3945  134.6791  157.7605 H   0  0  0  0  0  0  0  0  0  0  0  0
  146.9321  137.6063  160.3288 H   0  0  0  0  0  0  0  0  0  0  0  0
  151.0557  137.6117  155.0061 H   0  0  0  0  0  0  0  0  0  0  0  0
  149.4775  138.1377  153.1688 H   0  0  0  0  0  0  0  0  0  0  0  0
  148.4534  140.3999  153.0091 H   0  0  0  0  0  0  0  0  0  0  0  0
  149.0324  142.1474  154.6838 H   0  0  0  0  0  0  0  0  0  0  0  0
  150.6115  141.6342  156.5232 H   0  0  0  0  0  0  0  0  0  0  0  0
  153.9812  138.1852  161.4117 H   0  0  0  0  0  0  0  0  0  0  0  0
  155.0384  140.1511  162.4870 H   0  0  0  0  0  0  0  0  0  0  0  0
  154.4555  142.4507  161.7371 H   0  0  0  0  0  0  0  0  0  0  0  0
  152.7922  142.7801  159.9159 H   0  0  0  0  0  0  0  0  0  0  0  0
  151.7248  140.8227  158.8354 H   0  0  0  0  0  0  0  0  0  0  0  0
  150.2491  134.9241  155.5061 H   0  0  0  0  0  0  0  0  0  0  0  0
  146.3735  135.1586  160.7194 H   0  0  0  0  0  0  0  0  0  0  0  0
  145.3804  132.9505  160.5488 H   0  0  0  0  0  0  0  0  0  0  0  0
  143.9816  135.1246  161.0727 H   0  0  0  0  0  0  0  0  0  0  0  0
  138.2610  138.0478  160.3900 H   0  0  0  0  0  0  0  0  0  0  0  0
  137.0359  138.1964  162.5259 H   0  0  0  0  0  0  0  0  0  0  0  0
  138.0320  137.2780  164.6121 H   0  0  0  0  0  0  0  0  0  0  0  0
  140.2734  136.2012  164.5467 H   0  0  0  0  0  0  0  0  0  0  0  0
  141.5174  136.0383  162.4318 H   0  0  0  0  0  0  0  0  0  0  0  0
  1  2  2  0  0  0  0
  2  3  1  0  0  0  0
  2 38  1  0  0  0  0
  3  4  1  0  0  0  0
  4  5  1  0  0  0  0
  4 44  1  0  0  0  0
  4 45  1  0  0  0  0
  5 36  1  0  0  0  0
  5  6  1  0  0  0  0
  5 46  1  0  0  0  0
  6  7  1  0  0  0  0
  7  8  1  0  0  0  0
  7 34  1  0  0  0  0
  7 47  1  0  0  0  0
  8 33  1  0  0  0  0
  8  9  1  0  0  0  0
  9 10  2  0  0  0  0
  9 48  1  0  0  0  0
 10 11  1  0  0  0  0
 11 33  2  0  0  0  0
 11 12  1  0  0  0  0
 12 13  1  0  0  0  0
 12 30  2  0  0  0  0
 13 14  1  0  0  0  0
 13 22  1  0  0  0  0
 14 15  2  0  0  0  0
 14 16  1  0  0  0  0
 16 21  1  0  0  0  0
 16 17  2  0  0  0  0
 17 18  1  0  0  0  0
 17 49  1  0  0  0  0
 18 19  2  0  0  0  0
 18 50  1  0  0  0  0
 19 20  1  0  0  0  0
 19 51  1  0  0  0  0
 20 21  2  0  0  0  0
 20 52  1  0  0  0  0
 21 53  1  0  0  0  0
 22 23  2  0  0  0  0
 22 24  1  0  0  0  0
 24 29  1  0  0  0  0
 24 25  2  0  0  0  0
 25 26  1  0  0  0  0
 25 54  1  0  0  0  0
 26 27  2  0  0  0  0
 26 55  1  0  0  0  0
 27 28  1  0  0  0  0
 27 56  1  0  0  0  0
 28 29  2  0  0  0  0
 28 57  1  0  0  0  0
 29 58  1  0  0  0  0
 30 31  1  0  0  0  0
 31 32  2  0  0  0  0
 31 59  1  0  0  0  0
 32 33  1  0  0  0  0
 34 35  1  0  0  0  0
 34 36  1  0  0  0  0
 34 60  1  0  0  0  0
 35 61  1  0  0  0  0
 36 37  1  0  0  0  0
 36 62  1  0  0  0  0
 38 43  1  0  0  0  0
 38 39  2  0  0  0  0
 39 40  1  0  0  0  0
 39 63  1  0  0  0  0
 40 41  2  0  0  0  0
 40 64  1  0  0  0  0
 41 42  1  0  0  0  0
 41 65  1  0  0  0  0
 42 43  2  0  0  0  0
 42 66  1  0  0  0  0
 43 67  1  0  0  0  0
M  END
> <s_m_source_file>
AV-unprocessed.smi

> <i_m_source_file_index>
33

> <i_lp_mmshare_version>
43012

> <i_f3d_flags>
0

> <s_epik_input>
W2NIXTFbY0hdW2NIXVtjSF1bY0hdYzFDKD1PKU9bQ0gyXVtDQEBIXTJPW0NASF0oW0NAQEhdKFtPSF0pW0NAQEhdMkYpbihbY0hdbjMpYyhjMzQpbltjSF1uYzROKEMoPU8pYzVbY0hdW2NIXVtjSF1bY0hdW2NIXTUpQyg9TyljNltjSF1bY0hdW2NIXVtjSF1bY0hdNg==

> <s_epik_cmdline>
J2VwaWtfcHl0aG9uJywgJy1waCcsICc3LjAnLCAnLXRuJywgJzgnLCAnLW1hJywgJzIwMCcsICctbWV0YWxfYmluZGluZycsICctaW1hZScsICc8aW5maWxlLm1hZT4nLCAnLW9tYWUnLCAnPG91dGZpbGUubWFlPic=

> <r_lp_tautomer_probability>
1

> <r_epik_Ionization_Penalty>
0.00067664

> <r_epik_Ionization_Penalty_Charging>
0

> <r_epik_Ionization_Penalty_Neutral>
0.00067664

> <r_epik_State_Penalty>
0.000428095

> <r_epik_Charging_Adjusted_Penalty>
0.000428095

> <i_epik_Tot_Q>
0

> <i_epik_Tot_abs_Q>
0

> <r_epik_Metal_State_Penalty>
-0

> <b_epik_Metal_Only>
0

> <s_epik_Chemistry_Notes>
This compound has an ester and may undergo hydrolysis at high or low pH. This compound contains an acetal/aminal-like group ( X-CH(R)-Y where X, Y are N, S, or O) that may be acid/base labile, releasing an aldehyde.

> <s_lp_Force_Field>
OPLS_2005

> <r_lp_Energy>
70.8142

> <b_lp_Chiralities_Consistent>
1

> <s_lp_Variant>
AV-unprocessed.smi:33-5

> <Gold.Version>
5.8.1

> <Gold.Id.Protein>
6NUR|6NUR_protein|mol2

> <Gold.PLP.Fitness>
58.0288

> <Gold.PLP.PLP>
-52.1322

> <Gold.PLP.part.hbond>
-3.6195

> <Gold.PLP.part.metal>
0.0000

> <Gold.PLP.part.buried>
-2.2022

> <Gold.PLP.part.nonpolar>
-46.8187

> <Gold.PLP.part.repulsive>
0.0000

> <Gold.PLP.ligand.clash>
0.0000

> <Gold.PLP.ligand.torsion>
3.6177

> <Gold.PLP.Chemscore.Hbond>
2.9920

> <Gold.PLP.Chemscore.CHOScore>
0.0000

> <Gold.PLP.Chemscore.Metal>
0.0000

> <Gold.Chemscore.Hbonds>
donor molecule, donor type, donor heavy atom, donor atom, acceptor molecule, acceptor atom, score
      P1  H  6896  6909       L1    23  1.00
      P1  H  7997  8008       L1    15  0.99

> <Gold.PLP.Chemscore.Internal.Correction>
4.1560

> <Gold.Rescore>
     Score         DG    S(hbond)    S(metal)    S(lipo)     H(rot)  DE(clash)    DE(int)     intcor
     15.87     -24.55       2.91        0.00     135.06       2.52       0.05       8.63       ----

> <Gold.Chemscore.Fitness>
15.8734

> <Gold.Chemscore.DG>
-24.5540

> <Gold.Chemscore.ZeroCoef>
-5.4800

> <Gold.Chemscore.Hbond>
2.9147

> <Gold.Chemscore.Metal>
0.0000

> <Gold.Chemscore.Lipo>
135.0608

> <Gold.Chemscore.Internal_Hbond>
0.0000

> <Gold.Chemscore.DEClash>
0.0488

> <Gold.Chemscore.DEInternal>
8.6318

> <Gold.Chemscore.Rot>
2.5247

> <Gold.Chemscore.Internal.Correction>
   9.000000E+99

> <Gold.Chemscore.Hbonds>
donor molecule, donor type, donor heavy atom, donor atom, acceptor molecule, acceptor atom, score
      P1  H  6896  6909       L1    23  0.98
      P1  H  7997  8008       L1    15  0.88

> <Gold.Chemscore.Hbond.Weighted>
-9.7351

> <Gold.Chemscore.Metal.Weighted>
-0.0000

> <Gold.Chemscore.Lipo.Weighted>
-15.8021

> <Gold.Chemscore.Internal_Hbond.Weighted>
0.0000

> <Gold.Chemscore.DEClash.Weighted>
0.0488

> <Gold.Chemscore.DEInternal.Weighted>
8.6318

> <Gold.Chemscore.Rot.Weighted>
6.4633

> <Gold.Chemscore.Internal.Correction.Weighted>
   9.000000E+99

> <Gold.Protein.RotatedTorsions>
[ 6907 6896 6895 6894 ] final  137.56 input  -60.11 | X-H torsion
[ 7974 7965 7964 7962 ] final -129.65 input  175.53 | X-H torsion
[ 8008 7997 7996 7995 ] final  -44.85 input   59.86 | X-H torsion
[ 10167 10162 10161 10158 ] final   85.87 input  -65.29 | X-H torsion
[ 10718 10713 10712 10709 ] final  -36.13 input   66.30 | X-H torsion
[ 10763 10752 10751 10750 ] final -108.58 input  -60.55 | X-H torsion
[ 11005 11000 10999 10996 ] final -169.62 input  -57.11 | X-H torsion

> <Gold.Protein.ActiveResidues>
 VAL166  LYS551  ARG553  GLY616  TRP617  ASP618  TYR619  PRO620  LYS621  CYS622 
 ASP623  PHE694  ASN695  SER759  ASP760  ASP761  ALA762  ILE779  LEU786  VAL792 
 PHE793  MET794  SER795  GLU796  ALA797  LYS798  CYS799  TRP800  GLU811  SER814 

> <Gold.Protein.RotatedAtoms>
  152.2766  133.5431  159.5471 H   0  0  0  0  0  0  0  0  0  0  0  0  # atno 6907 bound_to 6896
  150.7179  134.0622  159.3844 H   0  0  0  0  0  0  0  0  0  0  0  0  # atno 6908 bound_to 6896
  151.8535  135.0549  160.0512 H   0  0  0  0  0  0  0  0  0  0  0  0  # atno 6909 bound_to 6896
  144.9551  140.7387  143.4763 H   0  0  0  0  0  0  0  0  0  0  0  0  # atno 7974 bound_to 7965
  154.3998  140.1412  156.3750 H   0  0  0  0  0  0  0  0  0  0  0  0  # atno 8008 bound_to 7997
  155.8057  140.3474  155.5407 H   0  0  0  0  0  0  0  0  0  0  0  0  # atno 8009 bound_to 7997
  155.8438  140.0931  157.1708 H   0  0  0  0  0  0  0  0  0  0  0  0  # atno 8010 bound_to 7997
  139.8933  144.6373  150.8715 H   0  0  0  0  0  0  0  0  0  0  0  0  # atno 10167 bound_to 10162
  156.3304  130.4278  149.7878 H   0  0  0  0  0  0  0  0  0  0  0  0  # atno 10718 bound_to 10713
  154.8144  135.4632  154.0602 H   0  0  0  0  0  0  0  0  0  0  0  0  # atno 10763 bound_to 10752
  153.2007  135.6868  153.8241 H   0  0  0  0  0  0  0  0  0  0  0  0  # atno 10764 bound_to 10752
  153.7727  135.3268  155.3331 H   0  0  0  0  0  0  0  0  0  0  0  0  # atno 10765 bound_to 10752
  140.5287  134.5638  157.5068 H   0  0  0  0  0  0  0  0  0  0  0  0  # atno 11005 bound_to 11000
  145.2784  139.1928  143.4804 LP  0  0  0  0  0  0  0  0  0  0  0  0  # atno 17320 bound_to 7965
  146.3334  140.2742  142.8607 LP  0  0  0  0  0  0  0  0  0  0  0  0  # atno 17321 bound_to 7965
  140.7722  143.3493  151.2046 LP  0  0  0  0  0  0  0  0  0  0  0  0  # atno 17342 bound_to 10162
  139.7090  143.9407  152.2939 LP  0  0  0  0  0  0  0  0  0  0  0  0  # atno 17343 bound_to 10162
  156.5152  130.8190  151.3183 LP  0  0  0  0  0  0  0  0  0  0  0  0  # atno 17370 bound_to 10713
  157.7429  130.9901  150.2553 LP  0  0  0  0  0  0  0  0  0  0  0  0  # atno 17371 bound_to 10713
  139.9566  134.7524  156.0328 LP  0  0  0  0  0  0  0  0  0  0  0  0  # atno 17394 bound_to 11000
  141.1294  133.6590  156.3422 LP  0  0  0  0  0  0  0  0  0  0  0  0  # atno 17395 bound_to 11000

$$$$
