#       Name:                AV-unprocessed.smi:1606
#       Creating user name   scv26
#       Creation time:       Fri Mar 27 07:11:42 2020


#       File generated by GOLD software.
#

@<TRIPOS>MOLECULE
AV-unprocessed.smi:1606
    40    41     1
SMALL
NO_CHARGES


@<TRIPOS>ATOM
      1 ****         0.6893   2.1834  -1.0170 O.2            1 S1                 0.0000
      2 ****         0.2314   1.0457  -1.1272 C.2            1 S1                 0.0000
      3 ****         1.0005  -0.0498  -1.2195 N.am           1 S1                 0.0000
      4 ****         2.4580  -0.0597  -1.1443 C.3            1 S1                 0.0000
      5 ****         2.9905   0.1128   0.2934 C.3            1 S1                 0.0000
      6 ****         2.4266  -0.8948   1.2827 C.ar           1 S1                 0.0000
      7 ****         3.0782  -2.1277   1.4983 C.ar           1 S1                 0.0000
      8 ****         2.5113  -3.0359   2.4135 C.ar           1 S1                 0.0000
      9 ****         1.3193  -2.6796   3.0729 C.ar           1 S1                 0.0000
     10 ****         0.7451  -1.4249   2.7878 C.ar           1 S1                 0.0000
     11 ****         1.2813  -0.5469   1.9134 N.ar           1 S1                 0.0000
     12 ****        -1.2852   0.8171  -1.1487 C.3            1 S1                 0.0000
     13 ****        -1.9678   1.6395  -2.2564 C.3            1 S1                 0.0000
     14 ****        -3.4940   1.4670  -2.1910 C.3            1 S1                 0.0000
     15 ****        -3.9723   1.8437  -0.9039 O.3            1 S1                 0.0000
     16 ****        -3.4469   1.0354   0.1438 C.3            1 S1                 0.0000
     17 ****        -1.9180   1.1826   0.2055 C.3            1 S1                 0.0000
     18 ****         0.5419  -0.9451  -1.3071 H              1 S1                 0.0000
     19 ****         2.8002  -1.0144  -1.5442 H              1 S1                 0.0000
     20 ****         2.8716   0.7114  -1.7959 H              1 S1                 0.0000
     21 ****         4.0782   0.0339   0.2897 H              1 S1                 0.0000
     22 ****         2.7680   1.1194   0.6510 H              1 S1                 0.0000
     23 ****         3.9893  -2.3743   0.9733 H              1 S1                 0.0000
     24 ****         2.9813  -3.9893   2.6044 H              1 S1                 0.0000
     25 ****         0.8559  -3.3516   3.7801 H              1 S1                 0.0000
     26 ****        -0.1693  -1.1181   3.2736 H              1 S1                 0.0000
     27 ****        -1.4759  -0.2402  -1.3423 H              1 S1                 0.0000
     28 ****        -1.7254   2.6982  -2.1504 H              1 S1                 0.0000
     29 ****        -1.6024   1.3322  -3.2370 H              1 S1                 0.0000
     30 ****        -3.9737   2.0952  -2.9416 H              1 S1                 0.0000
     31 ****        -3.7791   0.4365  -2.4089 H              1 S1                 0.0000
     32 ****        -3.8912   1.3505   1.0880 H              1 S1                 0.0000
     33 ****        -3.7320  -0.0066  -0.0092 H              1 S1                 0.0000
     34 ****        -1.5175   0.5454   0.9953 H              1 S1                 0.0000
     35 ****        -1.6684   2.2094   0.4768 H              1 S1                 0.0000
     36 ****         1.6791   2.3238  -0.9927 LP             1 S1                 0.0000
     37 ****         0.0714   2.9669  -0.9517 LP             1 S1                 0.0000
     38 ****         0.8445   0.3352   1.7370 LP             1 S1                 0.0000
     39 ****        -4.9691   1.7639  -0.8985 LP             1 S1                 0.0000
     40 ****        -3.7131   2.7943  -0.7334 LP             1 S1                 0.0000
@<TRIPOS>BOND
    1    1    2 2     
    2    2    3 am    
    3    2   12 1     
    4    3    4 1     
    5    3   18 1     
    6    4    5 1     
    7    4   19 1     
    8    4   20 1     
    9    5    6 1     
   10    5   21 1     
   11    5   22 1     
   12    6   11 ar    
   13    6    7 ar    
   14    7    8 ar    
   15    7   23 1     
   16    8    9 ar    
   17    8   24 1     
   18    9   10 ar    
   19    9   25 1     
   20   10   11 ar    
   21   10   26 1     
   22   12   17 1     
   23   12   13 1     
   24   12   27 1     
   25   13   14 1     
   26   13   28 1     
   27   13   29 1     
   28   14   15 1     
   29   14   30 1     
   30   14   31 1     
   31   15   16 1     
   32   16   17 1     
   33   16   32 1     
   34   16   33 1     
   35   17   34 1     
   36   17   35 1     
   37    1   36 1     
   38    1   37 1     
   39   11   38 1     
   40   15   39 1     
   41   15   40 1     
@<TRIPOS>SUBSTRUCTURE
      1 S1             1
@<TRIPOS>SET
LONE_PAIRS      STATIC     ATOMS    <user>   **** ""
5 36 37 38 39 40
DONOR_HYDROGENS      STATIC     ATOMS    <user>   **** ""
1 18
ATOM$BLUE        STATIC     ATOMS    COLORGROUP SYSTEM
5 36 37 38 39 40
ATOM$RED        STATIC     ATOMS    COLORGROUP SYSTEM
1 18
