#       Name:                AV-unprocessed.smi:2198
#       Creating user name   scv26
#       Creation time:       Fri Mar 27 12:13:23 2020


#       File generated by GOLD software.
#

@<TRIPOS>MOLECULE
AV-unprocessed.smi:2198
    48    49     1
SMALL
NO_CHARGES


@<TRIPOS>ATOM
      1 ****        -6.5358  -1.6177  -1.4060 C.3            1 S1                 0.0000
      2 ****        -5.0242  -1.6675  -1.3589 C.2            1 S1                 0.0000
      3 ****        -4.4161  -0.4752  -1.7157 N.pl3          1 S1                 0.0000
      4 ****        -3.0334  -0.4262  -1.7084 C.2            1 S1                 0.0000
      5 ****        -2.4471   0.9143  -2.1154 C.3            1 S1                 0.0000
      6 ****        -2.2940  -1.5084  -1.3557 C.2            1 S1                 0.0000
      7 ****        -0.7658  -1.4950  -1.3301 C.3            1 S1                 0.0000
      8 ****        -0.1128  -0.8987  -0.0801 C.2            1 S1                 0.0000
      9 ****        -0.7979  -0.5463   0.8805 O.2            1 S1                 0.0000
     10 ****         1.2234  -0.7851  -0.1139 N.am           1 S1                 0.0000
     11 ****         2.0501  -0.2240   0.9505 C.3            1 S1                 0.0000
     12 ****         3.4814  -0.7798   0.8403 C.3            1 S1                 0.0000
     13 ****         4.4043  -0.1652   1.9039 C.3            1 S1                 0.0000
     14 ****         4.4030   1.3694   1.8246 C.3            1 S1                 0.0000
     15 ****         2.9767   1.9395   1.9442 C.3            1 S1                 0.0000
     16 ****         2.9744   3.4726   1.8594 C.3            1 S1                 0.0000
     17 ****         2.0554   1.3173   0.8770 C.3            1 S1                 0.0000
     18 ****        -3.0018  -2.7524  -0.9713 C.2            1 S1                 0.0000
     19 ****        -2.3887  -3.7615  -0.6251 O.2            1 S1                 0.0000
     20 ****        -4.4057  -2.7532  -1.0061 N.2            1 S1                 0.0000
     21 ****        -4.9272   0.3545  -1.9801 H              1 S1                 0.0000
     22 ****        -6.9621  -2.6141  -1.2823 H              1 S1                 0.0000
     23 ****        -6.8765  -1.2192  -2.3620 H              1 S1                 0.0000
     24 ****        -6.9179  -0.9805  -0.6079 H              1 S1                 0.0000
     25 ****        -1.8477   0.8086  -3.0196 H              1 S1                 0.0000
     26 ****        -1.8104   1.3088  -1.3233 H              1 S1                 0.0000
     27 ****        -3.2267   1.6504  -2.3148 H              1 S1                 0.0000
     28 ****        -0.4128  -0.9279  -2.1917 H              1 S1                 0.0000
     29 ****        -0.3726  -2.5010  -1.4805 H              1 S1                 0.0000
     30 ****         1.7040  -1.1030  -0.9430 H              1 S1                 0.0000
     31 ****         1.6413  -0.5303   1.9156 H              1 S1                 0.0000
     32 ****         3.4705  -1.8652   0.9468 H              1 S1                 0.0000
     33 ****         3.8853  -0.5698  -0.1514 H              1 S1                 0.0000
     34 ****         4.0796  -0.4803   2.8963 H              1 S1                 0.0000
     35 ****         5.4191  -0.5428   1.7768 H              1 S1                 0.0000
     36 ****         5.0354   1.7758   2.6147 H              1 S1                 0.0000
     37 ****         4.8488   1.6844   0.8800 H              1 S1                 0.0000
     38 ****         2.5861   1.6648   2.9251 H              1 S1                 0.0000
     39 ****         3.3557   3.8170   0.8975 H              1 S1                 0.0000
     40 ****         3.5959   3.9108   2.6407 H              1 S1                 0.0000
     41 ****         1.9664   3.8701   1.9796 H              1 S1                 0.0000
     42 ****         2.3800   1.6359  -0.1150 H              1 S1                 0.0000
     43 ****         1.0411   1.6978   1.0045 H              1 S1                 0.0000
     44 ****        -1.7922  -0.6483   0.8497 LP             1 S1                 0.0000
     45 ****        -0.3600  -0.1582   1.6914 LP             1 S1                 0.0000
     46 ****        -1.3891  -3.7547  -0.5984 LP             1 S1                 0.0000
     47 ****        -2.8901  -4.5885  -0.3705 LP             1 S1                 0.0000
     48 ****        -4.9201  -3.5757  -0.7634 LP             1 S1                 0.0000
@<TRIPOS>BOND
    1    1   22 1     
    2    1   23 1     
    3    1   24 1     
    4    1    2 1     
    5    2    3 1     
    6    2   20 2     
    7    3    4 1     
    8    3   21 1     
    9    4    6 2     
   10    4    5 1     
   11    5   25 1     
   12    5   26 1     
   13    5   27 1     
   14    6   18 1     
   15    6    7 1     
   16    7    8 1     
   17    7   28 1     
   18    7   29 1     
   19    8    9 2     
   20    8   10 am    
   21   10   11 1     
   22   10   30 1     
   23   11   17 1     
   24   11   12 1     
   25   11   31 1     
   26   12   13 1     
   27   12   32 1     
   28   12   33 1     
   29   13   14 1     
   30   13   34 1     
   31   13   35 1     
   32   14   15 1     
   33   14   36 1     
   34   14   37 1     
   35   15   16 1     
   36   15   17 1     
   37   15   38 1     
   38   16   39 1     
   39   16   40 1     
   40   16   41 1     
   41   17   42 1     
   42   17   43 1     
   43   18   19 2     
   44   18   20 1     
   45    9   44 1     
   46    9   45 1     
   47   19   46 1     
   48   19   47 1     
   49   20   48 1     
@<TRIPOS>SUBSTRUCTURE
      1 S1             1
@<TRIPOS>SET
LONE_PAIRS      STATIC     ATOMS    <user>   **** ""
5 44 45 46 47 48
DONOR_HYDROGENS      STATIC     ATOMS    <user>   **** ""
2 21 30
ATOM$BLUE        STATIC     ATOMS    COLORGROUP SYSTEM
5 44 45 46 47 48
ATOM$RED        STATIC     ATOMS    COLORGROUP SYSTEM
2 21 30
