#       Name:                AV-unprocessed.smi:1120
#       Creating user name   scv26
#       Creation time:       Fri Mar 27 03:37:40 2020


#       File generated by GOLD software.
#

@<TRIPOS>MOLECULE
AV-unprocessed.smi:1120
    51    52     1
SMALL
NO_CHARGES


@<TRIPOS>ATOM
      1 ****         0.2114   3.9416   4.6691 C.3            1 S1                 0.0000
      2 ****        -0.3766   3.1226   3.5112 C.3            1 S1                 0.0000
      3 ****        -1.7475   2.5243   3.8823 C.3            1 S1                 0.0000
      4 ****        -2.3396   1.7030   2.7255 C.3            1 S1                 0.0000
      5 ****        -1.3680   0.6007   2.2713 C.3            1 S1                 0.0000
      6 ****        -1.9306  -0.1146   1.1244 N.pl3          1 S1                 0.0000
      7 ****        -2.3210  -1.7949   1.2069 S.o2           1 S1                 0.0000
      8 ****        -3.1082  -1.9971   2.4328 O.2            1 S1                 0.0000
      9 ****        -2.8742  -2.1738  -0.1028 O.2            1 S1                 0.0000
     10 ****        -0.6688  -2.6012   1.4281 C.3            1 S1                 0.0000
     11 ****         0.0585  -2.7293   0.0903 C.2            1 S1                 0.0000
     12 ****         0.1531  -3.8274  -0.4569 O.2            1 S1                 0.0000
     13 ****         0.5719  -1.6019  -0.4254 N.am           1 S1                 0.0000
     14 ****         1.2827  -1.5113  -1.6944 C.3            1 S1                 0.0000
     15 ****         0.3148  -1.5328  -2.8896 C.3            1 S1                 0.0000
     16 ****         1.0424  -1.4348  -4.2159 C.ar           1 S1                 0.0000
     17 ****         1.3352  -2.5740  -4.9965 C.ar           1 S1                 0.0000
     18 ****         2.0251  -2.4146  -6.2165 C.ar           1 S1                 0.0000
     19 ****         2.4083  -1.1216  -6.6291 C.ar           1 S1                 0.0000
     20 ****         2.0917  -0.0190  -5.8096 C.ar           1 S1                 0.0000
     21 ****         1.4296  -0.2126  -4.6477 N.pl3          1 S1                 1.0000
     22 ****         0.0067   1.1859   1.9026 C.3            1 S1                 0.0000
     23 ****         0.5910   2.0113   3.0599 C.3            1 S1                 0.0000
     24 ****         0.3883   3.3189   5.5466 H              1 S1                 0.0000
     25 ****        -0.4627   4.7464   4.9631 H              1 S1                 0.0000
     26 ****         1.1616   4.3955   4.3861 H              1 S1                 0.0000
     27 ****        -0.5234   3.8022   2.6704 H              1 S1                 0.0000
     28 ****        -1.6465   1.8889   4.7632 H              1 S1                 0.0000
     29 ****        -2.4410   3.3205   4.1550 H              1 S1                 0.0000
     30 ****        -3.2875   1.2612   3.0354 H              1 S1                 0.0000
     31 ****        -2.5660   2.3666   1.8896 H              1 S1                 0.0000
     32 ****        -1.2384  -0.1028   3.0947 H              1 S1                 0.0000
     33 ****        -1.6585   0.2253   0.2026 H              1 S1                 0.0000
     34 ****        -0.0795  -2.0422   2.1541 H              1 S1                 0.0000
     35 ****        -0.8386  -3.5966   1.8394 H              1 S1                 0.0000
     36 ****         0.4546  -0.7448   0.0955 H              1 S1                 0.0000
     37 ****         1.8549  -0.5832  -1.6939 H              1 S1                 0.0000
     38 ****         2.0066  -2.3242  -1.7731 H              1 S1                 0.0000
     39 ****        -0.2782  -2.4484  -2.8817 H              1 S1                 0.0000
     40 ****        -0.3949  -0.7079  -2.8113 H              1 S1                 0.0000
     41 ****         1.0382  -3.5584  -4.6646 H              1 S1                 0.0000
     42 ****         2.2582  -3.2745  -6.8274 H              1 S1                 0.0000
     43 ****         2.9379  -0.9783  -7.5596 H              1 S1                 0.0000
     44 ****         2.3461   1.0039  -6.0458 H              1 S1                 0.0000
     45 ****         0.6991   0.3854   1.6419 H              1 S1                 0.0000
     46 ****        -0.0842   1.8177   1.0179 H              1 S1                 0.0000
     47 ****         1.5422   2.4470   2.7522 H              1 S1                 0.0000
     48 ****         0.8121   1.3511   3.8999 H              1 S1                 0.0000
     49 ****         1.2117   0.5999  -4.0705 H              1 S1                 0.0000
     50 ****        -0.2461  -4.6367  -0.0261 LP             1 S1                 0.0000
     51 ****         0.6292  -3.9104  -1.3324 LP             1 S1                 0.0000
@<TRIPOS>BOND
    1    1    2 1     
    2    1   24 1     
    3    1   25 1     
    4    1   26 1     
    5    2   23 1     
    6    2    3 1     
    7    2   27 1     
    8    3    4 1     
    9    3   28 1     
   10    3   29 1     
   11    4    5 1     
   12    4   30 1     
   13    4   31 1     
   14    5    6 1     
   15    5   22 1     
   16    5   32 1     
   17    6    7 1     
   18    6   33 1     
   19    7    8 2     
   20    7    9 2     
   21    7   10 1     
   22   10   11 1     
   23   10   34 1     
   24   10   35 1     
   25   11   12 2     
   26   11   13 am    
   27   13   14 1     
   28   13   36 1     
   29   14   15 1     
   30   14   37 1     
   31   14   38 1     
   32   15   16 1     
   33   15   39 1     
   34   15   40 1     
   35   16   21 ar    
   36   16   17 ar    
   37   17   18 ar    
   38   17   41 1     
   39   18   19 ar    
   40   18   42 1     
   41   19   20 ar    
   42   19   43 1     
   43   20   21 ar    
   44   20   44 1     
   45   21   49 1     
   46   22   23 1     
   47   22   45 1     
   48   22   46 1     
   49   23   47 1     
   50   23   48 1     
   51   12   50 1     
   52   12   51 1     
@<TRIPOS>SUBSTRUCTURE
      1 S1             1
@<TRIPOS>SET
LONE_PAIRS      STATIC     ATOMS    <user>   **** ""
4 8 9 50 51
DONOR_HYDROGENS      STATIC     ATOMS    <user>   **** ""
3 33 36 49
ATOM$BLUE        STATIC     ATOMS    COLORGROUP SYSTEM
4 8 9 50 51
ATOM$RED        STATIC     ATOMS    COLORGROUP SYSTEM
3 33 36 49
