AV-unprocessed.smi:3054|AV-procd|sdf|11639|dock7
  -GOLD-   2272017 33D 1   1.00000     0.00000
 Structure written by MMmdl.
 40 41  0  0  0  0  0  0  0  0  2 V2000
  147.4761  141.8141  154.3279 C   0  0  0  0  0  0  0  0  0  0  0  0
  148.5015  140.7003  154.5912 C   0  0  0  0  0  0  0  0  0  0  0  0
  148.4613  139.5283  153.5727 C   0  0  2  0  0  0  0  0  0  0  0  0
  147.0189  139.0244  153.3112 C   0  0  0  0  0  0  0  0  0  0  0  0
  147.0058  137.7109  152.6749 N   0  0  0  0  0  0  0  0  0  0  0  0
  145.9028  137.0027  152.3978 C   0  0  0  0  0  0  0  0  0  0  0  0
  144.7635  137.3874  152.6602 O   0  0  0  0  0  0  0  0  0  0  0  0
  146.2080  135.8378  151.8038 N   0  0  0  0  0  0  0  0  0  0  0  0
  145.3062  134.8349  151.3686 C   0  0  0  0  0  0  0  0  0  0  0  0
  145.4536  133.4167  151.3906 C   0  0  0  0  0  0  0  0  0  0  0  0
  144.3830  132.8156  150.8910 N   0  0  0  0  0  0  0  0  0  0  0  0
  143.5575  133.8311  150.5519 N   0  0  0  0  0  0  0  0  0  0  0  0
  144.0798  135.0760  150.8251 C   0  0  0  0  0  0  0  0  0  0  0  0
  149.3690  138.4180  153.9882 N   0  3  0  0  0  0  0  0  0  0  0  0
  150.7822  138.7895  154.2185 C   0  0  0  0  0  0  0  0  0  0  0  0
  151.3554  137.6575  155.0628 C   0  0  0  0  0  0  0  0  0  0  0  0
  150.1949  137.2921  155.9809 C   0  0  0  0  0  0  0  0  0  0  0  0
  148.9332  137.6529  155.1845 C   0  0  0  0  0  0  0  0  0  0  0  0
  142.6514  133.6599  150.1394 H   0  0  0  0  0  0  0  0  0  0  0  0
  147.5391  142.5825  155.0988 H   0  0  0  0  0  0  0  0  0  0  0  0
  146.4562  141.4295  154.3312 H   0  0  0  0  0  0  0  0  0  0  0  0
  147.6500  142.3029  153.3693 H   0  0  0  0  0  0  0  0  0  0  0  0
  149.4980  141.1427  154.6036 H   0  0  0  0  0  0  0  0  0  0  0  0
  148.3583  140.3259  155.6044 H   0  0  0  0  0  0  0  0  0  0  0  0
  148.8442  139.9100  152.6245 H   0  0  0  0  0  0  0  0  0  0  0  0
  146.4661  138.9234  154.2452 H   0  0  0  0  0  0  0  0  0  0  0  0
  146.4760  139.7546  152.7085 H   0  0  0  0  0  0  0  0  0  0  0  0
  147.9000  137.3138  152.4257 H   0  0  0  0  0  0  0  0  0  0  0  0
  147.1868  135.6470  151.6473 H   0  0  0  0  0  0  0  0  0  0  0  0
  146.2753  132.8100  151.7404 H   0  0  0  0  0  0  0  0  0  0  0  0
  143.5488  135.9927  150.6147 H   0  0  0  0  0  0  0  0  0  0  0  0
  151.3299  138.9170  153.2841 H   0  0  0  0  0  0  0  0  0  0  0  0
  150.8320  139.7262  154.7767 H   0  0  0  0  0  0  0  0  0  0  0  0
  151.6060  136.8087  154.4251 H   0  0  0  0  0  0  0  0  0  0  0  0
  152.2541  137.9472  155.6084 H   0  0  0  0  0  0  0  0  0  0  0  0
  150.2168  136.2435  156.2799 H   0  0  0  0  0  0  0  0  0  0  0  0
  150.2410  137.8961  156.8882 H   0  0  0  0  0  0  0  0  0  0  0  0
  148.2600  138.2363  155.8144 H   0  0  0  0  0  0  0  0  0  0  0  0
  148.3970  136.7595  154.8629 H   0  0  0  0  0  0  0  0  0  0  0  0
  149.3852  137.7537  153.2272 H   0  0  0  0  0  0  0  0  0  0  0  0
  1  2  1  0  0  0  0
  1 20  1  0  0  0  0
  1 21  1  0  0  0  0
  1 22  1  0  0  0  0
  2  3  1  0  0  0  0
  2 23  1  0  0  0  0
  2 24  1  0  0  0  0
  3  4  1  0  0  0  0
  3 14  1  0  0  0  0
  3 25  1  0  0  0  0
  4  5  1  0  0  0  0
  4 26  1  0  0  0  0
  4 27  1  0  0  0  0
  5  6  1  0  0  0  0
  5 28  1  0  0  0  0
  6  7  2  0  0  0  0
  6  8  1  0  0  0  0
  8  9  1  0  0  0  0
  8 29  1  0  0  0  0
  9 13  2  0  0  0  0
  9 10  1  0  0  0  0
 10 11  2  0  0  0  0
 10 30  1  0  0  0  0
 11 12  1  0  0  0  0
 12 19  1  0  0  0  0
 12 13  1  0  0  0  0
 13 31  1  0  0  0  0
 14 18  1  0  0  0  0
 14 15  1  0  0  0  0
 14 40  1  0  0  0  0
 15 16  1  0  0  0  0
 15 32  1  0  0  0  0
 15 33  1  0  0  0  0
 16 17  1  0  0  0  0
 16 34  1  0  0  0  0
 16 35  1  0  0  0  0
 17 18  1  0  0  0  0
 17 36  1  0  0  0  0
 17 37  1  0  0  0  0
 18 38  1  0  0  0  0
 18 39  1  0  0  0  0
M  CHG  1  14   1
M  END
> <s_m_source_file>
AV-unprocessed.smi

> <i_m_source_file_index>
3054

> <i_lp_mmshare_version>
43012

> <i_f3d_flags>
0

> <s_epik_input>
W0NIMl0xW0NIMl1bQ0gyXVtDSDJdTjFbQ0BIXShbQ0gyXVtDSDNdKVtDSDJdW05IXUMoPU8pW05IXWMyW2NIXW5bbkhdW2NIXTI=

> <s_epik_cmdline>
J2VwaWtfcHl0aG9uJywgJy1waCcsICc3LjAnLCAnLXRuJywgJzgnLCAnLW1hJywgJzIwMCcsICctbWV0YWxfYmluZGluZycsICctaW1hZScsICc8aW5maWxlLm1hZT4nLCAnLW9tYWUnLCAnPG91dGZpbGUubWFlPic=

> <r_lp_tautomer_probability>
0.5

> <r_epik_Ionization_Penalty>
0.00108132

> <r_epik_Ionization_Penalty_Charging>
0.00104139

> <r_epik_Ionization_Penalty_Neutral>
3.99244e-05

> <r_epik_State_Penalty>
0.00068071

> <r_epik_Charging_Adjusted_Penalty>
0.0017221

> <i_epik_Tot_Q>
1

> <i_epik_Tot_abs_Q>
1

> <r_epik_Metal_State_Penalty>
-0

> <b_epik_Metal_Only>
0

> <s_lp_Force_Field>
OPLS_2005

> <r_lp_Energy>
36.476

> <b_lp_Chiralities_Consistent>
1

> <s_lp_Variant>
AV-unprocessed.smi:3054-1

> <Gold.Version>
5.8.1

> <Gold.Id.Protein>
6NUR|6NUR_protein|mol2

> <Gold.PLP.Fitness>
45.4191

> <Gold.PLP.PLP>
-28.5516

> <Gold.PLP.part.hbond>
-4.6671

> <Gold.PLP.part.metal>
0.0000

> <Gold.PLP.part.buried>
-2.4150

> <Gold.PLP.part.nonpolar>
-23.6471

> <Gold.PLP.part.repulsive>
1.0841

> <Gold.PLP.ligand.clash>
0.0000

> <Gold.PLP.ligand.torsion>
0.5369

> <Gold.PLP.Chemscore.Hbond>
4.9520

> <Gold.PLP.Chemscore.CHOScore>
1.0000

> <Gold.PLP.Chemscore.Metal>
0.0000

> <Gold.Chemscore.Hbonds>
donor molecule, donor type, donor heavy atom, donor atom, acceptor molecule, acceptor atom, score
      L1  H     5    28       P1  7948  1.00
      L1  H     8    29       P1  7948  0.98
      L1  H    12    19       P1 10186  0.93
      L1  H    14    40       P1  7948  1.85
      L1  C    13    31       P1 10171  0.55

> <Gold.PLP.Chemscore.Internal.Correction>
0.0852

> <Gold.Rescore>
     Score         DG    S(hbond)    S(metal)    S(lipo)     H(rot)  DE(clash)    DE(int)     intcor
     19.51     -20.34       3.72        0.00      60.47       1.81       0.04       0.79       ----

> <Gold.Chemscore.Fitness>
19.5149

> <Gold.Chemscore.DG>
-20.3402

> <Gold.Chemscore.ZeroCoef>
-5.4800

> <Gold.Chemscore.Hbond>
3.7179

> <Gold.Chemscore.Metal>
0.0000

> <Gold.Chemscore.Lipo>
60.4669

> <Gold.Chemscore.Internal_Hbond>
0.0000

> <Gold.Chemscore.DEClash>
0.0402

> <Gold.Chemscore.DEInternal>
0.7850

> <Gold.Chemscore.Rot>
1.8094

> <Gold.Chemscore.Internal.Correction>
   9.000000E+99

> <Gold.Chemscore.Hbonds>
donor molecule, donor type, donor heavy atom, donor atom, acceptor molecule, acceptor atom, score
      L1  H     5    28       P1  7948  0.98
      L1  H     8    29       P1  7948  0.92
      L1  H    12    19       P1 10186  0.89
      L1  H    14    40       P1  7948  0.85

> <Gold.Chemscore.Hbond.Weighted>
-12.4177

> <Gold.Chemscore.Metal.Weighted>
-0.0000

> <Gold.Chemscore.Lipo.Weighted>
-7.0746

> <Gold.Chemscore.Internal_Hbond.Weighted>
0.0000

> <Gold.Chemscore.DEClash.Weighted>
0.0402

> <Gold.Chemscore.DEInternal.Weighted>
0.7850

> <Gold.Chemscore.Rot.Weighted>
4.6322

> <Gold.Chemscore.Internal.Correction.Weighted>
   9.000000E+99

> <Gold.Protein.RotatedTorsions>
[ 6907 6896 6895 6894 ] final  166.09 input  -60.11 | X-H torsion
[ 7974 7965 7964 7962 ] final  -87.07 input  175.53 | X-H torsion
[ 8008 7997 7996 7995 ] final   25.72 input   59.86 | X-H torsion
[ 10167 10162 10161 10158 ] final   95.79 input  -65.29 | X-H torsion
[ 10718 10713 10712 10709 ] final  175.38 input   66.30 | X-H torsion
[ 10763 10752 10751 10750 ] final  144.31 input  -60.55 | X-H torsion
[ 11005 11000 10999 10996 ] final  162.07 input  -57.11 | X-H torsion

> <Gold.Protein.ActiveResidues>
 VAL166  LYS551  ARG553  GLY616  TRP617  ASP618  TYR619  PRO620  LYS621  CYS622 
 ASP623  PHE694  ASN695  SER759  ASP760  ASP761  ALA762  ILE779  LEU786  VAL792 
 PHE793  MET794  SER795  GLU796  ALA797  LYS798  CYS799  TRP800  GLU811  SER814 

> <Gold.Protein.RotatedAtoms>
  151.8843  133.3502  159.3776 H   0  0  0  0  0  0  0  0  0  0  0  0  # atno 6907 bound_to 6896
  150.7119  134.4987  159.5560 H   0  0  0  0  0  0  0  0  0  0  0  0  # atno 6908 bound_to 6896
  152.2545  134.8099  160.0491 H   0  0  0  0  0  0  0  0  0  0  0  0  # atno 6909 bound_to 6896
  145.4714  140.9559  143.1915 H   0  0  0  0  0  0  0  0  0  0  0  0  # atno 7974 bound_to 7965
  155.0161  140.3142  155.4811 H   0  0  0  0  0  0  0  0  0  0  0  0  # atno 8008 bound_to 7997
  156.2900  140.2206  156.5219 H   0  0  0  0  0  0  0  0  0  0  0  0  # atno 8009 bound_to 7997
  154.7492  140.0467  157.0867 H   0  0  0  0  0  0  0  0  0  0  0  0  # atno 8010 bound_to 7997
  139.7955  144.6835  150.9834 H   0  0  0  0  0  0  0  0  0  0  0  0  # atno 10167 bound_to 10162
  156.9357  130.9985  151.2978 H   0  0  0  0  0  0  0  0  0  0  0  0  # atno 10718 bound_to 10713
  153.9867  135.2936  155.3415 H   0  0  0  0  0  0  0  0  0  0  0  0  # atno 10763 bound_to 10752
  154.7238  135.5098  153.8857 H   0  0  0  0  0  0  0  0  0  0  0  0  # atno 10764 bound_to 10752
  153.0829  135.6684  154.0124 H   0  0  0  0  0  0  0  0  0  0  0  0  # atno 10765 bound_to 10752
  140.2221  134.8188  157.3231 H   0  0  0  0  0  0  0  0  0  0  0  0  # atno 11005 bound_to 11000
  144.7943  139.6266  143.7100 LP  0  0  0  0  0  0  0  0  0  0  0  0  # atno 17320 bound_to 7965
  146.2394  139.5971  142.9501 LP  0  0  0  0  0  0  0  0  0  0  0  0  # atno 17321 bound_to 7965
  140.7820  143.4335  151.0658 LP  0  0  0  0  0  0  0  0  0  0  0  0  # atno 17342 bound_to 10162
  139.8010  143.8084  152.3163 LP  0  0  0  0  0  0  0  0  0  0  0  0  # atno 17343 bound_to 10162
  157.5817  130.8381  149.8532 LP  0  0  0  0  0  0  0  0  0  0  0  0  # atno 17370 bound_to 10713
  156.0427  130.3735  150.1395 LP  0  0  0  0  0  0  0  0  0  0  0  0  # atno 17371 bound_to 10713
  140.1839  134.4456  155.7756 LP  0  0  0  0  0  0  0  0  0  0  0  0  # atno 17394 bound_to 11000
  141.2222  133.6996  156.7914 LP  0  0  0  0  0  0  0  0  0  0  0  0  # atno 17395 bound_to 11000

$$$$
