AV-unprocessed.smi:2311|AV-procd|sdf|9262|dock6
  -GOLD-   2272012483D 1   1.00000     0.00000
 Structure written by MMmdl.
 40 41  0  0  0  0  0  0  0  0  1 V2000
  141.6863  134.7039  153.1818 C   0  0  0  0  0  0  0  0  0  0  0  0
  143.0246  134.5768  152.4850 C   0  0  0  0  0  0  0  0  0  0  0  0
  143.2521  133.5656  151.5308 C   0  0  0  0  0  0  0  0  0  0  0  0
  144.5167  133.5046  150.9186 C   0  0  0  0  0  0  0  0  0  0  0  0
  145.4942  134.4511  151.2820 C   0  0  0  0  0  0  0  0  0  0  0  0
  145.1846  135.4346  152.2483 C   0  0  0  0  0  0  0  0  0  0  0  0
  146.2373  136.3411  152.5442 N   0  0  0  0  0  0  0  0  0  0  0  0
  146.2060  137.4172  153.3504 C   0  0  0  0  0  0  0  0  0  0  0  0
  145.2245  137.8038  153.9858 O   0  0  0  0  0  0  0  0  0  0  0  0
  147.3956  138.0359  153.3802 N   0  0  0  0  0  0  0  0  0  0  0  0
  147.6999  139.2366  154.1538 C   0  0  1  0  0  0  0  0  0  0  0  0
  149.1806  139.5983  153.9892 C   0  0  0  0  0  0  0  0  0  0  0  0
  149.4950  140.9230  154.6977 C   0  0  0  0  0  0  0  0  0  0  0  0
  148.6495  141.9628  154.2095 O   0  0  0  0  0  0  0  0  0  0  0  0
  147.2407  141.7566  154.3596 C   0  0  0  0  0  0  0  0  0  0  0  0
  146.8332  141.8116  155.8478 C   0  0  0  0  0  0  0  0  0  0  0  0
  146.5801  142.9316  153.6197 C   0  0  0  0  0  0  0  0  0  0  0  0
  146.8363  140.4227  153.6865 C   0  0  0  0  0  0  0  0  0  0  0  0
  143.9617  135.4845  152.8336 N   0  0  0  0  0  0  0  0  0  0  0  0
  141.0432  133.8517  152.9604 H   0  0  0  0  0  0  0  0  0  0  0  0
  141.1762  135.6106  152.8562 H   0  0  0  0  0  0  0  0  0  0  0  0
  141.8217  134.7548  154.2625 H   0  0  0  0  0  0  0  0  0  0  0  0
  142.4805  132.8552  151.2725 H   0  0  0  0  0  0  0  0  0  0  0  0
  144.7344  132.7455  150.1817 H   0  0  0  0  0  0  0  0  0  0  0  0
  146.4705  134.4181  150.8205 H   0  0  0  0  0  0  0  0  0  0  0  0
  147.1159  136.1488  152.0866 H   0  0  0  0  0  0  0  0  0  0  0  0
  148.1466  137.6502  152.8270 H   0  0  0  0  0  0  0  0  0  0  0  0
  147.5083  139.0350  155.2089 H   0  0  0  0  0  0  0  0  0  0  0  0
  149.8123  138.8035  154.3876 H   0  0  0  0  0  0  0  0  0  0  0  0
  149.4256  139.6921  152.9301 H   0  0  0  0  0  0  0  0  0  0  0  0
  149.4008  140.8198  155.7785 H   0  0  0  0  0  0  0  0  0  0  0  0
  150.5304  141.2052  154.5073 H   0  0  0  0  0  0  0  0  0  0  0  0
  145.7495  141.7570  155.9567 H   0  0  0  0  0  0  0  0  0  0  0  0
  147.1624  142.7430  156.3094 H   0  0  0  0  0  0  0  0  0  0  0  0
  147.2514  140.9927  156.4312 H   0  0  0  0  0  0  0  0  0  0  0  0
  145.4924  142.8626  153.6564 H   0  0  0  0  0  0  0  0  0  0  0  0
  146.8745  142.9552  152.5699 H   0  0  0  0  0  0  0  0  0  0  0  0
  146.8666  143.8871  154.0604 H   0  0  0  0  0  0  0  0  0  0  0  0
  146.9431  140.5230  152.6052 H   0  0  0  0  0  0  0  0  0  0  0  0
  145.7801  140.2189  153.8676 H   0  0  0  0  0  0  0  0  0  0  0  0
  1  2  1  0  0  0  0
  1 20  1  0  0  0  0
  1 21  1  0  0  0  0
  1 22  1  0  0  0  0
  2 19  1  0  0  0  0
  2  3  2  0  0  0  0
  3  4  1  0  0  0  0
  3 23  1  0  0  0  0
  4  5  2  0  0  0  0
  4 24  1  0  0  0  0
  5  6  1  0  0  0  0
  5 25  1  0  0  0  0
  6  7  1  0  0  0  0
  6 19  2  0  0  0  0
  7  8  1  0  0  0  0
  7 26  1  0  0  0  0
  8  9  2  0  0  0  0
  8 10  1  0  0  0  0
 10 11  1  0  0  0  0
 10 27  1  0  0  0  0
 11 18  1  0  0  0  0
 11 12  1  0  0  0  0
 11 28  1  0  0  0  0
 12 13  1  0  0  0  0
 12 29  1  0  0  0  0
 12 30  1  0  0  0  0
 13 14  1  0  0  0  0
 13 31  1  0  0  0  0
 13 32  1  0  0  0  0
 14 15  1  0  0  0  0
 15 16  1  0  0  0  0
 15 17  1  0  0  0  0
 15 18  1  0  0  0  0
 16 33  1  0  0  0  0
 16 34  1  0  0  0  0
 16 35  1  0  0  0  0
 17 36  1  0  0  0  0
 17 37  1  0  0  0  0
 17 38  1  0  0  0  0
 18 39  1  0  0  0  0
 18 40  1  0  0  0  0
M  END
> <s_m_source_file>
AV-unprocessed.smi

> <i_m_source_file_index>
2311

> <i_lp_mmshare_version>
43012

> <i_f3d_flags>
0

> <s_epik_input>
W0NIM11jMVtjSF1bY0hdW2NIXWMobjEpW05IXUMoPU8pW05IXVtDQEBIXShbQ0gyXTIpW0NIMl1bQ0gyXU9DMihbQ0gzXSlbQ0gzXQ==

> <s_epik_cmdline>
J2VwaWtfcHl0aG9uJywgJy1waCcsICc3LjAnLCAnLXRuJywgJzgnLCAnLW1hJywgJzIwMCcsICctbWV0YWxfYmluZGluZycsICctaW1hZScsICc8aW5maWxlLm1hZT4nLCAnLW9tYWUnLCAnPG91dGZpbGUubWFlPic=

> <r_lp_tautomer_probability>
1

> <r_epik_Ionization_Penalty>
8.54628e-05

> <r_epik_Ionization_Penalty_Charging>
0

> <r_epik_Ionization_Penalty_Neutral>
8.54628e-05

> <r_epik_State_Penalty>
-0

> <r_epik_Charging_Adjusted_Penalty>
0

> <i_epik_Tot_Q>
0

> <i_epik_Tot_abs_Q>
0

> <r_epik_Metal_State_Penalty>
-0

> <b_epik_Metal_Only>
0

> <s_lp_Force_Field>
OPLS_2005

> <r_lp_Energy>
12.4955

> <b_lp_Chiralities_Consistent>
1

> <s_lp_Variant>
AV-unprocessed.smi:2311-2

> <Gold.Version>
5.8.1

> <Gold.Id.Protein>
6NUR|6NUR_protein|mol2

> <Gold.PLP.Fitness>
37.5379

> <Gold.PLP.PLP>
-30.9313

> <Gold.PLP.part.hbond>
-3.0000

> <Gold.PLP.part.metal>
0.0000

> <Gold.PLP.part.buried>
-2.4839

> <Gold.PLP.part.nonpolar>
-25.6986

> <Gold.PLP.part.repulsive>
0.6062

> <Gold.PLP.ligand.clash>
0.0000

> <Gold.PLP.ligand.torsion>
0.0117

> <Gold.PLP.Chemscore.Hbond>
2.2100

> <Gold.PLP.Chemscore.CHOScore>
0.0000

> <Gold.PLP.Chemscore.Metal>
0.0000

> <Gold.Chemscore.Hbonds>
donor molecule, donor type, donor heavy atom, donor atom, acceptor molecule, acceptor atom, score
      L1  H     7    26       P1  7948  1.00
      L1  H    10    27       P1  7948  1.00
      P1  H  8011  8017       L1    14  0.18

> <Gold.PLP.Chemscore.Internal.Correction>
0.0002

> <Gold.Rescore>
     Score         DG    S(hbond)    S(metal)    S(lipo)     H(rot)  DE(clash)    DE(int)     intcor
     16.31     -17.69       1.97        0.00      69.99       1.00       0.07       1.31       ----

> <Gold.Chemscore.Fitness>
16.3071

> <Gold.Chemscore.DG>
-17.6889

> <Gold.Chemscore.ZeroCoef>
-5.4800

> <Gold.Chemscore.Hbond>
1.9700

> <Gold.Chemscore.Metal>
0.0000

> <Gold.Chemscore.Lipo>
69.9935

> <Gold.Chemscore.Internal_Hbond>
0.0000

> <Gold.Chemscore.DEClash>
0.0720

> <Gold.Chemscore.DEInternal>
1.3098

> <Gold.Chemscore.Rot>
1.0000

> <Gold.Chemscore.Internal.Correction>
   9.000000E+99

> <Gold.Chemscore.Hbonds>
donor molecule, donor type, donor heavy atom, donor atom, acceptor molecule, acceptor atom, score
      L1  H     7    26       P1  7948  0.99
      L1  H    10    27       P1  7948  0.97
      P1  H  8011  8017       L1    14  0.03

> <Gold.Chemscore.Hbond.Weighted>
-6.5797

> <Gold.Chemscore.Metal.Weighted>
-0.0000

> <Gold.Chemscore.Lipo.Weighted>
-8.1892

> <Gold.Chemscore.Internal_Hbond.Weighted>
0.0000

> <Gold.Chemscore.DEClash.Weighted>
0.0720

> <Gold.Chemscore.DEInternal.Weighted>
1.3098

> <Gold.Chemscore.Rot.Weighted>
2.5600

> <Gold.Chemscore.Internal.Correction.Weighted>
   9.000000E+99

> <Gold.Protein.RotatedTorsions>
[ 6907 6896 6895 6894 ] final   27.27 input  -60.11 | X-H torsion
[ 7974 7965 7964 7962 ] final  -81.07 input  175.53 | X-H torsion
[ 8008 7997 7996 7995 ] final  -70.53 input   59.86 | X-H torsion
[ 10167 10162 10161 10158 ] final   72.96 input  -65.29 | X-H torsion
[ 10718 10713 10712 10709 ] final  148.89 input   66.30 | X-H torsion
[ 10763 10752 10751 10750 ] final  -44.06 input  -60.55 | X-H torsion
[ 11005 11000 10999 10996 ] final   99.78 input  -57.11 | X-H torsion

> <Gold.Protein.ActiveResidues>
 VAL166  LYS551  ARG553  GLY616  TRP617  ASP618  TYR619  PRO620  LYS621  CYS622 
 ASP623  PHE694  ASN695  SER759  ASP760  ASP761  ALA762  ILE779  LEU786  VAL792 
 PHE793  MET794  SER795  GLU796  ALA797  LYS798  CYS799  TRP800  GLU811  SER814 

> <Gold.Protein.RotatedAtoms>
  151.9998  134.9934  160.0564 H   0  0  0  0  0  0  0  0  0  0  0  0  # atno 6907 bound_to 6896
  152.1530  133.4529  159.4831 H   0  0  0  0  0  0  0  0  0  0  0  0  # atno 6908 bound_to 6896
  150.6878  134.2084  159.4392 H   0  0  0  0  0  0  0  0  0  0  0  0  # atno 6909 bound_to 6896
  145.5515  140.9496  143.1496 H   0  0  0  0  0  0  0  0  0  0  0  0  # atno 7974 bound_to 7965
  154.5019  140.0832  156.7814 H   0  0  0  0  0  0  0  0  0  0  0  0  # atno 8008 bound_to 7997
  155.3984  140.3436  155.4237 H   0  0  0  0  0  0  0  0  0  0  0  0  # atno 8009 bound_to 7997
  156.1467  140.1546  156.8823 H   0  0  0  0  0  0  0  0  0  0  0  0  # atno 8010 bound_to 7997
  140.0296  144.5476  150.7517 H   0  0  0  0  0  0  0  0  0  0  0  0  # atno 10167 bound_to 10162
  157.3029  131.0874  151.1376 H   0  0  0  0  0  0  0  0  0  0  0  0  # atno 10718 bound_to 10713
  154.0058  135.6687  153.4762 H   0  0  0  0  0  0  0  0  0  0  0  0  # atno 10763 bound_to 10752
  153.0642  135.5010  154.8159 H   0  0  0  0  0  0  0  0  0  0  0  0  # atno 10764 bound_to 10752
  154.7025  135.3081  154.9283 H   0  0  0  0  0  0  0  0  0  0  0  0  # atno 10765 bound_to 10752
  139.8770  134.9111  156.4657 H   0  0  0  0  0  0  0  0  0  0  0  0  # atno 11005 bound_to 11000
  144.7527  139.7153  143.7266 LP  0  0  0  0  0  0  0  0  0  0  0  0  # atno 17320 bound_to 7965
  146.1913  139.5155  142.9803 LP  0  0  0  0  0  0  0  0  0  0  0  0  # atno 17321 bound_to 7965
  140.7308  143.2687  151.3960 LP  0  0  0  0  0  0  0  0  0  0  0  0  # atno 17342 bound_to 10162
  139.6085  144.1148  152.2274 LP  0  0  0  0  0  0  0  0  0  0  0  0  # atno 17343 bound_to 10162
  157.2728  130.6712  149.6028 LP  0  0  0  0  0  0  0  0  0  0  0  0  # atno 17370 bound_to 10713
  155.9672  130.4474  150.5578 LP  0  0  0  0  0  0  0  0  0  0  0  0  # atno 17371 bound_to 10713
  140.8832  133.7903  155.9489 LP  0  0  0  0  0  0  0  0  0  0  0  0  # atno 17394 bound_to 11000
  140.8832  134.2585  157.5133 LP  0  0  0  0  0  0  0  0  0  0  0  0  # atno 17395 bound_to 11000

$$$$
