#       Name:                AV-unprocessed.smi:731
#       Creating user name   scv26
#       Creation time:       Fri Mar 27 00:52:04 2020


#       File generated by GOLD software.
#

@<TRIPOS>MOLECULE
AV-unprocessed.smi:731
    37    38     1
SMALL
NO_CHARGES


@<TRIPOS>ATOM
      1 ****        -1.2103  -0.5996   0.3538 O.2            1 S1                 0.0000
      2 ****        -1.0373  -0.2963  -0.8273 C.2            1 S1                 0.0000
      3 ****        -0.5605  -1.1522  -1.7457 N.am           1 S1                 0.0000
      4 ****        -0.1547  -2.5325  -1.4898 C.3            1 S1                 0.0000
      5 ****         1.3670  -2.6761  -1.2914 C.3            1 S1                 0.0000
      6 ****         1.9200  -1.8427  -0.1804 C.2            1 S1                 0.0000
      7 ****         1.8442  -2.1912   1.1063 N.2            1 S1                 0.0000
      8 ****         2.3781  -1.2222   1.9627 C.2            1 S1                 0.0000
      9 ****         2.3653  -1.4508   3.4465 C.3            1 S1                 0.0000
     10 ****         2.9122  -0.4289   4.1055 F              1 S1                 0.0000
     11 ****         1.1204  -1.5995   3.8988 F              1 S1                 0.0000
     12 ****         3.0491  -2.5483   3.7695 F              1 S1                 0.0000
     13 ****         2.8682  -0.1262   1.2947 C.2            1 S1                 0.0000
     14 ****         2.6727  -0.2709  -0.4297 S.3            1 S1                 0.0000
     15 ****        -1.3487   1.1268  -1.3175 C.3            1 S1                 0.0000
     16 ****        -0.4448   2.1798  -0.6337 C.3            1 S1                 0.0000
     17 ****        -1.3717   3.1530   0.1050 C.3            1 S1                 0.0000
     18 ****        -2.6837   2.3962   0.2886 C.3            1 S1                 0.0000
     19 ****        -2.7921   1.5459  -0.9761 C.3            1 S1                 0.0000
     20 ****        -0.4521  -0.8153  -2.6913 H              1 S1                 0.0000
     21 ****        -0.6815  -2.9331  -0.6219 H              1 S1                 0.0000
     22 ****        -0.4687  -3.1398  -2.3389 H              1 S1                 0.0000
     23 ****         1.6152  -3.7205  -1.0989 H              1 S1                 0.0000
     24 ****         1.8836  -2.4044  -2.2126 H              1 S1                 0.0000
     25 ****         3.3282   0.7569   1.7127 H              1 S1                 0.0000
     26 ****        -1.2118   1.1666  -2.3994 H              1 S1                 0.0000
     27 ****         0.2448   1.7224   0.0781 H              1 S1                 0.0000
     28 ****         0.1690   2.7091  -1.3632 H              1 S1                 0.0000
     29 ****        -0.9511   3.4947   1.0511 H              1 S1                 0.0000
     30 ****        -1.5451   4.0332  -0.5159 H              1 S1                 0.0000
     31 ****        -2.6203   1.7515   1.1664 H              1 S1                 0.0000
     32 ****        -3.5375   3.0610   0.4226 H              1 S1                 0.0000
     33 ****        -3.1950   2.1511  -1.7893 H              1 S1                 0.0000
     34 ****        -3.4714   0.7027  -0.8404 H              1 S1                 0.0000
     35 ****        -0.9926  -1.5230   0.6700 LP             1 S1                 0.0000
     36 ****        -1.5685   0.0775   0.9966 LP             1 S1                 0.0000
     37 ****         1.4482  -3.0528   1.4239 LP             1 S1                 0.0000
@<TRIPOS>BOND
    1    1    2 2     
    2    2    3 am    
    3    2   15 1     
    4    3    4 1     
    5    3   20 1     
    6    4    5 1     
    7    4   21 1     
    8    4   22 1     
    9    5    6 1     
   10    5   23 1     
   11    5   24 1     
   12    6   14 1     
   13    6    7 2     
   14    7    8 1     
   15    8    9 1     
   16    8   13 2     
   17    9   10 1     
   18    9   11 1     
   19    9   12 1     
   20   13   14 1     
   21   13   25 1     
   22   15   19 1     
   23   15   16 1     
   24   15   26 1     
   25   16   17 1     
   26   16   27 1     
   27   16   28 1     
   28   17   18 1     
   29   17   29 1     
   30   17   30 1     
   31   18   19 1     
   32   18   31 1     
   33   18   32 1     
   34   19   33 1     
   35   19   34 1     
   36    1   35 1     
   37    1   36 1     
   38    7   37 1     
@<TRIPOS>SUBSTRUCTURE
      1 S1             1
@<TRIPOS>SET
LONE_PAIRS      STATIC     ATOMS    <user>   **** ""
3 35 36 37
DONOR_HYDROGENS      STATIC     ATOMS    <user>   **** ""
1 20
ATOM$BLUE        STATIC     ATOMS    COLORGROUP SYSTEM
3 35 36 37
ATOM$RED        STATIC     ATOMS    COLORGROUP SYSTEM
1 20
