#       Name:                AV-unprocessed.smi:314
#       Creating user name   scv26
#       Creation time:       Thu Mar 26 22:21:36 2020


#       File generated by GOLD software.
#

@<TRIPOS>MOLECULE
AV-unprocessed.smi:314
    57    58     1
SMALL
NO_CHARGES


@<TRIPOS>ATOM
      1 ****        -8.2681   3.1224  -1.7540 C.3            1 S1                 0.0000
      2 ****        -7.0369   3.6560  -1.2793 O.3            1 S1                 0.0000
      3 ****        -5.8785   2.9471  -1.5233 C.ar           1 S1                 0.0000
      4 ****        -4.6570   3.4683  -1.0533 C.ar           1 S1                 0.0000
      5 ****        -3.4698   2.7520  -1.2982 C.ar           1 S1                 0.0000
      6 ****        -3.5421   1.5271  -2.0052 C.ar           1 S1                 0.0000
      7 ****        -2.4270   0.7045  -2.3285 N.am           1 S1                 0.0000
      8 ****        -1.1490   0.7984  -1.9218 C.2            1 S1                 0.0000
      9 ****        -0.6988   1.6525  -1.1592 O.2            1 S1                 0.0000
     10 ****        -0.4026  -0.1806  -2.4520 N.am           1 S1                 0.0000
     11 ****         1.0271  -0.3616  -2.2268 C.3            1 S1                 0.0000
     12 ****         1.3128  -1.0064  -0.8543 C.3            1 S1                 0.0000
     13 ****         2.8025  -1.3018  -0.6063 C.2            1 S1                 0.0000
     14 ****         3.6191  -1.0345  -1.4894 O.2            1 S1                 0.0000
     15 ****         3.1747  -1.8498   0.5755 N.am           1 S1                 0.0000
     16 ****         2.2949  -2.1356   1.7124 C.3            1 S1                 0.0000
     17 ****         2.6982  -1.2116   2.8790 C.3            1 S1                 0.0000
     18 ****         1.8687  -1.4718   4.1409 C.3            1 S1                 0.0000
     19 ****         4.0716  -1.4348   3.1967 O.3            1 S1                 0.0000
     20 ****         4.9608  -1.2024   2.1048 C.3            1 S1                 0.0000
     21 ****         6.3911  -1.4602   2.5909 C.3            1 S1                 0.0000
     22 ****         4.5701  -2.1212   0.9299 C.3            1 S1                 0.0000
     23 ****        -4.8140   1.0972  -2.4374 C.ar           1 S1                 0.0000
     24 ****        -5.9556   1.7789  -2.2067 N.ar           1 S1                 0.0000
     25 ****        -9.0817   3.7936  -1.4795 H              1 S1                 0.0000
     26 ****        -8.4787   2.1487  -1.3095 H              1 S1                 0.0000
     27 ****        -8.2700   3.0277  -2.8409 H              1 S1                 0.0000
     28 ****        -4.6301   4.4045  -0.5154 H              1 S1                 0.0000
     29 ****        -2.5399   3.1658  -0.9437 H              1 S1                 0.0000
     30 ****        -2.6363  -0.0768  -2.9326 H              1 S1                 0.0000
     31 ****        -0.8526  -0.8424  -3.0673 H              1 S1                 0.0000
     32 ****         1.4067  -0.9960  -3.0288 H              1 S1                 0.0000
     33 ****         1.5393   0.5980  -2.3178 H              1 S1                 0.0000
     34 ****         0.9534  -0.3461  -0.0641 H              1 S1                 0.0000
     35 ****         0.7564  -1.9411  -0.7749 H              1 S1                 0.0000
     36 ****         1.2364  -2.0113   1.4903 H              1 S1                 0.0000
     37 ****         2.4139  -3.1811   2.0015 H              1 S1                 0.0000
     38 ****         2.5664  -0.1689   2.5840 H              1 S1                 0.0000
     39 ****         0.8079  -1.3006   3.9565 H              1 S1                 0.0000
     40 ****         2.1759  -0.8105   4.9514 H              1 S1                 0.0000
     41 ****         1.9872  -2.4990   4.4870 H              1 S1                 0.0000
     42 ****         4.8792  -0.1582   1.7972 H              1 S1                 0.0000
     43 ****         7.1144  -1.2831   1.7947 H              1 S1                 0.0000
     44 ****         6.5121  -2.4889   2.9313 H              1 S1                 0.0000
     45 ****         6.6443  -0.8025   3.4226 H              1 S1                 0.0000
     46 ****         4.6720  -3.1693   1.2155 H              1 S1                 0.0000
     47 ****         5.2560  -1.9689   0.0955 H              1 S1                 0.0000
     48 ****        -4.9224   0.1730  -2.9861 H              1 S1                 0.0000
     49 ****        -7.1200   3.7549  -0.2877 LP             1 S1                 0.0000
     50 ****        -6.9251   4.5582  -1.6961 LP             1 S1                 0.0000
     51 ****        -1.3020   2.3574  -0.7860 LP             1 S1                 0.0000
     52 ****         0.2702   1.6418  -0.9126 LP             1 S1                 0.0000
     53 ****         3.3099  -0.6319  -2.3511 LP             1 S1                 0.0000
     54 ****         4.5909  -1.2201  -1.3445 LP             1 S1                 0.0000
     55 ****         4.1765  -2.3844   3.4921 LP             1 S1                 0.0000
     56 ****         4.3254  -0.8227   3.9457 LP             1 S1                 0.0000
     57 ****        -6.8353   1.4314  -2.5314 LP             1 S1                 0.0000
@<TRIPOS>BOND
    1    1    2 1     
    2    1   25 1     
    3    1   26 1     
    4    1   27 1     
    5    2    3 1     
    6    3   24 ar    
    7    3    4 ar    
    8    4    5 ar    
    9    4   28 1     
   10    5    6 ar    
   11    5   29 1     
   12    6    7 1     
   13    6   23 ar    
   14    7    8 am    
   15    7   30 1     
   16    8    9 2     
   17    8   10 am    
   18   10   11 1     
   19   10   31 1     
   20   11   12 1     
   21   11   32 1     
   22   11   33 1     
   23   12   13 1     
   24   12   34 1     
   25   12   35 1     
   26   13   14 2     
   27   13   15 am    
   28   15   22 1     
   29   15   16 1     
   30   16   17 1     
   31   16   36 1     
   32   16   37 1     
   33   17   18 1     
   34   17   19 1     
   35   17   38 1     
   36   18   39 1     
   37   18   40 1     
   38   18   41 1     
   39   19   20 1     
   40   20   21 1     
   41   20   22 1     
   42   20   42 1     
   43   21   43 1     
   44   21   44 1     
   45   21   45 1     
   46   22   46 1     
   47   22   47 1     
   48   23   24 ar    
   49   23   48 1     
   50    2   49 1     
   51    2   50 1     
   52    9   51 1     
   53    9   52 1     
   54   14   53 1     
   55   14   54 1     
   56   19   55 1     
   57   19   56 1     
   58   24   57 1     
@<TRIPOS>SUBSTRUCTURE
      1 S1             1
@<TRIPOS>SET
LONE_PAIRS      STATIC     ATOMS    <user>   **** ""
9 49 50 51 52 53 54 55 56 57
DONOR_HYDROGENS      STATIC     ATOMS    <user>   **** ""
2 30 31
ATOM$BLUE        STATIC     ATOMS    COLORGROUP SYSTEM
9 49 50 51 52 53 54 55 56 57
ATOM$RED        STATIC     ATOMS    COLORGROUP SYSTEM
2 30 31
