AV-unprocessed.smi:2558|AV-procd|sdf|10032|dock10
  -GOLD-   2272014 73D 1   1.00000     0.00000
 Structure written by MMmdl.
 43 44  0  0  0  0  0  0  0  0  1 V2000
  150.4287  139.3241  155.3196 C   0  0  0  0  0  0  0  0  0  0  0  0
  151.8201  138.4491  156.1475 S   0  0  0  0  0  0  0  0  0  0  0  0
  151.8666  137.0692  155.6381 O   0  0  0  0  0  0  0  0  0  0  0  0
  153.0224  139.2908  156.0447 O   0  0  0  0  0  0  0  0  0  0  0  0
  151.3057  138.4271  157.8238 N   0  0  0  0  0  0  0  0  0  0  0  0
  150.5340  137.3807  158.3901 C   0  0  0  0  0  0  0  0  0  0  0  0
  149.9650  137.5252  159.4746 O   0  0  0  0  0  0  0  0  0  0  0  0
  150.3876  136.2919  157.6055 N   0  0  0  0  0  0  0  0  0  0  0  0
  149.6676  135.1800  157.8499 C   0  0  0  0  0  0  0  0  0  0  0  0
  148.9774  134.9882  158.8525 O   0  0  0  0  0  0  0  0  0  0  0  0
  149.7948  134.3131  156.8295 N   0  0  0  0  0  0  0  0  0  0  0  0
  149.2027  133.0310  156.6666 C   0  0  0  0  0  0  0  0  0  0  0  0
  149.3262  132.4074  155.4077 C   0  0  0  0  0  0  0  0  0  0  0  0
  148.7636  131.1319  155.2143 C   0  0  0  0  0  0  0  0  0  0  0  0
  148.1019  130.5213  156.2968 C   0  0  0  0  0  0  0  0  0  0  0  0
  147.9873  131.0957  157.5125 N   0  0  0  0  0  0  0  0  0  0  0  0
  148.5286  132.3201  157.6911 C   0  0  0  0  0  0  0  0  0  0  0  0
  151.5908  139.6589  158.6133 C   0  0  0  0  0  0  0  0  0  0  0  0
  151.1400  140.9436  157.8856 C   0  0  0  0  0  0  0  0  0  0  0  0
  151.3596  142.1787  158.7748 C   0  0  0  0  0  0  0  0  0  0  0  0
  152.8180  142.2718  159.2558 C   0  0  0  0  0  0  0  0  0  0  0  0
  153.2519  140.9917  159.9906 C   0  0  0  0  0  0  0  0  0  0  0  0
  153.0534  139.7482  159.1088 C   0  0  0  0  0  0  0  0  0  0  0  0
  150.6374  139.4081  154.2534 H   0  0  0  0  0  0  0  0  0  0  0  0
  150.3207  140.3217  155.7451 H   0  0  0  0  0  0  0  0  0  0  0  0
  149.5036  138.7669  155.4641 H   0  0  0  0  0  0  0  0  0  0  0  0
  150.8934  136.3082  156.7325 H   0  0  0  0  0  0  0  0  0  0  0  0
  150.3449  134.6329  156.0460 H   0  0  0  0  0  0  0  0  0  0  0  0
  149.8422  132.9003  154.5965 H   0  0  0  0  0  0  0  0  0  0  0  0
  148.8375  130.6334  154.2591 H   0  0  0  0  0  0  0  0  0  0  0  0
  147.6576  129.5434  156.1845 H   0  0  0  0  0  0  0  0  0  0  0  0
  148.4243  132.7126  158.6900 H   0  0  0  0  0  0  0  0  0  0  0  0
  150.9943  139.6091  159.5239 H   0  0  0  0  0  0  0  0  0  0  0  0
  151.6902  141.0798  156.9553 H   0  0  0  0  0  0  0  0  0  0  0  0
  150.0865  140.8688  157.6142 H   0  0  0  0  0  0  0  0  0  0  0  0
  151.0904  143.0822  158.2273 H   0  0  0  0  0  0  0  0  0  0  0  0
  150.6935  142.1311  159.6371 H   0  0  0  0  0  0  0  0  0  0  0  0
  153.4737  142.4421  158.4008 H   0  0  0  0  0  0  0  0  0  0  0  0
  152.9368  143.1341  159.9125 H   0  0  0  0  0  0  0  0  0  0  0  0
  154.2973  141.0708  160.2902 H   0  0  0  0  0  0  0  0  0  0  0  0
  152.6749  140.8852  160.9103 H   0  0  0  0  0  0  0  0  0  0  0  0
  153.3143  138.8515  159.6720 H   0  0  0  0  0  0  0  0  0  0  0  0
  153.7507  139.8048  158.2734 H   0  0  0  0  0  0  0  0  0  0  0  0
  1  2  1  0  0  0  0
  1 24  1  0  0  0  0
  1 25  1  0  0  0  0
  1 26  1  0  0  0  0
  2  3  2  0  0  0  0
  2  4  2  0  0  0  0
  2  5  1  0  0  0  0
  5  6  1  0  0  0  0
  5 18  1  0  0  0  0
  6  7  2  0  0  0  0
  6  8  1  0  0  0  0
  8  9  1  0  0  0  0
  8 27  1  0  0  0  0
  9 10  2  0  0  0  0
  9 11  1  0  0  0  0
 11 12  1  0  0  0  0
 11 28  1  0  0  0  0
 12 17  1  0  0  0  0
 12 13  2  0  0  0  0
 13 14  1  0  0  0  0
 13 29  1  0  0  0  0
 14 15  2  0  0  0  0
 14 30  1  0  0  0  0
 15 16  1  0  0  0  0
 15 31  1  0  0  0  0
 16 17  2  0  0  0  0
 17 32  1  0  0  0  0
 18 23  1  0  0  0  0
 18 19  1  0  0  0  0
 18 33  1  0  0  0  0
 19 20  1  0  0  0  0
 19 34  1  0  0  0  0
 19 35  1  0  0  0  0
 20 21  1  0  0  0  0
 20 36  1  0  0  0  0
 20 37  1  0  0  0  0
 21 22  1  0  0  0  0
 21 38  1  0  0  0  0
 21 39  1  0  0  0  0
 22 23  1  0  0  0  0
 22 40  1  0  0  0  0
 22 41  1  0  0  0  0
 23 42  1  0  0  0  0
 23 43  1  0  0  0  0
M  END
> <s_m_source_file>
AV-unprocessed.smi

> <i_m_source_file_index>
2558

> <i_lp_mmshare_version>
43012

> <i_f3d_flags>
0

> <s_epik_input>
W0NIMl0xW0NIMl1bQ0gyXVtDSDJdW0NIMl1bQ0hdMU4oUyg9TykoPU8pW0NIM10pQyg9TylbTkhdQyg9TylbTkhdYzJbY0hdW2NIXVtjSF1uW2NIXTI=

> <s_epik_cmdline>
J2VwaWtfcHl0aG9uJywgJy1waCcsICc3LjAnLCAnLXRuJywgJzgnLCAnLW1hJywgJzIwMCcsICctbWV0YWxfYmluZGluZycsICctaW1hZScsICc8aW5maWxlLm1hZT4nLCAnLW9tYWUnLCAnPG91dGZpbGUubWFlPic=

> <r_epik_Ionization_Penalty>
0.00647128

> <r_epik_Ionization_Penalty_Charging>
0

> <r_epik_Ionization_Penalty_Neutral>
0.00647128

> <r_epik_State_Penalty>
0.00476147

> <r_epik_Charging_Adjusted_Penalty>
0.00476147

> <i_epik_Tot_Q>
0

> <i_epik_Tot_abs_Q>
0

> <r_epik_Metal_State_Penalty>
0.0176635

> <b_epik_Metal_Only>
0

> <s_lp_Force_Field>
OPLS_2005

> <r_lp_Energy>
21.3267

> <b_lp_Chiralities_Consistent>
1

> <s_lp_Variant>
AV-unprocessed.smi:2558-1

> <Gold.Version>
5.8.1

> <Gold.Id.Protein>
6NUR|6NUR_protein|mol2

> <Gold.PLP.Fitness>
39.1633

> <Gold.PLP.PLP>
-31.2516

> <Gold.PLP.part.hbond>
-2.7580

> <Gold.PLP.part.metal>
0.0000

> <Gold.PLP.part.buried>
-4.0164

> <Gold.PLP.part.nonpolar>
-24.6293

> <Gold.PLP.part.repulsive>
0.2652

> <Gold.PLP.ligand.clash>
0.0000

> <Gold.PLP.ligand.torsion>
1.3577

> <Gold.PLP.Chemscore.Hbond>
2.8247

> <Gold.PLP.Chemscore.CHOScore>
0.0000

> <Gold.PLP.Chemscore.Metal>
0.0000

> <Gold.Chemscore.Hbonds>
donor molecule, donor type, donor heavy atom, donor atom, acceptor molecule, acceptor atom, score
      P1  H  7997  8010       L1     4  0.75
      P1  H 10752 10764       L1     3  0.59

> <Gold.PLP.Chemscore.Internal.Correction>
2.1529

> <Gold.Rescore>
     Score         DG    S(hbond)    S(metal)    S(lipo)     H(rot)  DE(clash)    DE(int)     intcor
     17.71     -20.28       2.63        0.00      73.43       1.00       0.02       2.55       ----

> <Gold.Chemscore.Fitness>
17.7061

> <Gold.Chemscore.DG>
-20.2802

> <Gold.Chemscore.ZeroCoef>
-5.4800

> <Gold.Chemscore.Hbond>
2.6255

> <Gold.Chemscore.Metal>
0.0000

> <Gold.Chemscore.Lipo>
73.4266

> <Gold.Chemscore.Internal_Hbond>
0.0000

> <Gold.Chemscore.DEClash>
0.0217

> <Gold.Chemscore.DEInternal>
2.5523

> <Gold.Chemscore.Rot>
1.0000

> <Gold.Chemscore.Internal.Correction>
   9.000000E+99

> <Gold.Chemscore.Hbonds>
donor molecule, donor type, donor heavy atom, donor atom, acceptor molecule, acceptor atom, score
      P1  H  7997  8010       L1     4  0.74
      P1  H 10752 10764       L1     3  0.59

> <Gold.Chemscore.Hbond.Weighted>
-8.7693

> <Gold.Chemscore.Metal.Weighted>
-0.0000

> <Gold.Chemscore.Lipo.Weighted>
-8.5909

> <Gold.Chemscore.Internal_Hbond.Weighted>
0.0000

> <Gold.Chemscore.DEClash.Weighted>
0.0217

> <Gold.Chemscore.DEInternal.Weighted>
2.5523

> <Gold.Chemscore.Rot.Weighted>
2.5600

> <Gold.Chemscore.Internal.Correction.Weighted>
   9.000000E+99

> <Gold.Protein.RotatedTorsions>
[ 6907 6896 6895 6894 ] final   22.43 input  -60.11 | X-H torsion
[ 7974 7965 7964 7962 ] final -159.64 input  175.53 | X-H torsion
[ 8008 7997 7996 7995 ] final  110.07 input   59.86 | X-H torsion
[ 10167 10162 10161 10158 ] final -113.17 input  -65.29 | X-H torsion
[ 10718 10713 10712 10709 ] final   -5.89 input   66.30 | X-H torsion
[ 10763 10752 10751 10750 ] final  -68.56 input  -60.55 | X-H torsion
[ 11005 11000 10999 10996 ] final  -97.64 input  -57.11 | X-H torsion

> <Gold.Protein.ActiveResidues>
 VAL166  LYS551  ARG553  GLY616  TRP617  ASP618  TYR619  PRO620  LYS621  CYS622 
 ASP623  PHE694  ASN695  SER759  ASP760  ASP761  ALA762  ILE779  LEU786  VAL792 
 PHE793  MET794  SER795  GLU796  ALA797  LYS798  CYS799  TRP800  GLU811  SER814 

> <Gold.Protein.RotatedAtoms>
  151.9271  135.0273  160.0526 H   0  0  0  0  0  0  0  0  0  0  0  0  # atno 6907 bound_to 6896
  152.2150  133.4935  159.5139 H   0  0  0  0  0  0  0  0  0  0  0  0  # atno 6908 bound_to 6896
  150.6985  134.1334  159.4121 H   0  0  0  0  0  0  0  0  0  0  0  0  # atno 6909 bound_to 6896
  144.7457  140.3656  143.6087 H   0  0  0  0  0  0  0  0  0  0  0  0  # atno 7974 bound_to 7965
  156.2026  140.3045  155.9559 H   0  0  0  0  0  0  0  0  0  0  0  0  # atno 8008 bound_to 7997
  155.2917  140.0442  157.3040 H   0  0  0  0  0  0  0  0  0  0  0  0  # atno 8009 bound_to 7997
  154.5591  140.2315  155.8373 H   0  0  0  0  0  0  0  0  0  0  0  0  # atno 8010 bound_to 7997
  140.1148  143.4495  152.1729 H   0  0  0  0  0  0  0  0  0  0  0  0  # atno 10167 bound_to 10162
  156.7399  130.5206  149.5826 H   0  0  0  0  0  0  0  0  0  0  0  0  # atno 10718 bound_to 10713
  154.3908  135.6053  153.5842 H   0  0  0  0  0  0  0  0  0  0  0  0  # atno 10763 bound_to 10752
  152.9787  135.5883  154.4300 H   0  0  0  0  0  0  0  0  0  0  0  0  # atno 10764 bound_to 10752
  154.4084  135.2844  155.2031 H   0  0  0  0  0  0  0  0  0  0  0  0  # atno 10765 bound_to 10752
  141.1372  133.8186  157.0733 H   0  0  0  0  0  0  0  0  0  0  0  0  # atno 11005 bound_to 11000
  145.7131  139.1690  143.2527 LP  0  0  0  0  0  0  0  0  0  0  0  0  # atno 17320 bound_to 7965
  146.1332  140.7158  142.9402 LP  0  0  0  0  0  0  0  0  0  0  0  0  # atno 17321 bound_to 7965
  139.5600  144.7399  151.4183 LP  0  0  0  0  0  0  0  0  0  0  0  0  # atno 17342 bound_to 10162
  140.6905  143.7872  150.7249 LP  0  0  0  0  0  0  0  0  0  0  0  0  # atno 17343 bound_to 10162
  156.1471  130.6285  151.0546 LP  0  0  0  0  0  0  0  0  0  0  0  0  # atno 17370 bound_to 10713
  157.6823  131.0835  150.7337 LP  0  0  0  0  0  0  0  0  0  0  0  0  # atno 17371 bound_to 10713
  140.0498  134.9811  157.1115 LP  0  0  0  0  0  0  0  0  0  0  0  0  # atno 17394 bound_to 11000
  140.4008  134.2085  155.7163 LP  0  0  0  0  0  0  0  0  0  0  0  0  # atno 17395 bound_to 11000

$$$$
