AV-unprocessed.smi:3067|AV-procd|sdf|11697|dock3
  -GOLD-   2272017 93D 1   1.00000     0.00000
 Structure written by MMmdl.
 34 35  0  0  0  0  0  0  0  0  1 V2000
  146.3697  128.8803  151.2410 C   0  0  0  0  0  0  0  0  0  0  0  0
  145.4230  129.8646  151.6265 O   0  0  0  0  0  0  0  0  0  0  0  0
  145.6936  131.1680  151.1226 C   0  0  1  0  0  0  0  0  0  0  0  0
  144.3616  131.8835  150.8091 C   0  0  0  0  0  0  0  0  0  0  0  0
  144.5828  133.3490  150.4077 C   0  0  0  0  0  0  0  0  0  0  0  0
  145.3670  134.1030  151.4900 C   0  0  0  0  0  0  0  0  0  0  0  0
  146.6994  133.4023  151.7904 C   0  0  0  0  0  0  0  0  0  0  0  0
  146.4880  131.9303  152.2066 C   0  0  2  0  0  0  0  0  0  0  0  0
  147.7698  131.2762  152.4452 N   0  0  0  0  0  0  0  0  0  0  0  0
  148.5400  131.5224  153.5922 C   0  0  0  0  0  0  0  0  0  0  0  0
  148.5746  132.7660  154.2656 C   0  0  0  0  0  0  0  0  0  0  0  0
  149.3808  132.9010  155.4121 C   0  0  0  0  0  0  0  0  0  0  0  0
  150.1268  131.7874  155.8510 C   0  0  0  0  0  0  0  0  0  0  0  0
  150.9631  131.9055  157.0332 C   0  0  0  0  0  0  0  0  0  0  0  0
  151.6291  131.9990  157.9749 N   0  0  0  0  0  0  0  0  0  0  0  0
  150.1010  130.5960  155.2155 N   0  0  0  0  0  0  0  0  0  0  0  0
  149.3261  130.4749  154.1168 C   0  0  0  0  0  0  0  0  0  0  0  0
  146.1027  127.9256  151.6934 H   0  0  0  0  0  0  0  0  0  0  0  0
  147.3718  129.1420  151.5823 H   0  0  0  0  0  0  0  0  0  0  0  0
  146.3934  128.7390  150.1608 H   0  0  0  0  0  0  0  0  0  0  0  0
  146.3019  131.1081  150.2175 H   0  0  0  0  0  0  0  0  0  0  0  0
  143.8291  131.3717  150.0080 H   0  0  0  0  0  0  0  0  0  0  0  0
  143.7125  131.8435  151.6849 H   0  0  0  0  0  0  0  0  0  0  0  0
  145.1259  133.3926  149.4628 H   0  0  0  0  0  0  0  0  0  0  0  0
  143.6227  133.8366  150.2366 H   0  0  0  0  0  0  0  0  0  0  0  0
  145.5500  135.1289  151.1695 H   0  0  0  0  0  0  0  0  0  0  0  0
  144.7709  134.1637  152.4013 H   0  0  0  0  0  0  0  0  0  0  0  0
  147.3370  133.4467  150.9061 H   0  0  0  0  0  0  0  0  0  0  0  0
  147.2255  133.9512  152.5715 H   0  0  0  0  0  0  0  0  0  0  0  0
  145.8987  131.9005  153.1236 H   0  0  0  0  0  0  0  0  0  0  0  0
  148.0540  130.5441  151.8099 H   0  0  0  0  0  0  0  0  0  0  0  0
  148.0021  133.6155  153.9255 H   0  0  0  0  0  0  0  0  0  0  0  0
  149.4212  133.8428  155.9405 H   0  0  0  0  0  0  0  0  0  0  0  0
  149.3342  129.5048  153.6413 H   0  0  0  0  0  0  0  0  0  0  0  0
  1  2  1  0  0  0  0
  1 18  1  0  0  0  0
  1 19  1  0  0  0  0
  1 20  1  0  0  0  0
  2  3  1  0  0  0  0
  3  8  1  0  0  0  0
  3  4  1  0  0  0  0
  3 21  1  0  0  0  0
  4  5  1  0  0  0  0
  4 22  1  0  0  0  0
  4 23  1  0  0  0  0
  5  6  1  0  0  0  0
  5 24  1  0  0  0  0
  5 25  1  0  0  0  0
  6  7  1  0  0  0  0
  6 26  1  0  0  0  0
  6 27  1  0  0  0  0
  7  8  1  0  0  0  0
  7 28  1  0  0  0  0
  7 29  1  0  0  0  0
  8  9  1  0  0  0  0
  8 30  1  0  0  0  0
  9 10  1  0  0  0  0
  9 31  1  0  0  0  0
 10 17  1  0  0  0  0
 10 11  2  0  0  0  0
 11 12  1  0  0  0  0
 11 32  1  0  0  0  0
 12 13  2  0  0  0  0
 12 33  1  0  0  0  0
 13 14  1  0  0  0  0
 13 16  1  0  0  0  0
 14 15  3  0  0  0  0
 16 17  2  0  0  0  0
 17 34  1  0  0  0  0
M  END
> <s_m_source_file>
AV-unprocessed.smi

> <i_m_source_file_index>
3067

> <i_lp_mmshare_version>
43012

> <i_f3d_flags>
0

> <s_epik_input>
W0NIM11PW0NAQEhdMVtDSDJdW0NIMl1bQ0gyXVtDSDJdW0NASF0xW05IXWMyW2NIXVtjSF1jKEMjTiluW2NIXTI=

> <s_epik_cmdline>
J2VwaWtfcHl0aG9uJywgJy1waCcsICc3LjAnLCAnLXRuJywgJzgnLCAnLW1hJywgJzIwMCcsICctbWV0YWxfYmluZGluZycsICctaW1hZScsICc8aW5maWxlLm1hZT4nLCAnLW9tYWUnLCAnPG91dGZpbGUubWFlPic=

> <r_lp_tautomer_probability>
1

> <r_epik_Ionization_Penalty>
2.01011e-07

> <r_epik_Ionization_Penalty_Charging>
0

> <r_epik_Ionization_Penalty_Neutral>
2.01011e-07

> <r_epik_State_Penalty>
-0

> <r_epik_Charging_Adjusted_Penalty>
0

> <i_epik_Tot_Q>
0

> <i_epik_Tot_abs_Q>
0

> <r_epik_Metal_State_Penalty>
-0

> <b_epik_Metal_Only>
0

> <s_lp_Force_Field>
OPLS_2005

> <r_lp_Energy>
16.9027

> <b_lp_Chiralities_Consistent>
1

> <s_lp_Variant>
AV-unprocessed.smi:3067-4

> <Gold.Version>
5.8.1

> <Gold.Id.Protein>
6NUR|6NUR_protein|mol2

> <Gold.PLP.Fitness>
37.3373

> <Gold.PLP.PLP>
-34.9124

> <Gold.PLP.part.hbond>
-1.8172

> <Gold.PLP.part.metal>
0.0000

> <Gold.PLP.part.buried>
-5.9814

> <Gold.PLP.part.nonpolar>
-27.4140

> <Gold.PLP.part.repulsive>
0.1786

> <Gold.PLP.ligand.clash>
0.0000

> <Gold.PLP.ligand.torsion>
0.8775

> <Gold.PLP.Chemscore.Hbond>
1.3920

> <Gold.PLP.Chemscore.CHOScore>
0.0000

> <Gold.PLP.Chemscore.Metal>
0.0000

> <Gold.Chemscore.Hbonds>
donor molecule, donor type, donor heavy atom, donor atom, acceptor molecule, acceptor atom, score
      L1  H     9    31       P1 10747  0.48
      P1  H  6896  6907       L1    15  1.00

> <Gold.PLP.Chemscore.Internal.Correction>
0.0039

> <Gold.Rescore>
     Score         DG    S(hbond)    S(metal)    S(lipo)     H(rot)  DE(clash)    DE(int)     intcor
     16.15     -17.31       1.63        0.00      80.88       1.20       0.00       1.16       ----

> <Gold.Chemscore.Fitness>
16.1520

> <Gold.Chemscore.DG>
-17.3112

> <Gold.Chemscore.ZeroCoef>
-5.4800

> <Gold.Chemscore.Hbond>
1.6296

> <Gold.Chemscore.Metal>
0.0000

> <Gold.Chemscore.Lipo>
80.8839

> <Gold.Chemscore.Internal_Hbond>
0.0000

> <Gold.Chemscore.DEClash>
0.0029

> <Gold.Chemscore.DEInternal>
1.1563

> <Gold.Chemscore.Rot>
1.2012

> <Gold.Chemscore.Internal.Correction>
   9.000000E+99

> <Gold.Chemscore.Hbonds>
donor molecule, donor type, donor heavy atom, donor atom, acceptor molecule, acceptor atom, score
      L1  H     9    31       P1 10747  0.48
      P1  H  6896  6907       L1    15  1.00

> <Gold.Chemscore.Hbond.Weighted>
-5.4428

> <Gold.Chemscore.Metal.Weighted>
-0.0000

> <Gold.Chemscore.Lipo.Weighted>
-9.4634

> <Gold.Chemscore.Internal_Hbond.Weighted>
0.0000

> <Gold.Chemscore.DEClash.Weighted>
0.0029

> <Gold.Chemscore.DEInternal.Weighted>
1.1563

> <Gold.Chemscore.Rot.Weighted>
3.0750

> <Gold.Chemscore.Internal.Correction.Weighted>
   9.000000E+99

> <Gold.Protein.RotatedTorsions>
[ 6907 6896 6895 6894 ] final  172.56 input  -60.11 | X-H torsion
[ 7974 7965 7964 7962 ] final  -62.74 input  175.53 | X-H torsion
[ 8008 7997 7996 7995 ] final   16.28 input   59.86 | X-H torsion
[ 10167 10162 10161 10158 ] final -143.85 input  -65.29 | X-H torsion
[ 10718 10713 10712 10709 ] final   49.73 input   66.30 | X-H torsion
[ 10763 10752 10751 10750 ] final   29.58 input  -60.55 | X-H torsion
[ 11005 11000 10999 10996 ] final  108.45 input  -57.11 | X-H torsion

> <Gold.Protein.ActiveResidues>
 VAL166  LYS551  ARG553  GLY616  TRP617  ASP618  TYR619  PRO620  LYS621  CYS622 
 ASP623  PHE694  ASN695  SER759  ASP760  ASP761  ALA762  ILE779  LEU786  VAL792 
 PHE793  MET794  SER795  GLU796  ALA797  LYS798  CYS799  TRP800  GLU811  SER814 

> <Gold.Protein.RotatedAtoms>
  151.7823  133.3351  159.3474 H   0  0  0  0  0  0  0  0  0  0  0  0  # atno 6907 bound_to 6896
  150.7421  134.5919  159.6001 H   0  0  0  0  0  0  0  0  0  0  0  0  # atno 6908 bound_to 6896
  152.3267  134.7313  160.0351 H   0  0  0  0  0  0  0  0  0  0  0  0  # atno 6909 bound_to 6896
  145.7876  140.8727  143.0297 H   0  0  0  0  0  0  0  0  0  0  0  0  # atno 7974 bound_to 7965
  154.8746  140.2964  155.5461 H   0  0  0  0  0  0  0  0  0  0  0  0  # atno 8008 bound_to 7997
  156.3022  140.2453  156.3674 H   0  0  0  0  0  0  0  0  0  0  0  0  # atno 8009 bound_to 7997
  154.8780  140.0399  157.1754 H   0  0  0  0  0  0  0  0  0  0  0  0  # atno 8010 bound_to 7997
  139.7954  143.7907  152.2654 H   0  0  0  0  0  0  0  0  0  0  0  0  # atno 10167 bound_to 10162
  157.4816  130.8318  149.8099 H   0  0  0  0  0  0  0  0  0  0  0  0  # atno 10718 bound_to 10713
  153.0422  135.6485  154.0913 H   0  0  0  0  0  0  0  0  0  0  0  0  # atno 10763 bound_to 10752
  154.0618  135.2887  155.3325 H   0  0  0  0  0  0  0  0  0  0  0  0  # atno 10764 bound_to 10752
  154.6653  135.5376  153.8134 H   0  0  0  0  0  0  0  0  0  0  0  0  # atno 10765 bound_to 10752
  139.8844  134.9431  156.5975 H   0  0  0  0  0  0  0  0  0  0  0  0  # atno 11005 bound_to 11000
  144.6786  140.0078  143.7484 LP  0  0  0  0  0  0  0  0  0  0  0  0  # atno 17320 bound_to 7965
  146.0010  139.3091  143.0928 LP  0  0  0  0  0  0  0  0  0  0  0  0  # atno 17321 bound_to 7965
  139.8011  144.7373  150.9823 LP  0  0  0  0  0  0  0  0  0  0  0  0  # atno 17342 bound_to 10162
  140.7820  143.4344  151.0645 LP  0  0  0  0  0  0  0  0  0  0  0  0  # atno 17343 bound_to 10162
  156.0124  130.3827  150.2220 LP  0  0  0  0  0  0  0  0  0  0  0  0  # atno 17370 bound_to 10713
  157.0406  131.0034  151.3285 LP  0  0  0  0  0  0  0  0  0  0  0  0  # atno 17371 bound_to 10713
  140.7909  133.8583  155.8645 LP  0  0  0  0  0  0  0  0  0  0  0  0  # atno 17394 bound_to 11000
  140.9678  134.1571  157.4601 LP  0  0  0  0  0  0  0  0  0  0  0  0  # atno 17395 bound_to 11000

$$$$
