AV-unprocessed.smi:686|AV-procd|sdf|3351|dock1
  -GOLD-   22720 0323D 1   1.00000     0.00000
 Structure written by MMmdl.
 40 41  0  0  0  0  0  0  0  0  3 V2000
  151.6691  138.4450  155.4553 C   0  0  0  0  0  0  0  0  0  0  0  0
  150.4653  137.6500  154.9056 C   0  0  2  0  0  0  0  0  0  0  0  0
  149.4110  138.4972  154.1934 C   0  0  0  0  0  0  0  0  0  0  0  0
  148.2411  137.6016  154.0505 N   0  3  2  0  0  0  0  0  0  0  0  0
  146.9290  138.2815  153.8545 C   0  0  0  0  0  0  0  0  0  0  0  0
  145.7655  137.2756  153.9414 C   0  0  0  0  0  0  0  0  0  0  0  0
  146.8649  139.0227  152.5049 C   0  0  0  0  0  0  0  0  0  0  0  0
  148.2907  136.6270  155.1734 C   0  0  0  0  0  0  0  0  0  0  0  0
  149.6401  136.8100  155.9002 C   0  0  2  0  0  0  0  0  0  0  0  0
  149.4369  137.5300  157.1533 N   0  5  0  0  0  0  0  0  0  0  0  0
  149.4751  136.7165  158.5559 S   0  0  0  0  0  0  0  0  0  0  0  0
  149.6306  135.2658  158.3618 O   0  0  0  0  0  0  0  0  0  0  0  0
  150.3520  137.3534  159.5522 O   0  0  0  0  0  0  0  0  0  0  0  0
  147.7490  136.9748  159.1494 C   0  0  0  0  0  0  0  0  0  0  0  0
  147.5631  136.3236  160.4910 C   0  0  0  0  0  0  0  0  0  0  0  0
  147.5641  134.9367  160.8080 C   0  0  0  0  0  0  0  0  0  0  0  0
  147.3577  134.9171  162.1569 C   0  0  0  0  0  0  0  0  0  0  0  0
  147.2473  136.1807  162.6390 O   0  0  0  0  0  0  0  0  0  0  0  0
  147.3830  137.0722  161.5684 N   0  0  0  0  0  0  0  0  0  0  0  0
  151.3675  139.2281  156.1530 H   0  0  0  0  0  0  0  0  0  0  0  0
  152.2038  138.9343  154.6410 H   0  0  0  0  0  0  0  0  0  0  0  0
  152.3838  137.7974  155.9660 H   0  0  0  0  0  0  0  0  0  0  0  0
  150.8621  136.9517  154.1666 H   0  0  0  0  0  0  0  0  0  0  0  0
  149.1480  139.3774  154.7868 H   0  0  0  0  0  0  0  0  0  0  0  0
  149.7628  138.8458  153.2217 H   0  0  0  0  0  0  0  0  0  0  0  0
  146.8079  139.0179  154.6508 H   0  0  0  0  0  0  0  0  0  0  0  0
  144.8081  137.7713  153.7772 H   0  0  0  0  0  0  0  0  0  0  0  0
  145.7080  136.7945  154.9174 H   0  0  0  0  0  0  0  0  0  0  0  0
  145.8635  136.4917  153.1896 H   0  0  0  0  0  0  0  0  0  0  0  0
  145.8814  139.4676  152.3510 H   0  0  0  0  0  0  0  0  0  0  0  0
  147.0545  138.3455  151.6713 H   0  0  0  0  0  0  0  0  0  0  0  0
  147.5885  139.8360  152.4489 H   0  0  0  0  0  0  0  0  0  0  0  0
  147.4448  136.7502  155.8510 H   0  0  0  0  0  0  0  0  0  0  0  0
  148.2164  135.6226  154.7555 H   0  0  0  0  0  0  0  0  0  0  0  0
  150.1262  135.8470  156.0592 H   0  0  0  0  0  0  0  0  0  0  0  0
  147.5663  138.0471  159.2125 H   0  0  0  0  0  0  0  0  0  0  0  0
  147.0656  136.5642  158.4059 H   0  0  0  0  0  0  0  0  0  0  0  0
  147.6886  134.0917  160.1473 H   0  0  0  0  0  0  0  0  0  0  0  0
  147.2706  134.1222  162.8828 H   0  0  0  0  0  0  0  0  0  0  0  0
  148.4172  137.0607  153.2163 H   0  0  0  0  0  0  0  0  0  0  0  0
  1  2  1  0  0  0  0
  1 20  1  0  0  0  0
  1 21  1  0  0  0  0
  1 22  1  0  0  0  0
  2  9  1  0  0  0  0
  2  3  1  0  0  0  0
  2 23  1  0  0  0  0
  3  4  1  0  0  0  0
  3 24  1  0  0  0  0
  3 25  1  0  0  0  0
  4  5  1  0  0  0  0
  4  8  1  0  0  0  0
  4 40  1  0  0  0  0
  5  6  1  0  0  0  0
  5  7  1  0  0  0  0
  5 26  1  0  0  0  0
  6 27  1  0  0  0  0
  6 28  1  0  0  0  0
  6 29  1  0  0  0  0
  7 30  1  0  0  0  0
  7 31  1  0  0  0  0
  7 32  1  0  0  0  0
  8  9  1  0  0  0  0
  8 33  1  0  0  0  0
  8 34  1  0  0  0  0
  9 10  1  0  0  0  0
  9 35  1  0  0  0  0
 10 11  1  0  0  0  0
 11 12  2  0  0  0  0
 11 13  2  0  0  0  0
 11 14  1  0  0  0  0
 14 15  1  0  0  0  0
 14 36  1  0  0  0  0
 14 37  1  0  0  0  0
 15 19  2  0  0  0  0
 15 16  1  0  0  0  0
 16 17  2  0  0  0  0
 16 38  1  0  0  0  0
 17 18  1  0  0  0  0
 17 39  1  0  0  0  0
 18 19  1  0  0  0  0
M  CHG  1   4   1
M  CHG  1  10  -1
M  END
> <s_m_source_file>
AV-unprocessed.smi

> <i_m_source_file_index>
686

> <i_lp_mmshare_version>
43012

> <i_f3d_flags>
0

> <s_epik_input>
W0NIM11bQ0BASF0xW0NIMl1OKFtDSF0oW0NIM10pW0NIM10pW0NIMl1bQ0BIXTFbTkhdUyg9TykoPU8pW0NIMl1jMltjSF1bY0hdb24y

> <s_epik_cmdline>
J2VwaWtfcHl0aG9uJywgJy1waCcsICc3LjAnLCAnLXRuJywgJzgnLCAnLW1hJywgJzIwMCcsICctbWV0YWxfYmluZGluZycsICctaW1hZScsICc8aW5maWxlLm1hZT4nLCAnLW9tYWUnLCAnPG91dGZpbGUubWFlPic=

> <r_epik_Ionization_Penalty>
3.62478

> <r_epik_Ionization_Penalty_Charging>
3.62478

> <r_epik_Ionization_Penalty_Neutral>
2.03645e-10

> <r_epik_State_Penalty>
3.6247

> <r_epik_Charging_Adjusted_Penalty>
7.24949

> <i_epik_Tot_Q>
0

> <i_epik_Tot_abs_Q>
2

> <r_epik_Metal_State_Penalty>
0.530836

> <b_epik_Metal_Only>
1

> <s_lp_Force_Field>
OPLS_2005

> <r_lp_Energy>
19.6845

> <b_lp_Chiralities_Consistent>
1

> <s_lp_Variant>
AV-unprocessed.smi:686-15

> <Gold.Version>
5.8.1

> <Gold.Id.Protein>
6NUR|6NUR_protein|mol2

> <Gold.PLP.Fitness>
41.6204

> <Gold.PLP.PLP>
-28.2507

> <Gold.PLP.part.hbond>
-4.8587

> <Gold.PLP.part.metal>
0.0000

> <Gold.PLP.part.buried>
-5.2099

> <Gold.PLP.part.nonpolar>
-19.2054

> <Gold.PLP.part.repulsive>
0.0000

> <Gold.PLP.ligand.clash>
0.0000

> <Gold.PLP.ligand.torsion>
0.9802

> <Gold.PLP.Chemscore.Hbond>
4.7600

> <Gold.PLP.Chemscore.CHOScore>
0.0000

> <Gold.PLP.Chemscore.Metal>
0.0000

> <Gold.Chemscore.Hbonds>
donor molecule, donor type, donor heavy atom, donor atom, acceptor molecule, acceptor atom, score
      L1  H     4    40       P1  7948  2.00
      P1  H  6896  6909       L1    12  1.00
      P1  H  6931  6943       L1    19  0.90
      P1  H  6934  6947       L1    19  0.84

> <Gold.PLP.Chemscore.Internal.Correction>
1.0500

> <Gold.Rescore>
     Score         DG    S(hbond)    S(metal)    S(lipo)     H(rot)  DE(clash)    DE(int)     intcor
     17.71     -18.85       3.10        0.00      61.18       1.61       0.08       1.07       ----

> <Gold.Chemscore.Fitness>
17.7052

> <Gold.Chemscore.DG>
-18.8516

> <Gold.Chemscore.ZeroCoef>
-5.4800

> <Gold.Chemscore.Hbond>
3.0981

> <Gold.Chemscore.Metal>
0.0000

> <Gold.Chemscore.Lipo>
61.1804

> <Gold.Chemscore.Internal_Hbond>
0.0000

> <Gold.Chemscore.DEClash>
0.0801

> <Gold.Chemscore.DEInternal>
1.0663

> <Gold.Chemscore.Rot>
1.6149

> <Gold.Chemscore.Internal.Correction>
   9.000000E+99

> <Gold.Chemscore.Hbonds>
donor molecule, donor type, donor heavy atom, donor atom, acceptor molecule, acceptor atom, score
      L1  H     4    40       P1  7948  1.00
      P1  H  6896  6909       L1    12  0.58
      P1  H  6931  6943       L1    19  0.42
      P1  H  6934  6947       L1    19  0.52

> <Gold.Chemscore.Hbond.Weighted>
-10.3476

> <Gold.Chemscore.Metal.Weighted>
-0.0000

> <Gold.Chemscore.Lipo.Weighted>
-7.1581

> <Gold.Chemscore.Internal_Hbond.Weighted>
0.0000

> <Gold.Chemscore.DEClash.Weighted>
0.0801

> <Gold.Chemscore.DEInternal.Weighted>
1.0663

> <Gold.Chemscore.Rot.Weighted>
4.1341

> <Gold.Chemscore.Internal.Correction.Weighted>
   9.000000E+99

> <Gold.Protein.RotatedTorsions>
[ 6907 6896 6895 6894 ] final   59.30 input  -60.11 | X-H torsion
[ 7974 7965 7964 7962 ] final  -43.00 input  175.53 | X-H torsion
[ 8008 7997 7996 7995 ] final   75.17 input   59.86 | X-H torsion
[ 10167 10162 10161 10158 ] final  -72.11 input  -65.29 | X-H torsion
[ 10718 10713 10712 10709 ] final  -59.64 input   66.30 | X-H torsion
[ 10763 10752 10751 10750 ] final  -18.81 input  -60.55 | X-H torsion
[ 11005 11000 10999 10996 ] final    5.50 input  -57.11 | X-H torsion

> <Gold.Protein.ActiveResidues>
 VAL166  LYS551  ARG553  GLY616  TRP617  ASP618  TYR619  PRO620  LYS621  CYS622 
 ASP623  PHE694  ASN695  SER759  ASP760  ASP761  ALA762  ILE779  LEU786  VAL792 
 PHE793  MET794  SER795  GLU796  ALA797  LYS798  CYS799  TRP800  GLU811  SER814 

> <Gold.Protein.RotatedAtoms>
  152.3902  134.6453  160.0110 H   0  0  0  0  0  0  0  0  0  0  0  0  # atno 6907 bound_to 6896
  151.6689  133.3309  159.3200 H   0  0  0  0  0  0  0  0  0  0  0  0  # atno 6908 bound_to 6896
  150.7820  134.6816  159.6492 H   0  0  0  0  0  0  0  0  0  0  0  0  # atno 6909 bound_to 6896
  146.0062  140.7018  142.9246 H   0  0  0  0  0  0  0  0  0  0  0  0  # atno 7974 bound_to 7965
  155.8090  140.3474  155.5446 H   0  0  0  0  0  0  0  0  0  0  0  0  # atno 8008 bound_to 7997
  155.8461  140.0949  157.1724 H   0  0  0  0  0  0  0  0  0  0  0  0  # atno 8009 bound_to 7997
  154.4006  140.1385  156.3774 H   0  0  0  0  0  0  0  0  0  0  0  0  # atno 8010 bound_to 7997
  140.5219  143.2331  151.7415 H   0  0  0  0  0  0  0  0  0  0  0  0  # atno 10167 bound_to 10162
  156.1047  130.4182  150.0743 H   0  0  0  0  0  0  0  0  0  0  0  0  # atno 10718 bound_to 10713
  153.5950  135.7001  153.5407 H   0  0  0  0  0  0  0  0  0  0  0  0  # atno 10763 bound_to 10752
  153.3146  135.4091  155.1364 H   0  0  0  0  0  0  0  0  0  0  0  0  # atno 10764 bound_to 10752
  154.8593  135.3680  154.5483 H   0  0  0  0  0  0  0  0  0  0  0  0  # atno 10765 bound_to 10752
  140.5701  134.0111  155.8005 H   0  0  0  0  0  0  0  0  0  0  0  0  # atno 11005 bound_to 11000
  144.6936  140.3318  143.7214 LP  0  0  0  0  0  0  0  0  0  0  0  0  # atno 17320 bound_to 7965
  145.7413  139.1765  143.2374 LP  0  0  0  0  0  0  0  0  0  0  0  0  # atno 17321 bound_to 7965
  139.4926  144.4243  151.9943 LP  0  0  0  0  0  0  0  0  0  0  0  0  # atno 17342 bound_to 10162
  140.3340  144.3283  150.5981 LP  0  0  0  0  0  0  0  0  0  0  0  0  # atno 17343 bound_to 10162
  156.8721  130.9528  151.3608 LP  0  0  0  0  0  0  0  0  0  0  0  0  # atno 17370 bound_to 10713
  157.6223  130.8664  149.9129 LP  0  0  0  0  0  0  0  0  0  0  0  0  # atno 17371 bound_to 10713
  141.1062  133.9690  157.2993 LP  0  0  0  0  0  0  0  0  0  0  0  0  # atno 17394 bound_to 11000
  139.9366  135.0196  156.8575 LP  0  0  0  0  0  0  0  0  0  0  0  0  # atno 17395 bound_to 11000

$$$$
