AV-unprocessed.smi:1701|AV-procd|sdf|6827|dock10
  -GOLD-   22720 8 03D 1   1.00000     0.00000
 Structure written by MMmdl.
 55 57  0  0  0  0  0  0  0  0  3 V2000
  151.9149  144.6004  157.5752 C   0  0  0  0  0  0  0  0  0  0  0  0
  151.2248  143.7237  156.5201 C   0  0  0  0  0  0  0  0  0  0  0  0
  151.1070  142.3223  156.9223 N   0  0  0  0  0  0  0  0  0  0  0  0
  151.4731  141.9321  158.2858 C   0  0  0  0  0  0  0  0  0  0  0  0
  152.5172  140.8055  158.3331 C   0  0  0  0  0  0  0  0  0  0  0  0
  150.4682  141.3883  156.0709 C   0  0  0  0  0  0  0  0  0  0  0  0
  150.9703  140.0873  155.8158 C   0  0  0  0  0  0  0  0  0  0  0  0
  150.2718  139.2191  154.9523 C   0  0  0  0  0  0  0  0  0  0  0  0
  149.0689  139.6426  154.3510 C   0  0  0  0  0  0  0  0  0  0  0  0
  148.4117  138.7360  153.4762 N   0  0  0  0  0  0  0  0  0  0  0  0
  147.0929  138.6060  153.2298 C   0  0  0  0  0  0  0  0  0  0  0  0
  146.2113  139.2711  153.7677 O   0  0  0  0  0  0  0  0  0  0  0  0
  146.7906  137.6379  152.3459 N   0  0  0  0  0  0  0  0  0  0  0  0
  145.4681  137.2364  151.8597 C   0  0  2  0  0  0  0  0  0  0  0  0
  144.4399  137.0993  152.9757 C   0  0  0  0  0  0  0  0  0  0  0  0
  143.3418  136.2470  152.3328 C   0  0  0  0  0  0  0  0  0  0  0  0
  143.9969  135.4202  151.2899 N   0  3  2  0  0  0  0  0  0  0  0  0
  143.7898  133.9574  151.4606 C   0  0  0  0  0  0  0  0  0  0  0  0
  144.7805  133.1588  150.6001 C   0  0  0  0  0  0  0  0  0  0  0  0
  146.2387  133.4385  151.0105 C   0  0  0  0  0  0  0  0  0  0  0  0
  146.4014  134.7944  151.7235 C   0  0  0  0  0  0  0  0  0  0  0  0
  145.4183  135.8561  151.1728 C   0  0  2  0  0  0  0  0  0  0  0  0
  148.6098  140.9517  154.6282 C   0  0  0  0  0  0  0  0  0  0  0  0
  149.3123  141.7498  155.4605 N   0  3  0  0  0  0  0  0  0  0  0  0
  151.9276  145.6426  157.2559 H   0  0  0  0  0  0  0  0  0  0  0  0
  152.9496  144.2984  157.7320 H   0  0  0  0  0  0  0  0  0  0  0  0
  151.4013  144.5555  158.5357 H   0  0  0  0  0  0  0  0  0  0  0  0
  150.2441  144.1279  156.2699 H   0  0  0  0  0  0  0  0  0  0  0  0
  151.7955  143.7737  155.5923 H   0  0  0  0  0  0  0  0  0  0  0  0
  151.8320  142.8010  158.8384 H   0  0  0  0  0  0  0  0  0  0  0  0
  150.5761  141.6048  158.8120 H   0  0  0  0  0  0  0  0  0  0  0  0
  152.7629  140.5558  159.3655 H   0  0  0  0  0  0  0  0  0  0  0  0
  153.4440  141.0942  157.8371 H   0  0  0  0  0  0  0  0  0  0  0  0
  152.1538  139.8963  157.8563 H   0  0  0  0  0  0  0  0  0  0  0  0
  151.8894  139.7361  156.2592 H   0  0  0  0  0  0  0  0  0  0  0  0
  150.6623  138.2308  154.7574 H   0  0  0  0  0  0  0  0  0  0  0  0
  149.0132  138.0725  153.0113 H   0  0  0  0  0  0  0  0  0  0  0  0
  147.5686  137.0991  151.9923 H   0  0  0  0  0  0  0  0  0  0  0  0
  145.0949  137.9929  151.1661 H   0  0  0  0  0  0  0  0  0  0  0  0
  144.8705  136.5658  153.8248 H   0  0  0  0  0  0  0  0  0  0  0  0
  144.0708  138.0603  153.3354 H   0  0  0  0  0  0  0  0  0  0  0  0
  142.8025  135.6573  153.0754 H   0  0  0  0  0  0  0  0  0  0  0  0
  142.6127  136.8899  151.8386 H   0  0  0  0  0  0  0  0  0  0  0  0
  143.9181  133.6783  152.5080 H   0  0  0  0  0  0  0  0  0  0  0  0
  142.7623  133.7102  151.1920 H   0  0  0  0  0  0  0  0  0  0  0  0
  144.5721  132.0906  150.6691 H   0  0  0  0  0  0  0  0  0  0  0  0
  144.6377  133.4292  149.5530 H   0  0  0  0  0  0  0  0  0  0  0  0
  146.6012  132.6479  151.6685 H   0  0  0  0  0  0  0  0  0  0  0  0
  146.8703  133.4046  150.1220 H   0  0  0  0  0  0  0  0  0  0  0  0
  146.2282  134.6631  152.7926 H   0  0  0  0  0  0  0  0  0  0  0  0
  147.4359  135.1237  151.6235 H   0  0  0  0  0  0  0  0  0  0  0  0
  145.6388  135.9841  150.1119 H   0  0  0  0  0  0  0  0  0  0  0  0
  147.7211  141.4036  154.2140 H   0  0  0  0  0  0  0  0  0  0  0  0
  143.5579  135.6712  150.4153 H   0  0  0  0  0  0  0  0  0  0  0  0
  148.9507  142.6873  155.6371 H   0  0  0  0  0  0  0  0  0  0  0  0
  1  2  1  0  0  0  0
  1 25  1  0  0  0  0
  1 26  1  0  0  0  0
  1 27  1  0  0  0  0
  2  3  1  0  0  0  0
  2 28  1  0  0  0  0
  2 29  1  0  0  0  0
  3  4  1  0  0  0  0
  3  6  1  0  0  0  0
  4  5  1  0  0  0  0
  4 30  1  0  0  0  0
  4 31  1  0  0  0  0
  5 32  1  0  0  0  0
  5 33  1  0  0  0  0
  5 34  1  0  0  0  0
  6 24  1  0  0  0  0
  6  7  2  0  0  0  0
  7  8  1  0  0  0  0
  7 35  1  0  0  0  0
  8  9  2  0  0  0  0
  8 36  1  0  0  0  0
  9 10  1  0  0  0  0
  9 23  1  0  0  0  0
 10 11  1  0  0  0  0
 10 37  1  0  0  0  0
 11 12  2  0  0  0  0
 11 13  1  0  0  0  0
 13 14  1  0  0  0  0
 13 38  1  0  0  0  0
 14 22  1  0  0  0  0
 14 15  1  0  0  0  0
 14 39  1  0  0  0  0
 15 16  1  0  0  0  0
 15 40  1  0  0  0  0
 15 41  1  0  0  0  0
 16 17  1  0  0  0  0
 16 42  1  0  0  0  0
 16 43  1  0  0  0  0
 17 22  1  0  0  0  0
 17 18  1  0  0  0  0
 17 54  1  0  0  0  0
 18 19  1  0  0  0  0
 18 44  1  0  0  0  0
 18 45  1  0  0  0  0
 19 20  1  0  0  0  0
 19 46  1  0  0  0  0
 19 47  1  0  0  0  0
 20 21  1  0  0  0  0
 20 48  1  0  0  0  0
 20 49  1  0  0  0  0
 21 22  1  0  0  0  0
 21 50  1  0  0  0  0
 21 51  1  0  0  0  0
 22 52  1  0  0  0  0
 23 24  2  0  0  0  0
 23 53  1  0  0  0  0
 24 55  1  0  0  0  0
M  CHG  1  17   1
M  CHG  1  24   1
M  END
> <s_m_source_file>
AV-unprocessed.smi

> <i_m_source_file_index>
1701

> <i_lp_mmshare_version>
43012

> <i_f3d_flags>
0

> <s_epik_input>
W0NIM11bQ0gyXU4oW0NIMl1bQ0gzXSljMVtjSF1bY0hdYyhbY0hdbjEpW05IXUMoPU8pW05IXVtDQEhdKFtDSDJdW0NIMl0yKVtDQEBIXShOMjMpW0NIMl1bQ0gyXVtDSDJdW0NIMl0z

> <s_epik_cmdline>
J2VwaWtfcHl0aG9uJywgJy1waCcsICc3LjAnLCAnLXRuJywgJzgnLCAnLW1hJywgJzIwMCcsICctbWV0YWxfYmluZGluZycsICctaW1hZScsICc8aW5maWxlLm1hZT4nLCAnLW9tYWUnLCAnPG91dGZpbGUubWFlPic=

> <r_lp_tautomer_probability>
0.999994

> <r_epik_Ionization_Penalty>
0.302862

> <r_epik_Ionization_Penalty_Charging>
0.302842

> <r_epik_Ionization_Penalty_Neutral>
1.95166e-05

> <r_epik_State_Penalty>
0.019791

> <r_epik_Charging_Adjusted_Penalty>
0.322633

> <i_epik_Tot_Q>
2

> <i_epik_Tot_abs_Q>
2

> <r_epik_Metal_State_Penalty>
0.0536763

> <b_epik_Metal_Only>
0

> <s_lp_Force_Field>
OPLS_2005

> <r_lp_Energy>
67.6643

> <b_lp_Chiralities_Consistent>
1

> <s_lp_Variant>
AV-unprocessed.smi:1701-7

> <Gold.Version>
5.8.1

> <Gold.Id.Protein>
6NUR|6NUR_protein|mol2

> <Gold.PLP.Fitness>
51.2003

> <Gold.PLP.PLP>
-42.7353

> <Gold.PLP.part.hbond>
-4.0000

> <Gold.PLP.part.metal>
0.0000

> <Gold.PLP.part.buried>
-0.5091

> <Gold.PLP.part.nonpolar>
-40.1268

> <Gold.PLP.part.repulsive>
0.7924

> <Gold.PLP.ligand.clash>
0.0000

> <Gold.PLP.ligand.torsion>
1.2789

> <Gold.PLP.Chemscore.Hbond>
3.6339

> <Gold.PLP.Chemscore.CHOScore>
0.0000

> <Gold.PLP.Chemscore.Metal>
0.0000

> <Gold.Chemscore.Hbonds>
donor molecule, donor type, donor heavy atom, donor atom, acceptor molecule, acceptor atom, score
      L1  H    10    37       P1  7948  0.62
      L1  H    13    38       P1  7948  1.00
      L1  H    24    55       P1  8028  2.00

> <Gold.PLP.Chemscore.Internal.Correction>
0.1211

> <Gold.Rescore>
     Score         DG    S(hbond)    S(metal)    S(lipo)     H(rot)  DE(clash)    DE(int)     intcor
     18.40     -23.70       2.58        0.00     110.57       1.30       2.43       2.87       ----

> <Gold.Chemscore.Fitness>
18.3987

> <Gold.Chemscore.DG>
-23.6983

> <Gold.Chemscore.ZeroCoef>
-5.4800

> <Gold.Chemscore.Hbond>
2.5792

> <Gold.Chemscore.Metal>
0.0000

> <Gold.Chemscore.Lipo>
110.5721

> <Gold.Chemscore.Internal_Hbond>
0.0000

> <Gold.Chemscore.DEClash>
2.4254

> <Gold.Chemscore.DEInternal>
2.8742

> <Gold.Chemscore.Rot>
1.3020

> <Gold.Chemscore.Internal.Correction>
   9.000000E+99

> <Gold.Chemscore.Hbonds>
donor molecule, donor type, donor heavy atom, donor atom, acceptor molecule, acceptor atom, score
      L1  H    10    37       P1  7948  0.60
      L1  H    13    38       P1  7948  0.99
      L1  H    24    55       P1  8028  0.93

> <Gold.Chemscore.Hbond.Weighted>
-8.6144

> <Gold.Chemscore.Metal.Weighted>
-0.0000

> <Gold.Chemscore.Lipo.Weighted>
-12.9369

> <Gold.Chemscore.Internal_Hbond.Weighted>
0.0000

> <Gold.Chemscore.DEClash.Weighted>
2.4254

> <Gold.Chemscore.DEInternal.Weighted>
2.8742

> <Gold.Chemscore.Rot.Weighted>
3.3330

> <Gold.Chemscore.Internal.Correction.Weighted>
   9.000000E+99

> <Gold.Protein.RotatedTorsions>
[ 6907 6896 6895 6894 ] final -170.88 input  -60.11 | X-H torsion
[ 7974 7965 7964 7962 ] final   54.54 input  175.53 | X-H torsion
[ 8008 7997 7996 7995 ] final  -44.39 input   59.86 | X-H torsion
[ 10167 10162 10161 10158 ] final   35.20 input  -65.29 | X-H torsion
[ 10718 10713 10712 10709 ] final  142.76 input   66.30 | X-H torsion
[ 10763 10752 10751 10750 ] final  139.37 input  -60.55 | X-H torsion
[ 11005 11000 10999 10996 ] final  -50.95 input  -57.11 | X-H torsion

> <Gold.Protein.ActiveResidues>
 VAL166  LYS551  ARG553  GLY616  TRP617  ASP618  TYR619  PRO620  LYS621  CYS622 
 ASP623  PHE694  ASN695  SER759  ASP760  ASP761  ALA762  ILE779  LEU786  VAL792 
 PHE793  MET794  SER795  GLU796  ALA797  LYS798  CYS799  TRP800  GLU811  SER814 

> <Gold.Protein.RotatedAtoms>
  151.5148  133.3478  159.2890 H   0  0  0  0  0  0  0  0  0  0  0  0  # atno 6907 bound_to 6896
  150.8689  134.8061  159.7151 H   0  0  0  0  0  0  0  0  0  0  0  0  # atno 6908 bound_to 6896
  152.4684  134.5029  159.9782 H   0  0  0  0  0  0  0  0  0  0  0  0  # atno 6909 bound_to 6896
  145.9598  139.4049  143.0255 H   0  0  0  0  0  0  0  0  0  0  0  0  # atno 7974 bound_to 7965
  154.3997  140.1423  156.3676 H   0  0  0  0  0  0  0  0  0  0  0  0  # atno 8008 bound_to 7997
  155.8123  140.3472  155.5444 H   0  0  0  0  0  0  0  0  0  0  0  0  # atno 8009 bound_to 7997
  155.8374  140.0921  157.1746 H   0  0  0  0  0  0  0  0  0  0  0  0  # atno 8010 bound_to 7997
  140.4244  144.1414  150.6151 H   0  0  0  0  0  0  0  0  0  0  0  0  # atno 10167 bound_to 10162
  157.3768  131.0986  151.0777 H   0  0  0  0  0  0  0  0  0  0  0  0  # atno 10718 bound_to 10713
  153.9050  135.3017  155.3448 H   0  0  0  0  0  0  0  0  0  0  0  0  # atno 10763 bound_to 10752
  154.7652  135.4914  153.9543 H   0  0  0  0  0  0  0  0  0  0  0  0  # atno 10764 bound_to 10752
  153.1224  135.6785  153.9414 H   0  0  0  0  0  0  0  0  0  0  0  0  # atno 10765 bound_to 10752
  141.0844  133.6646  156.3806 H   0  0  0  0  0  0  0  0  0  0  0  0  # atno 11005 bound_to 11000
  145.8055  140.9750  143.0976 LP  0  0  0  0  0  0  0  0  0  0  0  0  # atno 17320 bound_to 7965
  144.6812  139.9855  143.7484 LP  0  0  0  0  0  0  0  0  0  0  0  0  # atno 17321 bound_to 7965
  140.4498  143.2491  151.9363 LP  0  0  0  0  0  0  0  0  0  0  0  0  # atno 17342 bound_to 10162
  139.4783  144.5573  151.8293 LP  0  0  0  0  0  0  0  0  0  0  0  0  # atno 17343 bound_to 10162
  157.1860  130.6331  149.5688 LP  0  0  0  0  0  0  0  0  0  0  0  0  # atno 17370 bound_to 10713
  155.9767  130.4737  150.6545 LP  0  0  0  0  0  0  0  0  0  0  0  0  # atno 17371 bound_to 10713
  140.5395  134.6134  157.5375 LP  0  0  0  0  0  0  0  0  0  0  0  0  # atno 17394 bound_to 11000
  139.9661  134.7370  156.0136 LP  0  0  0  0  0  0  0  0  0  0  0  0  # atno 17395 bound_to 11000

$$$$
