AV-unprocessed.smi:469|AV-procd|sdf|2653|dock1
  -GOLD-   2262023 63D 1   1.00000     0.00000
 Structure written by MMmdl.
 37 38  0  0  0  0  0  0  0  0  1 V2000
  148.9797  145.2084  160.6544 C   0  0  0  0  0  0  0  0  0  0  0  0
  149.8999  144.7405  159.6292 N   0  0  0  0  0  0  0  0  0  0  0  0
  151.1191  145.2558  159.4171 C   0  0  0  0  0  0  0  0  0  0  0  0
  151.5812  146.1836  160.0829 O   0  0  0  0  0  0  0  0  0  0  0  0
  151.9322  144.6071  158.2871 C   0  0  0  0  0  0  0  0  0  0  0  0
  151.9039  143.1351  158.3083 N   0  0  0  0  0  0  0  0  0  0  0  0
  151.1694  142.4981  157.2896 C   0  0  0  0  0  0  0  0  0  0  0  0
  151.1078  141.1601  157.1920 C   0  0  0  0  0  0  0  0  0  0  0  0
  150.0333  140.3806  155.9592 S   0  0  0  0  0  0  0  0  0  0  0  0
  150.8306  140.1666  154.7413 O   0  0  0  0  0  0  0  0  0  0  0  0
  149.3615  139.2404  156.6027 O   0  0  0  0  0  0  0  0  0  0  0  0
  148.8193  141.5542  155.5848 N   0  0  0  0  0  0  0  0  0  0  0  0
  148.4818  141.7711  154.1717 C   0  0  0  0  0  0  0  0  0  0  0  0
  146.9676  141.5890  154.0763 C   0  0  0  0  0  0  0  0  0  0  0  0
  146.4808  142.0405  155.4450 C   0  0  0  0  0  0  0  0  0  0  0  0
  147.5846  141.5537  156.3834 C   0  0  0  0  0  0  0  0  0  0  0  0
  151.7545  140.3677  158.2123 C   0  0  0  0  0  0  0  0  0  0  0  0
  152.4349  140.9700  159.2080 C   0  0  0  0  0  0  0  0  0  0  0  0
  152.5456  142.4314  159.2916 C   0  0  0  0  0  0  0  0  0  0  0  0
  153.1750  142.9885  160.1914 O   0  0  0  0  0  0  0  0  0  0  0  0
  148.0742  144.6013  160.6466 H   0  0  0  0  0  0  0  0  0  0  0  0
  148.6968  146.2467  160.4764 H   0  0  0  0  0  0  0  0  0  0  0  0
  149.4306  145.1347  161.6453 H   0  0  0  0  0  0  0  0  0  0  0  0
  149.5917  143.9771  159.0444 H   0  0  0  0  0  0  0  0  0  0  0  0
  151.5482  144.9753  157.3344 H   0  0  0  0  0  0  0  0  0  0  0  0
  152.9613  144.9677  158.3365 H   0  0  0  0  0  0  0  0  0  0  0  0
  150.6562  143.1643  156.6112 H   0  0  0  0  0  0  0  0  0  0  0  0
  148.7681  142.7862  153.8953 H   0  0  0  0  0  0  0  0  0  0  0  0
  149.0164  141.0788  153.5204 H   0  0  0  0  0  0  0  0  0  0  0  0
  146.5230  142.1569  153.2587 H   0  0  0  0  0  0  0  0  0  0  0  0
  146.7284  140.5351  153.9261 H   0  0  0  0  0  0  0  0  0  0  0  0
  146.4189  143.1291  155.4764 H   0  0  0  0  0  0  0  0  0  0  0  0
  145.5003  141.6379  155.7008 H   0  0  0  0  0  0  0  0  0  0  0  0
  147.3665  140.5382  156.7170 H   0  0  0  0  0  0  0  0  0  0  0  0
  147.6930  142.1846  157.2659 H   0  0  0  0  0  0  0  0  0  0  0  0
  151.6946  139.2899  158.1804 H   0  0  0  0  0  0  0  0  0  0  0  0
  152.9126  140.3632  159.9632 H   0  0  0  0  0  0  0  0  0  0  0  0
  1  2  1  0  0  0  0
  1 21  1  0  0  0  0
  1 22  1  0  0  0  0
  1 23  1  0  0  0  0
  2  3  1  0  0  0  0
  2 24  1  0  0  0  0
  3  4  2  0  0  0  0
  3  5  1  0  0  0  0
  5  6  1  0  0  0  0
  5 25  1  0  0  0  0
  5 26  1  0  0  0  0
  6 19  1  0  0  0  0
  6  7  1  0  0  0  0
  7  8  2  0  0  0  0
  7 27  1  0  0  0  0
  8  9  1  0  0  0  0
  8 17  1  0  0  0  0
  9 10  2  0  0  0  0
  9 11  2  0  0  0  0
  9 12  1  0  0  0  0
 12 16  1  0  0  0  0
 12 13  1  0  0  0  0
 13 14  1  0  0  0  0
 13 28  1  0  0  0  0
 13 29  1  0  0  0  0
 14 15  1  0  0  0  0
 14 30  1  0  0  0  0
 14 31  1  0  0  0  0
 15 16  1  0  0  0  0
 15 32  1  0  0  0  0
 15 33  1  0  0  0  0
 16 34  1  0  0  0  0
 16 35  1  0  0  0  0
 17 18  2  0  0  0  0
 17 36  1  0  0  0  0
 18 19  1  0  0  0  0
 18 37  1  0  0  0  0
 19 20  2  0  0  0  0
M  END
> <s_m_source_file>
AV-unprocessed.smi

> <i_m_source_file_index>
469

> <i_lp_mmshare_version>
43012

> <i_f3d_flags>
0

> <s_epik_input>
W0NIM11bTkhdQyg9TylbQ0gyXW4xW2NIXWMoW2NIXVtjSF1jMT1PKVMoPU8pKD1PKU4yW0NIMl1bQ0gyXVtDSDJdW0NIMl0y

> <s_epik_cmdline>
J2VwaWtfcHl0aG9uJywgJy1waCcsICc3LjAnLCAnLXRuJywgJzgnLCAnLW1hJywgJzIwMCcsICctbWV0YWxfYmluZGluZycsICctaW1hZScsICc8aW5maWxlLm1hZT4nLCAnLW9tYWUnLCAnPG91dGZpbGUubWFlPic=

> <r_lp_tautomer_probability>
1

> <r_epik_Ionization_Penalty>
2.91909e-08

> <r_epik_Ionization_Penalty_Charging>
9.91299e-09

> <r_epik_Ionization_Penalty_Neutral>
1.92779e-08

> <r_epik_State_Penalty>
-0

> <r_epik_Charging_Adjusted_Penalty>
9.91299e-09

> <i_epik_Tot_Q>
0

> <i_epik_Tot_abs_Q>
0

> <r_epik_Metal_State_Penalty>
-0

> <b_epik_Metal_Only>
0

> <s_lp_Force_Field>
OPLS_2005

> <r_lp_Energy>
18.9882

> <b_lp_Chiralities_Consistent>
1

> <s_lp_Variant>
AV-unprocessed.smi:469-1

> <Gold.Version>
5.8.1

> <Gold.Id.Protein>
6NUR|6NUR_protein|mol2

> <Gold.PLP.Fitness>
44.8489

> <Gold.PLP.PLP>
-40.9407

> <Gold.PLP.part.hbond>
-3.0043

> <Gold.PLP.part.metal>
0.0000

> <Gold.PLP.part.buried>
-6.6933

> <Gold.PLP.part.nonpolar>
-32.2857

> <Gold.PLP.part.repulsive>
0.6324

> <Gold.PLP.ligand.clash>
0.0000

> <Gold.PLP.ligand.torsion>
2.2769

> <Gold.PLP.Chemscore.Hbond>
1.0000

> <Gold.PLP.Chemscore.CHOScore>
0.9992

> <Gold.PLP.Chemscore.Metal>
0.0000

> <Gold.Chemscore.Hbonds>
donor molecule, donor type, donor heavy atom, donor atom, acceptor molecule, acceptor atom, score
      P1  H  7989  7998       L1    10  1.00
      L1  C     7    27       P1  8028  0.99

> <Gold.PLP.Chemscore.Internal.Correction>
2.4643

> <Gold.Rescore>
     Score         DG    S(hbond)    S(metal)    S(lipo)     H(rot)  DE(clash)    DE(int)     intcor
     10.91     -12.64       1.00        0.00      68.17       1.62       0.11       1.62       ----

> <Gold.Chemscore.Fitness>
10.9132

> <Gold.Chemscore.DG>
-12.6399

> <Gold.Chemscore.ZeroCoef>
-5.4800

> <Gold.Chemscore.Hbond>
0.9994

> <Gold.Chemscore.Metal>
0.0000

> <Gold.Chemscore.Lipo>
68.1705

> <Gold.Chemscore.Internal_Hbond>
0.0000

> <Gold.Chemscore.DEClash>
0.1075

> <Gold.Chemscore.DEInternal>
1.6192

> <Gold.Chemscore.Rot>
1.6226

> <Gold.Chemscore.Internal.Correction>
   9.000000E+99

> <Gold.Chemscore.Hbonds>
donor molecule, donor type, donor heavy atom, donor atom, acceptor molecule, acceptor atom, score
      P1  H  7989  7998       L1    10  0.99

> <Gold.Chemscore.Hbond.Weighted>
-3.3379

> <Gold.Chemscore.Metal.Weighted>
-0.0000

> <Gold.Chemscore.Lipo.Weighted>
-7.9760

> <Gold.Chemscore.Internal_Hbond.Weighted>
0.0000

> <Gold.Chemscore.DEClash.Weighted>
0.1075

> <Gold.Chemscore.DEInternal.Weighted>
1.6192

> <Gold.Chemscore.Rot.Weighted>
4.1539

> <Gold.Chemscore.Internal.Correction.Weighted>
   9.000000E+99

> <Gold.Protein.RotatedTorsions>
[ 6907 6896 6895 6894 ] final  -11.73 input  -60.11 | X-H torsion
[ 7974 7965 7964 7962 ] final  -73.84 input  175.53 | X-H torsion
[ 8008 7997 7996 7995 ] final   91.14 input   59.86 | X-H torsion
[ 10167 10162 10161 10158 ] final   66.64 input  -65.29 | X-H torsion
[ 10718 10713 10712 10709 ] final  -15.13 input   66.30 | X-H torsion
[ 10763 10752 10751 10750 ] final   43.03 input  -60.55 | X-H torsion
[ 11005 11000 10999 10996 ] final  146.54 input  -57.11 | X-H torsion

> <Gold.Protein.ActiveResidues>
 VAL166  LYS551  ARG553  GLY616  TRP617  ASP618  TYR619  PRO620  LYS621  CYS622 
 ASP623  PHE694  ASN695  SER759  ASP760  ASP761  ALA762  ILE779  LEU786  VAL792 
 PHE793  MET794  SER795  GLU796  ALA797  LYS798  CYS799  TRP800  GLU811  SER814 

> <Gold.Protein.RotatedAtoms>
  151.3816  135.0941  159.9497 H   0  0  0  0  0  0  0  0  0  0  0  0  # atno 6907 bound_to 6896
  152.5106  133.9066  159.7478 H   0  0  0  0  0  0  0  0  0  0  0  0  # atno 6908 bound_to 6896
  150.9501  133.6503  159.2802 H   0  0  0  0  0  0  0  0  0  0  0  0  # atno 6909 bound_to 6896
  145.6469  140.9294  143.1006 H   0  0  0  0  0  0  0  0  0  0  0  0  # atno 7974 bound_to 7965
  156.0203  140.3341  155.7032 H   0  0  0  0  0  0  0  0  0  0  0  0  # atno 8008 bound_to 7997
  155.6032  140.0658  157.2745 H   0  0  0  0  0  0  0  0  0  0  0  0  # atno 8009 bound_to 7997
  154.4313  140.1806  156.1183 H   0  0  0  0  0  0  0  0  0  0  0  0  # atno 8010 bound_to 7997
  140.0982  144.4928  150.7054 H   0  0  0  0  0  0  0  0  0  0  0  0  # atno 10167 bound_to 10162
  156.6061  130.4837  149.6220 H   0  0  0  0  0  0  0  0  0  0  0  0  # atno 10718 bound_to 10713
  152.9869  135.6114  154.3045 H   0  0  0  0  0  0  0  0  0  0  0  0  # atno 10763 bound_to 10752
  154.2763  135.2778  155.2718 H   0  0  0  0  0  0  0  0  0  0  0  0  # atno 10764 bound_to 10752
  154.5077  135.5849  153.6637 H   0  0  0  0  0  0  0  0  0  0  0  0  # atno 10765 bound_to 10752
  140.0802  134.9101  157.1488 H   0  0  0  0  0  0  0  0  0  0  0  0  # atno 11005 bound_to 11000
  144.7137  139.8276  143.7406 LP  0  0  0  0  0  0  0  0  0  0  0  0  # atno 17320 bound_to 7965
  146.1235  139.4257  143.0213 LP  0  0  0  0  0  0  0  0  0  0  0  0  # atno 17321 bound_to 7965
  140.6992  143.2423  151.4913 LP  0  0  0  0  0  0  0  0  0  0  0  0  # atno 17342 bound_to 10162
  139.5686  144.1982  152.1803 LP  0  0  0  0  0  0  0  0  0  0  0  0  # atno 17343 bound_to 10162
  156.2429  130.6862  151.1572 LP  0  0  0  0  0  0  0  0  0  0  0  0  # atno 17370 bound_to 10713
  157.7267  131.0644  150.5899 LP  0  0  0  0  0  0  0  0  0  0  0  0  # atno 17371 bound_to 10713
  140.3499  134.2610  155.7200 LP  0  0  0  0  0  0  0  0  0  0  0  0  # atno 17394 bound_to 11000
  141.2044  133.7888  157.0290 LP  0  0  0  0  0  0  0  0  0  0  0  0  # atno 17395 bound_to 11000

$$$$
