AV-unprocessed.smi:87|AV-procd|sdf|821|dock1
  -GOLD-   2262017223D 1   1.00000     0.00000
 Structure written by MMmdl.
 58 60  0  0  0  0  0  0  0  0  1 V2000
  149.5159  138.5162  158.0602 C   0  0  0  0  0  0  0  0  0  0  0  0
  148.5028  139.5151  157.4814 C   0  0  0  0  0  0  0  0  0  0  0  0
  148.8779  140.0687  156.0862 C   0  0  0  0  0  0  0  0  0  0  0  0
  150.2995  140.6753  156.0818 C   0  0  0  0  0  0  0  0  0  0  0  0
  150.4685  141.8834  157.0147 C   0  0  0  0  0  0  0  0  0  0  0  0
  147.8348  141.1156  155.6184 C   0  0  0  0  0  0  0  0  0  0  0  0
  146.5102  140.5533  155.3410 N   0  0  0  0  0  0  0  0  0  0  0  0
  145.3700  141.4553  155.4896 C   0  0  0  0  0  0  0  0  0  0  0  0
  145.5271  142.4220  156.6726 C   0  0  0  0  0  0  0  0  0  0  0  0
  145.6687  141.7178  157.9549 C   0  0  0  0  0  0  0  0  0  0  0  0
  145.7797  141.1640  158.9646 N   0  0  0  0  0  0  0  0  0  0  0  0
  146.3796  139.6914  154.2993 C   0  0  0  0  0  0  0  0  0  0  0  0
  146.9631  139.9741  153.1034 N   0  0  0  0  0  0  0  0  0  0  0  0
  146.8041  139.1499  152.0637 C   0  0  0  0  0  0  0  0  0  0  0  0
  146.1056  138.0151  151.9979 N   0  0  0  0  0  0  0  0  0  0  0  0
  145.5200  137.7259  153.1949 C   0  0  0  0  0  0  0  0  0  0  0  0
  145.6114  138.4974  154.3870 C   0  0  0  0  0  0  0  0  0  0  0  0
  144.8954  137.8812  155.4066 N   0  0  0  0  0  0  0  0  0  0  0  0
  144.3872  136.8201  154.8423 C   0  0  0  0  0  0  0  0  0  0  0  0
  144.6976  136.6596  153.5109 N   0  0  0  0  0  0  0  0  0  0  0  0
  144.2413  135.5974  152.6339 C   0  0  0  0  0  0  0  0  0  0  0  0
  145.3319  135.1085  151.6544 C   0  0  1  0  0  0  0  0  0  0  0  0
  146.4126  134.6408  152.4364 O   0  0  0  0  0  0  0  0  0  0  0  0
  144.8828  133.9879  150.6870 C   0  0  2  0  0  0  0  0  0  0  0  0
  143.9767  132.9307  151.3253 C   0  0  0  0  0  0  0  0  0  0  0  0
  144.2074  131.7356  150.4300 C   0  0  0  0  0  0  0  0  0  0  0  0
  145.7014  131.8472  150.1541 C   0  0  0  0  0  0  0  0  0  0  0  0
  146.0003  133.2384  150.2073 O   0  0  0  0  0  0  0  0  0  0  0  0
  149.1450  138.0927  158.9937 H   0  0  0  0  0  0  0  0  0  0  0  0
  150.4753  138.9839  158.2778 H   0  0  0  0  0  0  0  0  0  0  0  0
  149.6915  137.6897  157.3711 H   0  0  0  0  0  0  0  0  0  0  0  0
  147.5438  138.9996  157.4244 H   0  0  0  0  0  0  0  0  0  0  0  0
  148.3559  140.3386  158.1810 H   0  0  0  0  0  0  0  0  0  0  0  0
  148.8796  139.2312  155.3882 H   0  0  0  0  0  0  0  0  0  0  0  0
  151.0318  139.9088  156.3382 H   0  0  0  0  0  0  0  0  0  0  0  0
  150.5567  141.0091  155.0777 H   0  0  0  0  0  0  0  0  0  0  0  0
  151.4583  142.3240  156.8954 H   0  0  0  0  0  0  0  0  0  0  0  0
  150.3619  141.6091  158.0635 H   0  0  0  0  0  0  0  0  0  0  0  0
  149.7337  142.6577  156.7925 H   0  0  0  0  0  0  0  0  0  0  0  0
  147.7377  141.8862  156.3840 H   0  0  0  0  0  0  0  0  0  0  0  0
  148.1783  141.6329  154.7233 H   0  0  0  0  0  0  0  0  0  0  0  0
  145.2106  142.0220  154.5728 H   0  0  0  0  0  0  0  0  0  0  0  0
  144.4688  140.8573  155.6266 H   0  0  0  0  0  0  0  0  0  0  0  0
  146.4040  143.0556  156.5407 H   0  0  0  0  0  0  0  0  0  0  0  0
  144.6605  143.0779  156.7557 H   0  0  0  0  0  0  0  0  0  0  0  0
  147.3013  139.4469  151.1521 H   0  0  0  0  0  0  0  0  0  0  0  0
  143.7533  136.1311  155.3813 H   0  0  0  0  0  0  0  0  0  0  0  0
  143.8915  134.7717  153.2548 H   0  0  0  0  0  0  0  0  0  0  0  0
  143.3745  135.9608  152.0800 H   0  0  0  0  0  0  0  0  0  0  0  0
  145.6968  135.9538  151.0697 H   0  0  0  0  0  0  0  0  0  0  0  0
  147.1146  135.2713  152.3850 H   0  0  0  0  0  0  0  0  0  0  0  0
  144.3727  134.4173  149.8231 H   0  0  0  0  0  0  0  0  0  0  0  0
  144.3063  132.7030  152.3401 H   0  0  0  0  0  0  0  0  0  0  0  0
  142.9306  133.2353  151.3667 H   0  0  0  0  0  0  0  0  0  0  0  0
  143.9277  130.7890  150.8929 H   0  0  0  0  0  0  0  0  0  0  0  0
  143.6424  131.8463  149.5033 H   0  0  0  0  0  0  0  0  0  0  0  0
  146.2733  131.3424  150.9334 H   0  0  0  0  0  0  0  0  0  0  0  0
  145.9824  131.4151  149.1935 H   0  0  0  0  0  0  0  0  0  0  0  0
  1  2  1  0  0  0  0
  1 29  1  0  0  0  0
  1 30  1  0  0  0  0
  1 31  1  0  0  0  0
  2  3  1  0  0  0  0
  2 32  1  0  0  0  0
  2 33  1  0  0  0  0
  3  4  1  0  0  0  0
  3  6  1  0  0  0  0
  3 34  1  0  0  0  0
  4  5  1  0  0  0  0
  4 35  1  0  0  0  0
  4 36  1  0  0  0  0
  5 37  1  0  0  0  0
  5 38  1  0  0  0  0
  5 39  1  0  0  0  0
  6  7  1  0  0  0  0
  6 40  1  0  0  0  0
  6 41  1  0  0  0  0
  7  8  1  0  0  0  0
  7 12  1  0  0  0  0
  8  9  1  0  0  0  0
  8 42  1  0  0  0  0
  8 43  1  0  0  0  0
  9 10  1  0  0  0  0
  9 44  1  0  0  0  0
  9 45  1  0  0  0  0
 10 11  3  0  0  0  0
 12 17  1  0  0  0  0
 12 13  2  0  0  0  0
 13 14  1  0  0  0  0
 14 15  2  0  0  0  0
 14 46  1  0  0  0  0
 15 16  1  0  0  0  0
 16 20  1  0  0  0  0
 16 17  2  0  0  0  0
 17 18  1  0  0  0  0
 18 19  2  0  0  0  0
 19 20  1  0  0  0  0
 19 47  1  0  0  0  0
 20 21  1  0  0  0  0
 21 22  1  0  0  0  0
 21 48  1  0  0  0  0
 21 49  1  0  0  0  0
 22 23  1  0  0  0  0
 22 24  1  0  0  0  0
 22 50  1  0  0  0  0
 23 51  1  0  0  0  0
 24 28  1  0  0  0  0
 24 25  1  0  0  0  0
 24 52  1  0  0  0  0
 25 26  1  0  0  0  0
 25 53  1  0  0  0  0
 25 54  1  0  0  0  0
 26 27  1  0  0  0  0
 26 55  1  0  0  0  0
 26 56  1  0  0  0  0
 27 28  1  0  0  0  0
 27 57  1  0  0  0  0
 27 58  1  0  0  0  0
M  END
> <s_m_source_file>
AV-unprocessed.smi

> <i_m_source_file_index>
87

> <i_lp_mmshare_version>
43012

> <i_f3d_flags>
0

> <s_epik_input>
W0NIM11bQ0gyXVtDSF0oW0NIMl1bQ0gzXSlbQ0gyXU4oW0NIMl1bQ0gyXUMjTiljKG5bY0hdbjEpYyhjMTIpbltjSF1uMltDSDJdW0NASF0oW09IXSlbQ0BASF0zW0NIMl1bQ0gyXVtDSDJdTzM=

> <s_epik_cmdline>
J2VwaWtfcHl0aG9uJywgJy1waCcsICc3LjAnLCAnLXRuJywgJzgnLCAnLW1hJywgJzIwMCcsICctbWV0YWxfYmluZGluZycsICctaW1hZScsICc8aW5maWxlLm1hZT4nLCAnLW9tYWUnLCAnPG91dGZpbGUubWFlPic=

> <r_lp_tautomer_probability>
1

> <r_epik_Ionization_Penalty>
0.000348566

> <r_epik_Ionization_Penalty_Charging>
0

> <r_epik_Ionization_Penalty_Neutral>
0.000348566

> <r_epik_State_Penalty>
-0

> <r_epik_Charging_Adjusted_Penalty>
0

> <i_epik_Tot_Q>
0

> <i_epik_Tot_abs_Q>
0

> <r_epik_Metal_State_Penalty>
-0

> <b_epik_Metal_Only>
0

> <s_lp_Force_Field>
OPLS_2005

> <r_lp_Energy>
32.9267

> <b_lp_Chiralities_Consistent>
1

> <s_lp_Variant>
AV-unprocessed.smi:87-2

> <Gold.Version>
5.8.1

> <Gold.Id.Protein>
6NUR|6NUR_protein|mol2

> <Gold.PLP.Fitness>
41.3847

> <Gold.PLP.PLP>
-36.8614

> <Gold.PLP.part.hbond>
-2.0000

> <Gold.PLP.part.metal>
0.0000

> <Gold.PLP.part.buried>
-6.7598

> <Gold.PLP.part.nonpolar>
-30.6054

> <Gold.PLP.part.repulsive>
2.6002

> <Gold.PLP.ligand.clash>
0.0000

> <Gold.PLP.ligand.torsion>
1.5939

> <Gold.PLP.Chemscore.Hbond>
1.6084

> <Gold.PLP.Chemscore.CHOScore>
0.6555

> <Gold.PLP.Chemscore.Metal>
0.0000

> <Gold.Chemscore.Hbonds>
donor molecule, donor type, donor heavy atom, donor atom, acceptor molecule, acceptor atom, score
      L1  H    23    51       P1  7948  0.80
      P1  H  6934  6946       L1    11  0.60
      L1  C    14    46       P1  7957  0.85

> <Gold.PLP.Chemscore.Internal.Correction>
0.9192

> <Gold.Rescore>
     Score         DG    S(hbond)    S(metal)    S(lipo)     H(rot)  DE(clash)    DE(int)     intcor
      8.75     -10.37       1.78        0.00      70.54       3.64       0.24       1.38       ----

> <Gold.Chemscore.Fitness>
8.7494

> <Gold.Chemscore.DG>
-10.3717

> <Gold.Chemscore.ZeroCoef>
-5.4800

> <Gold.Chemscore.Hbond>
1.7809

> <Gold.Chemscore.Metal>
0.0000

> <Gold.Chemscore.Lipo>
70.5442

> <Gold.Chemscore.Internal_Hbond>
0.0000

> <Gold.Chemscore.DEClash>
0.2386

> <Gold.Chemscore.DEInternal>
1.3837

> <Gold.Chemscore.Rot>
3.6368

> <Gold.Chemscore.Internal.Correction>
   9.000000E+99

> <Gold.Chemscore.Hbonds>
donor molecule, donor type, donor heavy atom, donor atom, acceptor molecule, acceptor atom, score
      L1  H    23    51       P1  7948  0.78
      P1  H  6934  6946       L1    11  0.57

> <Gold.Chemscore.Hbond.Weighted>
-5.9482

> <Gold.Chemscore.Metal.Weighted>
-0.0000

> <Gold.Chemscore.Lipo.Weighted>
-8.2537

> <Gold.Chemscore.Internal_Hbond.Weighted>
0.0000

> <Gold.Chemscore.DEClash.Weighted>
0.2386

> <Gold.Chemscore.DEInternal.Weighted>
1.3837

> <Gold.Chemscore.Rot.Weighted>
9.3102

> <Gold.Chemscore.Internal.Correction.Weighted>
   9.000000E+99

> <Gold.Protein.RotatedTorsions>
[ 6907 6896 6895 6894 ] final  -97.30 input  -60.11 | X-H torsion
[ 7974 7965 7964 7962 ] final -124.68 input  175.53 | X-H torsion
[ 8008 7997 7996 7995 ] final  174.27 input   59.86 | X-H torsion
[ 10167 10162 10161 10158 ] final -158.20 input  -65.29 | X-H torsion
[ 10718 10713 10712 10709 ] final   92.41 input   66.30 | X-H torsion
[ 10763 10752 10751 10750 ] final -136.41 input  -60.55 | X-H torsion
[ 11005 11000 10999 10996 ] final  140.19 input  -57.11 | X-H torsion

> <Gold.Protein.ActiveResidues>
 VAL166  LYS551  ARG553  GLY616  TRP617  ASP618  TYR619  PRO620  LYS621  CYS622 
 ASP623  PHE694  ASN695  SER759  ASP760  ASP761  ALA762  ILE779  LEU786  VAL792 
 PHE793  MET794  SER795  GLU796  ALA797  LYS798  CYS799  TRP800  GLU811  SER814 

> <Gold.Protein.RotatedAtoms>
  150.7012  134.1370  159.4090 H   0  0  0  0  0  0  0  0  0  0  0  0  # atno 6907 bound_to 6896
  151.9355  135.0235  160.0541 H   0  0  0  0  0  0  0  0  0  0  0  0  # atno 6908 bound_to 6896
  152.2139  133.4897  159.5162 H   0  0  0  0  0  0  0  0  0  0  0  0  # atno 6909 bound_to 6896
  145.0055  140.7859  143.4470 H   0  0  0  0  0  0  0  0  0  0  0  0  # atno 7974 bound_to 7965
  156.0991  140.1439  156.9491 H   0  0  0  0  0  0  0  0  0  0  0  0  # atno 8008 bound_to 7997
  154.4691  140.0916  156.7143 H   0  0  0  0  0  0  0  0  0  0  0  0  # atno 8009 bound_to 7997
  155.4790  140.3444  155.4339 H   0  0  0  0  0  0  0  0  0  0  0  0  # atno 8010 bound_to 7997
  139.6711  143.9744  152.2284 H   0  0  0  0  0  0  0  0  0  0  0  0  # atno 10167 bound_to 10162
  157.6958  131.0442  150.3877 H   0  0  0  0  0  0  0  0  0  0  0  0  # atno 10718 bound_to 10713
  154.8684  135.3673  154.5057 H   0  0  0  0  0  0  0  0  0  0  0  0  # atno 10763 bound_to 10752
  153.5695  135.7021  153.5516 H   0  0  0  0  0  0  0  0  0  0  0  0  # atno 10764 bound_to 10752
  153.3555  135.4060  155.1641 H   0  0  0  0  0  0  0  0  0  0  0  0  # atno 10765 bound_to 10752
  140.0309  134.9352  157.0661 H   0  0  0  0  0  0  0  0  0  0  0  0  # atno 11005 bound_to 11000
  145.2094  139.2212  143.5151 LP  0  0  0  0  0  0  0  0  0  0  0  0  # atno 17320 bound_to 7965
  146.3460  140.1929  142.8589 LP  0  0  0  0  0  0  0  0  0  0  0  0  # atno 17321 bound_to 7965
  139.9508  144.6621  150.8173 LP  0  0  0  0  0  0  0  0  0  0  0  0  # atno 17342 bound_to 10162
  140.7618  143.3183  151.2681 LP  0  0  0  0  0  0  0  0  0  0  0  0  # atno 17343 bound_to 10162
  156.4284  130.3967  149.6777 LP  0  0  0  0  0  0  0  0  0  0  0  0  # atno 17370 bound_to 10713
  156.4003  130.7671  151.2679 LP  0  0  0  0  0  0  0  0  0  0  0  0  # atno 17371 bound_to 10713
  140.4227  134.1864  155.7165 LP  0  0  0  0  0  0  0  0  0  0  0  0  # atno 17394 bound_to 11000
  141.1830  133.8372  157.1188 LP  0  0  0  0  0  0  0  0  0  0  0  0  # atno 17395 bound_to 11000

$$$$
