AV-unprocessed.smi:502|AV-procd|sdf|2745|dock10
  -GOLD-   2262023213D 1   1.00000     0.00000
 Structure written by MMmdl.
 49 51  0  0  0  0  0  0  0  0  2 V2000
  147.0590  140.6958  153.1895 C   0  0  0  0  0  0  0  0  0  0  0  0
  147.5528  141.0581  154.5860 C   0  0  0  0  0  0  0  0  0  0  0  0
  146.9561  141.9027  155.2535 O   0  0  0  0  0  0  0  0  0  0  0  0
  148.6464  140.4113  155.0162 N   0  0  0  0  0  0  0  0  0  0  0  0
  149.2886  140.6245  156.3080 C   0  0  0  0  0  0  0  0  0  0  0  0
  150.6934  141.2306  156.1545 C   0  0  0  0  0  0  0  0  0  0  0  0
  151.0332  142.1249  157.3029 C   0  0  0  0  0  0  0  0  0  0  0  0
  150.8338  143.4731  157.3396 N   0  3  0  0  0  0  0  0  0  0  0  0
  151.2783  143.9849  158.5590 C   0  0  0  0  0  0  0  0  0  0  0  0
  151.2834  145.2851  159.0548 C   0  0  0  0  0  0  0  0  0  0  0  0
  151.8147  145.4668  160.3487 C   0  0  0  0  0  0  0  0  0  0  0  0
  152.3128  144.3804  161.0973 C   0  0  0  0  0  0  0  0  0  0  0  0
  152.3019  143.0668  160.5838 C   0  0  0  0  0  0  0  0  0  0  0  0
  151.7767  142.8965  159.3031 C   0  0  0  0  0  0  0  0  0  0  0  0
  151.6126  141.7710  158.4875 N   0  0  0  0  0  0  0  0  0  0  0  0
  152.0540  140.4615  158.9878 C   0  0  0  0  0  0  0  0  0  0  0  0
  153.5318  140.4661  159.4015 C   0  0  0  0  0  0  0  0  0  0  0  0
  154.1178  139.2409  158.9874 O   0  0  0  0  0  0  0  0  0  0  0  0
  154.1862  138.2047  159.8963 C   0  0  0  0  0  0  0  0  0  0  0  0
  153.8182  138.3286  161.2608 C   0  0  0  0  0  0  0  0  0  0  0  0
  153.9144  137.2264  162.1313 C   0  0  0  0  0  0  0  0  0  0  0  0
  154.3774  135.9880  161.6531 C   0  0  0  0  0  0  0  0  0  0  0  0
  154.7452  135.8526  160.3024 C   0  0  0  0  0  0  0  0  0  0  0  0
  154.6515  136.9541  159.4259 C   0  0  0  0  0  0  0  0  0  0  0  0
  155.0521  136.7898  157.9717 C   0  0  0  0  0  0  0  0  0  0  0  0
  146.8208  139.6335  153.1321 H   0  0  0  0  0  0  0  0  0  0  0  0
  147.8236  140.9199  152.4454 H   0  0  0  0  0  0  0  0  0  0  0  0
  146.1615  141.2610  152.9364 H   0  0  0  0  0  0  0  0  0  0  0  0
  149.0717  139.7341  154.3992 H   0  0  0  0  0  0  0  0  0  0  0  0
  148.6550  141.2920  156.8909 H   0  0  0  0  0  0  0  0  0  0  0  0
  149.3360  139.6826  156.8573 H   0  0  0  0  0  0  0  0  0  0  0  0
  151.4430  140.4403  156.0978 H   0  0  0  0  0  0  0  0  0  0  0  0
  150.7684  141.7915  155.2228 H   0  0  0  0  0  0  0  0  0  0  0  0
  150.9024  146.1186  158.4832 H   0  0  0  0  0  0  0  0  0  0  0  0
  151.8412  146.4590  160.7755 H   0  0  0  0  0  0  0  0  0  0  0  0
  152.7126  144.5581  162.0853 H   0  0  0  0  0  0  0  0  0  0  0  0
  152.6872  142.2413  161.1639 H   0  0  0  0  0  0  0  0  0  0  0  0
  151.4144  140.1748  159.8234 H   0  0  0  0  0  0  0  0  0  0  0  0
  151.8881  139.7234  158.2035 H   0  0  0  0  0  0  0  0  0  0  0  0
  154.0456  141.3065  158.9336 H   0  0  0  0  0  0  0  0  0  0  0  0
  153.6182  140.5751  160.4834 H   0  0  0  0  0  0  0  0  0  0  0  0
  153.4581  139.2609  161.6679 H   0  0  0  0  0  0  0  0  0  0  0  0
  153.6322  137.3322  163.1685 H   0  0  0  0  0  0  0  0  0  0  0  0
  154.4501  135.1425  162.3212 H   0  0  0  0  0  0  0  0  0  0  0  0
  155.0997  134.8979  159.9419 H   0  0  0  0  0  0  0  0  0  0  0  0
  155.3701  135.7690  157.7573 H   0  0  0  0  0  0  0  0  0  0  0  0
  155.8770  137.4597  157.7283 H   0  0  0  0  0  0  0  0  0  0  0  0
  154.2116  137.0264  157.3186 H   0  0  0  0  0  0  0  0  0  0  0  0
  150.4215  144.0026  156.5820 H   0  0  0  0  0  0  0  0  0  0  0  0
  1  2  1  0  0  0  0
  1 26  1  0  0  0  0
  1 27  1  0  0  0  0
  1 28  1  0  0  0  0
  2  3  2  0  0  0  0
  2  4  1  0  0  0  0
  4  5  1  0  0  0  0
  4 29  1  0  0  0  0
  5  6  1  0  0  0  0
  5 30  1  0  0  0  0
  5 31  1  0  0  0  0
  6  7  1  0  0  0  0
  6 32  1  0  0  0  0
  6 33  1  0  0  0  0
  7 15  1  0  0  0  0
  7  8  2  0  0  0  0
  8  9  1  0  0  0  0
  8 49  1  0  0  0  0
  9 14  2  0  0  0  0
  9 10  1  0  0  0  0
 10 11  2  0  0  0  0
 10 34  1  0  0  0  0
 11 12  1  0  0  0  0
 11 35  1  0  0  0  0
 12 13  2  0  0  0  0
 12 36  1  0  0  0  0
 13 14  1  0  0  0  0
 13 37  1  0  0  0  0
 14 15  1  0  0  0  0
 15 16  1  0  0  0  0
 16 17  1  0  0  0  0
 16 38  1  0  0  0  0
 16 39  1  0  0  0  0
 17 18  1  0  0  0  0
 17 40  1  0  0  0  0
 17 41  1  0  0  0  0
 18 19  1  0  0  0  0
 19 24  1  0  0  0  0
 19 20  2  0  0  0  0
 20 21  1  0  0  0  0
 20 42  1  0  0  0  0
 21 22  2  0  0  0  0
 21 43  1  0  0  0  0
 22 23  1  0  0  0  0
 22 44  1  0  0  0  0
 23 24  2  0  0  0  0
 23 45  1  0  0  0  0
 24 25  1  0  0  0  0
 25 46  1  0  0  0  0
 25 47  1  0  0  0  0
 25 48  1  0  0  0  0
M  CHG  1   8   1
M  END
> <s_m_source_file>
AV-unprocessed.smi

> <i_m_source_file_index>
502

> <i_lp_mmshare_version>
43012

> <i_f3d_flags>
0

> <s_epik_input>
W0NIM11DKD1PKVtOSF1bQ0gyXVtDSDJdYyhuMSluKGMoYzEyKVtjSF1bY0hdW2NIXVtjSF0yKVtDSDJdW0NIMl1PYzNbY0hdW2NIXVtjSF1bY0hdYzNbQ0gzXQ==

> <s_epik_cmdline>
J2VwaWtfcHl0aG9uJywgJy1waCcsICc3LjAnLCAnLXRuJywgJzgnLCAnLW1hJywgJzIwMCcsICctbWV0YWxfYmluZGluZycsICctaW1hZScsICc8aW5maWxlLm1hZT4nLCAnLW9tYWUnLCAnPG91dGZpbGUubWFlPic=

> <r_lp_tautomer_probability>
1

> <r_epik_Ionization_Penalty>
1.10789

> <r_epik_Ionization_Penalty_Charging>
1.10789

> <r_epik_Ionization_Penalty_Neutral>
3.05925e-07

> <r_epik_State_Penalty>
1.16562

> <r_epik_Charging_Adjusted_Penalty>
2.27351

> <i_epik_Tot_Q>
1

> <i_epik_Tot_abs_Q>
1

> <r_epik_Metal_State_Penalty>
1.2518

> <b_epik_Metal_Only>
0

> <s_lp_Force_Field>
OPLS_2005

> <r_lp_Energy>
20.1677

> <b_lp_Chiralities_Consistent>
1

> <s_lp_Variant>
AV-unprocessed.smi:502-2

> <Gold.Version>
5.8.1

> <Gold.Id.Protein>
6NUR|6NUR_protein|mol2

> <Gold.PLP.Fitness>
54.2777

> <Gold.PLP.PLP>
-48.5462

> <Gold.PLP.part.hbond>
-2.0000

> <Gold.PLP.part.metal>
0.0000

> <Gold.PLP.part.buried>
-7.7530

> <Gold.PLP.part.nonpolar>
-39.8512

> <Gold.PLP.part.repulsive>
0.2198

> <Gold.PLP.ligand.clash>
0.0000

> <Gold.PLP.ligand.torsion>
1.1651

> <Gold.PLP.Chemscore.Hbond>
2.6496

> <Gold.PLP.Chemscore.CHOScore>
0.0000

> <Gold.PLP.Chemscore.Metal>
0.0000

> <Gold.Chemscore.Hbonds>
donor molecule, donor type, donor heavy atom, donor atom, acceptor molecule, acceptor atom, score
      L1  H     8    49       P1  8028  2.00
      P1  H  7997  8009       L1    18  0.38

> <Gold.PLP.Chemscore.Internal.Correction>
0.1130

> <Gold.Rescore>
     Score         DG    S(hbond)    S(metal)    S(lipo)     H(rot)  DE(clash)    DE(int)     intcor
     18.42     -19.54       0.93        0.00     141.22       2.18       0.14       0.98       ----

> <Gold.Chemscore.Fitness>
18.4212

> <Gold.Chemscore.DG>
-19.5413

> <Gold.Chemscore.ZeroCoef>
-5.4800

> <Gold.Chemscore.Hbond>
0.9336

> <Gold.Chemscore.Metal>
0.0000

> <Gold.Chemscore.Lipo>
141.2161

> <Gold.Chemscore.Internal_Hbond>
0.0000

> <Gold.Chemscore.DEClash>
0.1355

> <Gold.Chemscore.DEInternal>
0.9846

> <Gold.Chemscore.Rot>
2.1793

> <Gold.Chemscore.Internal.Correction>
   9.000000E+99

> <Gold.Chemscore.Hbonds>
donor molecule, donor type, donor heavy atom, donor atom, acceptor molecule, acceptor atom, score
      L1  H     8    49       P1  8028  0.96
      P1  H  7997  8009       L1    18  0.03

> <Gold.Chemscore.Hbond.Weighted>
-3.1181

> <Gold.Chemscore.Metal.Weighted>
-0.0000

> <Gold.Chemscore.Lipo.Weighted>
-16.5223

> <Gold.Chemscore.Internal_Hbond.Weighted>
0.0000

> <Gold.Chemscore.DEClash.Weighted>
0.1355

> <Gold.Chemscore.DEInternal.Weighted>
0.9846

> <Gold.Chemscore.Rot.Weighted>
5.5791

> <Gold.Chemscore.Internal.Correction.Weighted>
   9.000000E+99

> <Gold.Protein.RotatedTorsions>
[ 6907 6896 6895 6894 ] final   76.91 input  -60.11 | X-H torsion
[ 7974 7965 7964 7962 ] final -121.60 input  175.53 | X-H torsion
[ 8008 7997 7996 7995 ] final  155.16 input   59.86 | X-H torsion
[ 10167 10162 10161 10158 ] final   48.27 input  -65.29 | X-H torsion
[ 10718 10713 10712 10709 ] final  168.11 input   66.30 | X-H torsion
[ 10763 10752 10751 10750 ] final  135.83 input  -60.55 | X-H torsion
[ 11005 11000 10999 10996 ] final   22.97 input  -57.11 | X-H torsion

> <Gold.Protein.ActiveResidues>
 VAL166  LYS551  ARG553  GLY616  TRP617  ASP618  TYR619  PRO620  LYS621  CYS622 
 ASP623  PHE694  ASN695  SER759  ASP760  ASP761  ALA762  ILE779  LEU786  VAL792 
 PHE793  MET794  SER795  GLU796  ALA797  LYS798  CYS799  TRP800  GLU811  SER814 

> <Gold.Protein.RotatedAtoms>
  152.5094  134.3898  159.9379 H   0  0  0  0  0  0  0  0  0  0  0  0  # atno 6907 bound_to 6896
  151.3857  133.3799  159.2723 H   0  0  0  0  0  0  0  0  0  0  0  0  # atno 6908 bound_to 6896
  150.9470  134.8895  159.7707 H   0  0  0  0  0  0  0  0  0  0  0  0  # atno 6909 bound_to 6896
  145.0386  140.8126  143.4280 H   0  0  0  0  0  0  0  0  0  0  0  0  # atno 7974 bound_to 7965
  156.2493  140.1947  156.6758 H   0  0  0  0  0  0  0  0  0  0  0  0  # atno 8008 bound_to 7997
  154.6359  140.0590  156.9814 H   0  0  0  0  0  0  0  0  0  0  0  0  # atno 8009 bound_to 7997
  155.1638  140.3262  155.4409 H   0  0  0  0  0  0  0  0  0  0  0  0  # atno 8010 bound_to 7997
  140.2951  144.3000  150.6231 H   0  0  0  0  0  0  0  0  0  0  0  0  # atno 10167 bound_to 10162
  157.0419  131.0289  151.2710 H   0  0  0  0  0  0  0  0  0  0  0  0  # atno 10718 bound_to 10713
  153.8464  135.3085  155.3429 H   0  0  0  0  0  0  0  0  0  0  0  0  # atno 10763 bound_to 10752
  154.7910  135.4782  154.0056 H   0  0  0  0  0  0  0  0  0  0  0  0  # atno 10764 bound_to 10752
  153.1544  135.6849  153.8926 H   0  0  0  0  0  0  0  0  0  0  0  0  # atno 10765 bound_to 10752
  140.3747  134.1985  155.7665 H   0  0  0  0  0  0  0  0  0  0  0  0  # atno 11005 bound_to 11000
  145.1677  139.2422  143.5358 LP  0  0  0  0  0  0  0  0  0  0  0  0  # atno 17320 bound_to 7965
  146.3507  140.1420  142.8594 LP  0  0  0  0  0  0  0  0  0  0  0  0  # atno 17321 bound_to 7965
  140.5699  143.2182  151.7617 LP  0  0  0  0  0  0  0  0  0  0  0  0  # atno 17342 bound_to 10162
  139.4928  144.4231  151.9956 LP  0  0  0  0  0  0  0  0  0  0  0  0  # atno 17343 bound_to 10162
  157.5098  130.7931  149.7693 LP  0  0  0  0  0  0  0  0  0  0  0  0  # atno 17370 bound_to 10713
  156.0035  130.3867  150.2516 LP  0  0  0  0  0  0  0  0  0  0  0  0  # atno 17371 bound_to 10713
  141.1943  133.8131  157.0762 LP  0  0  0  0  0  0  0  0  0  0  0  0  # atno 17394 bound_to 11000
  140.0524  134.9798  157.1161 LP  0  0  0  0  0  0  0  0  0  0  0  0  # atno 17395 bound_to 11000

$$$$
