AV-unprocessed.smi:2524|AV-procd|sdf|9924|dock1
  -GOLD-   2272013563D 1   1.00000     0.00000
 Structure written by MMmdl.
 35 36  0  0  0  0  0  0  0  0  2 V2000
  152.9735  141.8189  160.3036 C   0  0  0  0  0  0  0  0  0  0  0  0
  153.0206  140.8597  159.3672 C   0  0  0  0  0  0  0  0  0  0  0  0
  152.8210  139.3839  159.6413 C   0  0  0  0  0  0  0  0  0  0  0  0
  152.2156  138.6555  158.4351 C   0  0  0  0  0  0  0  0  0  0  0  0
  153.5314  138.1341  157.2448 S   0  0  0  0  0  0  0  0  0  0  0  0
  154.8154  138.5283  157.8488 O   0  0  0  0  0  0  0  0  0  0  0  0
  153.3174  136.6929  157.0444 O   0  0  0  0  0  0  0  0  0  0  0  0
  153.1421  138.9746  155.9093 N   0  5  0  0  0  0  0  0  0  0  0  0
  151.8544  139.6495  155.7893 C   0  0  0  0  0  0  0  0  0  0  0  0
  150.7518  138.7328  155.2178 C   0  0  0  0  0  0  0  0  0  0  0  0
  149.5753  139.5505  154.7355 C   0  0  0  0  0  0  0  0  0  0  0  0
  148.4914  138.9476  154.0553 C   0  0  0  0  0  0  0  0  0  0  0  0
  147.4256  139.7557  153.6128 C   0  0  0  0  0  0  0  0  0  0  0  0
  147.3821  141.0918  153.7967 N   0  0  0  0  0  0  0  0  0  0  0  0
  148.4189  141.6711  154.4376 C   0  0  0  0  0  0  0  0  0  0  0  0
  149.5309  140.9523  154.9190 C   0  0  0  0  0  0  0  0  0  0  0  0
  151.0829  137.4590  154.4538 C   0  0  0  0  0  0  0  0  0  0  0  0
  150.4550  137.3690  155.8243 C   0  0  0  0  0  0  0  0  0  0  0  0
  152.7853  141.5819  161.3404 H   0  0  0  0  0  0  0  0  0  0  0  0
  153.1237  142.8561  160.0430 H   0  0  0  0  0  0  0  0  0  0  0  0
  153.2111  141.1343  158.3399 H   0  0  0  0  0  0  0  0  0  0  0  0
  153.7748  138.9284  159.9105 H   0  0  0  0  0  0  0  0  0  0  0  0
  152.1669  139.2802  160.5073 H   0  0  0  0  0  0  0  0  0  0  0  0
  151.6771  137.7628  158.7535 H   0  0  0  0  0  0  0  0  0  0  0  0
  151.5108  139.3038  157.9144 H   0  0  0  0  0  0  0  0  0  0  0  0
  151.5061  140.0163  156.7554 H   0  0  0  0  0  0  0  0  0  0  0  0
  151.9322  140.5289  155.1492 H   0  0  0  0  0  0  0  0  0  0  0  0
  148.4761  137.8818  153.8802 H   0  0  0  0  0  0  0  0  0  0  0  0
  146.5857  139.3163  153.0953 H   0  0  0  0  0  0  0  0  0  0  0  0
  148.3619  142.7415  154.5697 H   0  0  0  0  0  0  0  0  0  0  0  0
  150.3349  141.4668  155.4246 H   0  0  0  0  0  0  0  0  0  0  0  0
  150.4540  137.1976  153.6050 H   0  0  0  0  0  0  0  0  0  0  0  0
  152.1160  137.1237  154.3735 H   0  0  0  0  0  0  0  0  0  0  0  0
  151.0872  136.9756  156.6193 H   0  0  0  0  0  0  0  0  0  0  0  0
  149.4160  137.0486  155.8703 H   0  0  0  0  0  0  0  0  0  0  0  0
  1  2  2  0  0  0  0
  1 19  1  0  0  0  0
  1 20  1  0  0  0  0
  2  3  1  0  0  0  0
  2 21  1  0  0  0  0
  3  4  1  0  0  0  0
  3 22  1  0  0  0  0
  3 23  1  0  0  0  0
  4  5  1  0  0  0  0
  4 24  1  0  0  0  0
  4 25  1  0  0  0  0
  5  6  2  0  0  0  0
  5  7  2  0  0  0  0
  5  8  1  0  0  0  0
  8  9  1  0  0  0  0
  9 10  1  0  0  0  0
  9 26  1  0  0  0  0
  9 27  1  0  0  0  0
 10 18  1  0  0  0  0
 10 11  1  0  0  0  0
 10 17  1  0  0  0  0
 11 16  1  0  0  0  0
 11 12  2  0  0  0  0
 12 13  1  0  0  0  0
 12 28  1  0  0  0  0
 13 14  2  0  0  0  0
 13 29  1  0  0  0  0
 14 15  1  0  0  0  0
 15 16  2  0  0  0  0
 15 30  1  0  0  0  0
 16 31  1  0  0  0  0
 17 18  1  0  0  0  0
 17 32  1  0  0  0  0
 17 33  1  0  0  0  0
 18 34  1  0  0  0  0
 18 35  1  0  0  0  0
M  CHG  1   8  -1
M  END
> <s_m_source_file>
AV-unprocessed.smi

> <i_m_source_file_index>
2524

> <i_lp_mmshare_version>
43012

> <i_f3d_flags>
0

> <s_epik_input>
W0NIMl09W0NIXVtDSDJdW0NIMl1TKD1PKSg9TylbTkhdW0NIMl1DMShbQ0gyXVtDSDJdMSljMltjSF1bY0hdbltjSF1bY0hdMg==

> <s_epik_cmdline>
J2VwaWtfcHl0aG9uJywgJy1waCcsICc3LjAnLCAnLXRuJywgJzgnLCAnLW1hJywgJzIwMCcsICctbWV0YWxfYmluZGluZycsICctaW1hZScsICc8aW5maWxlLm1hZT4nLCAnLW9tYWUnLCAnPG91dGZpbGUubWFlPic=

> <r_epik_Ionization_Penalty>
6.82782

> <r_epik_Ionization_Penalty_Charging>
6.77146

> <r_epik_Ionization_Penalty_Neutral>
0.0563627

> <r_epik_State_Penalty>
6.80009

> <r_epik_Charging_Adjusted_Penalty>
13.5715

> <i_epik_Tot_Q>
-1

> <i_epik_Tot_abs_Q>
1

> <r_epik_Metal_State_Penalty>
2.75227

> <b_epik_Metal_Only>
1

> <s_lp_Force_Field>
OPLS_2005

> <r_lp_Energy>
12.2049

> <b_lp_Chiralities_Consistent>
1

> <s_lp_Variant>
AV-unprocessed.smi:2524-3

> <Gold.Version>
5.8.1

> <Gold.Id.Protein>
6NUR|6NUR_protein|mol2

> <Gold.PLP.Fitness>
44.1850

> <Gold.PLP.PLP>
-32.5511

> <Gold.PLP.part.hbond>
-3.0000

> <Gold.PLP.part.metal>
0.0000

> <Gold.PLP.part.buried>
0.0364

> <Gold.PLP.part.nonpolar>
-29.0041

> <Gold.PLP.part.repulsive>
0.1639

> <Gold.PLP.ligand.clash>
0.0000

> <Gold.PLP.ligand.torsion>
2.2263

> <Gold.PLP.Chemscore.Hbond>
3.5120

> <Gold.PLP.Chemscore.CHOScore>
1.0000

> <Gold.PLP.Chemscore.Metal>
0.0000

> <Gold.Chemscore.Hbonds>
donor molecule, donor type, donor heavy atom, donor atom, acceptor molecule, acceptor atom, score
      P1  H  7997  8008       L1     8  1.60
      P1  H  7997  8010       L1     6  0.53
      P1  H 10752 10764       L1     7  0.65
      L1  C    15    30       P1  8028  1.00

> <Gold.PLP.Chemscore.Internal.Correction>
2.5506

> <Gold.Rescore>
     Score         DG    S(hbond)    S(metal)    S(lipo)     H(rot)  DE(clash)    DE(int)     intcor
     14.40     -16.54       1.51        0.00      86.17       1.59       0.05       2.09       ----

> <Gold.Chemscore.Fitness>
14.3983

> <Gold.Chemscore.DG>
-16.5381

> <Gold.Chemscore.ZeroCoef>
-5.4800

> <Gold.Chemscore.Hbond>
1.5116

> <Gold.Chemscore.Metal>
0.0000

> <Gold.Chemscore.Lipo>
86.1683

> <Gold.Chemscore.Internal_Hbond>
0.0000

> <Gold.Chemscore.DEClash>
0.0480

> <Gold.Chemscore.DEInternal>
2.0918

> <Gold.Chemscore.Rot>
1.5908

> <Gold.Chemscore.Internal.Correction>
   9.000000E+99

> <Gold.Chemscore.Hbonds>
donor molecule, donor type, donor heavy atom, donor atom, acceptor molecule, acceptor atom, score
      P1  H  7997  8008       L1     8  0.09
      P1  H  7997  8010       L1     6  0.49
      P1  H 10752 10764       L1     7  0.61

> <Gold.Chemscore.Hbond.Weighted>
-5.0488

> <Gold.Chemscore.Metal.Weighted>
-0.0000

> <Gold.Chemscore.Lipo.Weighted>
-10.0817

> <Gold.Chemscore.Internal_Hbond.Weighted>
0.0000

> <Gold.Chemscore.DEClash.Weighted>
0.0480

> <Gold.Chemscore.DEInternal.Weighted>
2.0918

> <Gold.Chemscore.Rot.Weighted>
4.0724

> <Gold.Chemscore.Internal.Correction.Weighted>
   9.000000E+99

> <Gold.Protein.RotatedTorsions>
[ 6907 6896 6895 6894 ] final  -82.78 input  -60.11 | X-H torsion
[ 7974 7965 7964 7962 ] final  -92.51 input  175.53 | X-H torsion
[ 8008 7997 7996 7995 ] final  -24.81 input   59.86 | X-H torsion
[ 10167 10162 10161 10158 ] final  -52.93 input  -65.29 | X-H torsion
[ 10718 10713 10712 10709 ] final  142.82 input   66.30 | X-H torsion
[ 10763 10752 10751 10750 ] final   11.85 input  -60.55 | X-H torsion
[ 11005 11000 10999 10996 ] final  -21.86 input  -57.11 | X-H torsion

> <Gold.Protein.ActiveResidues>
 VAL166  LYS551  ARG553  GLY616  TRP617  ASP618  TYR619  PRO620  LYS621  CYS622 
 ASP623  PHE694  ASN695  SER759  ASP760  ASP761  ALA762  ILE779  LEU786  VAL792 
 PHE793  MET794  SER795  GLU796  ALA797  LYS798  CYS799  TRP800  GLU811  SER814 

> <Gold.Protein.RotatedAtoms>
  150.6893  134.3612  159.4951 H   0  0  0  0  0  0  0  0  0  0  0  0  # atno 6907 bound_to 6896
  152.1441  134.9037  160.0561 H   0  0  0  0  0  0  0  0  0  0  0  0  # atno 6908 bound_to 6896
  152.0160  133.3845  159.4276 H   0  0  0  0  0  0  0  0  0  0  0  0  # atno 6909 bound_to 6896
  145.3989  140.9535  143.2298 H   0  0  0  0  0  0  0  0  0  0  0  0  # atno 7974 bound_to 7965
  154.4509  140.1943  156.0523 H   0  0  0  0  0  0  0  0  0  0  0  0  # atno 8008 bound_to 7997
  156.0645  140.3292  155.7474 H   0  0  0  0  0  0  0  0  0  0  0  0  # atno 8009 bound_to 7997
  155.5360  140.0582  157.2870 H   0  0  0  0  0  0  0  0  0  0  0  0  # atno 8010 bound_to 7997
  140.6512  143.2567  151.4718 H   0  0  0  0  0  0  0  0  0  0  0  0  # atno 10167 bound_to 10162
  157.3761  131.0985  151.0783 H   0  0  0  0  0  0  0  0  0  0  0  0  # atno 10718 bound_to 10713
  153.1884  135.6838  153.8385 H   0  0  0  0  0  0  0  0  0  0  0  0  # atno 10763 bound_to 10752
  153.7693  135.3198  155.3350 H   0  0  0  0  0  0  0  0  0  0  0  0  # atno 10764 bound_to 10752
  154.8102  135.4722  154.0594 H   0  0  0  0  0  0  0  0  0  0  0  0  # atno 10765 bound_to 10752
  140.8602  133.7794  156.0065 H   0  0  0  0  0  0  0  0  0  0  0  0  # atno 11005 bound_to 11000
  144.8388  139.5507  143.6910 LP  0  0  0  0  0  0  0  0  0  0  0  0  # atno 17320 bound_to 7965
  146.2761  139.6757  142.9262 LP  0  0  0  0  0  0  0  0  0  0  0  0  # atno 17321 bound_to 7965
  139.5727  144.1890  152.1860 LP  0  0  0  0  0  0  0  0  0  0  0  0  # atno 17342 bound_to 10162
  140.1192  144.5389  150.6874 LP  0  0  0  0  0  0  0  0  0  0  0  0  # atno 17343 bound_to 10162
  157.1869  130.6334  149.5691 LP  0  0  0  0  0  0  0  0  0  0  0  0  # atno 17370 bound_to 10713
  155.9765  130.4735  150.6536 LP  0  0  0  0  0  0  0  0  0  0  0  0  # atno 17371 bound_to 10713
  140.8692  134.2747  157.5199 LP  0  0  0  0  0  0  0  0  0  0  0  0  # atno 17394 bound_to 11000
  139.8706  134.9558  156.4218 LP  0  0  0  0  0  0  0  0  0  0  0  0  # atno 17395 bound_to 11000

$$$$
