AV-unprocessed.smi:1047|AV-procd|sdf|4587|dock9
  -GOLD-   22720 3 63D 1   1.00000     0.00000
 Structure written by MMmdl.
 58 60  0  0  0  0  0  0  0  0  4 V2000
  144.2778  132.7271  150.7260 C   0  0  0  0  0  0  0  0  0  0  0  0
  144.6899  134.1759  150.4301 C   0  0  0  0  0  0  0  0  0  0  0  0
  144.8048  134.9988  151.6604 N   0  3  2  0  0  0  0  0  0  0  0  0
  143.5054  135.2454  152.3327 C   0  0  0  0  0  0  0  0  0  0  0  0
  143.7082  136.0854  153.6045 C   0  0  0  0  0  0  0  0  0  0  0  0
  144.3721  137.3004  153.2767 O   0  0  0  0  0  0  0  0  0  0  0  0
  145.6663  137.0780  152.7262 C   0  0  2  0  0  0  0  0  0  0  0  0
  146.3284  138.4440  152.4876 C   0  0  0  0  0  0  0  0  0  0  0  0
  147.7819  138.3900  152.7431 N   0  3  0  0  0  0  0  0  0  0  0  0
  148.1910  138.9930  154.0279 C   0  0  0  0  0  0  0  0  0  0  0  0
  149.6018  138.5294  154.4380 C   0  0  1  0  0  0  0  0  0  0  0  0
  150.5508  139.1660  153.6069 O   0  0  0  0  0  0  0  0  0  0  0  0
  149.9736  138.8509  155.8995 C   0  0  0  0  0  0  0  0  0  0  0  0
  150.0480  140.2933  156.1718 N   0  0  0  0  0  0  0  0  0  0  0  0
  149.4244  141.3250  155.5400 C   0  0  0  0  0  0  0  0  0  0  0  0
  149.8002  142.4761  156.1623 N   0  3  0  0  0  0  0  0  0  0  0  0
  150.6723  142.1763  157.2105 C   0  0  0  0  0  0  0  0  0  0  0  0
  151.3142  143.0043  158.1234 C   0  0  0  0  0  0  0  0  0  0  0  0
  152.1483  142.3848  159.0808 C   0  0  0  0  0  0  0  0  0  0  0  0
  152.8632  143.2612  160.0952 C   0  0  0  0  0  0  0  0  0  0  0  0
  152.3167  140.9761  159.0996 C   0  0  0  0  0  0  0  0  0  0  0  0
  153.2172  140.3206  160.1332 C   0  0  0  0  0  0  0  0  0  0  0  0
  151.6544  140.1508  158.1626 C   0  0  0  0  0  0  0  0  0  0  0  0
  150.8348  140.7768  157.2254 C   0  0  0  0  0  0  0  0  0  0  0  0
  145.5101  136.2800  151.4162 C   0  0  0  0  0  0  0  0  0  0  0  0
  144.2970  132.1305  149.8137 H   0  0  0  0  0  0  0  0  0  0  0  0
  143.2683  132.6629  151.1306 H   0  0  0  0  0  0  0  0  0  0  0  0
  144.9584  132.2605  151.4386 H   0  0  0  0  0  0  0  0  0  0  0  0
  145.6576  134.1510  149.9277 H   0  0  0  0  0  0  0  0  0  0  0  0
  143.9912  134.6393  149.7320 H   0  0  0  0  0  0  0  0  0  0  0  0
  142.8310  135.7633  151.6488 H   0  0  0  0  0  0  0  0  0  0  0  0
  143.0285  134.3026  152.5990 H   0  0  0  0  0  0  0  0  0  0  0  0
  142.7439  136.3208  154.0555 H   0  0  0  0  0  0  0  0  0  0  0  0
  144.2813  135.5322  154.3501 H   0  0  0  0  0  0  0  0  0  0  0  0
  146.2726  136.5042  153.4303 H   0  0  0  0  0  0  0  0  0  0  0  0
  146.1721  138.7532  151.4531 H   0  0  0  0  0  0  0  0  0  0  0  0
  145.8698  139.2038  153.1221 H   0  0  0  0  0  0  0  0  0  0  0  0
  148.0761  137.4236  152.7340 H   0  0  0  0  0  0  0  0  0  0  0  0
  148.1530  140.0810  153.9568 H   0  0  0  0  0  0  0  0  0  0  0  0
  147.4616  138.6952  154.7815 H   0  0  0  0  0  0  0  0  0  0  0  0
  149.6865  137.4529  154.2817 H   0  0  0  0  0  0  0  0  0  0  0  0
  150.2174  139.1869  152.7223 H   0  0  0  0  0  0  0  0  0  0  0  0
  149.2169  138.4430  156.5713 H   0  0  0  0  0  0  0  0  0  0  0  0
  150.9142  138.3786  156.1832 H   0  0  0  0  0  0  0  0  0  0  0  0
  148.7507  141.2453  154.6987 H   0  0  0  0  0  0  0  0  0  0  0  0
  151.1807  144.0764  158.1032 H   0  0  0  0  0  0  0  0  0  0  0  0
  152.5615  142.9975  161.1090 H   0  0  0  0  0  0  0  0  0  0  0  0
  152.6332  144.3163  159.9435 H   0  0  0  0  0  0  0  0  0  0  0  0
  153.9435  143.1407  160.0123 H   0  0  0  0  0  0  0  0  0  0  0  0
  153.2361  139.2365  160.0168 H   0  0  0  0  0  0  0  0  0  0  0  0
  152.8664  140.5407  161.1419 H   0  0  0  0  0  0  0  0  0  0  0  0
  154.2407  140.6838  160.0353 H   0  0  0  0  0  0  0  0  0  0  0  0
  151.7860  139.0793  158.1821 H   0  0  0  0  0  0  0  0  0  0  0  0
  146.4941  136.0792  150.9898 H   0  0  0  0  0  0  0  0  0  0  0  0
  144.9559  136.8661  150.6809 H   0  0  0  0  0  0  0  0  0  0  0  0
  148.2622  138.8781  152.0001 H   0  0  0  0  0  0  0  0  0  0  0  0
  145.3787  134.4741  152.3052 H   0  0  0  0  0  0  0  0  0  0  0  0
  149.4788  143.3975  155.8930 H   0  0  0  0  0  0  0  0  0  0  0  0
  1  2  1  0  0  0  0
  1 26  1  0  0  0  0
  1 27  1  0  0  0  0
  1 28  1  0  0  0  0
  2  3  1  0  0  0  0
  2 29  1  0  0  0  0
  2 30  1  0  0  0  0
  3 25  1  0  0  0  0
  3  4  1  0  0  0  0
  3 57  1  0  0  0  0
  4  5  1  0  0  0  0
  4 31  1  0  0  0  0
  4 32  1  0  0  0  0
  5  6  1  0  0  0  0
  5 33  1  0  0  0  0
  5 34  1  0  0  0  0
  6  7  1  0  0  0  0
  7  8  1  0  0  0  0
  7 25  1  0  0  0  0
  7 35  1  0  0  0  0
  8  9  1  0  0  0  0
  8 36  1  0  0  0  0
  8 37  1  0  0  0  0
  9 10  1  0  0  0  0
  9 38  1  0  0  0  0
  9 56  1  0  0  0  0
 10 11  1  0  0  0  0
 10 39  1  0  0  0  0
 10 40  1  0  0  0  0
 11 12  1  0  0  0  0
 11 13  1  0  0  0  0
 11 41  1  0  0  0  0
 12 42  1  0  0  0  0
 13 14  1  0  0  0  0
 13 43  1  0  0  0  0
 13 44  1  0  0  0  0
 14 24  1  0  0  0  0
 14 15  1  0  0  0  0
 15 16  2  0  0  0  0
 15 45  1  0  0  0  0
 16 17  1  0  0  0  0
 16 58  1  0  0  0  0
 17 24  2  0  0  0  0
 17 18  1  0  0  0  0
 18 19  2  0  0  0  0
 18 46  1  0  0  0  0
 19 20  1  0  0  0  0
 19 21  1  0  0  0  0
 20 47  1  0  0  0  0
 20 48  1  0  0  0  0
 20 49  1  0  0  0  0
 21 22  1  0  0  0  0
 21 23  2  0  0  0  0
 22 50  1  0  0  0  0
 22 51  1  0  0  0  0
 22 52  1  0  0  0  0
 23 24  1  0  0  0  0
 23 53  1  0  0  0  0
 25 54  1  0  0  0  0
 25 55  1  0  0  0  0
M  CHG  1   3   1
M  CHG  1   9   1
M  CHG  1  16   1
M  END
> <s_m_source_file>
AV-unprocessed.smi

> <i_m_source_file_index>
1047

> <i_lp_mmshare_version>
43012

> <i_f3d_flags>
0

> <s_epik_input>
W0NIM11bQ0gyXU4xW0NIMl1bQ0gyXU9bQ0BIXShbQ0gyXTEpW0NIMl1bTkhdW0NIMl1bQ0BIXShbT0hdKVtDSDJdbihbY0hdbjIpYyhjMjMpW2NIXWMoW0NIM10pYyhbY0hdMylbQ0gzXQ==

> <s_epik_cmdline>
J2VwaWtfcHl0aG9uJywgJy1waCcsICc3LjAnLCAnLXRuJywgJzgnLCAnLW1hJywgJzIwMCcsICctbWV0YWxfYmluZGluZycsICctaW1hZScsICc8aW5maWxlLm1hZT4nLCAnLW9tYWUnLCAnPG91dGZpbGUubWFlPic=

> <r_epik_Ionization_Penalty>
1.6114

> <r_epik_Ionization_Penalty_Charging>
1.61139

> <r_epik_Ionization_Penalty_Neutral>
5.04732e-06

> <r_epik_State_Penalty>
1.63724

> <r_epik_Charging_Adjusted_Penalty>
3.24864

> <i_epik_Tot_Q>
3

> <i_epik_Tot_abs_Q>
3

> <r_epik_Metal_State_Penalty>
5.64594

> <b_epik_Metal_Only>
0

> <s_lp_Force_Field>
OPLS_2005

> <r_lp_Energy>
41.4775

> <b_lp_Chiralities_Consistent>
1

> <s_lp_Variant>
AV-unprocessed.smi:1047-28

> <Gold.Version>
5.8.1

> <Gold.Id.Protein>
6NUR|6NUR_protein|mol2

> <Gold.PLP.Fitness>
64.0338

> <Gold.PLP.PLP>
-47.4379

> <Gold.PLP.part.hbond>
-4.7184

> <Gold.PLP.part.metal>
0.0000

> <Gold.PLP.part.buried>
-3.2724

> <Gold.PLP.part.nonpolar>
-40.0495

> <Gold.PLP.part.repulsive>
0.4258

> <Gold.PLP.ligand.clash>
0.0000

> <Gold.PLP.ligand.torsion>
1.3746

> <Gold.PLP.Chemscore.Hbond>
6.3904

> <Gold.PLP.Chemscore.CHOScore>
0.0000

> <Gold.PLP.Chemscore.Metal>
0.0000

> <Gold.Chemscore.Hbonds>
donor molecule, donor type, donor heavy atom, donor atom, acceptor molecule, acceptor atom, score
      L1  H     9    38       P1  7948  1.76
      L1  H     9    56       P1  7957  1.00
      L1  H    12    42       P1  7957  1.00
      L1  H    16    58       P1  8028  1.69
      P1  H  7989  7998       L1    12  0.72

> <Gold.PLP.Chemscore.Internal.Correction>
0.1739

> <Gold.Rescore>
     Score         DG    S(hbond)    S(metal)    S(lipo)     H(rot)  DE(clash)    DE(int)     intcor
     22.39     -26.10       4.05        0.00     121.71       2.78       1.49       2.23       ----

> <Gold.Chemscore.Fitness>
22.3896

> <Gold.Chemscore.DG>
-26.1029

> <Gold.Chemscore.ZeroCoef>
-5.4800

> <Gold.Chemscore.Hbond>
4.0453

> <Gold.Chemscore.Metal>
0.0000

> <Gold.Chemscore.Lipo>
121.7143

> <Gold.Chemscore.Internal_Hbond>
0.0000

> <Gold.Chemscore.DEClash>
1.4876

> <Gold.Chemscore.DEInternal>
2.2257

> <Gold.Chemscore.Rot>
2.7848

> <Gold.Chemscore.Internal.Correction>
   9.000000E+99

> <Gold.Chemscore.Hbonds>
donor molecule, donor type, donor heavy atom, donor atom, acceptor molecule, acceptor atom, score
      L1  H     9    38       P1  7948  0.86
      L1  H     9    56       P1  7957  0.93
      L1  H    12    42       P1  7957  0.69
      L1  H    16    58       P1  8028  0.82
      P1  H  7989  7998       L1    12  0.10

> <Gold.Chemscore.Hbond.Weighted>
-13.5114

> <Gold.Chemscore.Metal.Weighted>
-0.0000

> <Gold.Chemscore.Lipo.Weighted>
-14.2406

> <Gold.Chemscore.Internal_Hbond.Weighted>
0.0000

> <Gold.Chemscore.DEClash.Weighted>
1.4876

> <Gold.Chemscore.DEInternal.Weighted>
2.2257

> <Gold.Chemscore.Rot.Weighted>
7.1291

> <Gold.Chemscore.Internal.Correction.Weighted>
   9.000000E+99

> <Gold.Protein.RotatedTorsions>
[ 6907 6896 6895 6894 ] final   42.55 input  -60.11 | X-H torsion
[ 7974 7965 7964 7962 ] final  -33.21 input  175.53 | X-H torsion
[ 8008 7997 7996 7995 ] final -150.70 input   59.86 | X-H torsion
[ 10167 10162 10161 10158 ] final   79.78 input  -65.29 | X-H torsion
[ 10718 10713 10712 10709 ] final  -32.41 input   66.30 | X-H torsion
[ 10763 10752 10751 10750 ] final  -87.87 input  -60.55 | X-H torsion
[ 11005 11000 10999 10996 ] final -122.49 input  -57.11 | X-H torsion

> <Gold.Protein.ActiveResidues>
 VAL166  LYS551  ARG553  GLY616  TRP617  ASP618  TYR619  PRO620  LYS621  CYS622 
 ASP623  PHE694  ASN695  SER759  ASP760  ASP761  ALA762  ILE779  LEU786  VAL792 
 PHE793  MET794  SER795  GLU796  ALA797  LYS798  CYS799  TRP800  GLU811  SER814 

> <Gold.Protein.RotatedAtoms>
  152.2093  134.8516  160.0498 H   0  0  0  0  0  0  0  0  0  0  0  0  # atno 6907 bound_to 6896
  151.9340  133.3614  159.3949 H   0  0  0  0  0  0  0  0  0  0  0  0  # atno 6908 bound_to 6896
  150.6972  134.4432  159.5346 H   0  0  0  0  0  0  0  0  0  0  0  0  # atno 6909 bound_to 6896
  146.0929  140.5888  142.8856 H   0  0  0  0  0  0  0  0  0  0  0  0  # atno 7974 bound_to 7965
  155.6277  140.0688  157.2658 H   0  0  0  0  0  0  0  0  0  0  0  0  # atno 8008 bound_to 7997
  154.4213  140.1773  156.1488 H   0  0  0  0  0  0  0  0  0  0  0  0  # atno 8009 bound_to 7997
  155.9958  140.3341  155.6800 H   0  0  0  0  0  0  0  0  0  0  0  0  # atno 8010 bound_to 7997
  139.9567  144.5989  150.8110 H   0  0  0  0  0  0  0  0  0  0  0  0  # atno 10167 bound_to 10162
  156.3752  130.4346  149.7513 H   0  0  0  0  0  0  0  0  0  0  0  0  # atno 10718 bound_to 10713
  154.6383  135.5398  153.7760 H   0  0  0  0  0  0  0  0  0  0  0  0  # atno 10763 bound_to 10752
  153.0320  135.6453  154.1198 H   0  0  0  0  0  0  0  0  0  0  0  0  # atno 10764 bound_to 10752
  154.1124  135.2926  155.3207 H   0  0  0  0  0  0  0  0  0  0  0  0  # atno 10765 bound_to 10752
  140.9991  134.0429  157.3560 H   0  0  0  0  0  0  0  0  0  0  0  0  # atno 11005 bound_to 11000
  144.7373  140.4845  143.6894 LP  0  0  0  0  0  0  0  0  0  0  0  0  # atno 17320 bound_to 7965
  145.6005  139.1503  143.3132 LP  0  0  0  0  0  0  0  0  0  0  0  0  # atno 17321 bound_to 7965
  140.7566  143.3069  151.2940 LP  0  0  0  0  0  0  0  0  0  0  0  0  # atno 17342 bound_to 10162
  139.6586  144.0231  152.2677 LP  0  0  0  0  0  0  0  0  0  0  0  0  # atno 17343 bound_to 10162
  156.4625  130.7958  151.2978 LP  0  0  0  0  0  0  0  0  0  0  0  0  # atno 17370 bound_to 10713
  157.7487  131.0061  150.3140 LP  0  0  0  0  0  0  0  0  0  0  0  0  # atno 17371 bound_to 10713
  139.9029  135.0171  156.7355 LP  0  0  0  0  0  0  0  0  0  0  0  0  # atno 17394 bound_to 11000
  140.6918  133.9383  155.7971 LP  0  0  0  0  0  0  0  0  0  0  0  0  # atno 17395 bound_to 11000

$$$$
