#       Name:                AV-unprocessed.smi:2168
#       Creating user name   scv26
#       Creation time:       Fri Mar 27 12:01:18 2020


#       File generated by GOLD software.
#

@<TRIPOS>MOLECULE
AV-unprocessed.smi:2168
    50    51     1
SMALL
NO_CHARGES


@<TRIPOS>ATOM
      1 ****        -0.9812   3.8870   1.1715 C.3            1 S1                 0.0000
      2 ****        -1.2410   4.0666   2.6751 C.3            1 S1                 0.0000
      3 ****        -0.9044   2.8613   3.4597 N.pl3          1 S1                 0.0000
      4 ****        -2.0248   1.9989   3.8891 C.3            1 S1                 0.0000
      5 ****        -2.9008   1.5178   2.7211 C.3            1 S1                 0.0000
      6 ****         0.7558   2.3455   3.6413 S.o2           1 S1                 0.0000
      7 ****         1.5575   3.5746   3.5365 O.2            1 S1                 0.0000
      8 ****         0.8244   1.5967   4.9088 O.2            1 S1                 0.0000
      9 ****         0.8743   1.4334   2.2964 N.pl3          1 S1                -1.0000
     10 ****         0.6983  -0.0108   2.3233 C.3            1 S1                 0.0000
     11 ****         0.8042  -0.6052   0.9268 C.ar           1 S1                 0.0000
     12 ****         2.0595  -0.9161   0.3608 C.ar           1 S1                 0.0000
     13 ****         2.1093  -1.4521  -0.9410 C.ar           1 S1                 0.0000
     14 ****         0.9024  -1.6673  -1.6481 C.ar           1 S1                 0.0000
     15 ****         0.9279  -2.1947  -2.9582 N.3            1 S1                 0.0000
     16 ****        -0.3145  -2.1831  -3.7290 C.3            1 S1                 0.0000
     17 ****        -0.0313  -2.4964  -5.2077 C.3            1 S1                 0.0000
     18 ****         0.6717  -3.7299  -5.3113 O.3            1 S1                 0.0000
     19 ****         1.9302  -3.6787  -4.6479 C.3            1 S1                 0.0000
     20 ****         1.7187  -3.4081  -3.1482 C.3            1 S1                 0.0000
     21 ****        -0.3016  -1.3661  -1.1018 N.ar           1 S1                 0.0000
     22 ****        -0.3467  -0.8517   0.1463 C.ar           1 S1                 0.0000
     23 ****        -1.3168   4.7630   0.6169 H              1 S1                 0.0000
     24 ****        -1.5054   3.0209   0.7690 H              1 S1                 0.0000
     25 ****         0.0811   3.7607   0.9639 H              1 S1                 0.0000
     26 ****        -0.6546   4.9061   3.0486 H              1 S1                 0.0000
     27 ****        -2.2839   4.3356   2.8442 H              1 S1                 0.0000
     28 ****        -1.6357   1.1342   4.4256 H              1 S1                 0.0000
     29 ****        -2.6356   2.5501   4.6042 H              1 S1                 0.0000
     30 ****        -3.6583   0.8189   3.0756 H              1 S1                 0.0000
     31 ****        -2.3107   1.0047   1.9635 H              1 S1                 0.0000
     32 ****        -3.4236   2.3426   2.2378 H              1 S1                 0.0000
     33 ****         1.4447  -0.4955   2.9535 H              1 S1                 0.0000
     34 ****        -0.2671  -0.2940   2.7439 H              1 S1                 0.0000
     35 ****         2.9824  -0.7439   0.8981 H              1 S1                 0.0000
     36 ****         3.0699  -1.6690  -1.3832 H              1 S1                 0.0000
     37 ****        -1.0026  -2.9215  -3.3153 H              1 S1                 0.0000
     38 ****        -0.7981  -1.2083  -3.6550 H              1 S1                 0.0000
     39 ****        -0.9675  -2.5734  -5.7605 H              1 S1                 0.0000
     40 ****         0.5469  -1.6952  -5.6710 H              1 S1                 0.0000
     41 ****         2.4446  -4.6293  -4.7887 H              1 S1                 0.0000
     42 ****         2.5587  -2.9075  -5.0967 H              1 S1                 0.0000
     43 ****         2.6907  -3.3415  -2.6621 H              1 S1                 0.0000
     44 ****         1.1920  -4.2455  -2.6889 H              1 S1                 0.0000
     45 ****        -1.3399  -0.6342   0.5143 H              1 S1                 0.0000
     46 ****         1.0744   1.8804   1.4245 LP             1 S1                 0.0000
     47 ****         1.4564  -1.4672  -3.3958 LP             1 S1                 0.0000
     48 ****         0.8236  -3.9357  -6.2781 LP             1 S1                 0.0000
     49 ****         0.1180  -4.4536  -4.8995 LP             1 S1                 0.0000
     50 ****        -1.1448  -1.5227  -1.6161 LP             1 S1                 0.0000
@<TRIPOS>BOND
    1    1    2 1     
    2    1   23 1     
    3    1   24 1     
    4    1   25 1     
    5    2    3 1     
    6    2   26 1     
    7    2   27 1     
    8    3    4 1     
    9    3    6 1     
   10    4    5 1     
   11    4   28 1     
   12    4   29 1     
   13    5   30 1     
   14    5   31 1     
   15    5   32 1     
   16    6    7 2     
   17    6    8 2     
   18    6    9 1     
   19    9   10 1     
   20   10   11 1     
   21   10   33 1     
   22   10   34 1     
   23   11   22 ar    
   24   11   12 ar    
   25   12   13 ar    
   26   12   35 1     
   27   13   14 ar    
   28   13   36 1     
   29   14   15 1     
   30   14   21 ar    
   31   15   20 1     
   32   15   16 1     
   33   16   17 1     
   34   16   37 1     
   35   16   38 1     
   36   17   18 1     
   37   17   39 1     
   38   17   40 1     
   39   18   19 1     
   40   19   20 1     
   41   19   41 1     
   42   19   42 1     
   43   20   43 1     
   44   20   44 1     
   45   21   22 ar    
   46   22   45 1     
   47    9   46 1     
   48   15   47 1     
   49   18   48 1     
   50   18   49 1     
   51   21   50 1     
@<TRIPOS>SUBSTRUCTURE
      1 S1             1
@<TRIPOS>SET
LONE_PAIRS      STATIC     ATOMS    <user>   **** ""
7 7 8 46 47 48 49 50
ATOM$BLUE        STATIC     ATOMS    COLORGROUP SYSTEM
7 7 8 46 47 48 49 50
