AV-unprocessed.smi:2377|AV-procd|sdf|9448|dock10
  -GOLD-   2272013 83D 1   1.00000     0.00000
 Structure written by MMmdl.
 23 23  0  0  0  0  0  0  0  0  1 V2000
  151.4068  138.7136  154.4668 C   0  0  0  0  0  0  0  0  0  0  0  0
  150.8933  140.0580  154.6959 N   0  0  0  0  0  0  0  0  0  0  0  0
  151.3171  140.6260  155.9733 C   0  0  0  0  0  0  0  0  0  0  0  0
  150.7190  142.0266  156.2004 C   0  0  1  0  0  0  0  0  0  0  0  0
  149.3118  141.9077  156.1979 O   0  0  0  0  0  0  0  0  0  0  0  0
  151.2313  142.6800  157.4757 C   0  0  0  0  0  0  0  0  0  0  0  0
  151.8030  143.9695  157.4471 C   0  0  0  0  0  0  0  0  0  0  0  0
  152.2710  144.5340  158.6492 C   0  0  0  0  0  0  0  0  0  0  0  0
  152.1498  143.7824  159.8346 C   0  0  0  0  0  0  0  0  0  0  0  0
  151.6074  142.5469  159.8765 N   0  0  0  0  0  0  0  0  0  0  0  0
  151.1613  142.0129  158.7189 C   0  0  0  0  0  0  0  0  0  0  0  0
  151.0784  138.3368  153.4983 H   0  0  0  0  0  0  0  0  0  0  0  0
  151.0534  138.0222  155.2323 H   0  0  0  0  0  0  0  0  0  0  0  0
  152.4971  138.7029  154.4767 H   0  0  0  0  0  0  0  0  0  0  0  0
  149.8793  140.0464  154.6533 H   0  0  0  0  0  0  0  0  0  0  0  0
  151.0037  139.9676  156.7847 H   0  0  0  0  0  0  0  0  0  0  0  0
  152.4060  140.6741  156.0171 H   0  0  0  0  0  0  0  0  0  0  0  0
  150.9801  142.6622  155.3529 H   0  0  0  0  0  0  0  0  0  0  0  0
  148.9375  142.7755  156.2075 H   0  0  0  0  0  0  0  0  0  0  0  0
  151.8844  144.5190  156.5209 H   0  0  0  0  0  0  0  0  0  0  0  0
  152.7140  145.5188  158.6626 H   0  0  0  0  0  0  0  0  0  0  0  0
  152.4988  144.1846  160.7740 H   0  0  0  0  0  0  0  0  0  0  0  0
  150.7364  141.0223  158.7874 H   0  0  0  0  0  0  0  0  0  0  0  0
  1  2  1  0  0  0  0
  1 12  1  0  0  0  0
  1 13  1  0  0  0  0
  1 14  1  0  0  0  0
  2  3  1  0  0  0  0
  2 15  1  0  0  0  0
  3  4  1  0  0  0  0
  3 16  1  0  0  0  0
  3 17  1  0  0  0  0
  4  5  1  0  0  0  0
  4  6  1  0  0  0  0
  4 18  1  0  0  0  0
  5 19  1  0  0  0  0
  6 11  1  0  0  0  0
  6  7  2  0  0  0  0
  7  8  1  0  0  0  0
  7 20  1  0  0  0  0
  8  9  2  0  0  0  0
  8 21  1  0  0  0  0
  9 10  1  0  0  0  0
  9 22  1  0  0  0  0
 10 11  2  0  0  0  0
 11 23  1  0  0  0  0
M  END
> <s_m_source_file>
AV-unprocessed.smi

> <i_m_source_file_index>
2377

> <i_lp_mmshare_version>
43012

> <i_f3d_flags>
0

> <s_epik_input>
W0NIM11bTkhdW0NIMl1bQ0BIXShbT0hdKWMxW2NIXVtjSF1bY0hdbltjSF0x

> <s_epik_cmdline>
J2VwaWtfcHl0aG9uJywgJy1waCcsICc3LjAnLCAnLXRuJywgJzgnLCAnLW1hJywgJzIwMCcsICctbWV0YWxfYmluZGluZycsICctaW1hZScsICc8aW5maWxlLm1hZT4nLCAnLW9tYWUnLCAnPG91dGZpbGUubWFlPic=

> <r_epik_Ionization_Penalty>
2.4626

> <r_epik_Ionization_Penalty_Charging>
0

> <r_epik_Ionization_Penalty_Neutral>
2.4626

> <r_epik_State_Penalty>
2.6219

> <r_epik_Charging_Adjusted_Penalty>
2.6219

> <i_epik_Tot_Q>
0

> <i_epik_Tot_abs_Q>
0

> <r_epik_Metal_State_Penalty>
2.61964

> <b_epik_Metal_Only>
0

> <s_lp_Force_Field>
OPLS_2005

> <r_lp_Energy>
6.69751

> <b_lp_Chiralities_Consistent>
1

> <s_lp_Variant>
AV-unprocessed.smi:2377-4

> <Gold.Version>
5.8.1

> <Gold.Id.Protein>
6NUR|6NUR_protein|mol2

> <Gold.PLP.Fitness>
35.6955

> <Gold.PLP.PLP>
-29.9450

> <Gold.PLP.part.hbond>
-2.3236

> <Gold.PLP.part.metal>
0.0000

> <Gold.PLP.part.buried>
-4.5257

> <Gold.PLP.part.nonpolar>
-23.1765

> <Gold.PLP.part.repulsive>
0.0071

> <Gold.PLP.ligand.clash>
0.0000

> <Gold.PLP.ligand.torsion>
0.1293

> <Gold.PLP.Chemscore.Hbond>
2.0000

> <Gold.PLP.Chemscore.CHOScore>
0.0000

> <Gold.PLP.Chemscore.Metal>
0.0000

> <Gold.Chemscore.Hbonds>
donor molecule, donor type, donor heavy atom, donor atom, acceptor molecule, acceptor atom, score
      L1  H     5    19       P1  8028  1.00
      P1  H  7989  7998       L1     2  1.00

> <Gold.PLP.Chemscore.Internal.Correction>
0.0091

> <Gold.Rescore>
     Score         DG    S(hbond)    S(metal)    S(lipo)     H(rot)  DE(clash)    DE(int)     intcor
     13.75     -13.97       1.24        0.00      79.66       1.94       0.14       0.09       ----

> <Gold.Chemscore.Fitness>
13.7511

> <Gold.Chemscore.DG>
-13.9748

> <Gold.Chemscore.ZeroCoef>
-5.4800

> <Gold.Chemscore.Hbond>
1.2369

> <Gold.Chemscore.Metal>
0.0000

> <Gold.Chemscore.Lipo>
79.6615

> <Gold.Chemscore.Internal_Hbond>
0.0000

> <Gold.Chemscore.DEClash>
0.1378

> <Gold.Chemscore.DEInternal>
0.0859

> <Gold.Chemscore.Rot>
1.9363

> <Gold.Chemscore.Internal.Correction>
   9.000000E+99

> <Gold.Chemscore.Hbonds>
donor molecule, donor type, donor heavy atom, donor atom, acceptor molecule, acceptor atom, score
      L1  H     5    19       P1  8028  0.92
      P1  H  7989  7998       L1     2  0.19

> <Gold.Chemscore.Hbond.Weighted>
-4.1314

> <Gold.Chemscore.Metal.Weighted>
-0.0000

> <Gold.Chemscore.Lipo.Weighted>
-9.3204

> <Gold.Chemscore.Internal_Hbond.Weighted>
0.0000

> <Gold.Chemscore.DEClash.Weighted>
0.1378

> <Gold.Chemscore.DEInternal.Weighted>
0.0859

> <Gold.Chemscore.Rot.Weighted>
4.9570

> <Gold.Chemscore.Internal.Correction.Weighted>
   9.000000E+99

> <Gold.Protein.RotatedTorsions>
[ 6907 6896 6895 6894 ] final -164.24 input  -60.11 | X-H torsion
[ 7974 7965 7964 7962 ] final -126.61 input  175.53 | X-H torsion
[ 8008 7997 7996 7995 ] final -146.66 input   59.86 | X-H torsion
[ 10167 10162 10161 10158 ] final    3.95 input  -65.29 | X-H torsion
[ 10718 10713 10712 10709 ] final -169.58 input   66.30 | X-H torsion
[ 10763 10752 10751 10750 ] final    2.53 input  -60.55 | X-H torsion
[ 11005 11000 10999 10996 ] final  -28.77 input  -57.11 | X-H torsion

> <Gold.Protein.ActiveResidues>
 VAL166  LYS551  ARG553  GLY616  TRP617  ASP618  TYR619  PRO620  LYS621  CYS622 
 ASP623  PHE694  ASN695  SER759  ASP760  ASP761  ALA762  ILE779  LEU786  VAL792 
 PHE793  MET794  SER795  GLU796  ALA797  LYS798  CYS799  TRP800  GLU811  SER814 

> <Gold.Protein.RotatedAtoms>
  151.4087  133.3734  159.2740 H   0  0  0  0  0  0  0  0  0  0  0  0  # atno 6907 bound_to 6896
  150.9379  134.8792  159.7604 H   0  0  0  0  0  0  0  0  0  0  0  0  # atno 6908 bound_to 6896
  152.5058  134.4036  159.9477 H   0  0  0  0  0  0  0  0  0  0  0  0  # atno 6909 bound_to 6896
  144.9855  140.7682  143.4586 H   0  0  0  0  0  0  0  0  0  0  0  0  # atno 7974 bound_to 7965
  155.5629  140.0627  157.2824 H   0  0  0  0  0  0  0  0  0  0  0  0  # atno 8008 bound_to 7997
  154.4384  140.1882  156.0847 H   0  0  0  0  0  0  0  0  0  0  0  0  # atno 8009 bound_to 7997
  156.0433  140.3293  155.7272 H   0  0  0  0  0  0  0  0  0  0  0  0  # atno 8010 bound_to 7997
  140.6560  143.7426  150.7654 H   0  0  0  0  0  0  0  0  0  0  0  0  # atno 10167 bound_to 10162
  156.7137  130.9243  151.3091 H   0  0  0  0  0  0  0  0  0  0  0  0  # atno 10718 bound_to 10713
  153.2945  135.6951  153.7262 H   0  0  0  0  0  0  0  0  0  0  0  0  # atno 10763 bound_to 10752
  153.6200  135.3429  155.3008 H   0  0  0  0  0  0  0  0  0  0  0  0  # atno 10764 bound_to 10752
  154.8533  135.4384  154.2037 H   0  0  0  0  0  0  0  0  0  0  0  0  # atno 10765 bound_to 10752
  140.9238  133.7382  156.0838 H   0  0  0  0  0  0  0  0  0  0  0  0  # atno 11005 bound_to 11000
  145.2360  139.2094  143.5018 LP  0  0  0  0  0  0  0  0  0  0  0  0  # atno 17320 bound_to 7965
  146.3419  140.2246  142.8592 LP  0  0  0  0  0  0  0  0  0  0  0  0  # atno 17321 bound_to 7965
  140.1086  143.4720  152.2383 LP  0  0  0  0  0  0  0  0  0  0  0  0  # atno 17342 bound_to 10162
  139.5783  144.7498  151.3708 LP  0  0  0  0  0  0  0  0  0  0  0  0  # atno 17343 bound_to 10162
  157.6926  130.9249  150.0555 LP  0  0  0  0  0  0  0  0  0  0  0  0  # atno 17370 bound_to 10713
  156.1643  130.3644  149.9254 LP  0  0  0  0  0  0  0  0  0  0  0  0  # atno 17371 bound_to 10713
  140.7953  134.3571  157.5454 LP  0  0  0  0  0  0  0  0  0  0  0  0  # atno 17394 bound_to 11000
  139.8781  134.9165  156.3156 LP  0  0  0  0  0  0  0  0  0  0  0  0  # atno 17395 bound_to 11000

$$$$
