#       Name:                AV-unprocessed.smi:189
#       Creating user name   scv26
#       Creation time:       Thu Mar 26 19:30:32 2020


#       File generated by GOLD software.
#

@<TRIPOS>MOLECULE
AV-unprocessed.smi:189
    61    65     1
SMALL
NO_CHARGES


@<TRIPOS>ATOM
      1 ****        -1.5483  -0.6709  -3.1840 C.3            1 S1                 0.0000
      2 ****        -2.2527  -0.9001  -1.8304 C.3            1 S1                 0.0000
      3 ****        -3.7809  -0.6869  -1.9623 C.3            1 S1                 0.0000
      4 ****        -4.1367   0.1406  -0.7310 C.3            1 S1                 0.0000
      5 ****        -5.3825   1.0334  -0.7770 C.3            1 S1                 0.0000
      6 ****        -5.4831   1.8238   0.5446 C.3            1 S1                 0.0000
      7 ****        -4.1814   2.5905   0.8733 C.3            1 S1                 0.0000
      8 ****        -2.9322   1.6854   0.8213 C.3            1 S1                 0.0000
      9 ****        -2.8814   0.9798  -0.5468 C.3            1 S1                 0.0000
     10 ****        -1.8180   0.0101  -0.7605 N.3            1 S1                 0.0000
     11 ****        -0.5052   0.3398  -0.6635 C.ar           1 S1                 0.0000
     12 ****        -0.1263   1.6431  -0.7282 N.ar           1 S1                 0.0000
     13 ****         1.1658   1.9737  -0.6511 C.ar           1 S1                 0.0000
     14 ****         2.2251   1.1738  -0.5132 N.ar           1 S1                 0.0000
     15 ****         1.8509  -0.1360  -0.4475 C.ar           1 S1                 0.0000
     16 ****         0.5197  -0.6356  -0.5159 C.ar           1 S1                 0.0000
     17 ****         0.5278  -2.0216  -0.4159 N.2            1 S1                 0.0000
     18 ****         1.7919  -2.3242  -0.2992 C.2            1 S1                 0.0000
     19 ****         2.6560  -1.2524  -0.3025 N.pl3          1 S1                 0.0000
     20 ****         4.1054  -1.3037  -0.1871 C.3            1 S1                 0.0000
     21 ****         4.6027  -1.3939   1.2744 C.3            1 S1                 0.0000
     22 ****         4.1456  -2.6089   1.8440 O.3            1 S1                 0.0000
     23 ****         4.1454  -0.2390   2.1610 C.3            1 S1                 0.0000
     24 ****         5.2985  -0.0872   3.1429 C.3            1 S1                 0.0000
     25 ****         6.4333  -0.2979   2.3203 O.3            1 S1                 0.0000
     26 ****         6.1385  -1.3456   1.4017 C.3            1 S1                 0.0000
     27 ****        -1.9756  -1.3122  -3.9550 H              1 S1                 0.0000
     28 ****        -0.4840  -0.8997  -3.1331 H              1 S1                 0.0000
     29 ****        -1.6529   0.3625  -3.5167 H              1 S1                 0.0000
     30 ****        -2.0681  -1.9200  -1.4920 H              1 S1                 0.0000
     31 ****        -4.0183  -0.1207  -2.8644 H              1 S1                 0.0000
     32 ****        -4.3319  -1.6267  -2.0061 H              1 S1                 0.0000
     33 ****        -4.2327  -0.5471   0.1121 H              1 S1                 0.0000
     34 ****        -5.3220   1.7223  -1.6205 H              1 S1                 0.0000
     35 ****        -6.2777   0.4290  -0.9251 H              1 S1                 0.0000
     36 ****        -6.3218   2.5188   0.4987 H              1 S1                 0.0000
     37 ****        -5.7038   1.1323   1.3588 H              1 S1                 0.0000
     38 ****        -4.0592   3.4068   0.1601 H              1 S1                 0.0000
     39 ****        -4.2628   3.0540   1.8569 H              1 S1                 0.0000
     40 ****        -2.0404   2.2872   0.9928 H              1 S1                 0.0000
     41 ****        -2.9707   0.9485   1.6244 H              1 S1                 0.0000
     42 ****        -2.8190   1.7300  -1.3376 H              1 S1                 0.0000
     43 ****         1.3814   3.0303  -0.7095 H              1 S1                 0.0000
     44 ****         2.1317  -3.3452  -0.2014 H              1 S1                 0.0000
     45 ****         4.4656  -2.1572  -0.7629 H              1 S1                 0.0000
     46 ****         4.5174  -0.4161  -0.6690 H              1 S1                 0.0000
     47 ****         4.4620  -2.6602   2.7331 H              1 S1                 0.0000
     48 ****         4.0661   0.6776   1.5754 H              1 S1                 0.0000
     49 ****         3.1829  -0.4075   2.6458 H              1 S1                 0.0000
     50 ****         5.3221   0.8930   3.6194 H              1 S1                 0.0000
     51 ****         5.2575  -0.8514   3.9207 H              1 S1                 0.0000
     52 ****         6.5498  -2.2850   1.7748 H              1 S1                 0.0000
     53 ****         6.6275  -1.1324   0.4505 H              1 S1                 0.0000
     54 ****        -1.7177  -0.4828   0.1038 LP             1 S1                 0.0000
     55 ****        -0.8176   2.3579  -0.8339 LP             1 S1                 0.0000
     56 ****         3.1713   1.4936  -0.4643 LP             1 S1                 0.0000
     57 ****        -0.2549  -2.6439  -0.4300 LP             1 S1                 0.0000
     58 ****         4.4963  -3.3823   1.3159 LP             1 S1                 0.0000
     59 ****         3.1458  -2.6285   1.8399 LP             1 S1                 0.0000
     60 ****         7.2165  -0.5559   2.8860 LP             1 S1                 0.0000
     61 ****         6.6463   0.5404   1.8186 LP             1 S1                 0.0000
@<TRIPOS>BOND
    1    1    2 1     
    2    1   27 1     
    3    1   28 1     
    4    1   29 1     
    5    2   10 1     
    6    2    3 1     
    7    2   30 1     
    8    3    4 1     
    9    3   31 1     
   10    3   32 1     
   11    4    9 1     
   12    4    5 1     
   13    4   33 1     
   14    5    6 1     
   15    5   34 1     
   16    5   35 1     
   17    6    7 1     
   18    6   36 1     
   19    6   37 1     
   20    7    8 1     
   21    7   38 1     
   22    7   39 1     
   23    8    9 1     
   24    8   40 1     
   25    8   41 1     
   26    9   10 1     
   27    9   42 1     
   28   10   11 1     
   29   11   16 ar    
   30   11   12 ar    
   31   12   13 ar    
   32   13   14 ar    
   33   13   43 1     
   34   14   15 ar    
   35   15   19 1     
   36   15   16 ar    
   37   16   17 1     
   38   17   18 2     
   39   18   19 1     
   40   18   44 1     
   41   19   20 1     
   42   20   21 1     
   43   20   45 1     
   44   20   46 1     
   45   21   26 1     
   46   21   22 1     
   47   21   23 1     
   48   22   47 1     
   49   23   24 1     
   50   23   48 1     
   51   23   49 1     
   52   24   25 1     
   53   24   50 1     
   54   24   51 1     
   55   25   26 1     
   56   26   52 1     
   57   26   53 1     
   58   10   54 1     
   59   12   55 1     
   60   14   56 1     
   61   17   57 1     
   62   22   58 1     
   63   22   59 1     
   64   25   60 1     
   65   25   61 1     
@<TRIPOS>SUBSTRUCTURE
      1 S1             1
@<TRIPOS>SET
LONE_PAIRS      STATIC     ATOMS    <user>   **** ""
8 54 55 56 57 58 59 60 61
DONOR_HYDROGENS      STATIC     ATOMS    <user>   **** ""
1 47
ATOM$BLUE        STATIC     ATOMS    COLORGROUP SYSTEM
8 54 55 56 57 58 59 60 61
ATOM$RED        STATIC     ATOMS    COLORGROUP SYSTEM
1 47
