#       Name:                AV-unprocessed.smi:2525
#       Creating user name   scv26
#       Creation time:       Fri Mar 27 13:57:45 2020


#       File generated by GOLD software.
#

@<TRIPOS>MOLECULE
AV-unprocessed.smi:2525
    50    51     1
SMALL
NO_CHARGES


@<TRIPOS>ATOM
      1 ****        -2.8108   1.3973  -2.3674 C.3            1 S1                 0.0000
      2 ****        -2.7922   0.2099  -1.3897 C.3            1 S1                 0.0000
      3 ****        -1.3879  -0.2213  -0.9006 C.3            1 S1                 0.0000
      4 ****        -0.5556  -0.6744  -2.1290 C.3            1 S1                 0.0000
      5 ****        -1.1221  -1.8853  -2.8884 C.3            1 S1                 0.0000
      6 ****        -0.7374   0.7885   0.0905 C.3            1 S1                 0.0000
      7 ****         0.7242   0.7728   0.0831 N.am           1 S1                 0.0000
      8 ****         1.5065   1.7083  -0.4747 C.2            1 S1                 0.0000
      9 ****         1.0674   2.6882  -1.0758 O.2            1 S1                 0.0000
     10 ****         3.0178   1.5007  -0.3479 C.3            1 S1                 0.0000
     11 ****         3.4193   1.3114   1.0366 N.pl3          1 S1                 0.0000
     12 ****         3.6380   2.2678   2.0071 C.2            1 S1                 0.0000
     13 ****         3.9694   1.5324   3.1089 C.2            1 S1                 0.0000
     14 ****         3.9392   0.1807   2.7698 N.2            1 S1                 0.0000
     15 ****         3.6106   0.0604   1.5220 N.2            1 S1                 0.0000
     16 ****        -1.3037  -0.0241   1.2671 C.3            1 S1                 0.0000
     17 ****        -0.5367  -0.1485   2.5832 C.3            1 S1                 0.0000
     18 ****        -1.4247  -1.2125   0.2952 C.3            1 S1                 0.0000
     19 ****        -0.2792  -2.0574   0.3227 O.3            1 S1                 0.0000
     20 ****        -0.4557  -3.2109   1.1271 C.3            1 S1                 0.0000
     21 ****        -3.8349   1.7181  -2.5580 H              1 S1                 0.0000
     22 ****        -2.3743   1.1375  -3.3312 H              1 S1                 0.0000
     23 ****        -2.2677   2.2551  -1.9713 H              1 S1                 0.0000
     24 ****        -3.4082   0.4910  -0.5355 H              1 S1                 0.0000
     25 ****        -3.3239  -0.6305  -1.8348 H              1 S1                 0.0000
     26 ****        -0.4043   0.1521  -2.8224 H              1 S1                 0.0000
     27 ****         0.4525  -0.9511  -1.8214 H              1 S1                 0.0000
     28 ****        -0.4164  -2.2229  -3.6476 H              1 S1                 0.0000
     29 ****        -2.0527  -1.6460  -3.4019 H              1 S1                 0.0000
     30 ****        -1.3093  -2.7242  -2.2178 H              1 S1                 0.0000
     31 ****        -1.1640   1.7917   0.0491 H              1 S1                 0.0000
     32 ****         1.1711  -0.0055   0.5466 H              1 S1                 0.0000
     33 ****         3.3184   0.6338  -0.9388 H              1 S1                 0.0000
     34 ****         3.5491   2.3648  -0.7498 H              1 S1                 0.0000
     35 ****         3.5384   3.3298   1.8374 H              1 S1                 0.0000
     36 ****         4.2224   1.8594   4.1068 H              1 S1                 0.0000
     37 ****        -2.3083   0.3466   1.4767 H              1 S1                 0.0000
     38 ****         0.4467  -0.5990   2.4454 H              1 S1                 0.0000
     39 ****        -1.0817  -0.7643   3.2982 H              1 S1                 0.0000
     40 ****        -0.3852   0.8285   3.0420 H              1 S1                 0.0000
     41 ****        -2.3678  -1.7581   0.3654 H              1 S1                 0.0000
     42 ****         0.4644  -3.7950   1.1341 H              1 S1                 0.0000
     43 ****        -1.2517  -3.8436   0.7321 H              1 S1                 0.0000
     44 ****        -0.6975  -2.9508   2.1576 H              1 S1                 0.0000
     45 ****         0.0800   2.8174  -1.1675 LP             1 S1                 0.0000
     46 ****         1.6979   3.3552  -1.4726 LP             1 S1                 0.0000
     47 ****         4.1395  -0.5767   3.3913 LP             1 S1                 0.0000
     48 ****         3.5159  -0.7950   1.0127 LP             1 S1                 0.0000
     49 ****         0.4932  -1.5341   0.6825 LP             1 S1                 0.0000
     50 ****        -0.0773  -2.3496  -0.6121 LP             1 S1                 0.0000
@<TRIPOS>BOND
    1    1    2 1     
    2    1   21 1     
    3    1   22 1     
    4    1   23 1     
    5    2    3 1     
    6    2   24 1     
    7    2   25 1     
    8    3   18 1     
    9    3    4 1     
   10    3    6 1     
   11    4    5 1     
   12    4   26 1     
   13    4   27 1     
   14    5   28 1     
   15    5   29 1     
   16    5   30 1     
   17    6    7 1     
   18    6   16 1     
   19    6   31 1     
   20    7    8 am    
   21    7   32 1     
   22    8    9 2     
   23    8   10 1     
   24   10   11 1     
   25   10   33 1     
   26   10   34 1     
   27   11   15 1     
   28   11   12 1     
   29   12   13 2     
   30   12   35 1     
   31   13   14 1     
   32   13   36 1     
   33   14   15 2     
   34   16   17 1     
   35   16   18 1     
   36   16   37 1     
   37   17   38 1     
   38   17   39 1     
   39   17   40 1     
   40   18   19 1     
   41   18   41 1     
   42   19   20 1     
   43   20   42 1     
   44   20   43 1     
   45   20   44 1     
   46    9   45 1     
   47    9   46 1     
   48   14   47 1     
   49   15   48 1     
   50   19   49 1     
   51   19   50 1     
@<TRIPOS>SUBSTRUCTURE
      1 S1             1
@<TRIPOS>SET
LONE_PAIRS      STATIC     ATOMS    <user>   **** ""
6 45 46 47 48 49 50
DONOR_HYDROGENS      STATIC     ATOMS    <user>   **** ""
1 32
ATOM$BLUE        STATIC     ATOMS    COLORGROUP SYSTEM
6 45 46 47 48 49 50
ATOM$RED        STATIC     ATOMS    COLORGROUP SYSTEM
1 32
