AV-unprocessed.smi:2103|AV-procd|sdf|8582|dock10
  -GOLD-   2272011313D 1   1.00000     0.00000
 Structure written by MMmdl.
 38 39  0  0  0  0  0  0  0  0  1 V2000
  145.2583  143.4915  156.1880 C   0  0  0  0  0  0  0  0  0  0  0  0
  146.1788  142.7839  155.3227 N   0  0  0  0  0  0  0  0  0  0  0  0
  146.1728  143.0640  153.9346 C   0  0  0  0  0  0  0  0  0  0  0  0
  145.4103  143.8862  153.4256 O   0  0  0  0  0  0  0  0  0  0  0  0
  147.1381  142.2932  153.1602 C   0  0  0  0  0  0  0  0  0  0  0  0
  147.9473  141.3917  153.7583 C   0  0  0  0  0  0  0  0  0  0  0  0
  147.9251  141.1297  155.1160 N   0  0  0  0  0  0  0  0  0  0  0  0
  148.8458  140.1322  155.6775 C   0  0  0  0  0  0  0  0  0  0  0  0
  150.2276  140.6998  156.0329 C   0  0  0  0  0  0  0  0  0  0  0  0
  151.2102  140.4779  155.3235 O   0  0  0  0  0  0  0  0  0  0  0  0
  150.2828  141.4322  157.1554 N   0  0  0  0  0  0  0  0  0  0  0  0
  151.4784  142.0792  157.6874 C   0  0  0  0  0  0  0  0  0  0  0  0
  151.7216  141.6685  159.1556 C   0  0  0  0  0  0  0  0  0  0  0  0
  152.9298  142.4074  159.7537 C   0  0  0  0  0  0  0  0  0  0  0  0
  152.7720  143.9306  159.6275 C   0  0  0  0  0  0  0  0  0  0  0  0
  152.5383  144.3438  158.1661 C   0  0  0  0  0  0  0  0  0  0  0  0
  151.3289  143.6081  157.5669 C   0  0  0  0  0  0  0  0  0  0  0  0
  147.0194  141.8316  155.9400 C   0  0  0  0  0  0  0  0  0  0  0  0
  146.9716  141.6123  157.1531 O   0  0  0  0  0  0  0  0  0  0  0  0
  144.7732  144.3125  155.6608 H   0  0  0  0  0  0  0  0  0  0  0  0
  145.8331  143.8981  157.0223 H   0  0  0  0  0  0  0  0  0  0  0  0
  144.5194  142.7647  156.5290 H   0  0  0  0  0  0  0  0  0  0  0  0
  147.2059  142.4464  152.0930 H   0  0  0  0  0  0  0  0  0  0  0  0
  148.6478  140.8486  153.1405 H   0  0  0  0  0  0  0  0  0  0  0  0
  148.4083  139.6737  156.5660 H   0  0  0  0  0  0  0  0  0  0  0  0
  148.9830  139.3172  154.9652 H   0  0  0  0  0  0  0  0  0  0  0  0
  149.4283  141.5585  157.6783 H   0  0  0  0  0  0  0  0  0  0  0  0
  152.3383  141.7738  157.0878 H   0  0  0  0  0  0  0  0  0  0  0  0
  150.8340  141.8848  159.7519 H   0  0  0  0  0  0  0  0  0  0  0  0
  151.8854  140.5927  159.2265 H   0  0  0  0  0  0  0  0  0  0  0  0
  153.0519  142.1319  160.8016 H   0  0  0  0  0  0  0  0  0  0  0  0
  153.8397  142.0905  159.2426 H   0  0  0  0  0  0  0  0  0  0  0  0
  151.9330  144.2633  160.2400 H   0  0  0  0  0  0  0  0  0  0  0  0
  153.6584  144.4305  160.0188 H   0  0  0  0  0  0  0  0  0  0  0  0
  152.3851  145.4216  158.1055 H   0  0  0  0  0  0  0  0  0  0  0  0
  153.4289  144.1239  157.5760 H   0  0  0  0  0  0  0  0  0  0  0  0
  151.2094  143.8916  156.5205 H   0  0  0  0  0  0  0  0  0  0  0  0
  150.4220  143.9319  158.0798 H   0  0  0  0  0  0  0  0  0  0  0  0
  1  2  1  0  0  0  0
  1 20  1  0  0  0  0
  1 21  1  0  0  0  0
  1 22  1  0  0  0  0
  2 18  1  0  0  0  0
  2  3  1  0  0  0  0
  3  4  2  0  0  0  0
  3  5  1  0  0  0  0
  5  6  2  0  0  0  0
  5 23  1  0  0  0  0
  6  7  1  0  0  0  0
  6 24  1  0  0  0  0
  7  8  1  0  0  0  0
  7 18  1  0  0  0  0
  8  9  1  0  0  0  0
  8 25  1  0  0  0  0
  8 26  1  0  0  0  0
  9 10  2  0  0  0  0
  9 11  1  0  0  0  0
 11 12  1  0  0  0  0
 11 27  1  0  0  0  0
 12 17  1  0  0  0  0
 12 13  1  0  0  0  0
 12 28  1  0  0  0  0
 13 14  1  0  0  0  0
 13 29  1  0  0  0  0
 13 30  1  0  0  0  0
 14 15  1  0  0  0  0
 14 31  1  0  0  0  0
 14 32  1  0  0  0  0
 15 16  1  0  0  0  0
 15 33  1  0  0  0  0
 15 34  1  0  0  0  0
 16 17  1  0  0  0  0
 16 35  1  0  0  0  0
 16 36  1  0  0  0  0
 17 37  1  0  0  0  0
 17 38  1  0  0  0  0
 18 19  2  0  0  0  0
M  END
> <s_m_source_file>
AV-unprocessed.smi

> <i_m_source_file_index>
2103

> <i_lp_mmshare_version>
43012

> <i_f3d_flags>
0

> <s_epik_input>
W0NIM11uMWMoPU8pW2NIXVtjSF1uKGMxPU8pW0NIMl1DKD1PKVtOSF1bQ0hdMltDSDJdW0NIMl1bQ0gyXVtDSDJdW0NIMl0y

> <s_epik_cmdline>
J2VwaWtfcHl0aG9uJywgJy1waCcsICc3LjAnLCAnLXRuJywgJzgnLCAnLW1hJywgJzIwMCcsICctbWV0YWxfYmluZGluZycsICctaW1hZScsICc8aW5maWxlLm1hZT4nLCAnLW9tYWUnLCAnPG91dGZpbGUubWFlPic=

> <r_lp_tautomer_probability>
1

> <r_epik_Ionization_Penalty>
3.18221e-08

> <r_epik_Ionization_Penalty_Charging>
1.27752e-08

> <r_epik_Ionization_Penalty_Neutral>
1.90469e-08

> <r_epik_State_Penalty>
-0

> <r_epik_Charging_Adjusted_Penalty>
1.27752e-08

> <i_epik_Tot_Q>
0

> <i_epik_Tot_abs_Q>
0

> <r_epik_Metal_State_Penalty>
-0

> <b_epik_Metal_Only>
0

> <s_lp_Force_Field>
OPLS_2005

> <r_lp_Energy>
16.4869

> <b_lp_Chiralities_Consistent>
1

> <s_lp_Variant>
AV-unprocessed.smi:2103-1

> <Gold.Version>
5.8.1

> <Gold.Id.Protein>
6NUR|6NUR_protein|mol2

> <Gold.PLP.Fitness>
41.9984

> <Gold.PLP.PLP>
-37.4530

> <Gold.PLP.part.hbond>
-1.0000

> <Gold.PLP.part.metal>
0.0000

> <Gold.PLP.part.buried>
-7.0952

> <Gold.PLP.part.nonpolar>
-30.2679

> <Gold.PLP.part.repulsive>
0.3413

> <Gold.PLP.ligand.clash>
0.0000

> <Gold.PLP.ligand.torsion>
0.6218

> <Gold.PLP.Chemscore.Hbond>
0.9280

> <Gold.PLP.Chemscore.CHOScore>
1.0000

> <Gold.PLP.Chemscore.Metal>
0.0000

> <Gold.Chemscore.Hbonds>
donor molecule, donor type, donor heavy atom, donor atom, acceptor molecule, acceptor atom, score
      P1  H  7989  7998       L1    10  0.93
      L1  C     6    24       P1  7957  1.00

> <Gold.PLP.Chemscore.Internal.Correction>
0.0050

> <Gold.Rescore>
     Score         DG    S(hbond)    S(metal)    S(lipo)     H(rot)  DE(clash)    DE(int)     intcor
     14.30     -15.11       0.92        0.00      89.62       1.54       0.22       0.58       ----

> <Gold.Chemscore.Fitness>
14.3046

> <Gold.Chemscore.DG>
-15.1061

> <Gold.Chemscore.ZeroCoef>
-5.4800

> <Gold.Chemscore.Hbond>
0.9216

> <Gold.Chemscore.Metal>
0.0000

> <Gold.Chemscore.Lipo>
89.6228

> <Gold.Chemscore.Internal_Hbond>
0.0000

> <Gold.Chemscore.DEClash>
0.2249

> <Gold.Chemscore.DEInternal>
0.5766

> <Gold.Chemscore.Rot>
1.5383

> <Gold.Chemscore.Internal.Correction>
   9.000000E+99

> <Gold.Chemscore.Hbonds>
donor molecule, donor type, donor heavy atom, donor atom, acceptor molecule, acceptor atom, score
      P1  H  7989  7998       L1    10  0.91

> <Gold.Chemscore.Hbond.Weighted>
-3.0782

> <Gold.Chemscore.Metal.Weighted>
-0.0000

> <Gold.Chemscore.Lipo.Weighted>
-10.4859

> <Gold.Chemscore.Internal_Hbond.Weighted>
0.0000

> <Gold.Chemscore.DEClash.Weighted>
0.2249

> <Gold.Chemscore.DEInternal.Weighted>
0.5766

> <Gold.Chemscore.Rot.Weighted>
3.9380

> <Gold.Chemscore.Internal.Correction.Weighted>
   9.000000E+99

> <Gold.Protein.RotatedTorsions>
[ 6907 6896 6895 6894 ] final   90.90 input  -60.11 | X-H torsion
[ 7974 7965 7964 7962 ] final  -70.53 input  175.53 | X-H torsion
[ 8008 7997 7996 7995 ] final    5.94 input   59.86 | X-H torsion
[ 10167 10162 10161 10158 ] final -168.99 input  -65.29 | X-H torsion
[ 10718 10713 10712 10709 ] final -131.15 input   66.30 | X-H torsion
[ 10763 10752 10751 10750 ] final  -44.97 input  -60.55 | X-H torsion
[ 11005 11000 10999 10996 ] final   99.63 input  -57.11 | X-H torsion

> <Gold.Protein.ActiveResidues>
 VAL166  LYS551  ARG553  GLY616  TRP617  ASP618  TYR619  PRO620  LYS621  CYS622 
 ASP623  PHE694  ASN695  SER759  ASP760  ASP761  ALA762  ILE779  LEU786  VAL792 
 PHE793  MET794  SER795  GLU796  ALA797  LYS798  CYS799  TRP800  GLU811  SER814 

> <Gold.Protein.RotatedAtoms>
  152.5447  134.1740  159.8608 H   0  0  0  0  0  0  0  0  0  0  0  0  # atno 6907 bound_to 6896
  151.1748  133.4755  159.2601 H   0  0  0  0  0  0  0  0  0  0  0  0  # atno 6908 bound_to 6896
  151.1238  135.0105  159.8606 H   0  0  0  0  0  0  0  0  0  0  0  0  # atno 6909 bound_to 6896
  145.6898  140.9157  143.0788 H   0  0  0  0  0  0  0  0  0  0  0  0  # atno 7974 bound_to 7965
  154.7346  140.2737  155.6426 H   0  0  0  0  0  0  0  0  0  0  0  0  # atno 8008 bound_to 7997
  156.2858  140.2709  156.1982 H   0  0  0  0  0  0  0  0  0  0  0  0  # atno 8009 bound_to 7997
  155.0336  140.0371  157.2473 H   0  0  0  0  0  0  0  0  0  0  0  0  # atno 8010 bound_to 7997
  139.5951  144.1130  152.1679 H   0  0  0  0  0  0  0  0  0  0  0  0  # atno 10167 bound_to 10162
  156.2215  130.6981  151.0761 H   0  0  0  0  0  0  0  0  0  0  0  0  # atno 10718 bound_to 10713
  154.0208  135.6669  153.4772 H   0  0  0  0  0  0  0  0  0  0  0  0  # atno 10763 bound_to 10752
  153.0581  135.5044  154.8025 H   0  0  0  0  0  0  0  0  0  0  0  0  # atno 10764 bound_to 10752
  154.6939  135.3066  154.9405 H   0  0  0  0  0  0  0  0  0  0  0  0  # atno 10765 bound_to 10752
  139.8770  134.9104  156.4634 H   0  0  0  0  0  0  0  0  0  0  0  0  # atno 11005 bound_to 11000
  144.7000  139.8806  143.7447 LP  0  0  0  0  0  0  0  0  0  0  0  0  # atno 17320 bound_to 7965
  146.0892  139.3881  143.0416 LP  0  0  0  0  0  0  0  0  0  0  0  0  # atno 17321 bound_to 7965
  140.0713  144.5776  150.7189 LP  0  0  0  0  0  0  0  0  0  0  0  0  # atno 17342 bound_to 10162
  140.7205  143.2584  151.4294 LP  0  0  0  0  0  0  0  0  0  0  0  0  # atno 17343 bound_to 10162
  157.7090  131.0743  150.6568 LP  0  0  0  0  0  0  0  0  0  0  0  0  # atno 17370 bound_to 10713
  156.6631  130.4518  149.5681 LP  0  0  0  0  0  0  0  0  0  0  0  0  # atno 17371 bound_to 10713
  140.8847  133.7892  155.9505 LP  0  0  0  0  0  0  0  0  0  0  0  0  # atno 17394 bound_to 11000
  140.8817  134.2603  157.5141 LP  0  0  0  0  0  0  0  0  0  0  0  0  # atno 17395 bound_to 11000

$$$$
