AV-unprocessed.smi:1952|AV-procd|sdf|7890|dock3
  -GOLD-   2272010 43D 1   1.00000     0.00000
 Structure written by MMmdl.
 39 40  0  0  0  0  0  0  0  0  3 V2000
  151.0482  141.3226  155.9902 C   0  0  0  0  0  0  0  0  0  0  0  0
  151.4761  139.9847  155.4928 C   0  0  0  0  0  0  0  0  0  0  0  0
  150.8053  138.8145  155.2766 C   0  0  0  0  0  0  0  0  0  0  0  0
  151.8217  137.9406  154.8041 C   0  0  0  0  0  0  0  0  0  0  0  0
  151.6550  136.6591  154.4425 N   0  5  0  0  0  0  0  0  0  0  0  0
  150.6267  135.9410  154.9457 C   0  0  0  0  0  0  0  0  0  0  0  0
  150.1719  136.0208  156.0888 O   0  0  0  0  0  0  0  0  0  0  0  0
  150.1171  135.0512  154.0801 N   0  0  0  0  0  0  0  0  0  0  0  0
  149.0762  134.0588  154.3551 C   0  0  1  0  0  0  0  0  0  0  0  0
  149.4940  133.2075  155.5615 C   0  0  0  0  0  0  0  0  0  0  0  0
  147.7133  134.7481  154.5937 C   0  0  0  0  0  0  0  0  0  0  0  0
  147.0192  135.0954  153.3282 N   0  3  0  0  0  0  0  0  0  0  0  0
  146.6319  133.9159  152.5190 C   0  0  0  0  0  0  0  0  0  0  0  0
  146.0295  134.3743  151.1812 C   0  0  0  0  0  0  0  0  0  0  0  0
  144.9106  135.2178  151.4294 O   0  0  0  0  0  0  0  0  0  0  0  0
  145.2752  136.3906  152.1480 C   0  0  0  0  0  0  0  0  0  0  0  0
  145.8619  135.9995  153.5153 C   0  0  0  0  0  0  0  0  0  0  0  0
  153.0025  138.5317  154.7272 N   0  0  0  0  0  0  0  0  0  0  0  0
  152.7905  139.8414  155.1737 O   0  0  0  0  0  0  0  0  0  0  0  0
  151.4074  142.1137  155.3319 H   0  0  0  0  0  0  0  0  0  0  0  0
  151.4430  141.5067  156.9893 H   0  0  0  0  0  0  0  0  0  0  0  0
  149.9612  141.3906  156.0375 H   0  0  0  0  0  0  0  0  0  0  0  0
  149.7562  138.6140  155.4339 H   0  0  0  0  0  0  0  0  0  0  0  0
  150.5200  135.0363  153.1542 H   0  0  0  0  0  0  0  0  0  0  0  0
  148.9876  133.3802  153.5056 H   0  0  0  0  0  0  0  0  0  0  0  0
  148.7498  132.4399  155.7761 H   0  0  0  0  0  0  0  0  0  0  0  0
  149.6114  133.8173  156.4581 H   0  0  0  0  0  0  0  0  0  0  0  0
  150.4427  132.7027  155.3757 H   0  0  0  0  0  0  0  0  0  0  0  0
  147.0658  134.1291  155.2164 H   0  0  0  0  0  0  0  0  0  0  0  0
  147.8942  135.6631  155.1599 H   0  0  0  0  0  0  0  0  0  0  0  0
  147.4989  133.2830  152.3312 H   0  0  0  0  0  0  0  0  0  0  0  0
  145.9089  133.3121  153.0693 H   0  0  0  0  0  0  0  0  0  0  0  0
  146.7728  134.8995  150.5788 H   0  0  0  0  0  0  0  0  0  0  0  0
  145.7009  133.5115  150.6017 H   0  0  0  0  0  0  0  0  0  0  0  0
  145.9920  136.9767  151.5705 H   0  0  0  0  0  0  0  0  0  0  0  0
  144.3900  137.0124  152.2825 H   0  0  0  0  0  0  0  0  0  0  0  0
  145.1044  135.5074  154.1270 H   0  0  0  0  0  0  0  0  0  0  0  0
  146.1751  136.8983  154.0477 H   0  0  0  0  0  0  0  0  0  0  0  0
  147.6915  135.6158  152.7809 H   0  0  0  0  0  0  0  0  0  0  0  0
  1  2  1  0  0  0  0
  1 20  1  0  0  0  0
  1 21  1  0  0  0  0
  1 22  1  0  0  0  0
  2 19  1  0  0  0  0
  2  3  2  0  0  0  0
  3  4  1  0  0  0  0
  3 23  1  0  0  0  0
  4  5  1  0  0  0  0
  4 18  2  0  0  0  0
  5  6  1  0  0  0  0
  6  7  2  0  0  0  0
  6  8  1  0  0  0  0
  8  9  1  0  0  0  0
  8 24  1  0  0  0  0
  9 10  1  0  0  0  0
  9 11  1  0  0  0  0
  9 25  1  0  0  0  0
 10 26  1  0  0  0  0
 10 27  1  0  0  0  0
 10 28  1  0  0  0  0
 11 12  1  0  0  0  0
 11 29  1  0  0  0  0
 11 30  1  0  0  0  0
 12 17  1  0  0  0  0
 12 13  1  0  0  0  0
 12 39  1  0  0  0  0
 13 14  1  0  0  0  0
 13 31  1  0  0  0  0
 13 32  1  0  0  0  0
 14 15  1  0  0  0  0
 14 33  1  0  0  0  0
 14 34  1  0  0  0  0
 15 16  1  0  0  0  0
 16 17  1  0  0  0  0
 16 35  1  0  0  0  0
 16 36  1  0  0  0  0
 17 37  1  0  0  0  0
 17 38  1  0  0  0  0
 18 19  1  0  0  0  0
M  CHG  1   5  -1
M  CHG  1  12   1
M  END
> <s_m_source_file>
AV-unprocessed.smi

> <i_m_source_file_index>
1952

> <i_lp_mmshare_version>
43012

> <i_f3d_flags>
0

> <s_epik_input>
W0NIM11jMVtjSF1jKG5vMSlbTkhdQyg9TylbTkhdW0NASF0oW0NIM10pW0NIMl1OMltDSDJdW0NIMl1PW0NIMl1bQ0gyXTI=

> <s_epik_cmdline>
J2VwaWtfcHl0aG9uJywgJy1waCcsICc3LjAnLCAnLXRuJywgJzgnLCAnLW1hJywgJzIwMCcsICctbWV0YWxfYmluZGluZycsICctaW1hZScsICc8aW5maWxlLm1hZT4nLCAnLW9tYWUnLCAnPG91dGZpbGUubWFlPic=

> <r_epik_Ionization_Penalty>
6.62152

> <r_epik_Ionization_Penalty_Charging>
6.62142

> <r_epik_Ionization_Penalty_Neutral>
9.8734e-05

> <r_epik_State_Penalty>
6.82189

> <r_epik_Charging_Adjusted_Penalty>
13.4433

> <i_epik_Tot_Q>
0

> <i_epik_Tot_abs_Q>
2

> <r_epik_Metal_State_Penalty>
2.76365

> <b_epik_Metal_Only>
1

> <s_lp_Force_Field>
OPLS_2005

> <r_lp_Energy>
7.85101

> <b_lp_Chiralities_Consistent>
1

> <s_lp_Variant>
AV-unprocessed.smi:1952-8

> <Gold.Version>
5.8.1

> <Gold.Id.Protein>
6NUR|6NUR_protein|mol2

> <Gold.PLP.Fitness>
42.1586

> <Gold.PLP.PLP>
-28.4604

> <Gold.PLP.part.hbond>
-6.0000

> <Gold.PLP.part.metal>
0.0000

> <Gold.PLP.part.buried>
-2.0314

> <Gold.PLP.part.nonpolar>
-20.8689

> <Gold.PLP.part.repulsive>
0.6779

> <Gold.PLP.ligand.clash>
0.0000

> <Gold.PLP.ligand.torsion>
0.7033

> <Gold.PLP.Chemscore.Hbond>
5.0000

> <Gold.PLP.Chemscore.CHOScore>
0.0000

> <Gold.PLP.Chemscore.Metal>
0.0000

> <Gold.Chemscore.Hbonds>
donor molecule, donor type, donor heavy atom, donor atom, acceptor molecule, acceptor atom, score
      L1  H    12    39       P1  7948  2.00
      P1  H  7997  8010       L1    19  1.00
      P1  H 10752 10765       L1     5  2.00

> <Gold.PLP.Chemscore.Internal.Correction>
0.1048

> <Gold.Rescore>
     Score         DG    S(hbond)    S(metal)    S(lipo)     H(rot)  DE(clash)    DE(int)     intcor
     13.61     -15.75       2.62        0.00      47.42       1.58       0.01       2.13       ----

> <Gold.Chemscore.Fitness>
13.6121

> <Gold.Chemscore.DG>
-15.7456

> <Gold.Chemscore.ZeroCoef>
-5.4800

> <Gold.Chemscore.Hbond>
2.6231

> <Gold.Chemscore.Metal>
0.0000

> <Gold.Chemscore.Lipo>
47.4230

> <Gold.Chemscore.Internal_Hbond>
0.0000

> <Gold.Chemscore.DEClash>
0.0060

> <Gold.Chemscore.DEInternal>
2.1275

> <Gold.Chemscore.Rot>
1.5798

> <Gold.Chemscore.Internal.Correction>
   9.000000E+99

> <Gold.Chemscore.Hbonds>
donor molecule, donor type, donor heavy atom, donor atom, acceptor molecule, acceptor atom, score
      L1  H    12    39       P1  7948  1.00
      P1  H  7997  8010       L1    19  0.26
      P1  H 10752 10765       L1     5  0.49

> <Gold.Chemscore.Hbond.Weighted>
-8.7613

> <Gold.Chemscore.Metal.Weighted>
-0.0000

> <Gold.Chemscore.Lipo.Weighted>
-5.5485

> <Gold.Chemscore.Internal_Hbond.Weighted>
0.0000

> <Gold.Chemscore.DEClash.Weighted>
0.0060

> <Gold.Chemscore.DEInternal.Weighted>
2.1275

> <Gold.Chemscore.Rot.Weighted>
4.0442

> <Gold.Chemscore.Internal.Correction.Weighted>
   9.000000E+99

> <Gold.Protein.RotatedTorsions>
[ 6907 6896 6895 6894 ] final  175.02 input  -60.11 | X-H torsion
[ 7974 7965 7964 7962 ] final   20.24 input  175.53 | X-H torsion
[ 8008 7997 7996 7995 ] final   99.09 input   59.86 | X-H torsion
[ 10167 10162 10161 10158 ] final   70.68 input  -65.29 | X-H torsion
[ 10718 10713 10712 10709 ] final  -49.24 input   66.30 | X-H torsion
[ 10763 10752 10751 10750 ] final  173.67 input  -60.55 | X-H torsion
[ 11005 11000 10999 10996 ] final -123.55 input  -57.11 | X-H torsion

> <Gold.Protein.ActiveResidues>
 VAL166  LYS551  ARG553  GLY616  TRP617  ASP618  TYR619  PRO620  LYS621  CYS622 
 ASP623  PHE694  ASN695  SER759  ASP760  ASP761  ALA762  ILE779  LEU786  VAL792 
 PHE793  MET794  SER795  GLU796  ALA797  LYS798  CYS799  TRP800  GLU811  SER814 

> <Gold.Protein.RotatedAtoms>
  151.7429  133.3323  159.3370 H   0  0  0  0  0  0  0  0  0  0  0  0  # atno 6907 bound_to 6896
  150.7566  134.6262  159.6171 H   0  0  0  0  0  0  0  0  0  0  0  0  # atno 6908 bound_to 6896
  152.3519  134.6996  160.0285 H   0  0  0  0  0  0  0  0  0  0  0  0  # atno 6909 bound_to 6896
  146.2119  139.8198  142.8682 H   0  0  0  0  0  0  0  0  0  0  0  0  # atno 7974 bound_to 7965
  156.1070  140.3234  155.8020 H   0  0  0  0  0  0  0  0  0  0  0  0  # atno 8008 bound_to 7997
  155.4738  140.0548  157.2993 H   0  0  0  0  0  0  0  0  0  0  0  0  # atno 8009 bound_to 7997
  154.4734  140.2022  155.9951 H   0  0  0  0  0  0  0  0  0  0  0  0  # atno 8010 bound_to 7997
  140.0543  144.5286  150.7340 H   0  0  0  0  0  0  0  0  0  0  0  0  # atno 10167 bound_to 10162
  156.1912  130.4153  149.9369 H   0  0  0  0  0  0  0  0  0  0  0  0  # atno 10718 bound_to 10713
  154.4433  135.2762  155.1832 H   0  0  0  0  0  0  0  0  0  0  0  0  # atno 10763 bound_to 10752
  154.3689  135.6113  153.5733 H   0  0  0  0  0  0  0  0  0  0  0  0  # atno 10764 bound_to 10752
  152.9842  135.5852  154.4765 H   0  0  0  0  0  0  0  0  0  0  0  0  # atno 10765 bound_to 10752
  140.9910  134.0539  157.3654 H   0  0  0  0  0  0  0  0  0  0  0  0  # atno 11005 bound_to 11000
  145.3108  141.0219  143.3556 LP  0  0  0  0  0  0  0  0  0  0  0  0  # atno 17320 bound_to 7965
  144.8937  139.4740  143.6665 LP  0  0  0  0  0  0  0  0  0  0  0  0  # atno 17321 bound_to 7965
  140.7202  143.2581  151.4303 LP  0  0  0  0  0  0  0  0  0  0  0  0  # atno 17342 bound_to 10162
  139.5933  144.1451  152.2115 LP  0  0  0  0  0  0  0  0  0  0  0  0  # atno 17343 bound_to 10162
  156.7108  130.8969  151.3609 LP  0  0  0  0  0  0  0  0  0  0  0  0  # atno 17370 bound_to 10713
  157.6930  130.9253  150.0566 LP  0  0  0  0  0  0  0  0  0  0  0  0  # atno 17371 bound_to 10713
  139.8992  135.0158  156.7185 LP  0  0  0  0  0  0  0  0  0  0  0  0  # atno 17394 bound_to 11000
  140.7040  133.9281  155.8042 LP  0  0  0  0  0  0  0  0  0  0  0  0  # atno 17395 bound_to 11000

$$$$
