AV-unprocessed.smi:79|AV-procd|sdf|778|dock2
  -GOLD-   2262017133D 1   1.00000     0.00000
 Structure written by MMmdl.
 56 59  0  0  0  0  0  0  0  0  2 V2000
  152.0945  144.9398  158.7564 C   0  0  0  0  0  0  0  0  0  0  0  0
  152.0028  143.4175  158.9217 C   0  0  1  0  0  0  0  0  0  0  0  0
  151.4636  143.1439  160.1992 O   0  0  0  0  0  0  0  0  0  0  0  0
  151.1081  142.7696  157.8471 C   0  0  0  0  0  0  0  0  0  0  0  0
  151.4711  141.3532  157.5881 N   0  3  2  0  0  0  0  0  0  0  0  0
  150.8024  140.7807  156.3897 C   0  0  0  0  0  0  0  0  0  0  0  0
  151.2943  139.3501  156.1124 C   0  0  0  0  0  0  0  0  0  0  0  0
  151.1423  138.5138  157.3008 N   0  0  0  0  0  0  0  0  0  0  0  0
  149.9672  137.8368  157.3823 C   0  0  0  0  0  0  0  0  0  0  0  0
  149.1403  137.7729  156.3049 N   0  0  0  0  0  0  0  0  0  0  0  0
  147.9918  137.0942  156.3749 C   0  0  0  0  0  0  0  0  0  0  0  0
  147.4833  136.4208  157.4080 N   0  0  0  0  0  0  0  0  0  0  0  0
  148.3015  136.4891  158.4968 C   0  0  0  0  0  0  0  0  0  0  0  0
  149.5516  137.1659  158.5668 C   0  0  0  0  0  0  0  0  0  0  0  0
  150.1004  137.0158  159.8342 N   0  0  0  0  0  0  0  0  0  0  0  0
  149.2279  136.2870  160.4748 C   0  0  0  0  0  0  0  0  0  0  0  0
  148.1079  135.9389  159.7533 N   0  0  0  0  0  0  0  0  0  0  0  0
  146.9836  135.1395  160.2195 C   0  0  0  0  0  0  0  0  0  0  0  0
  146.5073  135.4825  161.6481 C   0  0  0  0  0  0  0  0  0  0  0  0
  145.7788  136.8368  161.6655 C   0  0  0  0  0  0  0  0  0  0  0  0
  146.4198  137.7734  160.8240 O   0  0  0  0  0  0  0  0  0  0  0  0
  145.7899  134.3402  162.3804 C   0  0  0  0  0  0  0  0  0  0  0  0
  146.9148  134.0985  163.2511 O   0  0  0  0  0  0  0  0  0  0  0  0
  147.5519  135.2960  162.7589 C   0  0  0  0  0  0  0  0  0  0  0  0
  151.7512  139.0402  158.5271 C   0  0  1  0  0  0  0  0  0  0  0  0
  153.2849  138.9258  158.4828 C   0  0  0  0  0  0  0  0  0  0  0  0
  151.2928  140.4935  158.7878 C   0  0  0  0  0  0  0  0  0  0  0  0
  152.5257  145.2025  157.7900 H   0  0  0  0  0  0  0  0  0  0  0  0
  152.7265  145.3819  159.5276 H   0  0  0  0  0  0  0  0  0  0  0  0
  151.1123  145.4095  158.8202 H   0  0  0  0  0  0  0  0  0  0  0  0
  153.0115  143.0078  158.8826 H   0  0  0  0  0  0  0  0  0  0  0  0
  151.0652  143.9319  160.5366 H   0  0  0  0  0  0  0  0  0  0  0  0
  150.0700  142.8321  158.1781 H   0  0  0  0  0  0  0  0  0  0  0  0
  151.1609  143.3304  156.9125 H   0  0  0  0  0  0  0  0  0  0  0  0
  149.7223  140.7774  156.5455 H   0  0  0  0  0  0  0  0  0  0  0  0
  150.9918  141.3966  155.5119 H   0  0  0  0  0  0  0  0  0  0  0  0
  150.7533  138.9410  155.2592 H   0  0  0  0  0  0  0  0  0  0  0  0
  152.3451  139.3648  155.8229 H   0  0  0  0  0  0  0  0  0  0  0  0
  147.3940  137.0901  155.4752 H   0  0  0  0  0  0  0  0  0  0  0  0
  149.3829  135.9820  161.4994 H   0  0  0  0  0  0  0  0  0  0  0  0
  146.1670  135.2441  159.5044 H   0  0  0  0  0  0  0  0  0  0  0  0
  147.2820  134.0915  160.1642 H   0  0  0  0  0  0  0  0  0  0  0  0
  144.7525  136.7262  161.3142 H   0  0  0  0  0  0  0  0  0  0  0  0
  145.7083  137.2458  162.6732 H   0  0  0  0  0  0  0  0  0  0  0  0
  146.9006  137.3021  160.1608 H   0  0  0  0  0  0  0  0  0  0  0  0
  144.9063  134.6551  162.9376 H   0  0  0  0  0  0  0  0  0  0  0  0
  145.5623  133.4822  161.7469 H   0  0  0  0  0  0  0  0  0  0  0  0
  148.5636  135.1037  162.4046 H   0  0  0  0  0  0  0  0  0  0  0  0
  147.5516  136.0906  163.5066 H   0  0  0  0  0  0  0  0  0  0  0  0
  151.4314  138.4279  159.3715 H   0  0  0  0  0  0  0  0  0  0  0  0
  153.7264  139.2417  159.4283 H   0  0  0  0  0  0  0  0  0  0  0  0
  153.7209  139.5415  157.6958 H   0  0  0  0  0  0  0  0  0  0  0  0
  153.5937  137.8949  158.3072 H   0  0  0  0  0  0  0  0  0  0  0  0
  151.8482  140.9075  159.6305 H   0  0  0  0  0  0  0  0  0  0  0  0
  150.2405  140.5087  159.0746 H   0  0  0  0  0  0  0  0  0  0  0  0
  152.4626  141.3511  157.3947 H   0  0  0  0  0  0  0  0  0  0  0  0
  1  2  1  0  0  0  0
  1 28  1  0  0  0  0
  1 29  1  0  0  0  0
  1 30  1  0  0  0  0
  2  3  1  0  0  0  0
  2  4  1  0  0  0  0
  2 31  1  0  0  0  0
  3 32  1  0  0  0  0
  4  5  1  0  0  0  0
  4 33  1  0  0  0  0
  4 34  1  0  0  0  0
  5 27  1  0  0  0  0
  5  6  1  0  0  0  0
  5 56  1  0  0  0  0
  6  7  1  0  0  0  0
  6 35  1  0  0  0  0
  6 36  1  0  0  0  0
  7  8  1  0  0  0  0
  7 37  1  0  0  0  0
  7 38  1  0  0  0  0
  8  9  1  0  0  0  0
  8 25  1  0  0  0  0
  9 14  1  0  0  0  0
  9 10  2  0  0  0  0
 10 11  1  0  0  0  0
 11 12  2  0  0  0  0
 11 39  1  0  0  0  0
 12 13  1  0  0  0  0
 13 17  1  0  0  0  0
 13 14  2  0  0  0  0
 14 15  1  0  0  0  0
 15 16  2  0  0  0  0
 16 17  1  0  0  0  0
 16 40  1  0  0  0  0
 17 18  1  0  0  0  0
 18 19  1  0  0  0  0
 18 41  1  0  0  0  0
 18 42  1  0  0  0  0
 19 24  1  0  0  0  0
 19 20  1  0  0  0  0
 19 22  1  0  0  0  0
 20 21  1  0  0  0  0
 20 43  1  0  0  0  0
 20 44  1  0  0  0  0
 21 45  1  0  0  0  0
 22 23  1  0  0  0  0
 22 46  1  0  0  0  0
 22 47  1  0  0  0  0
 23 24  1  0  0  0  0
 24 48  1  0  0  0  0
 24 49  1  0  0  0  0
 25 26  1  0  0  0  0
 25 27  1  0  0  0  0
 25 50  1  0  0  0  0
 26 51  1  0  0  0  0
 26 52  1  0  0  0  0
 26 53  1  0  0  0  0
 27 54  1  0  0  0  0
 27 55  1  0  0  0  0
M  CHG  1   5   1
M  END
> <s_m_source_file>
AV-unprocessed.smi

> <i_m_source_file_index>
79

> <i_lp_mmshare_version>
43012

> <i_f3d_flags>
0

> <s_epik_input>
W0NIM11bQ0BIXShbT0hdKVtDSDJdTjFbQ0gyXVtDSDJdTihbQ0BASF0oW0NIM10pW0NIMl0xKWMobltjSF1uMiljKGMyMyluW2NIXW4zW0NIMl1DNChbQ0gyXVtPSF0pW0NIMl1PW0NIMl00

> <s_epik_cmdline>
J2VwaWtfcHl0aG9uJywgJy1waCcsICc3LjAnLCAnLXRuJywgJzgnLCAnLW1hJywgJzIwMCcsICctbWV0YWxfYmluZGluZycsICctaW1hZScsICc8aW5maWxlLm1hZT4nLCAnLW9tYWUnLCAnPG91dGZpbGUubWFlPic=

> <r_lp_tautomer_probability>
1

> <r_epik_Ionization_Penalty>
0.00515943

> <r_epik_Ionization_Penalty_Charging>
0.00509693

> <r_epik_Ionization_Penalty_Neutral>
6.25007e-05

> <r_epik_State_Penalty>
-0

> <r_epik_Charging_Adjusted_Penalty>
0.00509693

> <i_epik_Tot_Q>
1

> <i_epik_Tot_abs_Q>
1

> <r_epik_Metal_State_Penalty>
-0

> <b_epik_Metal_Only>
0

> <s_lp_Force_Field>
OPLS_2005

> <r_lp_Energy>
48.7837

> <b_lp_Chiralities_Consistent>
1

> <s_lp_Variant>
AV-unprocessed.smi:79-2

> <Gold.Version>
5.8.1

> <Gold.Id.Protein>
6NUR|6NUR_protein|mol2

> <Gold.PLP.Fitness>
40.8252

> <Gold.PLP.PLP>
-39.8020

> <Gold.PLP.part.hbond>
-3.2774

> <Gold.PLP.part.metal>
0.0000

> <Gold.PLP.part.buried>
-7.3570

> <Gold.PLP.part.nonpolar>
-30.3504

> <Gold.PLP.part.repulsive>
0.0905

> <Gold.PLP.ligand.clash>
0.0000

> <Gold.PLP.ligand.torsion>
1.5501

> <Gold.PLP.Chemscore.Hbond>
1.0400

> <Gold.PLP.Chemscore.CHOScore>
0.0000

> <Gold.PLP.Chemscore.Metal>
0.0000

> <Gold.Chemscore.Hbonds>
donor molecule, donor type, donor heavy atom, donor atom, acceptor molecule, acceptor atom, score
      P1  H  6934  6947       L1    21  0.81

> <Gold.PLP.Chemscore.Internal.Correction>
1.0034

> <Gold.Rescore>
     Score         DG    S(hbond)    S(metal)    S(lipo)     H(rot)  DE(clash)    DE(int)     intcor
      5.58     -10.03       0.98        0.00      92.52       3.72       0.00       4.45       ----

> <Gold.Chemscore.Fitness>
5.5760

> <Gold.Chemscore.DG>
-10.0331

> <Gold.Chemscore.ZeroCoef>
-5.4800

> <Gold.Chemscore.Hbond>
0.9755

> <Gold.Chemscore.Metal>
0.0000

> <Gold.Chemscore.Lipo>
92.5204

> <Gold.Chemscore.Internal_Hbond>
0.0000

> <Gold.Chemscore.DEClash>
0.0030

> <Gold.Chemscore.DEInternal>
4.4541

> <Gold.Chemscore.Rot>
3.7226

> <Gold.Chemscore.Internal.Correction>
   9.000000E+99

> <Gold.Chemscore.Hbonds>
donor molecule, donor type, donor heavy atom, donor atom, acceptor molecule, acceptor atom, score
      P1  H  6934  6947       L1    21  0.32

> <Gold.Chemscore.Hbond.Weighted>
-3.2580

> <Gold.Chemscore.Metal.Weighted>
-0.0000

> <Gold.Chemscore.Lipo.Weighted>
-10.8249

> <Gold.Chemscore.Internal_Hbond.Weighted>
0.0000

> <Gold.Chemscore.DEClash.Weighted>
0.0030

> <Gold.Chemscore.DEInternal.Weighted>
4.4541

> <Gold.Chemscore.Rot.Weighted>
9.5298

> <Gold.Chemscore.Internal.Correction.Weighted>
   9.000000E+99

> <Gold.Protein.RotatedTorsions>
[ 6907 6896 6895 6894 ] final   96.32 input  -60.11 | X-H torsion
[ 7974 7965 7964 7962 ] final -179.82 input  175.53 | X-H torsion
[ 8008 7997 7996 7995 ] final  114.31 input   59.86 | X-H torsion
[ 10167 10162 10161 10158 ] final   34.16 input  -65.29 | X-H torsion
[ 10718 10713 10712 10709 ] final  149.26 input   66.30 | X-H torsion
[ 10763 10752 10751 10750 ] final   37.17 input  -60.55 | X-H torsion
[ 11005 11000 10999 10996 ] final  -87.51 input  -57.11 | X-H torsion

> <Gold.Protein.ActiveResidues>
 VAL166  LYS551  ARG553  GLY616  TRP617  ASP618  TYR619  PRO620  LYS621  CYS622 
 ASP623  PHE694  ASN695  SER759  ASP760  ASP761  ALA762  ILE779  LEU786  VAL792 
 PHE793  MET794  SER795  GLU796  ALA797  LYS798  CYS799  TRP800  GLU811  SER814 

> <Gold.Protein.RotatedAtoms>
  152.5436  134.0904  159.8274 H   0  0  0  0  0  0  0  0  0  0  0  0  # atno 6907 bound_to 6896
  151.0995  133.5247  159.2618 H   0  0  0  0  0  0  0  0  0  0  0  0  # atno 6908 bound_to 6896
  151.2008  135.0450  159.8925 H   0  0  0  0  0  0  0  0  0  0  0  0  # atno 6909 bound_to 6896
  144.7139  140.0660  143.6431 H   0  0  0  0  0  0  0  0  0  0  0  0  # atno 7974 bound_to 7965
  156.2313  140.2962  156.0196 H   0  0  0  0  0  0  0  0  0  0  0  0  # atno 8008 bound_to 7997
  155.2217  140.0416  157.2966 H   0  0  0  0  0  0  0  0  0  0  0  0  # atno 8009 bound_to 7997
  154.6001  140.2424  155.7812 H   0  0  0  0  0  0  0  0  0  0  0  0  # atno 8010 bound_to 7997
  140.4341  144.1282  150.6163 H   0  0  0  0  0  0  0  0  0  0  0  0  # atno 10167 bound_to 10162
  157.2984  131.0866  151.1409 H   0  0  0  0  0  0  0  0  0  0  0  0  # atno 10718 bound_to 10713
  153.0048  135.6285  154.2102 H   0  0  0  0  0  0  0  0  0  0  0  0  # atno 10763 bound_to 10752
  154.1845  135.2811  155.3043 H   0  0  0  0  0  0  0  0  0  0  0  0  # atno 10764 bound_to 10752
  154.5808  135.5648  153.7243 H   0  0  0  0  0  0  0  0  0  0  0  0  # atno 10765 bound_to 10752
  141.1616  133.7515  156.9317 H   0  0  0  0  0  0  0  0  0  0  0  0  # atno 11005 bound_to 11000
  145.9824  139.2951  143.1034 LP  0  0  0  0  0  0  0  0  0  0  0  0  # atno 17320 bound_to 7965
  145.8996  140.9252  143.0510 LP  0  0  0  0  0  0  0  0  0  0  0  0  # atno 17321 bound_to 7965
  140.4394  143.2533  151.9493 LP  0  0  0  0  0  0  0  0  0  0  0  0  # atno 17342 bound_to 10162
  139.4786  144.5669  151.8151 LP  0  0  0  0  0  0  0  0  0  0  0  0  # atno 17343 bound_to 10162
  157.2778  130.6735  149.6051 LP  0  0  0  0  0  0  0  0  0  0  0  0  # atno 17370 bound_to 10713
  155.9670  130.4459  150.5520 LP  0  0  0  0  0  0  0  0  0  0  0  0  # atno 17371 bound_to 10713
  140.1382  134.9311  157.2430 LP  0  0  0  0  0  0  0  0  0  0  0  0  # atno 17394 bound_to 11000
  140.2869  134.3285  155.7326 LP  0  0  0  0  0  0  0  0  0  0  0  0  # atno 17395 bound_to 11000

$$$$
