AV-unprocessed.smi:2593|AV-procd|sdf|10163|dock7
  -GOLD-   2272014173D 1   1.00000     0.00000
 Structure written by MMmdl.
 40 42  0  0  0  0  0  0  0  0  1 V2000
  147.7901  141.3686  153.8875 C   0  0  0  0  0  0  0  0  0  0  0  0
  149.2052  141.4259  153.8992 O   0  0  0  0  0  0  0  0  0  0  0  0
  149.7697  140.7124  154.9875 C   0  0  0  0  0  0  0  0  0  0  0  0
  149.2724  141.3118  156.3101 C   0  0  0  0  0  0  0  0  0  0  0  0
  150.2211  141.1058  157.3943 N   0  0  0  0  0  0  0  0  0  0  0  0
  150.4670  139.9617  158.0769 C   0  0  0  0  0  0  0  0  0  0  0  0
  149.6238  138.4592  157.7187 S   0  0  0  0  0  0  0  0  0  0  0  0
  150.3172  137.4756  159.0742 C   0  0  0  0  0  0  0  0  0  0  0  0
  149.2288  136.6227  159.6930 C   0  0  0  0  0  0  0  0  0  0  0  0
  148.5757  135.6296  158.9324 C   0  0  0  0  0  0  0  0  0  0  0  0
  147.5667  134.8673  159.5516 C   0  0  0  0  0  0  0  0  0  0  0  0
  147.2505  135.1269  160.8992 C   0  0  0  0  0  0  0  0  0  0  0  0
  147.9600  136.1426  161.5721 C   0  0  0  0  0  0  0  0  0  0  0  0
  147.6733  136.4292  162.9043 N   0  0  0  0  0  0  0  0  0  0  0  0
  148.9297  136.8779  160.9869 N   0  0  0  0  0  0  0  0  0  0  0  0
  151.3892  140.0449  159.0355 N   0  0  0  0  0  0  0  0  0  0  0  0
  151.7863  141.3658  158.9612 C   0  0  0  0  0  0  0  0  0  0  0  0
  152.7458  142.0802  159.7140 C   0  0  0  0  0  0  0  0  0  0  0  0
  152.9866  143.4448  159.4520 C   0  0  0  0  0  0  0  0  0  0  0  0
  152.2745  144.1128  158.4350 C   0  0  0  0  0  0  0  0  0  0  0  0
  151.3131  143.4202  157.6741 C   0  0  0  0  0  0  0  0  0  0  0  0
  151.0750  142.0585  157.9409 C   0  0  0  0  0  0  0  0  0  0  0  0
  147.4079  141.9328  153.0368 H   0  0  0  0  0  0  0  0  0  0  0  0
  147.3705  141.8029  154.7957 H   0  0  0  0  0  0  0  0  0  0  0  0
  147.4383  140.3404  153.7948 H   0  0  0  0  0  0  0  0  0  0  0  0
  149.4885  139.6600  154.9302 H   0  0  0  0  0  0  0  0  0  0  0  0
  150.8587  140.7609  154.9414 H   0  0  0  0  0  0  0  0  0  0  0  0
  149.1036  142.3825  156.1929 H   0  0  0  0  0  0  0  0  0  0  0  0
  148.3105  140.8806  156.5884 H   0  0  0  0  0  0  0  0  0  0  0  0
  151.1168  136.8389  158.6943 H   0  0  0  0  0  0  0  0  0  0  0  0
  150.7546  138.1395  159.8212 H   0  0  0  0  0  0  0  0  0  0  0  0
  148.8399  135.4577  157.8993 H   0  0  0  0  0  0  0  0  0  0  0  0
  147.0435  134.0986  159.0025 H   0  0  0  0  0  0  0  0  0  0  0  0
  146.4810  134.5580  161.4002 H   0  0  0  0  0  0  0  0  0  0  0  0
  146.9615  135.9242  163.4121 H   0  0  0  0  0  0  0  0  0  0  0  0
  148.1510  137.1700  163.3969 H   0  0  0  0  0  0  0  0  0  0  0  0
  153.2981  141.5770  160.4938 H   0  0  0  0  0  0  0  0  0  0  0  0
  153.7223  143.9813  160.0332 H   0  0  0  0  0  0  0  0  0  0  0  0
  152.4668  145.1575  158.2388 H   0  0  0  0  0  0  0  0  0  0  0  0
  150.7681  143.9283  156.8927 H   0  0  0  0  0  0  0  0  0  0  0  0
  1  2  1  0  0  0  0
  1 23  1  0  0  0  0
  1 24  1  0  0  0  0
  1 25  1  0  0  0  0
  2  3  1  0  0  0  0
  3  4  1  0  0  0  0
  3 26  1  0  0  0  0
  3 27  1  0  0  0  0
  4  5  1  0  0  0  0
  4 28  1  0  0  0  0
  4 29  1  0  0  0  0
  5 22  1  0  0  0  0
  5  6  1  0  0  0  0
  6  7  1  0  0  0  0
  6 16  2  0  0  0  0
  7  8  1  0  0  0  0
  8  9  1  0  0  0  0
  8 30  1  0  0  0  0
  8 31  1  0  0  0  0
  9 15  1  0  0  0  0
  9 10  2  0  0  0  0
 10 11  1  0  0  0  0
 10 32  1  0  0  0  0
 11 12  2  0  0  0  0
 11 33  1  0  0  0  0
 12 13  1  0  0  0  0
 12 34  1  0  0  0  0
 13 14  1  0  0  0  0
 13 15  2  0  0  0  0
 14 35  1  0  0  0  0
 14 36  1  0  0  0  0
 16 17  1  0  0  0  0
 17 22  2  0  0  0  0
 17 18  1  0  0  0  0
 18 19  2  0  0  0  0
 18 37  1  0  0  0  0
 19 20  1  0  0  0  0
 19 38  1  0  0  0  0
 20 21  2  0  0  0  0
 20 39  1  0  0  0  0
 21 22  1  0  0  0  0
 21 40  1  0  0  0  0
M  END
> <s_m_source_file>
AV-unprocessed.smi

> <i_m_source_file_index>
2593

> <i_lp_mmshare_version>
43012

> <i_f3d_flags>
0

> <s_epik_input>
W2NIXTFbY0hdW2NIXVtjSF1jKGMxMiluKFtDSDJdW0NIMl1PW0NIM10pYyhuMilTW0NIMl1jM1tjSF1bY0hdW2NIXWMobjMpW05IMl0=

> <s_epik_cmdline>
J2VwaWtfcHl0aG9uJywgJy1waCcsICc3LjAnLCAnLXRuJywgJzgnLCAnLW1hJywgJzIwMCcsICctbWV0YWxfYmluZGluZycsICctaW1hZScsICc8aW5maWxlLm1hZT4nLCAnLW9tYWUnLCAnPG91dGZpbGUubWFlPic=

> <r_lp_tautomer_probability>
1

> <r_epik_Ionization_Penalty>
0.0555631

> <r_epik_Ionization_Penalty_Charging>
0

> <r_epik_Ionization_Penalty_Neutral>
0.0555631

> <r_epik_State_Penalty>
0.0451694

> <r_epik_Charging_Adjusted_Penalty>
0.0451694

> <i_epik_Tot_Q>
0

> <i_epik_Tot_abs_Q>
0

> <r_epik_Metal_State_Penalty>
0.0431775

> <b_epik_Metal_Only>
0

> <s_lp_Force_Field>
OPLS_2005

> <r_lp_Energy>
6.83129

> <b_lp_Chiralities_Consistent>
1

> <s_lp_Variant>
AV-unprocessed.smi:2593-1

> <Gold.Version>
5.8.1

> <Gold.Id.Protein>
6NUR|6NUR_protein|mol2

> <Gold.PLP.Fitness>
48.3705

> <Gold.PLP.PLP>
-44.7029

> <Gold.PLP.part.hbond>
-3.0000

> <Gold.PLP.part.metal>
0.0000

> <Gold.PLP.part.buried>
-6.9098

> <Gold.PLP.part.nonpolar>
-36.8558

> <Gold.PLP.part.repulsive>
0.4056

> <Gold.PLP.ligand.clash>
0.0000

> <Gold.PLP.ligand.torsion>
0.6902

> <Gold.PLP.Chemscore.Hbond>
1.6640

> <Gold.PLP.Chemscore.CHOScore>
0.0000

> <Gold.PLP.Chemscore.Metal>
0.0000

> <Gold.Chemscore.Hbonds>
donor molecule, donor type, donor heavy atom, donor atom, acceptor molecule, acceptor atom, score
      P1  H  6931  6943       L1    15  0.96
      P1  H  8011  8017       L1     2  0.75

> <Gold.PLP.Chemscore.Internal.Correction>
0.0559

> <Gold.Rescore>
     Score         DG    S(hbond)    S(metal)    S(lipo)     H(rot)  DE(clash)    DE(int)     intcor
     17.07     -17.74       1.59        0.00     105.89       2.13       0.01       0.66       ----

> <Gold.Chemscore.Fitness>
17.0724

> <Gold.Chemscore.DG>
-17.7405

> <Gold.Chemscore.ZeroCoef>
-5.4800

> <Gold.Chemscore.Hbond>
1.5910

> <Gold.Chemscore.Metal>
0.0000

> <Gold.Chemscore.Lipo>
105.8892

> <Gold.Chemscore.Internal_Hbond>
0.0000

> <Gold.Chemscore.DEClash>
0.0060

> <Gold.Chemscore.DEInternal>
0.6621

> <Gold.Chemscore.Rot>
2.1260

> <Gold.Chemscore.Internal.Correction>
   9.000000E+99

> <Gold.Chemscore.Hbonds>
donor molecule, donor type, donor heavy atom, donor atom, acceptor molecule, acceptor atom, score
      P1  H  6931  6943       L1    15  0.51
      P1  H  8011  8017       L1     2  0.53

> <Gold.Chemscore.Hbond.Weighted>
-5.3140

> <Gold.Chemscore.Metal.Weighted>
-0.0000

> <Gold.Chemscore.Lipo.Weighted>
-12.3890

> <Gold.Chemscore.Internal_Hbond.Weighted>
0.0000

> <Gold.Chemscore.DEClash.Weighted>
0.0060

> <Gold.Chemscore.DEInternal.Weighted>
0.6621

> <Gold.Chemscore.Rot.Weighted>
5.4425

> <Gold.Chemscore.Internal.Correction.Weighted>
   9.000000E+99

> <Gold.Protein.RotatedTorsions>
[ 6907 6896 6895 6894 ] final  130.53 input  -60.11 | X-H torsion
[ 7974 7965 7964 7962 ] final  -83.00 input  175.53 | X-H torsion
[ 8008 7997 7996 7995 ] final -179.73 input   59.86 | X-H torsion
[ 10167 10162 10161 10158 ] final  176.84 input  -65.29 | X-H torsion
[ 10718 10713 10712 10709 ] final  113.08 input   66.30 | X-H torsion
[ 10763 10752 10751 10750 ] final -121.42 input  -60.55 | X-H torsion
[ 11005 11000 10999 10996 ] final  -25.55 input  -57.11 | X-H torsion

> <Gold.Protein.ActiveResidues>
 VAL166  LYS551  ARG553  GLY616  TRP617  ASP618  TYR619  PRO620  LYS621  CYS622 
 ASP623  PHE694  ASN695  SER759  ASP760  ASP761  ALA762  ILE779  LEU786  VAL792 
 PHE793  MET794  SER795  GLU796  ALA797  LYS798  CYS799  TRP800  GLU811  SER814 

> <Gold.Protein.RotatedAtoms>
  152.3516  133.6187  159.5949 H   0  0  0  0  0  0  0  0  0  0  0  0  # atno 6907 bound_to 6896
  150.7542  133.9564  159.3511 H   0  0  0  0  0  0  0  0  0  0  0  0  # atno 6908 bound_to 6896
  151.7415  135.0854  160.0367 H   0  0  0  0  0  0  0  0  0  0  0  0  # atno 6909 bound_to 6896
  145.5258  140.9526  143.1630 H   0  0  0  0  0  0  0  0  0  0  0  0  # atno 7974 bound_to 7965
  156.0338  140.1288  157.0229 H   0  0  0  0  0  0  0  0  0  0  0  0  # atno 8008 bound_to 7997
  154.4361  140.1044  156.6208 H   0  0  0  0  0  0  0  0  0  0  0  0  # atno 8009 bound_to 7997
  155.5768  140.3467  155.4532 H   0  0  0  0  0  0  0  0  0  0  0  0  # atno 8010 bound_to 7997
  139.5230  144.2868  152.0498 H   0  0  0  0  0  0  0  0  0  0  0  0  # atno 10167 bound_to 10162
  157.6358  131.0978  150.6988 H   0  0  0  0  0  0  0  0  0  0  0  0  # atno 10718 bound_to 10713
  154.8668  135.4168  154.2617 H   0  0  0  0  0  0  0  0  0  0  0  0  # atno 10763 bound_to 10752
  153.3544  135.7000  153.6768 H   0  0  0  0  0  0  0  0  0  0  0  0  # atno 10764 bound_to 10752
  153.5694  135.3594  155.2804 H   0  0  0  0  0  0  0  0  0  0  0  0  # atno 10765 bound_to 10752
  140.8948  133.7564  156.0467 H   0  0  0  0  0  0  0  0  0  0  0  0  # atno 11005 bound_to 11000
  144.7652  139.6863  143.7218 LP  0  0  0  0  0  0  0  0  0  0  0  0  # atno 17320 bound_to 7965
  146.2076  139.5411  142.9702 LP  0  0  0  0  0  0  0  0  0  0  0  0  # atno 17321 bound_to 7965
  140.2321  144.4358  150.6295 LP  0  0  0  0  0  0  0  0  0  0  0  0  # atno 17342 bound_to 10162
  140.6348  143.2193  151.6418 LP  0  0  0  0  0  0  0  0  0  0  0  0  # atno 17343 bound_to 10162
  156.7320  130.4712  149.5497 LP  0  0  0  0  0  0  0  0  0  0  0  0  # atno 17370 bound_to 10713
  156.1596  130.6365  151.0701 LP  0  0  0  0  0  0  0  0  0  0  0  0  # atno 17371 bound_to 10713
  140.8302  134.3187  157.5351 LP  0  0  0  0  0  0  0  0  0  0  0  0  # atno 17394 bound_to 11000
  139.8734  134.9359  156.3646 LP  0  0  0  0  0  0  0  0  0  0  0  0  # atno 17395 bound_to 11000

$$$$
