AV-unprocessed.smi:2834|AV-procd|sdf|10917|dock5
  -GOLD-   2272015363D 1   1.00000     0.00000
 Structure written by MMmdl.
 35 36  0  0  0  0  0  0  0  0  1 V2000
  139.1255  139.0477  153.6504 C   0  0  0  0  0  0  0  0  0  0  0  0
  140.4687  139.5828  154.1928 C   0  0  2  0  0  0  0  0  0  0  0  0
  141.5906  138.9962  153.4504 N   0  0  0  0  0  0  0  0  0  0  0  0
  141.9698  137.7079  153.4344 C   0  0  0  0  0  0  0  0  0  0  0  0
  141.3913  136.8141  154.0523 O   0  0  0  0  0  0  0  0  0  0  0  0
  143.0528  137.5311  152.6600 N   0  0  0  0  0  0  0  0  0  0  0  0
  143.7532  136.3212  152.4238 C   0  0  0  0  0  0  0  0  0  0  0  0
  143.7313  135.1920  153.2830 C   0  0  0  0  0  0  0  0  0  0  0  0
  144.4750  134.2081  152.8001 N   0  0  0  0  0  0  0  0  0  0  0  0
  144.9794  134.6871  151.6358 N   0  0  0  0  0  0  0  0  0  0  0  0
  145.8481  133.8487  150.8298 C   0  0  0  0  0  0  0  0  0  0  0  0
  145.1239  132.6056  150.2874 C   0  0  0  0  0  0  0  0  0  0  0  0
  145.9893  131.8598  149.6014 F   0  0  0  0  0  0  0  0  0  0  0  0
  144.6307  131.8748  151.2874 F   0  0  0  0  0  0  0  0  0  0  0  0
  144.1307  132.9631  149.4730 F   0  0  0  0  0  0  0  0  0  0  0  0
  144.5590  135.9763  151.3759 C   0  0  0  0  0  0  0  0  0  0  0  0
  140.6190  139.2515  155.6850 C   0  0  0  0  0  0  0  0  0  0  0  0
  140.8767  140.5968  156.3575 C   0  0  0  0  0  0  0  0  0  0  0  0
  140.2059  141.5110  155.5113 O   0  0  0  0  0  0  0  0  0  0  0  0
  140.5192  141.1264  154.1834 C   0  0  0  0  0  0  0  0  0  0  0  0
  138.2846  139.4448  154.2200 H   0  0  0  0  0  0  0  0  0  0  0  0
  139.0812  137.9599  153.7104 H   0  0  0  0  0  0  0  0  0  0  0  0
  138.9658  139.3272  152.6089 H   0  0  0  0  0  0  0  0  0  0  0  0
  142.1376  139.6425  152.9010 H   0  0  0  0  0  0  0  0  0  0  0  0
  143.4242  138.3505  152.2022 H   0  0  0  0  0  0  0  0  0  0  0  0
  143.2108  135.0546  154.2193 H   0  0  0  0  0  0  0  0  0  0  0  0
  146.2333  134.4491  150.0047 H   0  0  0  0  0  0  0  0  0  0  0  0
  146.7102  133.5532  151.4299 H   0  0  0  0  0  0  0  0  0  0  0  0
  144.8645  136.5104  150.4883 H   0  0  0  0  0  0  0  0  0  0  0  0
  139.6963  138.8256  156.0819 H   0  0  0  0  0  0  0  0  0  0  0  0
  141.4156  138.5374  155.8996 H   0  0  0  0  0  0  0  0  0  0  0  0
  140.4974  140.6376  157.3789 H   0  0  0  0  0  0  0  0  0  0  0  0
  141.9435  140.8270  156.3749 H   0  0  0  0  0  0  0  0  0  0  0  0
  141.5192  141.4971  153.9503 H   0  0  0  0  0  0  0  0  0  0  0  0
  139.8265  141.5734  153.4694 H   0  0  0  0  0  0  0  0  0  0  0  0
  1  2  1  0  0  0  0
  1 21  1  0  0  0  0
  1 22  1  0  0  0  0
  1 23  1  0  0  0  0
  2 20  1  0  0  0  0
  2  3  1  0  0  0  0
  2 17  1  0  0  0  0
  3  4  1  0  0  0  0
  3 24  1  0  0  0  0
  4  5  2  0  0  0  0
  4  6  1  0  0  0  0
  6  7  1  0  0  0  0
  6 25  1  0  0  0  0
  7 16  2  0  0  0  0
  7  8  1  0  0  0  0
  8  9  2  0  0  0  0
  8 26  1  0  0  0  0
  9 10  1  0  0  0  0
 10 11  1  0  0  0  0
 10 16  1  0  0  0  0
 11 12  1  0  0  0  0
 11 27  1  0  0  0  0
 11 28  1  0  0  0  0
 12 13  1  0  0  0  0
 12 14  1  0  0  0  0
 12 15  1  0  0  0  0
 16 29  1  0  0  0  0
 17 18  1  0  0  0  0
 17 30  1  0  0  0  0
 17 31  1  0  0  0  0
 18 19  1  0  0  0  0
 18 32  1  0  0  0  0
 18 33  1  0  0  0  0
 19 20  1  0  0  0  0
 20 34  1  0  0  0  0
 20 35  1  0  0  0  0
M  END
> <s_m_source_file>
AV-unprocessed.smi

> <i_m_source_file_index>
2834

> <i_lp_mmshare_version>
43012

> <i_f3d_flags>
0

> <s_epik_input>
W0NIMl0xT1tDSDJdW0NIMl1bQ0BAXTEoW0NIM10pW05IXUMoPU8pW05IXWMyW2NIXW5uKFtjSF0yKVtDSDJdQyhGKShGKUY=

> <s_epik_cmdline>
J2VwaWtfcHl0aG9uJywgJy1waCcsICc3LjAnLCAnLXRuJywgJzgnLCAnLW1hJywgJzIwMCcsICctbWV0YWxfYmluZGluZycsICctaW1hZScsICc8aW5maWxlLm1hZT4nLCAnLW9tYWUnLCAnPG91dGZpbGUubWFlPic=

> <r_lp_tautomer_probability>
1

> <r_epik_Ionization_Penalty>
3.3002e-05

> <r_epik_Ionization_Penalty_Charging>
0

> <r_epik_Ionization_Penalty_Neutral>
3.3002e-05

> <r_epik_State_Penalty>
-0

> <r_epik_Charging_Adjusted_Penalty>
0

> <i_epik_Tot_Q>
0

> <i_epik_Tot_abs_Q>
0

> <r_epik_Metal_State_Penalty>
-0

> <b_epik_Metal_Only>
0

> <s_lp_Force_Field>
OPLS_2005

> <r_lp_Energy>
22.3443

> <b_lp_Chiralities_Consistent>
1

> <s_lp_Variant>
AV-unprocessed.smi:2834-2

> <Gold.Version>
5.8.1

> <Gold.Id.Protein>
6NUR|6NUR_protein|mol2

> <Gold.PLP.Fitness>
41.9559

> <Gold.PLP.PLP>
-34.6467

> <Gold.PLP.part.hbond>
-3.6587

> <Gold.PLP.part.metal>
0.0000

> <Gold.PLP.part.buried>
-3.8911

> <Gold.PLP.part.nonpolar>
-27.4250

> <Gold.PLP.part.repulsive>
0.3040

> <Gold.PLP.ligand.clash>
0.0000

> <Gold.PLP.ligand.torsion>
0.2221

> <Gold.PLP.Chemscore.Hbond>
1.7301

> <Gold.PLP.Chemscore.CHOScore>
0.8431

> <Gold.PLP.Chemscore.Metal>
0.0000

> <Gold.Chemscore.Hbonds>
donor molecule, donor type, donor heavy atom, donor atom, acceptor molecule, acceptor atom, score
      L1  H     3    24       P1 10175  1.00
      L1  H     6    25       P1 10175  0.68
      L1  C    16    29       P1 10171  0.87

> <Gold.PLP.Chemscore.Internal.Correction>
0.0337

> <Gold.Rescore>
     Score         DG    S(hbond)    S(metal)    S(lipo)     H(rot)  DE(clash)    DE(int)     intcor
     10.37     -13.10       1.82        0.00      42.54       1.34       0.05       2.68       ----

> <Gold.Chemscore.Fitness>
10.3737

> <Gold.Chemscore.DG>
-13.1002

> <Gold.Chemscore.ZeroCoef>
-5.4800

> <Gold.Chemscore.Hbond>
1.8196

> <Gold.Chemscore.Metal>
0.0000

> <Gold.Chemscore.Lipo>
42.5403

> <Gold.Chemscore.Internal_Hbond>
0.0000

> <Gold.Chemscore.DEClash>
0.0480

> <Gold.Chemscore.DEInternal>
2.6784

> <Gold.Chemscore.Rot>
1.3417

> <Gold.Chemscore.Internal.Correction>
   9.000000E+99

> <Gold.Chemscore.Hbonds>
donor molecule, donor type, donor heavy atom, donor atom, acceptor molecule, acceptor atom, score
      L1  H     3    24       P1 10175  0.69
      L1  H     6    25       P1 10175  0.67

> <Gold.Chemscore.Hbond.Weighted>
-6.0776

> <Gold.Chemscore.Metal.Weighted>
-0.0000

> <Gold.Chemscore.Lipo.Weighted>
-4.9772

> <Gold.Chemscore.Internal_Hbond.Weighted>
0.0000

> <Gold.Chemscore.DEClash.Weighted>
0.0480

> <Gold.Chemscore.DEInternal.Weighted>
2.6784

> <Gold.Chemscore.Rot.Weighted>
3.4347

> <Gold.Chemscore.Internal.Correction.Weighted>
   9.000000E+99

> <Gold.Protein.RotatedTorsions>
[ 6907 6896 6895 6894 ] final   -9.65 input  -60.11 | X-H torsion
[ 7974 7965 7964 7962 ] final   37.33 input  175.53 | X-H torsion
[ 8008 7997 7996 7995 ] final  124.11 input   59.86 | X-H torsion
[ 10167 10162 10161 10158 ] final  -41.46 input  -65.29 | X-H torsion
[ 10718 10713 10712 10709 ] final  -88.42 input   66.30 | X-H torsion
[ 10763 10752 10751 10750 ] final -157.43 input  -60.55 | X-H torsion
[ 11005 11000 10999 10996 ] final   83.90 input  -57.11 | X-H torsion

> <Gold.Protein.ActiveResidues>
 VAL166  LYS551  ARG553  GLY616  TRP617  ASP618  TYR619  PRO620  LYS621  CYS622 
 ASP623  PHE694  ASN695  SER759  ASP760  ASP761  ALA762  ILE779  LEU786  VAL792 
 PHE793  MET794  SER795  GLU796  ALA797  LYS798  CYS799  TRP800  GLU811  SER814 

> <Gold.Protein.RotatedAtoms>
  151.4143  135.0989  159.9594 H   0  0  0  0  0  0  0  0  0  0  0  0  # atno 6907 bound_to 6896
  152.5009  133.8767  159.7336 H   0  0  0  0  0  0  0  0  0  0  0  0  # atno 6908 bound_to 6896
  150.9269  133.6756  159.2847 H   0  0  0  0  0  0  0  0  0  0  0  0  # atno 6909 bound_to 6896
  146.1145  139.5907  142.9330 H   0  0  0  0  0  0  0  0  0  0  0  0  # atno 7974 bound_to 7965
  156.2790  140.2747  156.1735 H   0  0  0  0  0  0  0  0  0  0  0  0  # atno 8008 bound_to 7997
  155.0630  140.0386  157.2601 H   0  0  0  0  0  0  0  0  0  0  0  0  # atno 8009 bound_to 7997
  154.7102  140.2667  155.6642 H   0  0  0  0  0  0  0  0  0  0  0  0  # atno 8010 bound_to 7997
  140.7002  143.3093  151.3069 H   0  0  0  0  0  0  0  0  0  0  0  0  # atno 10167 bound_to 10162
  155.9984  130.4835  150.5017 H   0  0  0  0  0  0  0  0  0  0  0  0  # atno 10718 bound_to 10713
  154.7637  135.3125  154.8329 H   0  0  0  0  0  0  0  0  0  0  0  0  # atno 10763 bound_to 10752
  153.9083  135.6808  153.4756 H   0  0  0  0  0  0  0  0  0  0  0  0  # atno 10764 bound_to 10752
  153.1240  135.4809  154.9174 H   0  0  0  0  0  0  0  0  0  0  0  0  # atno 10765 bound_to 10752
  139.9016  134.8178  156.2372 H   0  0  0  0  0  0  0  0  0  0  0  0  # atno 11005 bound_to 11000
  145.5595  141.0406  143.2234 LP  0  0  0  0  0  0  0  0  0  0  0  0  # atno 17320 bound_to 7965
  144.7541  139.7120  143.7261 LP  0  0  0  0  0  0  0  0  0  0  0  0  # atno 17321 bound_to 7965
  139.6511  144.0361  152.2626 LP  0  0  0  0  0  0  0  0  0  0  0  0  # atno 17342 bound_to 10162
  139.9898  144.6370  150.7825 LP  0  0  0  0  0  0  0  0  0  0  0  0  # atno 17343 bound_to 10162
  157.3000  131.0643  151.2074 LP  0  0  0  0  0  0  0  0  0  0  0  0  # atno 17370 bound_to 10713
  157.3057  130.6865  149.6188 LP  0  0  0  0  0  0  0  0  0  0  0  0  # atno 17371 bound_to 10713
  141.0308  133.6990  156.1427 LP  0  0  0  0  0  0  0  0  0  0  0  0  # atno 17394 bound_to 11000
  140.7099  134.4473  157.5582 LP  0  0  0  0  0  0  0  0  0  0  0  0  # atno 17395 bound_to 11000

$$$$
