AV-unprocessed.smi:837|AV-procd|sdf|3907|dock9
  -GOLD-   22720 1373D 1   1.00000     0.00000
 Structure written by MMmdl.
 49 51  0  0  0  0  0  0  0  0  3 V2000
  152.4360  137.9675  158.9609 C   0  0  0  0  0  0  0  0  0  0  0  0
  152.0795  139.4558  159.1625 C   0  0  1  0  0  0  0  0  0  0  0  0
  153.2545  140.2153  159.8152 C   0  0  0  0  0  0  0  0  0  0  0  0
  152.8858  141.6716  160.1331 C   0  0  0  0  0  0  0  0  0  0  0  0
  152.4130  142.4095  158.8740 C   0  0  0  0  0  0  0  0  0  0  0  0
  151.2357  141.6764  158.2079 C   0  0  0  0  0  0  0  0  0  0  0  0
  151.5584  140.1937  157.8858 C   0  0  1  0  0  0  0  0  0  0  0  0
  152.5059  140.1151  156.7835 N   0  5  0  0  0  0  0  0  0  0  0  0
  151.9018  139.5221  155.7285 C   0  0  0  0  0  0  0  0  0  0  0  0
  152.4011  139.2997  154.6256 O   0  0  0  0  0  0  0  0  0  0  0  0
  150.6375  139.1692  156.0287 N   0  0  0  0  0  0  0  0  0  0  0  0
  149.7379  138.4435  155.1245 C   0  0  0  0  0  0  0  0  0  0  0  0
  149.4143  137.0484  155.6687 C   0  0  0  0  0  0  0  0  0  0  0  0
  149.1967  136.8835  156.8689 O   0  0  0  0  0  0  0  0  0  0  0  0
  149.3932  136.0546  154.7684 N   0  0  0  0  0  0  0  0  0  0  0  0
  149.1775  134.6412  155.0632 C   0  0  0  0  0  0  0  0  0  0  0  0
  149.3474  133.7182  153.8356 C   0  0  0  0  0  0  0  0  0  0  0  0
  149.4529  132.2372  154.1694 C   0  0  0  0  0  0  0  0  0  0  0  0
  150.4364  131.7752  155.0728 C   0  0  0  0  0  0  0  0  0  0  0  0
  150.5241  130.3970  155.3580 C   0  0  0  0  0  0  0  0  0  0  0  0
  149.6307  129.5081  154.7277 C   0  0  0  0  0  0  0  0  0  0  0  0
  148.7020  129.9848  153.8703 N   0  3  0  0  0  0  0  0  0  0  0  0
  148.5808  131.2982  153.5766 C   0  0  0  0  0  0  0  0  0  0  0  0
  150.3349  139.5165  157.2839 C   0  0  0  0  0  0  0  0  0  0  0  0
  149.2748  139.3254  157.8812 O   0  0  0  0  0  0  0  0  0  0  0  0
  153.2776  137.8517  158.2803 H   0  0  0  0  0  0  0  0  0  0  0  0
  151.6000  137.3938  158.5613 H   0  0  0  0  0  0  0  0  0  0  0  0
  152.7178  137.5053  159.9070 H   0  0  0  0  0  0  0  0  0  0  0  0
  151.2654  139.4717  159.8893 H   0  0  0  0  0  0  0  0  0  0  0  0
  153.5569  139.7132  160.7347 H   0  0  0  0  0  0  0  0  0  0  0  0
  154.1232  140.1937  159.1560 H   0  0  0  0  0  0  0  0  0  0  0  0
  152.0986  141.6939  160.8875 H   0  0  0  0  0  0  0  0  0  0  0  0
  153.7443  142.1864  160.5648 H   0  0  0  0  0  0  0  0  0  0  0  0
  152.1179  143.4273  159.1297 H   0  0  0  0  0  0  0  0  0  0  0  0
  153.2405  142.4982  158.1691 H   0  0  0  0  0  0  0  0  0  0  0  0
  150.3765  141.7247  158.8791 H   0  0  0  0  0  0  0  0  0  0  0  0
  150.9380  142.2119  157.3045 H   0  0  0  0  0  0  0  0  0  0  0  0
  148.8034  138.9901  154.9892 H   0  0  0  0  0  0  0  0  0  0  0  0
  150.1865  138.3730  154.1318 H   0  0  0  0  0  0  0  0  0  0  0  0
  149.5784  136.2945  153.8051 H   0  0  0  0  0  0  0  0  0  0  0  0
  149.8299  134.3211  155.8766 H   0  0  0  0  0  0  0  0  0  0  0  0
  148.1571  134.5533  155.4365 H   0  0  0  0  0  0  0  0  0  0  0  0
  148.5051  133.8661  153.1585 H   0  0  0  0  0  0  0  0  0  0  0  0
  150.2337  134.0143  153.2741 H   0  0  0  0  0  0  0  0  0  0  0  0
  151.1245  132.4667  155.5370 H   0  0  0  0  0  0  0  0  0  0  0  0
  151.2776  130.0245  156.0364 H   0  0  0  0  0  0  0  0  0  0  0  0
  149.6361  128.4382  154.8771 H   0  0  0  0  0  0  0  0  0  0  0  0
  147.8025  131.5536  152.8729 H   0  0  0  0  0  0  0  0  0  0  0  0
  148.0684  129.3233  153.4215 H   0  0  0  0  0  0  0  0  0  0  0  0
  1  2  1  0  0  0  0
  1 26  1  0  0  0  0
  1 27  1  0  0  0  0
  1 28  1  0  0  0  0
  2  7  1  0  0  0  0
  2  3  1  0  0  0  0
  2 29  1  0  0  0  0
  3  4  1  0  0  0  0
  3 30  1  0  0  0  0
  3 31  1  0  0  0  0
  4  5  1  0  0  0  0
  4 32  1  0  0  0  0
  4 33  1  0  0  0  0
  5  6  1  0  0  0  0
  5 34  1  0  0  0  0
  5 35  1  0  0  0  0
  6  7  1  0  0  0  0
  6 36  1  0  0  0  0
  6 37  1  0  0  0  0
  7 24  1  0  0  0  0
  7  8  1  0  0  0  0
  8  9  1  0  0  0  0
  9 10  2  0  0  0  0
  9 11  1  0  0  0  0
 11 12  1  0  0  0  0
 11 24  1  0  0  0  0
 12 13  1  0  0  0  0
 12 38  1  0  0  0  0
 12 39  1  0  0  0  0
 13 14  2  0  0  0  0
 13 15  1  0  0  0  0
 15 16  1  0  0  0  0
 15 40  1  0  0  0  0
 16 17  1  0  0  0  0
 16 41  1  0  0  0  0
 16 42  1  0  0  0  0
 17 18  1  0  0  0  0
 17 43  1  0  0  0  0
 17 44  1  0  0  0  0
 18 23  1  0  0  0  0
 18 19  2  0  0  0  0
 19 20  1  0  0  0  0
 19 45  1  0  0  0  0
 20 21  2  0  0  0  0
 20 46  1  0  0  0  0
 21 22  1  0  0  0  0
 21 47  1  0  0  0  0
 22 23  2  0  0  0  0
 22 49  1  0  0  0  0
 23 48  1  0  0  0  0
 24 25  2  0  0  0  0
M  CHG  1   8  -1
M  CHG  1  22   1
M  END
> <s_m_source_file>
AV-unprocessed.smi

> <i_m_source_file_index>
837

> <i_lp_mmshare_version>
43012

> <i_f3d_flags>
0

> <s_epik_input>
W0NIMl0xW0NIMl1bQ0gyXVtDSDJdW0NAQEhdKFtDSDNdKVtDQEBdMTJbTkhdQyg9TylOKEMyPU8pW0NIMl1DKD1PKVtOSF1bQ0gyXVtDSDJdYzNbY0hdW2NIXVtjSF1uW2NIXTM=

> <s_epik_cmdline>
J2VwaWtfcHl0aG9uJywgJy1waCcsICc3LjAnLCAnLXRuJywgJzgnLCAnLW1hJywgJzIwMCcsICctbWV0YWxfYmluZGluZycsICctaW1hZScsICc8aW5maWxlLm1hZT4nLCAnLW9tYWUnLCAnPG91dGZpbGUubWFlPic=

> <r_lp_tautomer_probability>
1

> <r_epik_Ionization_Penalty>
8.27169

> <r_epik_Ionization_Penalty_Charging>
8.27169

> <r_epik_Ionization_Penalty_Neutral>
1.56557e-07

> <r_epik_State_Penalty>
8.42098

> <r_epik_Charging_Adjusted_Penalty>
16.6927

> <i_epik_Tot_Q>
0

> <i_epik_Tot_abs_Q>
2

> <r_epik_Metal_State_Penalty>
4.38565

> <b_epik_Metal_Only>
1

> <s_lp_Force_Field>
OPLS_2005

> <r_lp_Energy>
17.1627

> <b_lp_Chiralities_Consistent>
1

> <s_lp_Variant>
AV-unprocessed.smi:837-16

> <Gold.Version>
5.8.1

> <Gold.Id.Protein>
6NUR|6NUR_protein|mol2

> <Gold.PLP.Fitness>
49.8222

> <Gold.PLP.PLP>
-39.5079

> <Gold.PLP.part.hbond>
-3.0000

> <Gold.PLP.part.metal>
0.0000

> <Gold.PLP.part.buried>
-2.8488

> <Gold.PLP.part.nonpolar>
-32.2710

> <Gold.PLP.part.repulsive>
0.0854

> <Gold.PLP.ligand.clash>
0.0000

> <Gold.PLP.ligand.torsion>
0.3754

> <Gold.PLP.Chemscore.Hbond>
3.6800

> <Gold.PLP.Chemscore.CHOScore>
0.0000

> <Gold.PLP.Chemscore.Metal>
0.0000

> <Gold.Chemscore.Hbonds>
donor molecule, donor type, donor heavy atom, donor atom, acceptor molecule, acceptor atom, score
      L1  H    15    40       P1  7948  0.98
      P1  H  7989  7998       L1    10  0.66
      P1  H  7997  8010       L1     8  2.00

> <Gold.PLP.Chemscore.Internal.Correction>
0.0252

> <Gold.Rescore>
     Score         DG    S(hbond)    S(metal)    S(lipo)     H(rot)  DE(clash)    DE(int)     intcor
     15.95     -19.65       2.63        0.00      88.13       1.92       0.35       3.36       ----

> <Gold.Chemscore.Fitness>
15.9467

> <Gold.Chemscore.DG>
-19.6543

> <Gold.Chemscore.ZeroCoef>
-5.4800

> <Gold.Chemscore.Hbond>
2.6263

> <Gold.Chemscore.Metal>
0.0000

> <Gold.Chemscore.Lipo>
88.1300

> <Gold.Chemscore.Internal_Hbond>
0.0000

> <Gold.Chemscore.DEClash>
0.3461

> <Gold.Chemscore.DEInternal>
3.3616

> <Gold.Chemscore.Rot>
1.9175

> <Gold.Chemscore.Internal.Correction>
   9.000000E+99

> <Gold.Chemscore.Hbonds>
donor molecule, donor type, donor heavy atom, donor atom, acceptor molecule, acceptor atom, score
      L1  H    15    40       P1  7948  0.54
      P1  H  7989  7998       L1    10  0.25
      P1  H  7997  8010       L1     8  0.82

> <Gold.Chemscore.Hbond.Weighted>
-8.7719

> <Gold.Chemscore.Metal.Weighted>
-0.0000

> <Gold.Chemscore.Lipo.Weighted>
-10.3112

> <Gold.Chemscore.Internal_Hbond.Weighted>
0.0000

> <Gold.Chemscore.DEClash.Weighted>
0.3461

> <Gold.Chemscore.DEInternal.Weighted>
3.3616

> <Gold.Chemscore.Rot.Weighted>
4.9087

> <Gold.Chemscore.Internal.Correction.Weighted>
   9.000000E+99

> <Gold.Protein.RotatedTorsions>
[ 6907 6896 6895 6894 ] final -119.89 input  -60.11 | X-H torsion
[ 7974 7965 7964 7962 ] final  -93.99 input  175.53 | X-H torsion
[ 8008 7997 7996 7995 ] final   57.40 input   59.86 | X-H torsion
[ 10167 10162 10161 10158 ] final  -81.03 input  -65.29 | X-H torsion
[ 10718 10713 10712 10709 ] final -108.74 input   66.30 | X-H torsion
[ 10763 10752 10751 10750 ] final   13.97 input  -60.55 | X-H torsion
[ 11005 11000 10999 10996 ] final   26.62 input  -57.11 | X-H torsion

> <Gold.Protein.ActiveResidues>
 VAL166  LYS551  ARG553  GLY616  TRP617  ASP618  TYR619  PRO620  LYS621  CYS622 
 ASP623  PHE694  ASN695  SER759  ASP760  ASP761  ALA762  ILE779  LEU786  VAL792 
 PHE793  MET794  SER795  GLU796  ALA797  LYS798  CYS799  TRP800  GLU811  SER814 

> <Gold.Protein.RotatedAtoms>
  150.8345  133.8037  159.3085 H   0  0  0  0  0  0  0  0  0  0  0  0  # atno 6907 bound_to 6896
  151.5757  135.1059  160.0015 H   0  0  0  0  0  0  0  0  0  0  0  0  # atno 6908 bound_to 6896
  152.4419  133.7423  159.6704 H   0  0  0  0  0  0  0  0  0  0  0  0  # atno 6909 bound_to 6896
  145.3792  140.9515  143.2403 H   0  0  0  0  0  0  0  0  0  0  0  0  # atno 7974 bound_to 7965
  155.5332  140.3482  155.4431 H   0  0  0  0  0  0  0  0  0  0  0  0  # atno 8008 bound_to 7997
  156.0703  140.1361  156.9862 H   0  0  0  0  0  0  0  0  0  0  0  0  # atno 8009 bound_to 7997
  154.4525  140.0967  156.6635 H   0  0  0  0  0  0  0  0  0  0  0  0  # atno 8010 bound_to 7997
  140.4449  143.2502  151.8572 H   0  0  0  0  0  0  0  0  0  0  0  0  # atno 10167 bound_to 10162
  156.0501  130.5728  150.8004 H   0  0  0  0  0  0  0  0  0  0  0  0  # atno 10718 bound_to 10713
  153.1668  135.6805  153.8663 H   0  0  0  0  0  0  0  0  0  0  0  0  # atno 10763 bound_to 10752
  153.8040  135.3152  155.3394 H   0  0  0  0  0  0  0  0  0  0  0  0  # atno 10764 bound_to 10752
  154.7971  135.4800  154.0278 H   0  0  0  0  0  0  0  0  0  0  0  0  # atno 10765 bound_to 10752
  140.3351  134.2395  155.7697 H   0  0  0  0  0  0  0  0  0  0  0  0  # atno 11005 bound_to 11000
  144.8520  139.5308  143.6852 LP  0  0  0  0  0  0  0  0  0  0  0  0  # atno 17320 bound_to 7965
  146.2850  139.6979  142.9202 LP  0  0  0  0  0  0  0  0  0  0  0  0  # atno 17321 bound_to 7965
  139.4792  144.5187  151.8832 LP  0  0  0  0  0  0  0  0  0  0  0  0  # atno 17342 bound_to 10162
  140.4275  144.2160  150.5887 LP  0  0  0  0  0  0  0  0  0  0  0  0  # atno 17343 bound_to 10162
  157.5418  131.0941  150.9816 LP  0  0  0  0  0  0  0  0  0  0  0  0  # atno 17370 bound_to 10713
  157.0097  130.5632  149.5319 LP  0  0  0  0  0  0  0  0  0  0  0  0  # atno 17371 bound_to 10713
  141.2053  133.7863  157.0238 LP  0  0  0  0  0  0  0  0  0  0  0  0  # atno 17394 bound_to 11000
  140.0828  134.9638  157.1652 LP  0  0  0  0  0  0  0  0  0  0  0  0  # atno 17395 bound_to 11000

$$$$
