AV-unprocessed.smi:1703|AV-procd|sdf|6860|dock10
  -GOLD-   22720 8 53D 1   1.00000     0.00000
 Structure written by MMmdl.
 49 51  0  0  0  0  0  0  0  0  2 V2000
  144.8684  134.8451  155.0900 C   0  0  0  0  0  0  0  0  0  0  0  0
  144.9376  135.3347  153.6396 C   0  0  1  0  0  0  0  0  0  0  0  0
  146.3596  135.7885  153.2487 C   0  0  0  0  0  0  0  0  0  0  0  0
  146.4279  136.1791  151.8197 N   0  3  2  0  0  0  0  0  0  0  0  0
  145.8549  137.5231  151.5430 C   0  0  0  0  0  0  0  0  0  0  0  0
  146.8220  138.6661  151.9280 C   0  0  2  0  0  0  0  0  0  0  0  0
  148.0798  138.4225  151.3326 O   0  0  0  0  0  0  0  0  0  0  0  0
  147.0267  138.8250  153.4482 C   0  0  0  0  0  0  0  0  0  0  0  0
  148.1831  139.6544  153.7660 N   0  0  0  0  0  0  0  0  0  0  0  0
  148.3305  140.9962  153.6171 C   0  0  0  0  0  0  0  0  0  0  0  0
  147.2399  141.8705  153.0777 C   0  0  0  0  0  0  0  0  0  0  0  0
  147.5262  143.2459  153.2131 O   0  0  0  0  0  0  0  0  0  0  0  0
  149.5179  141.4911  153.9665 N   0  0  0  0  0  0  0  0  0  0  0  0
  150.2025  140.3703  154.3928 C   0  0  0  0  0  0  0  0  0  0  0  0
  151.5202  140.2308  154.8835 C   0  0  0  0  0  0  0  0  0  0  0  0
  152.0110  138.9638  155.2610 C   0  0  0  0  0  0  0  0  0  0  0  0
  151.1924  137.8209  155.1553 C   0  0  0  0  0  0  0  0  0  0  0  0
  149.8768  137.9378  154.6674 C   0  0  0  0  0  0  0  0  0  0  0  0
  149.3926  139.2043  154.2878 C   0  0  0  0  0  0  0  0  0  0  0  0
  145.8935  135.0892  150.9609 C   0  0  0  0  0  0  0  0  0  0  0  0
  144.4901  134.6346  151.4178 C   0  0  1  0  0  0  0  0  0  0  0  0
  143.9861  133.4328  150.6116 C   0  0  0  0  0  0  0  0  0  0  0  0
  144.5449  134.2611  152.7905 O   0  0  0  0  0  0  0  0  0  0  0  0
  145.1511  135.6359  155.7851 H   0  0  0  0  0  0  0  0  0  0  0  0
  145.5375  133.9997  155.2545 H   0  0  0  0  0  0  0  0  0  0  0  0
  143.8581  134.5245  155.3455 H   0  0  0  0  0  0  0  0  0  0  0  0
  144.2345  136.1612  153.5234 H   0  0  0  0  0  0  0  0  0  0  0  0
  146.6975  136.6080  153.8844 H   0  0  0  0  0  0  0  0  0  0  0  0
  147.0607  134.9686  153.4109 H   0  0  0  0  0  0  0  0  0  0  0  0
  145.5803  137.5741  150.4913 H   0  0  0  0  0  0  0  0  0  0  0  0
  144.9221  137.6576  152.0925 H   0  0  0  0  0  0  0  0  0  0  0  0
  146.4621  139.6159  151.5373 H   0  0  0  0  0  0  0  0  0  0  0  0
  148.5052  137.7173  151.7966 H   0  0  0  0  0  0  0  0  0  0  0  0
  146.1326  139.2439  153.9084 H   0  0  0  0  0  0  0  0  0  0  0  0
  147.1758  137.8481  153.9103 H   0  0  0  0  0  0  0  0  0  0  0  0
  147.0896  141.6501  152.0202 H   0  0  0  0  0  0  0  0  0  0  0  0
  146.3012  141.6399  153.5818 H   0  0  0  0  0  0  0  0  0  0  0  0
  148.2094  143.3495  153.8576 H   0  0  0  0  0  0  0  0  0  0  0  0
  152.1547  141.1005  154.9706 H   0  0  0  0  0  0  0  0  0  0  0  0
  153.0195  138.8689  155.6365 H   0  0  0  0  0  0  0  0  0  0  0  0
  151.5748  136.8547  155.4505 H   0  0  0  0  0  0  0  0  0  0  0  0
  149.2486  137.0632  154.5886 H   0  0  0  0  0  0  0  0  0  0  0  0
  145.8727  135.3826  149.9121 H   0  0  0  0  0  0  0  0  0  0  0  0
  146.5833  134.2464  151.0241 H   0  0  0  0  0  0  0  0  0  0  0  0
  143.7684  135.4433  151.2960 H   0  0  0  0  0  0  0  0  0  0  0  0
  143.9139  133.6755  149.5510 H   0  0  0  0  0  0  0  0  0  0  0  0
  142.9961  133.1250  150.9489 H   0  0  0  0  0  0  0  0  0  0  0  0
  144.6544  132.5774  150.7151 H   0  0  0  0  0  0  0  0  0  0  0  0
  147.4110  136.2657  151.6030 H   0  0  0  0  0  0  0  0  0  0  0  0
  1  2  1  0  0  0  0
  1 24  1  0  0  0  0
  1 25  1  0  0  0  0
  1 26  1  0  0  0  0
  2 23  1  0  0  0  0
  2  3  1  0  0  0  0
  2 27  1  0  0  0  0
  3  4  1  0  0  0  0
  3 28  1  0  0  0  0
  3 29  1  0  0  0  0
  4  5  1  0  0  0  0
  4 20  1  0  0  0  0
  4 49  1  0  0  0  0
  5  6  1  0  0  0  0
  5 30  1  0  0  0  0
  5 31  1  0  0  0  0
  6  7  1  0  0  0  0
  6  8  1  0  0  0  0
  6 32  1  0  0  0  0
  7 33  1  0  0  0  0
  8  9  1  0  0  0  0
  8 34  1  0  0  0  0
  8 35  1  0  0  0  0
  9 19  1  0  0  0  0
  9 10  1  0  0  0  0
 10 11  1  0  0  0  0
 10 13  2  0  0  0  0
 11 12  1  0  0  0  0
 11 36  1  0  0  0  0
 11 37  1  0  0  0  0
 12 38  1  0  0  0  0
 13 14  1  0  0  0  0
 14 19  2  0  0  0  0
 14 15  1  0  0  0  0
 15 16  2  0  0  0  0
 15 39  1  0  0  0  0
 16 17  1  0  0  0  0
 16 40  1  0  0  0  0
 17 18  2  0  0  0  0
 17 41  1  0  0  0  0
 18 19  1  0  0  0  0
 18 42  1  0  0  0  0
 20 21  1  0  0  0  0
 20 43  1  0  0  0  0
 20 44  1  0  0  0  0
 21 22  1  0  0  0  0
 21 23  1  0  0  0  0
 21 45  1  0  0  0  0
 22 46  1  0  0  0  0
 22 47  1  0  0  0  0
 22 48  1  0  0  0  0
M  CHG  1   4   1
M  END
> <s_m_source_file>
AV-unprocessed.smi

> <i_m_source_file_index>
1703

> <i_lp_mmshare_version>
43012

> <i_f3d_flags>
0

> <s_epik_input>
W0NIM11bQ0BASF0xW0NIMl1OKFtDSDJdW0NASF0oTzEpW0NIM10pW0NIMl1bQ0BIXShbT0hdKVtDSDJdbihjKG4yKVtDSDJdW09IXSljKGMyMylbY0hdW2NIXVtjSF1bY0hdMw==

> <s_epik_cmdline>
J2VwaWtfcHl0aG9uJywgJy1waCcsICc3LjAnLCAnLXRuJywgJzgnLCAnLW1hJywgJzIwMCcsICctbWV0YWxfYmluZGluZycsICctaW1hZScsICc8aW5maWxlLm1hZT4nLCAnLW9tYWUnLCAnPG91dGZpbGUubWFlPic=

> <r_epik_Ionization_Penalty>
0.655661

> <r_epik_Ionization_Penalty_Charging>
0.608065

> <r_epik_Ionization_Penalty_Neutral>
0.0475963

> <r_epik_State_Penalty>
0.695267

> <r_epik_Charging_Adjusted_Penalty>
1.30333

> <i_epik_Tot_Q>
1

> <i_epik_Tot_abs_Q>
1

> <r_epik_Metal_State_Penalty>
0.653591

> <b_epik_Metal_Only>
0

> <s_lp_Force_Field>
OPLS_2005

> <r_lp_Energy>
23.3655

> <b_lp_Chiralities_Consistent>
1

> <s_lp_Variant>
AV-unprocessed.smi:1703-8

> <Gold.Version>
5.8.1

> <Gold.Id.Protein>
6NUR|6NUR_protein|mol2

> <Gold.PLP.Fitness>
49.5011

> <Gold.PLP.PLP>
-37.7924

> <Gold.PLP.part.hbond>
-7.3049

> <Gold.PLP.part.metal>
0.0000

> <Gold.PLP.part.buried>
4.5630

> <Gold.PLP.part.nonpolar>
-35.0158

> <Gold.PLP.part.repulsive>
0.2872

> <Gold.PLP.ligand.clash>
0.0000

> <Gold.PLP.ligand.torsion>
0.6203

> <Gold.PLP.Chemscore.Hbond>
4.2873

> <Gold.PLP.Chemscore.CHOScore>
0.0000

> <Gold.PLP.Chemscore.Metal>
0.0000

> <Gold.Chemscore.Hbonds>
donor molecule, donor type, donor heavy atom, donor atom, acceptor molecule, acceptor atom, score
      L1  H     4    49       P1  7948  1.98
      L1  H     7    33       P1  7948  0.92
      L1  H    12    38       P1  8028  0.24
      P1  H  7954  7966       L1     7  0.75
      P1  H  8011  8017       L1    13  0.52

> <Gold.PLP.Chemscore.Internal.Correction>
0.0875

> <Gold.Rescore>
     Score         DG    S(hbond)    S(metal)    S(lipo)     H(rot)  DE(clash)    DE(int)     intcor
     13.27     -17.62       2.52        0.00      96.47       2.96       3.58       0.77       ----

> <Gold.Chemscore.Fitness>
13.2683

> <Gold.Chemscore.DG>
-17.6174

> <Gold.Chemscore.ZeroCoef>
-5.4800

> <Gold.Chemscore.Hbond>
2.5241

> <Gold.Chemscore.Metal>
0.0000

> <Gold.Chemscore.Lipo>
96.4717

> <Gold.Chemscore.Internal_Hbond>
0.0000

> <Gold.Chemscore.DEClash>
3.5830

> <Gold.Chemscore.DEInternal>
0.7660

> <Gold.Chemscore.Rot>
2.9611

> <Gold.Chemscore.Internal.Correction>
   9.000000E+99

> <Gold.Chemscore.Hbonds>
donor molecule, donor type, donor heavy atom, donor atom, acceptor molecule, acceptor atom, score
      L1  H     4    49       P1  7948  0.92
      L1  H     7    33       P1  7948  0.84
      L1  H    12    38       P1  8028  0.23
      P1  H  7954  7966       L1     7  0.16
      P1  H  8011  8017       L1    13  0.06

> <Gold.Chemscore.Hbond.Weighted>
-8.4306

> <Gold.Chemscore.Metal.Weighted>
-0.0000

> <Gold.Chemscore.Lipo.Weighted>
-11.2872

> <Gold.Chemscore.Internal_Hbond.Weighted>
0.0000

> <Gold.Chemscore.DEClash.Weighted>
3.5830

> <Gold.Chemscore.DEInternal.Weighted>
0.7660

> <Gold.Chemscore.Rot.Weighted>
7.5803

> <Gold.Chemscore.Internal.Correction.Weighted>
   9.000000E+99

> <Gold.Protein.RotatedTorsions>
[ 6907 6896 6895 6894 ] final  -10.24 input  -60.11 | X-H torsion
[ 7974 7965 7964 7962 ] final   -9.45 input  175.53 | X-H torsion
[ 8008 7997 7996 7995 ] final -152.43 input   59.86 | X-H torsion
[ 10167 10162 10161 10158 ] final -130.54 input  -65.29 | X-H torsion
[ 10718 10713 10712 10709 ] final  153.15 input   66.30 | X-H torsion
[ 10763 10752 10751 10750 ] final -122.72 input  -60.55 | X-H torsion
[ 11005 11000 10999 10996 ] final   -3.77 input  -57.11 | X-H torsion

> <Gold.Protein.ActiveResidues>
 VAL166  LYS551  ARG553  GLY616  TRP617  ASP618  TYR619  PRO620  LYS621  CYS622 
 ASP623  PHE694  ASN695  SER759  ASP760  ASP761  ALA762  ILE779  LEU786  VAL792 
 PHE793  MET794  SER795  GLU796  ALA797  LYS798  CYS799  TRP800  GLU811  SER814 

> <Gold.Protein.RotatedAtoms>
  151.4051  135.0977  159.9567 H   0  0  0  0  0  0  0  0  0  0  0  0  # atno 6907 bound_to 6896
  152.5038  133.8851  159.7376 H   0  0  0  0  0  0  0  0  0  0  0  0  # atno 6908 bound_to 6896
  150.9333  133.6684  159.2834 H   0  0  0  0  0  0  0  0  0  0  0  0  # atno 6909 bound_to 6896
  146.2251  140.2619  142.8352 H   0  0  0  0  0  0  0  0  0  0  0  0  # atno 7974 bound_to 7965
  155.6550  140.0716  157.2574 H   0  0  0  0  0  0  0  0  0  0  0  0  # atno 8008 bound_to 7997
  154.4154  140.1726  156.1766 H   0  0  0  0  0  0  0  0  0  0  0  0  # atno 8009 bound_to 7997
  155.9745  140.3359  155.6609 H   0  0  0  0  0  0  0  0  0  0  0  0  # atno 8010 bound_to 7997
  139.9283  143.6302  152.2536 H   0  0  0  0  0  0  0  0  0  0  0  0  # atno 10167 bound_to 10162
  157.2484  131.0774  151.1746 H   0  0  0  0  0  0  0  0  0  0  0  0  # atno 10718 bound_to 10713
  154.8695  135.4123  154.2827 H   0  0  0  0  0  0  0  0  0  0  0  0  # atno 10763 bound_to 10752
  153.3717  135.7008  153.6638 H   0  0  0  0  0  0  0  0  0  0  0  0  # atno 10764 bound_to 10752
  153.5497  135.3631  155.2726 H   0  0  0  0  0  0  0  0  0  0  0  0  # atno 10765 bound_to 10752
  140.6730  133.9220  155.8507 H   0  0  0  0  0  0  0  0  0  0  0  0  # atno 11005 bound_to 11000
  144.9333  140.7999  143.5675 LP  0  0  0  0  0  0  0  0  0  0  0  0  # atno 17320 bound_to 7965
  145.2564  139.2010  143.4915 LP  0  0  0  0  0  0  0  0  0  0  0  0  # atno 17321 bound_to 7965
  139.6803  144.7656  151.1620 LP  0  0  0  0  0  0  0  0  0  0  0  0  # atno 17342 bound_to 10162
  140.7644  143.5734  150.8971 LP  0  0  0  0  0  0  0  0  0  0  0  0  # atno 17343 bound_to 10162
  157.3304  130.6982  149.6321 LP  0  0  0  0  0  0  0  0  0  0  0  0  # atno 17370 bound_to 10713
  155.9667  130.4309  150.4897 LP  0  0  0  0  0  0  0  0  0  0  0  0  # atno 17371 bound_to 10713
  141.0377  134.0666  157.3939 LP  0  0  0  0  0  0  0  0  0  0  0  0  # atno 17394 bound_to 11000
  139.8975  135.0151  156.7105 LP  0  0  0  0  0  0  0  0  0  0  0  0  # atno 17395 bound_to 11000

$$$$
