AV-unprocessed.smi:160|AV-procd|sdf|1374|dock1
  -GOLD-   2262019 93D 1   1.00000     0.00000
 Structure written by MMmdl.
 28 29  0  0  0  0  0  0  0  0  2 V2000
  151.9694  137.4452  154.1433 N   0  5  0  0  0  0  0  0  0  0  0  0
  152.4165  138.3309  155.0592 C   0  0  0  0  0  0  0  0  0  0  0  0
  153.5069  138.3027  155.6294 O   0  0  0  0  0  0  0  0  0  0  0  0
  151.4438  139.4404  155.3783 C   0  0  0  0  0  0  0  0  0  0  0  0
  151.4034  140.0748  156.5924 N   0  0  0  0  0  0  0  0  0  0  0  0
  150.4186  140.9294  156.3513 C   0  0  0  0  0  0  0  0  0  0  0  0
  149.8956  140.8310  155.1258 N   0  0  0  0  0  0  0  0  0  0  0  0
  148.8096  141.6317  154.4796 C   0  0  1  0  0  0  0  0  0  0  0  0
  148.5077  141.0230  153.2595 O   0  0  0  0  0  0  0  0  0  0  0  0
  147.2007  140.4509  153.2707 C   0  0  1  0  0  0  0  0  0  0  0  0
  147.2562  139.0573  152.6254 C   0  0  0  0  0  0  0  0  0  0  0  0
  148.3168  138.3001  153.1691 O   0  0  0  0  0  0  0  0  0  0  0  0
  146.7548  140.4558  154.7376 C   0  0  2  0  0  0  0  0  0  0  0  0
  145.3541  140.5942  154.8859 O   0  0  0  0  0  0  0  0  0  0  0  0
  147.5367  141.6204  155.3355 C   0  0  2  0  0  0  0  0  0  0  0  0
  146.8581  142.8592  155.2375 O   0  0  0  0  0  0  0  0  0  0  0  0
  150.5679  139.8575  154.4632 N   0  0  0  0  0  0  0  0  0  0  0  0
  149.2493  142.6209  154.3438 H   0  0  0  0  0  0  0  0  0  0  0  0
  146.5658  141.1175  152.6845 H   0  0  0  0  0  0  0  0  0  0  0  0
  147.0618  139.5293  155.2236 H   0  0  0  0  0  0  0  0  0  0  0  0
  147.7795  141.4550  156.3864 H   0  0  0  0  0  0  0  0  0  0  0  0
  151.0251  137.5741  153.7604 H   0  0  0  0  0  0  0  0  0  0  0  0
  150.0730  141.6441  157.0833 H   0  0  0  0  0  0  0  0  0  0  0  0
  146.3252  138.5220  152.8126 H   0  0  0  0  0  0  0  0  0  0  0  0
  147.3720  139.1308  151.5436 H   0  0  0  0  0  0  0  0  0  0  0  0
  148.7231  137.8108  152.4700 H   0  0  0  0  0  0  0  0  0  0  0  0
  144.9589  140.5379  154.0290 H   0  0  0  0  0  0  0  0  0  0  0  0
  147.4668  143.5487  155.4545 H   0  0  0  0  0  0  0  0  0  0  0  0
  1  2  1  0  0  0  0
  1 22  1  0  0  0  0
  2  3  2  0  0  0  0
  2  4  1  0  0  0  0
  4 17  2  0  0  0  0
  4  5  1  0  0  0  0
  5  6  2  0  0  0  0
  6  7  1  0  0  0  0
  6 23  1  0  0  0  0
  7  8  1  0  0  0  0
  7 17  1  0  0  0  0
  8 18  1  0  0  0  0
  8 15  1  0  0  0  0
  8  9  1  0  0  0  0
  9 10  1  0  0  0  0
 10 19  1  0  0  0  0
 10 11  1  0  0  0  0
 10 13  1  0  0  0  0
 11 12  1  0  0  0  0
 11 24  1  0  0  0  0
 11 25  1  0  0  0  0
 12 26  1  0  0  0  0
 13 20  1  0  0  0  0
 13 14  1  0  0  0  0
 13 15  1  0  0  0  0
 14 27  1  0  0  0  0
 15 21  1  0  0  0  0
 15 16  1  0  0  0  0
 16 28  1  0  0  0  0
M  CHG  1   1  -1
M  END
> <s_m_source_file>
AV-unprocessed.smi

> <i_m_source_file_index>
160

> <i_lp_mmshare_version>
43012

> <i_f3d_flags>
0

> <s_epik_input>
W05IMl1DKD1PKWMxbltjSF1uKG4xKVtDQEBIXTJPW0NASF0oW0NIMl1bT0hdKVtDQEBIXShbT0hdKVtDQEhdMltPSF0=

> <s_epik_cmdline>
J2VwaWtfcHl0aG9uJywgJy1waCcsICc3LjAnLCAnLXRuJywgJzgnLCAnLW1hJywgJzIwMCcsICctbWV0YWxfYmluZGluZycsICctaW1hZScsICc8aW5maWxlLm1hZT4nLCAnLW9tYWUnLCAnPG91dGZpbGUubWFlPic=

> <r_lp_tautomer_probability>
1

> <r_epik_Ionization_Penalty>
6.6993

> <r_epik_Ionization_Penalty_Charging>
6.6993

> <r_epik_Ionization_Penalty_Neutral>
6.01698e-06

> <r_epik_State_Penalty>
6.69929

> <r_epik_Charging_Adjusted_Penalty>
13.3986

> <i_epik_Tot_Q>
-1

> <i_epik_Tot_abs_Q>
1

> <r_epik_Metal_State_Penalty>
2.62798

> <b_epik_Metal_Only>
1

> <s_epik_Chemistry_Notes>
This compound contains an acetal/aminal-like group ( X-CH(R)-Y where X, Y are N, S, or O) that may be acid/base labile, releasing an aldehyde.

> <s_lp_Force_Field>
OPLS_2005

> <r_lp_Energy>
40.9711

> <b_lp_Chiralities_Consistent>
1

> <s_lp_Variant>
AV-unprocessed.smi:160-32

> <Gold.Version>
5.8.1

> <Gold.Id.Protein>
6NUR|6NUR_protein|mol2

> <Gold.PLP.Fitness>
45.3896

> <Gold.PLP.PLP>
-27.5238

> <Gold.PLP.part.hbond>
-8.5711

> <Gold.PLP.part.metal>
0.0000

> <Gold.PLP.part.buried>
-0.2343

> <Gold.PLP.part.nonpolar>
-22.0622

> <Gold.PLP.part.repulsive>
3.9323

> <Gold.PLP.ligand.clash>
0.0000

> <Gold.PLP.ligand.torsion>
0.5323

> <Gold.PLP.Chemscore.Hbond>
6.3017

> <Gold.PLP.Chemscore.CHOScore>
0.0000

> <Gold.PLP.Chemscore.Metal>
0.0000

> <Gold.Chemscore.Hbonds>
donor molecule, donor type, donor heavy atom, donor atom, acceptor molecule, acceptor atom, score
      L1  H    12    26       P1  7948  0.90
      L1  H    14    27       P1 10175  1.00
      L1  H    16    28       P1  8028  0.55
      P1  H  7989  7998       L1    17  0.95
      P1  H  7997  8008       L1     3  0.65
      P1  H  8011  8017       L1     9  0.32
      P1  H 10752 10765       L1     1  1.89

> <Gold.PLP.Chemscore.Internal.Correction>
0.0255

> <Gold.Rescore>
     Score         DG    S(hbond)    S(metal)    S(lipo)     H(rot)  DE(clash)    DE(int)     intcor
      7.62      -9.92       3.60        0.00      23.70       4.04       1.86       0.43       ----

> <Gold.Chemscore.Fitness>
7.6225

> <Gold.Chemscore.DG>
-9.9183

> <Gold.Chemscore.ZeroCoef>
-5.4800

> <Gold.Chemscore.Hbond>
3.5953

> <Gold.Chemscore.Metal>
0.0000

> <Gold.Chemscore.Lipo>
23.7005

> <Gold.Chemscore.Internal_Hbond>
0.0000

> <Gold.Chemscore.DEClash>
1.8627

> <Gold.Chemscore.DEInternal>
0.4331

> <Gold.Chemscore.Rot>
4.0403

> <Gold.Chemscore.Internal.Correction>
   9.000000E+99

> <Gold.Chemscore.Hbonds>
donor molecule, donor type, donor heavy atom, donor atom, acceptor molecule, acceptor atom, score
      L1  H    12    26       P1  7948  0.88
      L1  H    14    27       P1 10175  0.96
      L1  H    16    28       P1  8028  0.03
      P1  H  7989  7998       L1    17  0.06
      P1  H  7997  8008       L1     3  0.62
      P1  H  8011  8017       L1     9  0.01
      P1  H 10752 10765       L1     1  0.77

> <Gold.Chemscore.Hbond.Weighted>
-12.0084

> <Gold.Chemscore.Metal.Weighted>
-0.0000

> <Gold.Chemscore.Lipo.Weighted>
-2.7730

> <Gold.Chemscore.Internal_Hbond.Weighted>
0.0000

> <Gold.Chemscore.DEClash.Weighted>
1.8627

> <Gold.Chemscore.DEInternal.Weighted>
0.4331

> <Gold.Chemscore.Rot.Weighted>
10.3431

> <Gold.Chemscore.Internal.Correction.Weighted>
   9.000000E+99

> <Gold.Protein.RotatedTorsions>
[ 6907 6896 6895 6894 ] final   83.93 input  -60.11 | X-H torsion
[ 7974 7965 7964 7962 ] final -113.08 input  175.53 | X-H torsion
[ 8008 7997 7996 7995 ] final  -37.07 input   59.86 | X-H torsion
[ 10167 10162 10161 10158 ] final  -48.03 input  -65.29 | X-H torsion
[ 10718 10713 10712 10709 ] final  115.71 input   66.30 | X-H torsion
[ 10763 10752 10751 10750 ] final  149.95 input  -60.55 | X-H torsion
[ 11005 11000 10999 10996 ] final  139.51 input  -57.11 | X-H torsion

> <Gold.Protein.ActiveResidues>
 VAL166  LYS551  ARG553  GLY616  TRP617  ASP618  TYR619  PRO620  LYS621  CYS622 
 ASP623  PHE694  ASN695  SER759  ASP760  ASP761  ALA762  ILE779  LEU786  VAL792 
 PHE793  MET794  SER795  GLU796  ALA797  LYS798  CYS799  TRP800  GLU811  SER814 

> <Gold.Protein.RotatedAtoms>
  152.5340  134.2820  159.9010 H   0  0  0  0  0  0  0  0  0  0  0  0  # atno 6907 bound_to 6896
  151.2774  133.4219  159.2632 H   0  0  0  0  0  0  0  0  0  0  0  0  # atno 6908 bound_to 6896
  151.0314  134.9557  159.8169 H   0  0  0  0  0  0  0  0  0  0  0  0  # atno 6909 bound_to 6896
  145.1363  140.8753  143.3728 H   0  0  0  0  0  0  0  0  0  0  0  0  # atno 7974 bound_to 7965
  154.4060  140.1614  156.2477 H   0  0  0  0  0  0  0  0  0  0  0  0  # atno 8008 bound_to 7997
  155.9146  140.3425  155.6102 H   0  0  0  0  0  0  0  0  0  0  0  0  # atno 8009 bound_to 7997
  155.7295  140.0778  157.2286 H   0  0  0  0  0  0  0  0  0  0  0  0  # atno 8010 bound_to 7997
  140.6749  143.2758  151.4012 H   0  0  0  0  0  0  0  0  0  0  0  0  # atno 10167 bound_to 10162
  157.6205  131.1016  150.7369 H   0  0  0  0  0  0  0  0  0  0  0  0  # atno 10718 bound_to 10713
  154.0795  135.2860  155.3293 H   0  0  0  0  0  0  0  0  0  0  0  0  # atno 10763 bound_to 10752
  154.6693  135.5305  153.8121 H   0  0  0  0  0  0  0  0  0  0  0  0  # atno 10764 bound_to 10752
  153.0454  135.6553  154.0971 H   0  0  0  0  0  0  0  0  0  0  0  0  # atno 10765 bound_to 10752
  140.0260  134.9374  157.0568 H   0  0  0  0  0  0  0  0  0  0  0  0  # atno 11005 bound_to 11000
  145.0580  139.3128  143.5895 LP  0  0  0  0  0  0  0  0  0  0  0  0  # atno 17320 bound_to 7965
  146.3509  140.0012  142.8676 LP  0  0  0  0  0  0  0  0  0  0  0  0  # atno 17321 bound_to 7965
  139.6036  144.1244  152.2225 LP  0  0  0  0  0  0  0  0  0  0  0  0  # atno 17342 bound_to 10162
  140.0635  144.5837  150.7245 LP  0  0  0  0  0  0  0  0  0  0  0  0  # atno 17343 bound_to 10162
  156.7727  130.4834  149.5415 LP  0  0  0  0  0  0  0  0  0  0  0  0  # atno 17370 bound_to 10713
  156.1348  130.6204  151.0385 LP  0  0  0  0  0  0  0  0  0  0  0  0  # atno 17371 bound_to 10713
  140.4306  134.1784  155.7168 LP  0  0  0  0  0  0  0  0  0  0  0  0  # atno 17394 bound_to 11000
  141.1803  133.8428  157.1282 LP  0  0  0  0  0  0  0  0  0  0  0  0  # atno 17395 bound_to 11000

$$$$
