AV-unprocessed.smi:3125|AV-procd|sdf|11907|dock8
  -GOLD-   2272017293D 1   1.00000     0.00000
 Structure written by MMmdl.
 29 30  0  0  0  0  0  0  0  0  3 V2000
  149.5218  139.9181  154.3535 C   0  0  0  0  0  0  0  0  0  0  0  0
  148.2900  140.6741  154.1187 N   0  0  0  0  0  0  0  0  0  0  0  0
  148.0844  141.9969  154.4166 C   0  0  0  0  0  0  0  0  0  0  0  0
  146.8015  142.2910  154.0374 C   0  0  0  0  0  0  0  0  0  0  0  0
  146.2777  141.1370  153.5224 N   0  3  0  0  0  0  0  0  0  0  0  0
  147.1807  140.1485  153.5682 C   0  0  0  0  0  0  0  0  0  0  0  0
  146.9552  138.7414  153.0860 C   0  0  1  0  0  0  0  0  0  0  0  0
  145.9092  138.0036  153.9432 C   0  0  0  0  0  0  0  0  0  0  0  0
  145.6943  136.5761  153.4167 C   0  0  0  0  0  0  0  0  0  0  0  0
  145.3244  136.5893  151.9242 C   0  0  0  0  0  0  0  0  0  0  0  0
  146.3502  137.3085  151.1378 N   0  3  0  0  0  0  0  0  0  0  0  0
  146.5597  138.7008  151.5947 C   0  0  0  0  0  0  0  0  0  0  0  0
  150.2674  140.5680  154.8132 H   0  0  0  0  0  0  0  0  0  0  0  0
  149.9053  139.5466  153.4029 H   0  0  0  0  0  0  0  0  0  0  0  0
  149.3116  139.0835  155.0232 H   0  0  0  0  0  0  0  0  0  0  0  0
  148.8467  142.6169  154.8669 H   0  0  0  0  0  0  0  0  0  0  0  0
  146.2371  143.2105  154.0946 H   0  0  0  0  0  0  0  0  0  0  0  0
  147.9044  138.2171  153.1941 H   0  0  0  0  0  0  0  0  0  0  0  0
  146.2307  137.9698  154.9851 H   0  0  0  0  0  0  0  0  0  0  0  0
  144.9608  138.5424  153.9268 H   0  0  0  0  0  0  0  0  0  0  0  0
  146.6030  135.9906  153.5635 H   0  0  0  0  0  0  0  0  0  0  0  0
  144.9113  136.0802  153.9913 H   0  0  0  0  0  0  0  0  0  0  0  0
  145.2357  135.5703  151.5467 H   0  0  0  0  0  0  0  0  0  0  0  0
  144.3558  137.0693  151.7768 H   0  0  0  0  0  0  0  0  0  0  0  0
  147.2235  136.8069  151.2172 H   0  0  0  0  0  0  0  0  0  0  0  0
  145.6452  139.2704  151.4225 H   0  0  0  0  0  0  0  0  0  0  0  0
  147.3390  139.1565  150.9829 H   0  0  0  0  0  0  0  0  0  0  0  0
  146.0697  137.3193  150.1671 H   0  0  0  0  0  0  0  0  0  0  0  0
  145.3369  141.0426  153.1604 H   0  0  0  0  0  0  0  0  0  0  0  0
  1  2  1  0  0  0  0
  1 13  1  0  0  0  0
  1 14  1  0  0  0  0
  1 15  1  0  0  0  0
  2  6  1  0  0  0  0
  2  3  1  0  0  0  0
  3  4  2  0  0  0  0
  3 16  1  0  0  0  0
  4  5  1  0  0  0  0
  4 17  1  0  0  0  0
  5  6  2  0  0  0  0
  5 29  1  0  0  0  0
  6  7  1  0  0  0  0
  7 12  1  0  0  0  0
  7  8  1  0  0  0  0
  7 18  1  0  0  0  0
  8  9  1  0  0  0  0
  8 19  1  0  0  0  0
  8 20  1  0  0  0  0
  9 10  1  0  0  0  0
  9 21  1  0  0  0  0
  9 22  1  0  0  0  0
 10 11  1  0  0  0  0
 10 23  1  0  0  0  0
 10 24  1  0  0  0  0
 11 12  1  0  0  0  0
 11 25  1  0  0  0  0
 11 28  1  0  0  0  0
 12 26  1  0  0  0  0
 12 27  1  0  0  0  0
M  CHG  1   5   1
M  CHG  1  11   1
M  END
> <s_m_source_file>
AV-unprocessed.smi

> <i_m_source_file_index>
3125

> <i_lp_mmshare_version>
43012

> <i_f3d_flags>
0

> <s_epik_input>
W0NIM11uMVtjSF1bY0hdbmMxW0NAQEhdMltDSDJdW0NIMl1bQ0gyXVtOSF1bQ0gyXTI=

> <s_epik_cmdline>
J2VwaWtfcHl0aG9uJywgJy1waCcsICc3LjAnLCAnLXRuJywgJzgnLCAnLW1hJywgJzIwMCcsICctbWV0YWxfYmluZGluZycsICctaW1hZScsICc8aW5maWxlLm1hZT4nLCAnLW9tYWUnLCAnPG91dGZpbGUubWFlPic=

> <r_lp_tautomer_probability>
1

> <r_epik_Ionization_Penalty>
0.803551

> <r_epik_Ionization_Penalty_Charging>
0.000747377

> <r_epik_Ionization_Penalty_Neutral>
0.802804

> <r_epik_State_Penalty>
0.360941

> <r_epik_Charging_Adjusted_Penalty>
0.361688

> <i_epik_Tot_Q>
2

> <i_epik_Tot_abs_Q>
2

> <r_epik_Metal_State_Penalty>
3.98724

> <b_epik_Metal_Only>
0

> <s_lp_Force_Field>
OPLS_2005

> <r_lp_Energy>
24.5109

> <b_lp_Chiralities_Consistent>
1

> <s_lp_Variant>
AV-unprocessed.smi:3125-2

> <Gold.Version>
5.8.1

> <Gold.Id.Protein>
6NUR|6NUR_protein|mol2

> <Gold.PLP.Fitness>
40.7201

> <Gold.PLP.PLP>
-25.7920

> <Gold.PLP.part.hbond>
-2.8135

> <Gold.PLP.part.metal>
0.0000

> <Gold.PLP.part.buried>
-1.4750

> <Gold.PLP.part.nonpolar>
-22.8669

> <Gold.PLP.part.repulsive>
0.1320

> <Gold.PLP.ligand.clash>
0.0000

> <Gold.PLP.ligand.torsion>
0.0469

> <Gold.PLP.Chemscore.Hbond>
4.0000

> <Gold.PLP.Chemscore.CHOScore>
1.0000

> <Gold.PLP.Chemscore.Metal>
0.0000

> <Gold.Chemscore.Hbonds>
donor molecule, donor type, donor heavy atom, donor atom, acceptor molecule, acceptor atom, score
      L1  H     5    29       P1 10175  2.00
      L1  H    11    25       P1  7948  2.00
      L1  C     3    16       P1  8028  1.00

> <Gold.PLP.Chemscore.Internal.Correction>
0.0218

> <Gold.Rescore>
     Score         DG    S(hbond)    S(metal)    S(lipo)     H(rot)  DE(clash)    DE(int)     intcor
     14.76     -14.83       1.96        0.00      45.85       1.00       0.03       0.04       ----

> <Gold.Chemscore.Fitness>
14.7613

> <Gold.Chemscore.DG>
-14.8263

> <Gold.Chemscore.ZeroCoef>
-5.4800

> <Gold.Chemscore.Hbond>
1.9587

> <Gold.Chemscore.Metal>
0.0000

> <Gold.Chemscore.Lipo>
45.8485

> <Gold.Chemscore.Internal_Hbond>
0.0000

> <Gold.Chemscore.DEClash>
0.0275

> <Gold.Chemscore.DEInternal>
0.0376

> <Gold.Chemscore.Rot>
1.0000

> <Gold.Chemscore.Internal.Correction>
   9.000000E+99

> <Gold.Chemscore.Hbonds>
donor molecule, donor type, donor heavy atom, donor atom, acceptor molecule, acceptor atom, score
      L1  H     5    29       P1 10175  0.35
      L1  H    11    25       P1  7948  1.00

> <Gold.Chemscore.Hbond.Weighted>
-6.5421

> <Gold.Chemscore.Metal.Weighted>
-0.0000

> <Gold.Chemscore.Lipo.Weighted>
-5.3643

> <Gold.Chemscore.Internal_Hbond.Weighted>
0.0000

> <Gold.Chemscore.DEClash.Weighted>
0.0275

> <Gold.Chemscore.DEInternal.Weighted>
0.0376

> <Gold.Chemscore.Rot.Weighted>
2.5600

> <Gold.Chemscore.Internal.Correction.Weighted>
   9.000000E+99

> <Gold.Protein.RotatedTorsions>
[ 6907 6896 6895 6894 ] final   68.55 input  -60.11 | X-H torsion
[ 7974 7965 7964 7962 ] final   26.79 input  175.53 | X-H torsion
[ 8008 7997 7996 7995 ] final  164.81 input   59.86 | X-H torsion
[ 10167 10162 10161 10158 ] final    1.68 input  -65.29 | X-H torsion
[ 10718 10713 10712 10709 ] final  -19.64 input   66.30 | X-H torsion
[ 10763 10752 10751 10750 ] final  100.91 input  -60.55 | X-H torsion
[ 11005 11000 10999 10996 ] final   97.78 input  -57.11 | X-H torsion

> <Gold.Protein.ActiveResidues>
 VAL166  LYS551  ARG553  GLY616  TRP617  ASP618  TYR619  PRO620  LYS621  CYS622 
 ASP623  PHE694  ASN695  SER759  ASP760  ASP761  ALA762  ILE779  LEU786  VAL792 
 PHE793  MET794  SER795  GLU796  ALA797  LYS798  CYS799  TRP800  GLU811  SER814 

> <Gold.Protein.RotatedAtoms>
  152.4628  134.5145  159.9763 H   0  0  0  0  0  0  0  0  0  0  0  0  # atno 6907 bound_to 6896
  151.5190  133.3464  159.2906 H   0  0  0  0  0  0  0  0  0  0  0  0  # atno 6908 bound_to 6896
  150.8598  134.7976  159.7136 H   0  0  0  0  0  0  0  0  0  0  0  0  # atno 6909 bound_to 6896
  146.1819  139.7280  142.8894 H   0  0  0  0  0  0  0  0  0  0  0  0  # atno 7974 bound_to 7965
  156.1850  140.1687  156.8202 H   0  0  0  0  0  0  0  0  0  0  0  0  # atno 8008 bound_to 7997
  154.5404  140.0738  156.8532 H   0  0  0  0  0  0  0  0  0  0  0  0  # atno 8009 bound_to 7997
  155.3226  140.3374  155.4243 H   0  0  0  0  0  0  0  0  0  0  0  0  # atno 8010 bound_to 7997
  140.6671  143.7149  150.7849 H   0  0  0  0  0  0  0  0  0  0  0  0  # atno 10167 bound_to 10162
  156.5429  130.4682  149.6490 H   0  0  0  0  0  0  0  0  0  0  0  0  # atno 10718 bound_to 10713
  153.3200  135.4062  155.1408 H   0  0  0  0  0  0  0  0  0  0  0  0  # atno 10763 bound_to 10752
  154.8598  135.3585  154.5609 H   0  0  0  0  0  0  0  0  0  0  0  0  # atno 10764 bound_to 10752
  153.6042  135.7070  153.5431 H   0  0  0  0  0  0  0  0  0  0  0  0  # atno 10765 bound_to 10752
  139.8774  134.9017  156.4358 H   0  0  0  0  0  0  0  0  0  0  0  0  # atno 11005 bound_to 11000
  145.4052  141.0390  143.3048 LP  0  0  0  0  0  0  0  0  0  0  0  0  # atno 17320 bound_to 7965
  144.8329  139.5598  143.6935 LP  0  0  0  0  0  0  0  0  0  0  0  0  # atno 17321 bound_to 7965
  140.0828  143.4952  152.2521 LP  0  0  0  0  0  0  0  0  0  0  0  0  # atno 17342 bound_to 10162
  139.5924  144.7555  151.3367 LP  0  0  0  0  0  0  0  0  0  0  0  0  # atno 17343 bound_to 10162
  156.2955  130.7148  151.2007 LP  0  0  0  0  0  0  0  0  0  0  0  0  # atno 17370 bound_to 10713
  157.7402  131.0520  150.5182 LP  0  0  0  0  0  0  0  0  0  0  0  0  # atno 17371 bound_to 10713
  140.9034  133.7763  155.9707 LP  0  0  0  0  0  0  0  0  0  0  0  0  # atno 17394 bound_to 11000
  140.8625  134.2823  157.5228 LP  0  0  0  0  0  0  0  0  0  0  0  0  # atno 17395 bound_to 11000

$$$$
