AV-unprocessed.smi:3276|AV-procd|sdf|12535|dock4
  -GOLD-   2272018453D 1   1.00000     0.00000
 Structure written by MMmdl.
 39 40  0  0  0  0  0  0  0  0  1 V2000
  146.7325  140.6277  154.6072 C   0  0  0  0  0  0  0  0  0  0  0  0
  148.0912  139.9604  154.6206 C   0  0  0  0  0  0  0  0  0  0  0  0
  149.2847  140.7127  154.6404 C   0  0  0  0  0  0  0  0  0  0  0  0
  150.4964  140.1165  154.6486 N   0  0  0  0  0  0  0  0  0  0  0  0
  150.5114  138.7634  154.6359 C   0  0  0  0  0  0  0  0  0  0  0  0
  151.8819  138.1101  154.6386 C   0  0  0  0  0  0  0  0  0  0  0  0
  149.3155  138.0012  154.6141 C   0  0  0  0  0  0  0  0  0  0  0  0
  149.3709  136.5984  154.6020 N   0  0  0  0  0  0  0  0  0  0  0  0
  149.1077  135.8268  155.8111 C   0  0  0  0  0  0  0  0  0  0  0  0
  149.1951  136.6850  157.0814 C   0  0  0  0  0  0  0  0  0  0  0  0
  148.4149  136.0770  158.0963 O   0  0  0  0  0  0  0  0  0  0  0  0
  148.5242  136.7356  159.3476 C   0  0  0  0  0  0  0  0  0  0  0  0
  147.5079  136.1422  160.3330 C   0  0  1  0  0  0  0  0  0  0  0  0
  147.7897  134.7014  160.7695 C   0  0  0  0  0  0  0  0  0  0  0  0
  147.1745  134.6742  162.1504 C   0  0  0  0  0  0  0  0  0  0  0  0
  147.5178  136.0686  162.6639 C   0  0  0  0  0  0  0  0  0  0  0  0
  147.4407  136.9207  161.5259 O   0  0  0  0  0  0  0  0  0  0  0  0
  148.1038  138.6093  154.6083 N   0  0  0  0  0  0  0  0  0  0  0  0
  146.8192  141.6983  154.7941 H   0  0  0  0  0  0  0  0  0  0  0  0
  146.0893  140.1997  155.3768 H   0  0  0  0  0  0  0  0  0  0  0  0
  146.2523  140.4870  153.6386 H   0  0  0  0  0  0  0  0  0  0  0  0
  149.2702  141.7927  154.6492 H   0  0  0  0  0  0  0  0  0  0  0  0
  152.0071  137.4897  153.7506 H   0  0  0  0  0  0  0  0  0  0  0  0
  151.9997  137.4795  155.5203 H   0  0  0  0  0  0  0  0  0  0  0  0
  152.6797  138.8539  154.6462 H   0  0  0  0  0  0  0  0  0  0  0  0
  149.2627  136.1255  153.7164 H   0  0  0  0  0  0  0  0  0  0  0  0
  148.1118  135.3908  155.7308 H   0  0  0  0  0  0  0  0  0  0  0  0
  149.8022  134.9883  155.8729 H   0  0  0  0  0  0  0  0  0  0  0  0
  150.2333  136.7471  157.4103 H   0  0  0  0  0  0  0  0  0  0  0  0
  148.8542  137.7034  156.8889 H   0  0  0  0  0  0  0  0  0  0  0  0
  149.5360  136.6298  159.7419 H   0  0  0  0  0  0  0  0  0  0  0  0
  148.3307  137.8019  159.2229 H   0  0  0  0  0  0  0  0  0  0  0  0
  146.5148  136.1808  159.8835 H   0  0  0  0  0  0  0  0  0  0  0  0
  147.3602  133.9610  160.0943 H   0  0  0  0  0  0  0  0  0  0  0  0
  148.8613  134.5112  160.8434 H   0  0  0  0  0  0  0  0  0  0  0  0
  146.0926  134.5538  162.0791 H   0  0  0  0  0  0  0  0  0  0  0  0
  147.5698  133.8777  162.7815 H   0  0  0  0  0  0  0  0  0  0  0  0
  146.8505  136.4010  163.4593 H   0  0  0  0  0  0  0  0  0  0  0  0
  148.5395  136.0902  163.0455 H   0  0  0  0  0  0  0  0  0  0  0  0
  1  2  1  0  0  0  0
  1 19  1  0  0  0  0
  1 20  1  0  0  0  0
  1 21  1  0  0  0  0
  2 18  1  0  0  0  0
  2  3  2  0  0  0  0
  3  4  1  0  0  0  0
  3 22  1  0  0  0  0
  4  5  2  0  0  0  0
  5  6  1  0  0  0  0
  5  7  1  0  0  0  0
  6 23  1  0  0  0  0
  6 24  1  0  0  0  0
  6 25  1  0  0  0  0
  7  8  1  0  0  0  0
  7 18  2  0  0  0  0
  8  9  1  0  0  0  0
  8 26  1  0  0  0  0
  9 10  1  0  0  0  0
  9 27  1  0  0  0  0
  9 28  1  0  0  0  0
 10 11  1  0  0  0  0
 10 29  1  0  0  0  0
 10 30  1  0  0  0  0
 11 12  1  0  0  0  0
 12 13  1  0  0  0  0
 12 31  1  0  0  0  0
 12 32  1  0  0  0  0
 13 17  1  0  0  0  0
 13 14  1  0  0  0  0
 13 33  1  0  0  0  0
 14 15  1  0  0  0  0
 14 34  1  0  0  0  0
 14 35  1  0  0  0  0
 15 16  1  0  0  0  0
 15 36  1  0  0  0  0
 15 37  1  0  0  0  0
 16 17  1  0  0  0  0
 16 38  1  0  0  0  0
 16 39  1  0  0  0  0
M  END
> <s_m_source_file>
AV-unprocessed.smi

> <i_m_source_file_index>
3276

> <i_lp_mmshare_version>
43012

> <i_f3d_flags>
0

> <s_epik_input>
W0NIM11jMVtjSF1uYyhbQ0gzXSljKG4xKVtOSF1bQ0gyXVtDSDJdT1tDSDJdW0NAQEhdMltDSDJdW0NIMl1bQ0gyXU8y

> <s_epik_cmdline>
J2VwaWtfcHl0aG9uJywgJy1waCcsICc3LjAnLCAnLXRuJywgJzgnLCAnLW1hJywgJzIwMCcsICctbWV0YWxfYmluZGluZycsICctaW1hZScsICc8aW5maWxlLm1hZT4nLCAnLW9tYWUnLCAnPG91dGZpbGUubWFlPic=

> <r_lp_tautomer_probability>
1

> <r_epik_Ionization_Penalty>
0.000506

> <r_epik_Ionization_Penalty_Charging>
0

> <r_epik_Ionization_Penalty_Neutral>
0.000506

> <r_epik_State_Penalty>
-0

> <r_epik_Charging_Adjusted_Penalty>
0

> <i_epik_Tot_Q>
0

> <i_epik_Tot_abs_Q>
0

> <r_epik_Metal_State_Penalty>
-0

> <b_epik_Metal_Only>
0

> <s_lp_Force_Field>
OPLS_2005

> <r_lp_Energy>
26.2022

> <b_lp_Chiralities_Consistent>
1

> <s_lp_Variant>
AV-unprocessed.smi:3276-2

> <Gold.Version>
5.8.1

> <Gold.Id.Protein>
6NUR|6NUR_protein|mol2

> <Gold.PLP.Fitness>
42.7324

> <Gold.PLP.PLP>
-33.4087

> <Gold.PLP.part.hbond>
-4.0000

> <Gold.PLP.part.metal>
0.0000

> <Gold.PLP.part.buried>
-5.0780

> <Gold.PLP.part.nonpolar>
-24.9924

> <Gold.PLP.part.repulsive>
0.2071

> <Gold.PLP.ligand.clash>
0.0000

> <Gold.PLP.ligand.torsion>
1.0188

> <Gold.PLP.Chemscore.Hbond>
3.7680

> <Gold.PLP.Chemscore.CHOScore>
0.0000

> <Gold.PLP.Chemscore.Metal>
0.0000

> <Gold.Chemscore.Hbonds>
donor molecule, donor type, donor heavy atom, donor atom, acceptor molecule, acceptor atom, score
      L1  H     8    26       P1  7948  0.99
      P1  H  6931  6943       L1    17  0.81
      P1  H  6934  6947       L1    17  0.53
      P1  H  7989  7998       L1     4  1.00

> <Gold.PLP.Chemscore.Internal.Correction>
0.0573

> <Gold.Rescore>
     Score         DG    S(hbond)    S(metal)    S(lipo)     H(rot)  DE(clash)    DE(int)     intcor
     17.57     -18.69       2.74        0.00      71.63       1.68       0.01       1.11       ----

> <Gold.Chemscore.Fitness>
17.5667

> <Gold.Chemscore.DG>
-18.6910

> <Gold.Chemscore.ZeroCoef>
-5.4800

> <Gold.Chemscore.Hbond>
2.7355

> <Gold.Chemscore.Metal>
0.0000

> <Gold.Chemscore.Lipo>
71.6266

> <Gold.Chemscore.Internal_Hbond>
0.0000

> <Gold.Chemscore.DEClash>
0.0149

> <Gold.Chemscore.DEInternal>
1.1094

> <Gold.Chemscore.Rot>
1.6820

> <Gold.Chemscore.Internal.Correction>
   9.000000E+99

> <Gold.Chemscore.Hbonds>
donor molecule, donor type, donor heavy atom, donor atom, acceptor molecule, acceptor atom, score
      L1  H     8    26       P1  7948  0.80
      P1  H  6931  6943       L1    17  0.22
      P1  H  6934  6947       L1    17  0.34
      P1  H  7989  7998       L1     4  0.72

> <Gold.Chemscore.Hbond.Weighted>
-9.1365

> <Gold.Chemscore.Metal.Weighted>
-0.0000

> <Gold.Chemscore.Lipo.Weighted>
-8.3803

> <Gold.Chemscore.Internal_Hbond.Weighted>
0.0000

> <Gold.Chemscore.DEClash.Weighted>
0.0149

> <Gold.Chemscore.DEInternal.Weighted>
1.1094

> <Gold.Chemscore.Rot.Weighted>
4.3058

> <Gold.Chemscore.Internal.Correction.Weighted>
   9.000000E+99

> <Gold.Protein.RotatedTorsions>
[ 6907 6896 6895 6894 ] final  -77.77 input  -60.11 | X-H torsion
[ 7974 7965 7964 7962 ] final -149.91 input  175.53 | X-H torsion
[ 8008 7997 7996 7995 ] final   31.10 input   59.86 | X-H torsion
[ 10167 10162 10161 10158 ] final   56.51 input  -65.29 | X-H torsion
[ 10718 10713 10712 10709 ] final   92.16 input   66.30 | X-H torsion
[ 10763 10752 10751 10750 ] final  -36.39 input  -60.55 | X-H torsion
[ 11005 11000 10999 10996 ] final -114.37 input  -57.11 | X-H torsion

> <Gold.Protein.ActiveResidues>
 VAL166  LYS551  ARG553  GLY616  TRP617  ASP618  TYR619  PRO620  LYS621  CYS622 
 ASP623  PHE694  ASN695  SER759  ASP760  ASP761  ALA762  ILE779  LEU786  VAL792 
 PHE793  MET794  SER795  GLU796  ALA797  LYS798  CYS799  TRP800  GLU811  SER814 

> <Gold.Protein.RotatedAtoms>
  150.6990  134.4372  159.5275 H   0  0  0  0  0  0  0  0  0  0  0  0  # atno 6907 bound_to 6896
  152.2088  134.8518  160.0509 H   0  0  0  0  0  0  0  0  0  0  0  0  # atno 6908 bound_to 6896
  151.9410  133.3603  159.4002 H   0  0  0  0  0  0  0  0  0  0  0  0  # atno 6909 bound_to 6896
  144.7939  140.5002  143.5753 H   0  0  0  0  0  0  0  0  0  0  0  0  # atno 7974 bound_to 7965
  155.1010  140.3229  155.4547 H   0  0  0  0  0  0  0  0  0  0  0  0  # atno 8008 bound_to 7997
  156.2717  140.2061  156.6083 H   0  0  0  0  0  0  0  0  0  0  0  0  # atno 8009 bound_to 7997
  154.6829  140.0524  157.0271 H   0  0  0  0  0  0  0  0  0  0  0  0  # atno 8010 bound_to 7997
  140.2079  144.3919  150.6501 H   0  0  0  0  0  0  0  0  0  0  0  0  # atno 10167 bound_to 10162
  157.6959  131.0433  150.3839 H   0  0  0  0  0  0  0  0  0  0  0  0  # atno 10718 bound_to 10713
  153.8790  135.6823  153.4768 H   0  0  0  0  0  0  0  0  0  0  0  0  # atno 10763 bound_to 10752
  153.1244  135.4725  154.9246 H   0  0  0  0  0  0  0  0  0  0  0  0  # atno 10764 bound_to 10752
  154.7678  135.3229  154.8203 H   0  0  0  0  0  0  0  0  0  0  0  0  # atno 10765 bound_to 10752
  141.0556  133.9618  157.2760 H   0  0  0  0  0  0  0  0  0  0  0  0  # atno 11005 bound_to 11000
  145.5723  139.1484  143.3281 LP  0  0  0  0  0  0  0  0  0  0  0  0  # atno 17320 bound_to 7965
  146.2201  140.5856  142.9021 LP  0  0  0  0  0  0  0  0  0  0  0  0  # atno 17321 bound_to 7965
  140.6344  143.2192  151.6426 LP  0  0  0  0  0  0  0  0  0  0  0  0  # atno 17342 bound_to 10162
  139.5191  144.3263  152.0866 LP  0  0  0  0  0  0  0  0  0  0  0  0  # atno 17343 bound_to 10162
  156.4250  130.3960  149.6799 LP  0  0  0  0  0  0  0  0  0  0  0  0  # atno 17370 bound_to 10713
  156.4036  130.7687  151.2696 LP  0  0  0  0  0  0  0  0  0  0  0  0  # atno 17371 bound_to 10713
  139.9387  135.0193  156.8640 LP  0  0  0  0  0  0  0  0  0  0  0  0  # atno 17394 bound_to 11000
  140.5970  134.0207  155.7522 LP  0  0  0  0  0  0  0  0  0  0  0  0  # atno 17395 bound_to 11000

$$$$
