AV-unprocessed.smi:3028|AV-procd|sdf|11518|dock8
  -GOLD-   2272016453D 1   1.00000     0.00000
 Structure written by MMmdl.
 48 49  0  0  0  0  0  0  0  0  2 V2000
  144.5627  132.4377  148.9200 C   0  0  0  0  0  0  0  0  0  0  0  0
  144.7715  132.9868  150.3016 C   0  0  0  0  0  0  0  0  0  0  0  0
  143.7973  133.5375  151.1815 C   0  0  0  0  0  0  0  0  0  0  0  0
  144.3121  133.9300  152.3349 N   0  0  0  0  0  0  0  0  0  0  0  0
  145.6299  133.6463  152.2351 N   0  0  0  0  0  0  0  0  0  0  0  0
  146.5315  133.9328  153.3455 C   0  0  1  0  0  0  0  0  0  0  0  0
  145.9328  133.3902  154.6572 C   0  0  0  0  0  0  0  0  0  0  0  0
  147.9647  133.4078  153.0608 C   0  0  2  0  0  0  0  0  0  0  0  0
  148.2513  132.0538  153.7307 C   0  0  0  0  0  0  0  0  0  0  0  0
  148.9719  134.3888  153.5270 N   0  3  0  0  0  0  0  0  0  0  0  0
  148.9411  134.6756  154.9767 C   0  0  0  0  0  0  0  0  0  0  0  0
  149.5207  136.0565  155.3089 C   0  0  0  0  0  0  0  0  0  0  0  0
  149.7218  136.3728  156.4805 O   0  0  0  0  0  0  0  0  0  0  0  0
  149.8024  136.9101  154.3102 N   0  0  0  0  0  0  0  0  0  0  0  0
  150.3547  138.2612  154.4042 C   0  0  0  0  0  0  0  0  0  0  0  0
  151.6963  138.2276  155.1517 C   0  0  0  0  0  0  0  0  0  0  0  0
  152.2046  139.6538  155.4193 C   0  0  0  0  0  0  0  0  0  0  0  0
  151.2254  140.3923  156.1418 O   0  0  0  0  0  0  0  0  0  0  0  0
  150.0066  140.5496  155.4230 C   0  0  0  0  0  0  0  0  0  0  0  0
  149.3731  139.1748  155.1537 C   0  0  0  0  0  0  0  0  0  0  0  0
  145.9332  133.0811  151.0139 C   0  0  0  0  0  0  0  0  0  0  0  0
  143.5099  132.4399  148.6366 H   0  0  0  0  0  0  0  0  0  0  0  0
  144.9145  131.4091  148.8389 H   0  0  0  0  0  0  0  0  0  0  0  0
  145.0978  133.0213  148.1709 H   0  0  0  0  0  0  0  0  0  0  0  0
  142.7368  133.6608  151.0181 H   0  0  0  0  0  0  0  0  0  0  0  0
  146.5826  135.0191  153.4372 H   0  0  0  0  0  0  0  0  0  0  0  0
  146.4904  133.7339  155.5280 H   0  0  0  0  0  0  0  0  0  0  0  0
  145.9260  132.2998  154.6736 H   0  0  0  0  0  0  0  0  0  0  0  0
  144.9043  133.7294  154.7854 H   0  0  0  0  0  0  0  0  0  0  0  0
  148.0749  133.2676  151.9838 H   0  0  0  0  0  0  0  0  0  0  0  0
  147.6113  131.2647  153.3370 H   0  0  0  0  0  0  0  0  0  0  0  0
  148.0997  132.1022  154.8097 H   0  0  0  0  0  0  0  0  0  0  0  0
  149.2814  131.7426  153.5538 H   0  0  0  0  0  0  0  0  0  0  0  0
  149.8894  134.0323  153.3003 H   0  0  0  0  0  0  0  0  0  0  0  0
  147.9105  134.6191  155.3295 H   0  0  0  0  0  0  0  0  0  0  0  0
  149.5192  133.9149  155.5018 H   0  0  0  0  0  0  0  0  0  0  0  0
  149.6131  136.5831  153.3733 H   0  0  0  0  0  0  0  0  0  0  0  0
  150.5319  138.6957  153.4210 H   0  0  0  0  0  0  0  0  0  0  0  0
  151.5802  137.7061  156.1031 H   0  0  0  0  0  0  0  0  0  0  0  0
  152.4361  137.6689  154.5769 H   0  0  0  0  0  0  0  0  0  0  0  0
  153.1228  139.6198  156.0056 H   0  0  0  0  0  0  0  0  0  0  0  0
  152.4431  140.1634  154.4845 H   0  0  0  0  0  0  0  0  0  0  0  0
  149.3278  141.1651  156.0133 H   0  0  0  0  0  0  0  0  0  0  0  0
  150.1891  141.0833  154.4891 H   0  0  0  0  0  0  0  0  0  0  0  0
  148.4527  139.2933  154.5805 H   0  0  0  0  0  0  0  0  0  0  0  0
  149.0923  138.7197  156.1049 H   0  0  0  0  0  0  0  0  0  0  0  0
  146.9408  132.7904  150.7550 H   0  0  0  0  0  0  0  0  0  0  0  0
  148.8375  135.2564  153.0278 H   0  0  0  0  0  0  0  0  0  0  0  0
  1  2  1  0  0  0  0
  1 22  1  0  0  0  0
  1 23  1  0  0  0  0
  1 24  1  0  0  0  0
  2 21  2  0  0  0  0
  2  3  1  0  0  0  0
  3  4  2  0  0  0  0
  3 25  1  0  0  0  0
  4  5  1  0  0  0  0
  5  6  1  0  0  0  0
  5 21  1  0  0  0  0
  6  7  1  0  0  0  0
  6  8  1  0  0  0  0
  6 26  1  0  0  0  0
  7 27  1  0  0  0  0
  7 28  1  0  0  0  0
  7 29  1  0  0  0  0
  8  9  1  0  0  0  0
  8 10  1  0  0  0  0
  8 30  1  0  0  0  0
  9 31  1  0  0  0  0
  9 32  1  0  0  0  0
  9 33  1  0  0  0  0
 10 11  1  0  0  0  0
 10 34  1  0  0  0  0
 10 48  1  0  0  0  0
 11 12  1  0  0  0  0
 11 35  1  0  0  0  0
 11 36  1  0  0  0  0
 12 13  2  0  0  0  0
 12 14  1  0  0  0  0
 14 15  1  0  0  0  0
 14 37  1  0  0  0  0
 15 20  1  0  0  0  0
 15 16  1  0  0  0  0
 15 38  1  0  0  0  0
 16 17  1  0  0  0  0
 16 39  1  0  0  0  0
 16 40  1  0  0  0  0
 17 18  1  0  0  0  0
 17 41  1  0  0  0  0
 17 42  1  0  0  0  0
 18 19  1  0  0  0  0
 19 20  1  0  0  0  0
 19 43  1  0  0  0  0
 19 44  1  0  0  0  0
 20 45  1  0  0  0  0
 20 46  1  0  0  0  0
 21 47  1  0  0  0  0
M  CHG  1  10   1
M  END
> <s_m_source_file>
AV-unprocessed.smi

> <i_m_source_file_index>
3028

> <i_lp_mmshare_version>
43012

> <i_f3d_flags>
0

> <s_epik_input>
W0NIM11jMVtjSF1ubihbY0hdMSlbQ0BIXShbQ0gzXSlbQ0BIXShbQ0gzXSlbTkhdW0NIMl1DKD1PKVtOSF1bQ0hdMltDSDJdW0NIMl1PW0NIMl1bQ0gyXTI=

> <s_epik_cmdline>
J2VwaWtfcHl0aG9uJywgJy1waCcsICc3LjAnLCAnLXRuJywgJzgnLCAnLW1hJywgJzIwMCcsICctbWV0YWxfYmluZGluZycsICctaW1hZScsICc8aW5maWxlLm1hZT4nLCAnLW9tYWUnLCAnPG91dGZpbGUubWFlPic=

> <r_lp_tautomer_probability>
1

> <r_epik_Ionization_Penalty>
0.151514

> <r_epik_Ionization_Penalty_Charging>
0.151494

> <r_epik_Ionization_Penalty_Neutral>
1.95502e-05

> <r_epik_State_Penalty>
0.141395

> <r_epik_Charging_Adjusted_Penalty>
0.292889

> <i_epik_Tot_Q>
1

> <i_epik_Tot_abs_Q>
1

> <r_epik_Metal_State_Penalty>
0.141632

> <b_epik_Metal_Only>
0

> <s_lp_Force_Field>
OPLS_2005

> <r_lp_Energy>
16.7547

> <b_lp_Chiralities_Consistent>
1

> <s_lp_Variant>
AV-unprocessed.smi:3028-2

> <Gold.Version>
5.8.1

> <Gold.Id.Protein>
6NUR|6NUR_protein|mol2

> <Gold.PLP.Fitness>
45.5692

> <Gold.PLP.PLP>
-34.8591

> <Gold.PLP.part.hbond>
-2.6138

> <Gold.PLP.part.metal>
0.0000

> <Gold.PLP.part.buried>
-2.4162

> <Gold.PLP.part.nonpolar>
-30.8906

> <Gold.PLP.part.repulsive>
0.1578

> <Gold.PLP.ligand.clash>
0.0000

> <Gold.PLP.ligand.torsion>
1.4070

> <Gold.PLP.Chemscore.Hbond>
3.0000

> <Gold.PLP.Chemscore.CHOScore>
1.4635

> <Gold.PLP.Chemscore.Metal>
0.0000

> <Gold.Chemscore.Hbonds>
donor molecule, donor type, donor heavy atom, donor atom, acceptor molecule, acceptor atom, score
      L1  H    10    48       P1  7948  1.79
      L1  H    14    37       P1  7948  1.00
      L1  C     3    25       P1 10186  1.00
      L1  C    21    47       P1 10747  0.22

> <Gold.PLP.Chemscore.Internal.Correction>
0.1336

> <Gold.Rescore>
     Score         DG    S(hbond)    S(metal)    S(lipo)     H(rot)  DE(clash)    DE(int)     intcor
     13.07     -15.81       1.77        0.00      81.29       1.99       0.14       2.60       ----

> <Gold.Chemscore.Fitness>
13.0660

> <Gold.Chemscore.DG>
-15.8076

> <Gold.Chemscore.ZeroCoef>
-5.4800

> <Gold.Chemscore.Hbond>
1.7696

> <Gold.Chemscore.Metal>
0.0000

> <Gold.Chemscore.Lipo>
81.2891

> <Gold.Chemscore.Internal_Hbond>
0.0000

> <Gold.Chemscore.DEClash>
0.1401

> <Gold.Chemscore.DEInternal>
2.6016

> <Gold.Chemscore.Rot>
1.9897

> <Gold.Chemscore.Internal.Correction>
   9.000000E+99

> <Gold.Chemscore.Hbonds>
donor molecule, donor type, donor heavy atom, donor atom, acceptor molecule, acceptor atom, score
      L1  H    10    48       P1  7948  0.42
      L1  H    14    37       P1  7948  0.55

> <Gold.Chemscore.Hbond.Weighted>
-5.9104

> <Gold.Chemscore.Metal.Weighted>
-0.0000

> <Gold.Chemscore.Lipo.Weighted>
-9.5108

> <Gold.Chemscore.Internal_Hbond.Weighted>
0.0000

> <Gold.Chemscore.DEClash.Weighted>
0.1401

> <Gold.Chemscore.DEInternal.Weighted>
2.6016

> <Gold.Chemscore.Rot.Weighted>
5.0936

> <Gold.Chemscore.Internal.Correction.Weighted>
   9.000000E+99

> <Gold.Protein.RotatedTorsions>
[ 6907 6896 6895 6894 ] final   41.70 input  -60.11 | X-H torsion
[ 7974 7965 7964 7962 ] final -176.44 input  175.53 | X-H torsion
[ 8008 7997 7996 7995 ] final   49.60 input   59.86 | X-H torsion
[ 10167 10162 10161 10158 ] final  -47.37 input  -65.29 | X-H torsion
[ 10718 10713 10712 10709 ] final -133.52 input   66.30 | X-H torsion
[ 10763 10752 10751 10750 ] final  119.51 input  -60.55 | X-H torsion
[ 11005 11000 10999 10996 ] final -107.43 input  -57.11 | X-H torsion

> <Gold.Protein.ActiveResidues>
 VAL166  LYS551  ARG553  GLY616  TRP617  ASP618  TYR619  PRO620  LYS621  CYS622 
 ASP623  PHE694  ASN695  SER759  ASP760  ASP761  ALA762  ILE779  LEU786  VAL792 
 PHE793  MET794  SER795  GLU796  ALA797  LYS798  CYS799  TRP800  GLU811  SER814 

> <Gold.Protein.RotatedAtoms>
  152.1986  134.8608  160.0510 H   0  0  0  0  0  0  0  0  0  0  0  0  # atno 6907 bound_to 6896
  151.9470  133.3650  159.3994 H   0  0  0  0  0  0  0  0  0  0  0  0  # atno 6908 bound_to 6896
  150.6950  134.4303  159.5289 H   0  0  0  0  0  0  0  0  0  0  0  0  # atno 6909 bound_to 6896
  144.7127  140.1169  143.6407 H   0  0  0  0  0  0  0  0  0  0  0  0  # atno 7974 bound_to 7965
  155.4048  140.3439  155.4259 H   0  0  0  0  0  0  0  0  0  0  0  0  # atno 8008 bound_to 7997
  156.1483  140.1563  156.8844 H   0  0  0  0  0  0  0  0  0  0  0  0  # atno 8009 bound_to 7997
  154.5029  140.0810  156.7817 H   0  0  0  0  0  0  0  0  0  0  0  0  # atno 8010 bound_to 7997
  140.6778  143.2787  151.3918 H   0  0  0  0  0  0  0  0  0  0  0  0  # atno 10167 bound_to 10162
  156.2458  130.7123  151.1003 H   0  0  0  0  0  0  0  0  0  0  0  0  # atno 10718 bound_to 10713
  153.5841  135.3478  155.2886 H   0  0  0  0  0  0  0  0  0  0  0  0  # atno 10763 bound_to 10752
  154.8663  135.4189  154.2588 H   0  0  0  0  0  0  0  0  0  0  0  0  # atno 10764 bound_to 10752
  153.3381  135.7048  153.6961 H   0  0  0  0  0  0  0  0  0  0  0  0  # atno 10765 bound_to 10752
  141.0954  133.8980  157.1974 H   0  0  0  0  0  0  0  0  0  0  0  0  # atno 11005 bound_to 11000
  145.9405  139.2666  143.1271 LP  0  0  0  0  0  0  0  0  0  0  0  0  # atno 17320 bound_to 7965
  145.9429  140.8966  143.0298 LP  0  0  0  0  0  0  0  0  0  0  0  0  # atno 17321 bound_to 7965
  139.6080  144.1156  152.2269 LP  0  0  0  0  0  0  0  0  0  0  0  0  # atno 17342 bound_to 10162
  140.0562  144.5893  150.7298 LP  0  0  0  0  0  0  0  0  0  0  0  0  # atno 17343 bound_to 10162
  157.7194  131.0690  150.6196 LP  0  0  0  0  0  0  0  0  0  0  0  0  # atno 17370 bound_to 10713
  156.6273  130.4422  149.5800 LP  0  0  0  0  0  0  0  0  0  0  0  0  # atno 17371 bound_to 10713
  139.9790  135.0104  156.9703 LP  0  0  0  0  0  0  0  0  0  0  0  0  # atno 17394 bound_to 11000
  140.5152  134.0963  155.7279 LP  0  0  0  0  0  0  0  0  0  0  0  0  # atno 17395 bound_to 11000

$$$$
