#       Name:                AV-unprocessed.smi:2568
#       Creating user name   scv26
#       Creation time:       Fri Mar 27 14:11:27 2020


#       File generated by GOLD software.
#

@<TRIPOS>MOLECULE
AV-unprocessed.smi:2568
    29    30     1
SMALL
NO_CHARGES


@<TRIPOS>ATOM
      1 ****        -3.8872  -1.3921   0.3024 C.3            1 S1                 0.0000
      2 ****        -2.3966  -1.3953   0.3419 C.2            1 S1                 0.0000
      3 ****        -1.6918  -2.5233   0.4433 N.pl3          1 S1                 0.0000
      4 ****        -0.3747  -2.2281   0.4482 N.2            1 S1                 0.0000
      5 ****        -0.3864  -0.8978   0.3652 C.2            1 S1                 0.0000
      6 ****         0.8932  -0.1225   0.2981 C.3            1 S1                 0.0000
      7 ****         1.3491   0.1207  -1.1542 C.3            1 S1                 0.0000
      8 ****         2.5439   0.9637  -1.1759 N.3            1 S1                 0.0000
      9 ****         2.3215   2.2138  -0.4506 C.3            1 S1                 0.0000
     10 ****         1.8353   1.9240   0.9813 C.3            1 S1                 0.0000
     11 ****         0.6542   1.1309   0.9345 O.3            1 S1                 0.0000
     12 ****        -1.6236  -0.3172   0.2769 N.2            1 S1                 0.0000
     13 ****        -2.0463  -3.4673   0.5017 H              1 S1                 0.0000
     14 ****        -4.2664  -0.3697   0.2902 H              1 S1                 0.0000
     15 ****        -4.2869  -1.9011   1.1797 H              1 S1                 0.0000
     16 ****        -4.2387  -1.9050  -0.5930 H              1 S1                 0.0000
     17 ****         1.6625  -0.6673   0.8496 H              1 S1                 0.0000
     18 ****         1.5523  -0.8291  -1.6493 H              1 S1                 0.0000
     19 ****         0.5477   0.6026  -1.7158 H              1 S1                 0.0000
     20 ****         2.7983   1.1686  -2.1369 H              1 S1                 0.0000
     21 ****         3.2408   2.7990  -0.4232 H              1 S1                 0.0000
     22 ****         1.5798   2.8192  -0.9732 H              1 S1                 0.0000
     23 ****         2.6075   1.4164   1.5617 H              1 S1                 0.0000
     24 ****         1.6117   2.8579   1.4972 H              1 S1                 0.0000
     25 ****         0.4084  -2.8479   0.5006 LP             1 S1                 0.0000
     26 ****         3.2862   0.4674  -0.7255 LP             1 S1                 0.0000
     27 ****         0.3359   0.9661   1.8681 LP             1 S1                 0.0000
     28 ****        -0.0497   1.6255   0.4247 LP             1 S1                 0.0000
     29 ****        -1.8743   0.6468   0.1884 LP             1 S1                 0.0000
@<TRIPOS>BOND
    1    1   14 1     
    2    1   15 1     
    3    1   16 1     
    4    1    2 1     
    5    2   12 2     
    6    2    3 1     
    7    3    4 1     
    8    3   13 1     
    9    4    5 2     
   10    5   12 1     
   11    5    6 1     
   12    6   11 1     
   13    6    7 1     
   14    6   17 1     
   15    7    8 1     
   16    7   18 1     
   17    7   19 1     
   18    8    9 1     
   19    8   20 1     
   20    9   10 1     
   21    9   21 1     
   22    9   22 1     
   23   10   11 1     
   24   10   23 1     
   25   10   24 1     
   26    4   25 1     
   27    8   26 1     
   28   11   27 1     
   29   11   28 1     
   30   12   29 1     
@<TRIPOS>SUBSTRUCTURE
      1 S1             1
@<TRIPOS>SET
LONE_PAIRS      STATIC     ATOMS    <user>   **** ""
5 25 26 27 28 29
DONOR_HYDROGENS      STATIC     ATOMS    <user>   **** ""
2 13 20
ATOM$BLUE        STATIC     ATOMS    COLORGROUP SYSTEM
5 25 26 27 28 29
ATOM$RED        STATIC     ATOMS    COLORGROUP SYSTEM
2 13 20
