AV-unprocessed.smi:1007|AV-procd|sdf|4400|dock4
  -GOLD-   22720 2333D 1   1.00000     0.00000
 Structure written by MMmdl.
 56 58  0  0  0  0  0  0  0  0  2 V2000
  145.6820  136.1042  151.1874 C   0  0  0  0  0  0  0  0  0  0  0  0
  145.9049  136.9861  152.2740 O   0  0  0  0  0  0  0  0  0  0  0  0
  146.4051  138.2459  151.8575 C   0  0  0  0  0  0  0  0  0  0  0  0
  147.1010  138.9252  153.0471 C   0  0  0  0  0  0  0  0  0  0  0  0
  148.1294  138.0608  153.6794 N   0  3  0  0  0  0  0  0  0  0  0  0
  147.6032  137.2073  154.7788 C   0  0  0  0  0  0  0  0  0  0  0  0
  148.7231  136.3127  155.3516 C   0  0  0  0  0  0  0  0  0  0  0  0
  149.8833  137.0671  155.8252 N   0  0  0  0  0  0  0  0  0  0  0  0
  149.6099  137.8046  157.0673 C   0  0  0  0  0  0  0  0  0  0  0  0
  150.8199  138.1061  157.9794 C   0  0  2  0  0  0  0  0  0  0  0  0
  150.3814  138.4939  159.2670 O   0  0  0  0  0  0  0  0  0  0  0  0
  151.8239  139.1198  157.3918 C   0  0  0  0  0  0  0  0  0  0  0  0
  151.2587  140.4510  157.2699 N   0  0  0  0  0  0  0  0  0  0  0  0
  150.5959  140.9601  156.2134 C   0  0  0  0  0  0  0  0  0  0  0  0
  150.1614  142.2130  156.3138 N   0  0  0  0  0  0  0  0  0  0  0  0
  150.5969  142.5588  157.5815 C   0  0  0  0  0  0  0  0  0  0  0  0
  150.4599  143.7661  158.3009 C   0  0  0  0  0  0  0  0  0  0  0  0
  150.9914  143.8979  159.6037 C   0  0  0  0  0  0  0  0  0  0  0  0
  150.8210  145.2143  160.3409 C   0  0  0  0  0  0  0  0  0  0  0  0
  151.6725  142.8099  160.2068 C   0  0  0  0  0  0  0  0  0  0  0  0
  152.2485  142.9273  161.6069 C   0  0  0  0  0  0  0  0  0  0  0  0
  151.8193  141.5971  159.5017 C   0  0  0  0  0  0  0  0  0  0  0  0
  151.2865  141.4786  158.2060 C   0  0  0  0  0  0  0  0  0  0  0  0
  150.3799  137.8884  154.7186 C   0  0  0  0  0  0  0  0  0  0  0  0
  149.3119  138.8355  154.1371 C   0  0  0  0  0  0  0  0  0  0  0  0
  145.3010  135.1531  151.5596 H   0  0  0  0  0  0  0  0  0  0  0  0
  146.6061  135.9064  150.6425 H   0  0  0  0  0  0  0  0  0  0  0  0
  144.9464  136.5125  150.4928 H   0  0  0  0  0  0  0  0  0  0  0  0
  147.1284  138.1002  151.0537 H   0  0  0  0  0  0  0  0  0  0  0  0
  145.6047  138.8661  151.4536 H   0  0  0  0  0  0  0  0  0  0  0  0
  147.5680  139.8429  152.6869 H   0  0  0  0  0  0  0  0  0  0  0  0
  146.3669  139.2271  153.7955 H   0  0  0  0  0  0  0  0  0  0  0  0
  147.1670  137.8314  155.5594 H   0  0  0  0  0  0  0  0  0  0  0  0
  146.8035  136.5677  154.4081 H   0  0  0  0  0  0  0  0  0  0  0  0
  148.3274  135.6951  156.1587 H   0  0  0  0  0  0  0  0  0  0  0  0
  149.0462  135.6148  154.5778 H   0  0  0  0  0  0  0  0  0  0  0  0
  149.0698  138.7289  156.8628 H   0  0  0  0  0  0  0  0  0  0  0  0
  148.9228  137.2007  157.6616 H   0  0  0  0  0  0  0  0  0  0  0  0
  151.3444  137.1616  158.1291 H   0  0  0  0  0  0  0  0  0  0  0  0
  150.1997  137.7131  159.7680 H   0  0  0  0  0  0  0  0  0  0  0  0
  152.7091  139.1819  158.0258 H   0  0  0  0  0  0  0  0  0  0  0  0
  152.1677  138.8016  156.4068 H   0  0  0  0  0  0  0  0  0  0  0  0
  150.4201  140.3768  155.3212 H   0  0  0  0  0  0  0  0  0  0  0  0
  149.9407  144.5943  157.8413 H   0  0  0  0  0  0  0  0  0  0  0  0
  151.7925  145.6413  160.5904 H   0  0  0  0  0  0  0  0  0  0  0  0
  150.2603  145.0655  161.2639 H   0  0  0  0  0  0  0  0  0  0  0  0
  150.2818  145.9434  159.7353 H   0  0  0  0  0  0  0  0  0  0  0  0
  152.7543  142.0092  161.9073 H   0  0  0  0  0  0  0  0  0  0  0  0
  151.4562  143.1246  162.3293 H   0  0  0  0  0  0  0  0  0  0  0  0
  152.9736  143.7398  161.6562 H   0  0  0  0  0  0  0  0  0  0  0  0
  152.3358  140.7608  159.9489 H   0  0  0  0  0  0  0  0  0  0  0  0
  151.2572  138.4558  155.0252 H   0  0  0  0  0  0  0  0  0  0  0  0
  150.7311  137.2299  153.9230 H   0  0  0  0  0  0  0  0  0  0  0  0
  149.7386  139.3800  153.2939 H   0  0  0  0  0  0  0  0  0  0  0  0
  149.0099  139.5827  154.8721 H   0  0  0  0  0  0  0  0  0  0  0  0
  148.4649  137.4380  152.9581 H   0  0  0  0  0  0  0  0  0  0  0  0
  1  2  1  0  0  0  0
  1 26  1  0  0  0  0
  1 27  1  0  0  0  0
  1 28  1  0  0  0  0
  2  3  1  0  0  0  0
  3  4  1  0  0  0  0
  3 29  1  0  0  0  0
  3 30  1  0  0  0  0
  4  5  1  0  0  0  0
  4 31  1  0  0  0  0
  4 32  1  0  0  0  0
  5 25  1  0  0  0  0
  5  6  1  0  0  0  0
  5 56  1  0  0  0  0
  6  7  1  0  0  0  0
  6 33  1  0  0  0  0
  6 34  1  0  0  0  0
  7  8  1  0  0  0  0
  7 35  1  0  0  0  0
  7 36  1  0  0  0  0
  8  9  1  0  0  0  0
  8 24  1  0  0  0  0
  9 10  1  0  0  0  0
  9 37  1  0  0  0  0
  9 38  1  0  0  0  0
 10 11  1  0  0  0  0
 10 12  1  0  0  0  0
 10 39  1  0  0  0  0
 11 40  1  0  0  0  0
 12 13  1  0  0  0  0
 12 41  1  0  0  0  0
 12 42  1  0  0  0  0
 13 23  1  0  0  0  0
 13 14  1  0  0  0  0
 14 15  2  0  0  0  0
 14 43  1  0  0  0  0
 15 16  1  0  0  0  0
 16 23  2  0  0  0  0
 16 17  1  0  0  0  0
 17 18  2  0  0  0  0
 17 44  1  0  0  0  0
 18 19  1  0  0  0  0
 18 20  1  0  0  0  0
 19 45  1  0  0  0  0
 19 46  1  0  0  0  0
 19 47  1  0  0  0  0
 20 21  1  0  0  0  0
 20 22  2  0  0  0  0
 21 48  1  0  0  0  0
 21 49  1  0  0  0  0
 21 50  1  0  0  0  0
 22 23  1  0  0  0  0
 22 51  1  0  0  0  0
 24 25  1  0  0  0  0
 24 52  1  0  0  0  0
 24 53  1  0  0  0  0
 25 54  1  0  0  0  0
 25 55  1  0  0  0  0
M  CHG  1   5   1
M  END
> <s_m_source_file>
AV-unprocessed.smi

> <i_m_source_file_index>
1007

> <i_lp_mmshare_version>
43012

> <i_f3d_flags>
0

> <s_epik_input>
W0NIM11PW0NIMl1bQ0gyXU4xW0NIMl1bQ0gyXU4oW0NIMl1bQ0gyXTEpW0NIMl1bQ0BIXShbT0hdKVtDSDJdbihbY0hdbjIpYyhjMjMpW2NIXWMoW0NIM10pYyhbY0hdMylbQ0gzXQ==

> <s_epik_cmdline>
J2VwaWtfcHl0aG9uJywgJy1waCcsICc3LjAnLCAnLXRuJywgJzgnLCAnLW1hJywgJzIwMCcsICctbWV0YWxfYmluZGluZycsICctaW1hZScsICc8aW5maWxlLm1hZT4nLCAnLW9tYWUnLCAnPG91dGZpbGUubWFlPic=

> <r_epik_Ionization_Penalty>
0.186009

> <r_epik_Ionization_Penalty_Charging>
0.0613973

> <r_epik_Ionization_Penalty_Neutral>
0.124612

> <r_epik_State_Penalty>
1.21927

> <r_epik_Charging_Adjusted_Penalty>
1.28067

> <i_epik_Tot_Q>
1

> <i_epik_Tot_abs_Q>
1

> <r_epik_Metal_State_Penalty>
1.13901

> <b_epik_Metal_Only>
0

> <s_lp_Force_Field>
OPLS_2005

> <r_lp_Energy>
39.6127

> <b_lp_Chiralities_Consistent>
1

> <s_lp_Variant>
AV-unprocessed.smi:1007-3

> <Gold.Version>
5.8.1

> <Gold.Id.Protein>
6NUR|6NUR_protein|mol2

> <Gold.PLP.Fitness>
53.0680

> <Gold.PLP.PLP>
-49.2574

> <Gold.PLP.part.hbond>
-1.6465

> <Gold.PLP.part.metal>
0.0000

> <Gold.PLP.part.buried>
-5.2501

> <Gold.PLP.part.nonpolar>
-42.2442

> <Gold.PLP.part.repulsive>
0.4150

> <Gold.PLP.ligand.clash>
0.0000

> <Gold.PLP.ligand.torsion>
1.2710

> <Gold.PLP.Chemscore.Hbond>
2.0000

> <Gold.PLP.Chemscore.CHOScore>
0.0000

> <Gold.PLP.Chemscore.Metal>
0.0000

> <Gold.Chemscore.Hbonds>
donor molecule, donor type, donor heavy atom, donor atom, acceptor molecule, acceptor atom, score
      L1  H     5    56       P1  7948  2.00

> <Gold.PLP.Chemscore.Internal.Correction>
0.3525

> <Gold.Rescore>
     Score         DG    S(hbond)    S(metal)    S(lipo)     H(rot)  DE(clash)    DE(int)     intcor
     16.69     -18.16       1.00        0.00     135.84       2.56       0.13       1.34       ----

> <Gold.Chemscore.Fitness>
16.6924

> <Gold.Chemscore.DG>
-18.1597

> <Gold.Chemscore.ZeroCoef>
-5.4800

> <Gold.Chemscore.Hbond>
0.9997

> <Gold.Chemscore.Metal>
0.0000

> <Gold.Chemscore.Lipo>
135.8356

> <Gold.Chemscore.Internal_Hbond>
0.0000

> <Gold.Chemscore.DEClash>
0.1319

> <Gold.Chemscore.DEInternal>
1.3354

> <Gold.Chemscore.Rot>
2.5594

> <Gold.Chemscore.Internal.Correction>
   9.000000E+99

> <Gold.Chemscore.Hbonds>
donor molecule, donor type, donor heavy atom, donor atom, acceptor molecule, acceptor atom, score
      L1  H     5    56       P1  7948  1.00

> <Gold.Chemscore.Hbond.Weighted>
-3.3391

> <Gold.Chemscore.Metal.Weighted>
-0.0000

> <Gold.Chemscore.Lipo.Weighted>
-15.8928

> <Gold.Chemscore.Internal_Hbond.Weighted>
0.0000

> <Gold.Chemscore.DEClash.Weighted>
0.1319

> <Gold.Chemscore.DEInternal.Weighted>
1.3354

> <Gold.Chemscore.Rot.Weighted>
6.5522

> <Gold.Chemscore.Internal.Correction.Weighted>
   9.000000E+99

> <Gold.Protein.RotatedTorsions>
[ 6907 6896 6895 6894 ] final   75.79 input  -60.11 | X-H torsion
[ 7974 7965 7964 7962 ] final  100.91 input  175.53 | X-H torsion
[ 8008 7997 7996 7995 ] final   22.20 input   59.86 | X-H torsion
[ 10167 10162 10161 10158 ] final -144.83 input  -65.29 | X-H torsion
[ 10718 10713 10712 10709 ] final  160.45 input   66.30 | X-H torsion
[ 10763 10752 10751 10750 ] final   -9.63 input  -60.55 | X-H torsion
[ 11005 11000 10999 10996 ] final  -49.03 input  -57.11 | X-H torsion

> <Gold.Protein.ActiveResidues>
 VAL166  LYS551  ARG553  GLY616  TRP617  ASP618  TYR619  PRO620  LYS621  CYS622 
 ASP623  PHE694  ASN695  SER759  ASP760  ASP761  ALA762  ILE779  LEU786  VAL792 
 PHE793  MET794  SER795  GLU796  ALA797  LYS798  CYS799  TRP800  GLU811  SER814 

> <Gold.Protein.RotatedAtoms>
  152.5042  134.4067  159.9434 H   0  0  0  0  0  0  0  0  0  0  0  0  # atno 6907 bound_to 6896
  151.4034  133.3744  159.2743 H   0  0  0  0  0  0  0  0  0  0  0  0  # atno 6908 bound_to 6896
  150.9345  134.8779  159.7632 H   0  0  0  0  0  0  0  0  0  0  0  0  # atno 6909 bound_to 6896
  145.3793  139.2383  143.3412 H   0  0  0  0  0  0  0  0  0  0  0  0  # atno 7974 bound_to 7965
  154.9620  140.3079  155.5026 H   0  0  0  0  0  0  0  0  0  0  0  0  # atno 8008 bound_to 7997
  156.2976  140.2299  156.4645 H   0  0  0  0  0  0  0  0  0  0  0  0  # atno 8009 bound_to 7997
  154.7956  140.0437  157.1222 H   0  0  0  0  0  0  0  0  0  0  0  0  # atno 8010 bound_to 7997
  139.7862  143.8031  152.2645 H   0  0  0  0  0  0  0  0  0  0  0  0  # atno 10167 bound_to 10162
  157.1502  131.0562  151.2284 H   0  0  0  0  0  0  0  0  0  0  0  0  # atno 10718 bound_to 10713
  153.4575  135.7015  153.6070 H   0  0  0  0  0  0  0  0  0  0  0  0  # atno 10763 bound_to 10752
  153.4379  135.3787  155.2210 H   0  0  0  0  0  0  0  0  0  0  0  0  # atno 10764 bound_to 10752
  154.8728  135.3966  154.3996 H   0  0  0  0  0  0  0  0  0  0  0  0  # atno 10765 bound_to 10752
  141.0735  133.6672  156.3526 H   0  0  0  0  0  0  0  0  0  0  0  0  # atno 11005 bound_to 11000
  146.2849  140.4458  142.8762 LP  0  0  0  0  0  0  0  0  0  0  0  0  # atno 17320 bound_to 7965
  144.8519  140.7014  143.6163 LP  0  0  0  0  0  0  0  0  0  0  0  0  # atno 17321 bound_to 7965
  139.8108  144.7336  150.9700 LP  0  0  0  0  0  0  0  0  0  0  0  0  # atno 17342 bound_to 10162
  140.7819  143.4252  151.0778 LP  0  0  0  0  0  0  0  0  0  0  0  0  # atno 17343 bound_to 10162
  157.4227  130.7447  149.6926 LP  0  0  0  0  0  0  0  0  0  0  0  0  # atno 17370 bound_to 10713
  155.9772  130.4066  150.3729 LP  0  0  0  0  0  0  0  0  0  0  0  0  # atno 17371 bound_to 10713
  140.5622  134.5923  157.5436 LP  0  0  0  0  0  0  0  0  0  0  0  0  # atno 17394 bound_to 11000
  139.9548  134.7554  156.0367 LP  0  0  0  0  0  0  0  0  0  0  0  0  # atno 17395 bound_to 11000

$$$$
