AV-unprocessed.smi:1768|AV-procd|sdf|7146|dock6
  -GOLD-   22720 8383D 1   1.00000     0.00000
 Structure written by MMmdl.
 33 34  0  0  0  0  0  0  0  0  1 V2000
  143.7931  143.8028  162.5993 C   0  0  0  0  0  0  0  0  0  0  0  0
  145.0345  143.7168  161.7788 C   0  0  0  0  0  0  0  0  0  0  0  0
  145.6729  142.5635  161.5454 N   0  0  0  0  0  0  0  0  0  0  0  0
  146.8035  142.7375  160.7594 N   0  0  0  0  0  0  0  0  0  0  0  0
  146.9846  144.0218  160.4223 C   0  0  0  0  0  0  0  0  0  0  0  0
  148.0622  144.4845  159.6219 N   0  0  0  0  0  0  0  0  0  0  0  0
  149.3695  144.5349  159.9321 C   0  0  0  0  0  0  0  0  0  0  0  0
  149.8578  144.1948  161.0097 O   0  0  0  0  0  0  0  0  0  0  0  0
  150.0892  145.0136  158.9065 N   0  0  0  0  0  0  0  0  0  0  0  0
  151.5394  145.1996  158.8872 C   0  0  1  0  0  0  0  0  0  0  0  0
  151.9474  146.0467  160.1013 C   0  0  0  0  0  0  0  0  0  0  0  0
  152.2499  143.8315  158.8714 C   0  0  1  0  0  0  0  0  0  0  0  0
  152.3167  143.1274  160.2296 C   0  0  0  0  0  0  0  0  0  0  0  0
  152.4420  141.6787  159.8188 C   0  0  0  0  0  0  0  0  0  0  0  0
  151.5113  141.6218  158.6122 C   0  0  0  0  0  0  0  0  0  0  0  0
  151.5598  142.9173  158.0206 O   0  0  0  0  0  0  0  0  0  0  0  0
  145.7748  145.1322  161.0422 S   0  0  0  0  0  0  0  0  0  0  0  0
  143.4974  142.8161  162.9572 H   0  0  0  0  0  0  0  0  0  0  0  0
  142.9799  144.2158  162.0024 H   0  0  0  0  0  0  0  0  0  0  0  0
  143.9607  144.4505  163.4599 H   0  0  0  0  0  0  0  0  0  0  0  0
  147.8078  144.8082  158.7005 H   0  0  0  0  0  0  0  0  0  0  0  0
  149.5945  145.2696  158.0648 H   0  0  0  0  0  0  0  0  0  0  0  0
  151.8373  145.7452  157.9902 H   0  0  0  0  0  0  0  0  0  0  0  0
  153.0207  146.2378  160.1065 H   0  0  0  0  0  0  0  0  0  0  0  0
  151.6942  145.5485  161.0375 H   0  0  0  0  0  0  0  0  0  0  0  0
  151.4435  147.0138  160.0913 H   0  0  0  0  0  0  0  0  0  0  0  0
  153.2638  143.9399  158.4820 H   0  0  0  0  0  0  0  0  0  0  0  0
  153.1479  143.4691  160.8470 H   0  0  0  0  0  0  0  0  0  0  0  0
  151.3916  143.2768  160.7887 H   0  0  0  0  0  0  0  0  0  0  0  0
  153.4675  141.4630  159.5155 H   0  0  0  0  0  0  0  0  0  0  0  0
  152.1619  140.9802  160.6078 H   0  0  0  0  0  0  0  0  0  0  0  0
  151.7977  140.8471  157.9005 H   0  0  0  0  0  0  0  0  0  0  0  0
  150.4866  141.4276  158.9310 H   0  0  0  0  0  0  0  0  0  0  0  0
  1  2  1  0  0  0  0
  1 18  1  0  0  0  0
  1 19  1  0  0  0  0
  1 20  1  0  0  0  0
  2 17  1  0  0  0  0
  2  3  2  0  0  0  0
  3  4  1  0  0  0  0
  4  5  2  0  0  0  0
  5  6  1  0  0  0  0
  5 17  1  0  0  0  0
  6  7  1  0  0  0  0
  6 21  1  0  0  0  0
  7  8  2  0  0  0  0
  7  9  1  0  0  0  0
  9 10  1  0  0  0  0
  9 22  1  0  0  0  0
 10 11  1  0  0  0  0
 10 12  1  0  0  0  0
 10 23  1  0  0  0  0
 11 24  1  0  0  0  0
 11 25  1  0  0  0  0
 11 26  1  0  0  0  0
 12 16  1  0  0  0  0
 12 13  1  0  0  0  0
 12 27  1  0  0  0  0
 13 14  1  0  0  0  0
 13 28  1  0  0  0  0
 13 29  1  0  0  0  0
 14 15  1  0  0  0  0
 14 30  1  0  0  0  0
 14 31  1  0  0  0  0
 15 16  1  0  0  0  0
 15 32  1  0  0  0  0
 15 33  1  0  0  0  0
M  END
> <s_m_source_file>
AV-unprocessed.smi

> <i_m_source_file_index>
1768

> <i_lp_mmshare_version>
43012

> <i_f3d_flags>
0

> <s_epik_input>
W0NIM11jMW5uYyhzMSlbTkhdQyg9TylbTkhdW0NASF0oW0NIM10pW0NAQEhdMltDSDJdW0NIMl1bQ0gyXU8y

> <s_epik_cmdline>
J2VwaWtfcHl0aG9uJywgJy1waCcsICc3LjAnLCAnLXRuJywgJzgnLCAnLW1hJywgJzIwMCcsICctbWV0YWxfYmluZGluZycsICctaW1hZScsICc8aW5maWxlLm1hZT4nLCAnLW9tYWUnLCAnPG91dGZpbGUubWFlPic=

> <r_lp_tautomer_probability>
1

> <r_epik_Ionization_Penalty>
0.000523083

> <r_epik_Ionization_Penalty_Charging>
0

> <r_epik_Ionization_Penalty_Neutral>
0.000523083

> <r_epik_State_Penalty>
-0

> <r_epik_Charging_Adjusted_Penalty>
0

> <i_epik_Tot_Q>
0

> <i_epik_Tot_abs_Q>
0

> <r_epik_Metal_State_Penalty>
0.223408

> <b_epik_Metal_Only>
0

> <s_lp_Force_Field>
OPLS_2005

> <r_lp_Energy>
16.9545

> <b_lp_Chiralities_Consistent>
1

> <s_lp_Variant>
AV-unprocessed.smi:1768-4

> <Gold.Version>
5.8.1

> <Gold.Id.Protein>
6NUR|6NUR_protein|mol2

> <Gold.PLP.Fitness>
46.8172

> <Gold.PLP.PLP>
-39.5264

> <Gold.PLP.part.hbond>
-5.8029

> <Gold.PLP.part.metal>
0.0000

> <Gold.PLP.part.buried>
-3.5437

> <Gold.PLP.part.nonpolar>
-31.2845

> <Gold.PLP.part.repulsive>
0.6217

> <Gold.PLP.ligand.clash>
0.0000

> <Gold.PLP.ligand.torsion>
1.0484

> <Gold.PLP.Chemscore.Hbond>
3.1264

> <Gold.PLP.Chemscore.CHOScore>
0.0000

> <Gold.PLP.Chemscore.Metal>
0.0000

> <Gold.Chemscore.Hbonds>
donor molecule, donor type, donor heavy atom, donor atom, acceptor molecule, acceptor atom, score
      L1  H     6    21       P1  8029  1.00
      L1  H     9    22       P1  8029  0.96
      P1  H  6933  6944       L1     4  0.85
      P1  H  6934  6946       L1     4  0.25

> <Gold.PLP.Chemscore.Internal.Correction>
0.0085

> <Gold.Rescore>
     Score         DG    S(hbond)    S(metal)    S(lipo)     H(rot)  DE(clash)    DE(int)     intcor
     15.56     -19.66       2.04        0.00      91.16       1.29       0.45       3.65       ----

> <Gold.Chemscore.Fitness>
15.5633

> <Gold.Chemscore.DG>
-19.6614

> <Gold.Chemscore.ZeroCoef>
-5.4800

> <Gold.Chemscore.Hbond>
2.0426

> <Gold.Chemscore.Metal>
0.0000

> <Gold.Chemscore.Lipo>
91.1634

> <Gold.Chemscore.Internal_Hbond>
0.0000

> <Gold.Chemscore.DEClash>
0.4522

> <Gold.Chemscore.DEInternal>
3.6459

> <Gold.Chemscore.Rot>
1.2919

> <Gold.Chemscore.Internal.Correction>
   9.000000E+99

> <Gold.Chemscore.Hbonds>
donor molecule, donor type, donor heavy atom, donor atom, acceptor molecule, acceptor atom, score
      L1  H     6    21       P1  8029  0.98
      L1  H     9    22       P1  8029  0.23
      P1  H  6933  6944       L1     4  0.24

> <Gold.Chemscore.Hbond.Weighted>
-6.8224

> <Gold.Chemscore.Metal.Weighted>
-0.0000

> <Gold.Chemscore.Lipo.Weighted>
-10.6661

> <Gold.Chemscore.Internal_Hbond.Weighted>
0.0000

> <Gold.Chemscore.DEClash.Weighted>
0.4522

> <Gold.Chemscore.DEInternal.Weighted>
3.6459

> <Gold.Chemscore.Rot.Weighted>
3.3072

> <Gold.Chemscore.Internal.Correction.Weighted>
   9.000000E+99

> <Gold.Protein.RotatedTorsions>
[ 6907 6896 6895 6894 ] final  178.45 input  -60.11 | X-H torsion
[ 7974 7965 7964 7962 ] final   42.37 input  175.53 | X-H torsion
[ 8008 7997 7996 7995 ] final   99.49 input   59.86 | X-H torsion
[ 10167 10162 10161 10158 ] final   74.95 input  -65.29 | X-H torsion
[ 10718 10713 10712 10709 ] final  162.24 input   66.30 | X-H torsion
[ 10763 10752 10751 10750 ] final  -56.39 input  -60.55 | X-H torsion
[ 11005 11000 10999 10996 ] final   76.14 input  -57.11 | X-H torsion

> <Gold.Protein.ActiveResidues>
 VAL166  LYS551  ARG553  GLY616  TRP617  ASP618  TYR619  PRO620  LYS621  CYS622 
 ASP623  PHE694  ASN695  SER759  ASP760  ASP761  ALA762  ILE779  LEU786  VAL792 
 PHE793  MET794  SER795  GLU796  ALA797  LYS798  CYS799  TRP800  GLU811  SER814 

> <Gold.Protein.RotatedAtoms>
  151.6876  133.3311  159.3234 H   0  0  0  0  0  0  0  0  0  0  0  0  # atno 6907 bound_to 6896
  150.7794  134.6726  159.6409 H   0  0  0  0  0  0  0  0  0  0  0  0  # atno 6908 bound_to 6896
  152.3846  134.6540  160.0182 H   0  0  0  0  0  0  0  0  0  0  0  0  # atno 6909 bound_to 6896
  146.0746  139.5308  142.9576 H   0  0  0  0  0  0  0  0  0  0  0  0  # atno 7974 bound_to 7965
  156.1110  140.3228  155.8072 H   0  0  0  0  0  0  0  0  0  0  0  0  # atno 8008 bound_to 7997
  155.4673  140.0544  157.3001 H   0  0  0  0  0  0  0  0  0  0  0  0  # atno 8009 bound_to 7997
  154.4760  140.2032  155.9892 H   0  0  0  0  0  0  0  0  0  0  0  0  # atno 8010 bound_to 7997
  140.0082  144.5634  150.7681 H   0  0  0  0  0  0  0  0  0  0  0  0  # atno 10167 bound_to 10162
  157.1253  131.0503  151.2396 H   0  0  0  0  0  0  0  0  0  0  0  0  # atno 10718 bound_to 10713
  154.2059  135.6403  153.5101 H   0  0  0  0  0  0  0  0  0  0  0  0  # atno 10763 bound_to 10752
  153.0001  135.5462  154.6266 H   0  0  0  0  0  0  0  0  0  0  0  0  # atno 10764 bound_to 10752
  154.5691  135.2915  155.0818 H   0  0  0  0  0  0  0  0  0  0  0  0  # atno 10765 bound_to 10752
  139.9312  134.7576  156.1358 H   0  0  0  0  0  0  0  0  0  0  0  0  # atno 11005 bound_to 11000
  145.6329  141.0300  143.1853 LP  0  0  0  0  0  0  0  0  0  0  0  0  # atno 17320 bound_to 7965
  144.7253  139.7895  143.7367 LP  0  0  0  0  0  0  0  0  0  0  0  0  # atno 17321 bound_to 7965
  140.7392  143.2788  151.3660 LP  0  0  0  0  0  0  0  0  0  0  0  0  # atno 17342 bound_to 10162
  139.6224  144.0881  152.2403 LP  0  0  0  0  0  0  0  0  0  0  0  0  # atno 17343 bound_to 10162
  157.4440  130.7560  149.7094 LP  0  0  0  0  0  0  0  0  0  0  0  0  # atno 17370 bound_to 10713
  155.9819  130.4014  150.3444 LP  0  0  0  0  0  0  0  0  0  0  0  0  # atno 17371 bound_to 10713
  141.0901  133.6718  156.2521 LP  0  0  0  0  0  0  0  0  0  0  0  0  # atno 17394 bound_to 11000
  140.6198  134.5373  157.5546 LP  0  0  0  0  0  0  0  0  0  0  0  0  # atno 17395 bound_to 11000

$$$$
