#       Name:                AV-unprocessed.smi:2391
#       Creating user name   scv26
#       Creation time:       Fri Mar 27 13:11:15 2020


#       File generated by GOLD software.
#

@<TRIPOS>MOLECULE
AV-unprocessed.smi:2391
    39    40     1
SMALL
NO_CHARGES


@<TRIPOS>ATOM
      1 ****        -0.1972   1.8896  -0.6279 O.2            1 S1                 0.0000
      2 ****        -0.7055   0.7821  -0.8029 C.2            1 S1                 0.0000
      3 ****        -2.0246   0.5397  -0.8954 N.am           1 S1                 0.0000
      4 ****        -3.0935   1.4701  -0.8092 C.ar           1 S1                 0.0000
      5 ****        -4.3856   0.9199  -0.9484 C.ar           1 S1                 0.0000
      6 ****        -5.4905   1.7848  -0.8707 C.ar           1 S1                 0.0000
      7 ****        -5.2263   3.1487  -0.6587 C.ar           1 S1                 0.0000
      8 ****        -3.9718   3.6324  -0.5319 N.ar           1 S1                 0.0000
      9 ****        -2.9250   2.8032  -0.6063 N.ar           1 S1                 0.0000
     10 ****         0.0027  -0.3505  -0.9226 N.am           1 S1                 0.0000
     11 ****         1.4628  -0.4619  -0.8870 C.3            1 S1                 0.0000
     12 ****         1.9013  -1.1396   0.4375 C.3            1 S1                 0.0000
     13 ****         1.4063  -0.4315   1.7054 C.3            1 S1                 0.0000
     14 ****         2.2803  -0.9902   2.8284 C.3            1 S1                 0.0000
     15 ****         3.6255  -1.3336   2.1765 C.3            1 S1                 0.0000
     16 ****         3.4188  -1.2079   0.6605 C.3            1 S1                 0.0000
     17 ****         1.9311  -1.2079  -2.1572 C.3            1 S1                 0.0000
     18 ****         1.4669  -0.5860  -3.2420 F              1 S1                 0.0000
     19 ****         3.2607  -1.2278  -2.2395 F              1 S1                 0.0000
     20 ****         1.4786  -2.4624  -2.1586 F              1 S1                 0.0000
     21 ****        -2.2961  -0.4212  -1.0418 H              1 S1                 0.0000
     22 ****        -4.5298  -0.1385  -1.1100 H              1 S1                 0.0000
     23 ****        -6.5010   1.4171  -0.9693 H              1 S1                 0.0000
     24 ****        -6.0323   3.8640  -0.5893 H              1 S1                 0.0000
     25 ****        -0.5057  -1.2108  -1.0651 H              1 S1                 0.0000
     26 ****         1.9046   0.5358  -0.9178 H              1 S1                 0.0000
     27 ****         1.5132  -2.1594   0.4576 H              1 S1                 0.0000
     28 ****         1.5669   0.6442   1.6182 H              1 S1                 0.0000
     29 ****         0.3445  -0.5934   1.8939 H              1 S1                 0.0000
     30 ****         2.3858  -0.2866   3.6546 H              1 S1                 0.0000
     31 ****         1.8263  -1.8984   3.2269 H              1 S1                 0.0000
     32 ****         4.4122  -0.6569   2.5122 H              1 S1                 0.0000
     33 ****         3.9296  -2.3454   2.4475 H              1 S1                 0.0000
     34 ****         3.8787  -2.0361   0.1208 H              1 S1                 0.0000
     35 ****         3.8879  -0.2873   0.3105 H              1 S1                 0.0000
     36 ****        -0.7786   2.6988  -0.5428 LP             1 S1                 0.0000
     37 ****         0.7971   1.9801  -0.5708 LP             1 S1                 0.0000
     38 ****        -3.8256   4.6103  -0.3824 LP             1 S1                 0.0000
     39 ****        -2.0002   3.1715  -0.5107 LP             1 S1                 0.0000
@<TRIPOS>BOND
    1    1    2 2     
    2    2    3 am    
    3    2   10 am    
    4    3    4 1     
    5    3   21 1     
    6    4    9 ar    
    7    4    5 ar    
    8    5    6 ar    
    9    5   22 1     
   10    6    7 ar    
   11    6   23 1     
   12    7    8 ar    
   13    7   24 1     
   14    8    9 ar    
   15   10   11 1     
   16   10   25 1     
   17   11   12 1     
   18   11   17 1     
   19   11   26 1     
   20   12   16 1     
   21   12   13 1     
   22   12   27 1     
   23   13   14 1     
   24   13   28 1     
   25   13   29 1     
   26   14   15 1     
   27   14   30 1     
   28   14   31 1     
   29   15   16 1     
   30   15   32 1     
   31   15   33 1     
   32   16   34 1     
   33   16   35 1     
   34   17   18 1     
   35   17   19 1     
   36   17   20 1     
   37    1   36 1     
   38    1   37 1     
   39    8   38 1     
   40    9   39 1     
@<TRIPOS>SUBSTRUCTURE
      1 S1             1
@<TRIPOS>SET
LONE_PAIRS      STATIC     ATOMS    <user>   **** ""
4 36 37 38 39
DONOR_HYDROGENS      STATIC     ATOMS    <user>   **** ""
2 21 25
ATOM$BLUE        STATIC     ATOMS    COLORGROUP SYSTEM
4 36 37 38 39
ATOM$RED        STATIC     ATOMS    COLORGROUP SYSTEM
2 21 25
