AV-unprocessed.smi:2069|AV-procd|sdf|8437|dock2
  -GOLD-   2272011133D 1   1.00000     0.00000
 Structure written by MMmdl.
 38 39  0  0  0  0  0  0  0  0  3 V2000
  151.6853  144.6306  159.7582 C   0  0  0  0  0  0  0  0  0  0  0  0
  152.0685  143.3021  159.2026 C   0  0  0  0  0  0  0  0  0  0  0  0
  153.0857  142.5838  159.6847 N   0  0  0  0  0  0  0  0  0  0  0  0
  153.2488  141.3861  159.0035 N   0  0  0  0  0  0  0  0  0  0  0  0
  152.3639  141.2211  158.0103 C   0  0  0  0  0  0  0  0  0  0  0  0
  152.3530  140.1278  157.2298 N   0  5  0  0  0  0  0  0  0  0  0  0
  151.6760  140.1407  156.0597 C   0  0  0  0  0  0  0  0  0  0  0  0
  151.1654  141.1240  155.5186 O   0  0  0  0  0  0  0  0  0  0  0  0
  151.5820  138.9377  155.4791 N   0  0  0  0  0  0  0  0  0  0  0  0
  150.9079  138.6669  154.2147 C   0  0  0  0  0  0  0  0  0  0  0  0
  149.3921  138.3946  154.4019 C   0  0  2  0  0  0  0  0  0  0  0  0
  148.8386  139.2390  155.5750 C   0  0  0  0  0  0  0  0  0  0  0  0
  149.0748  136.9406  154.5998 N   0  3  0  0  0  0  0  0  0  0  0  0
  150.0297  136.2589  155.5174 C   0  0  0  0  0  0  0  0  0  0  0  0
  149.7064  134.7620  155.6534 C   0  0  0  0  0  0  0  0  0  0  0  0
  148.3755  134.6028  156.1188 O   0  0  0  0  0  0  0  0  0  0  0  0
  147.4405  135.1428  155.1983 C   0  0  0  0  0  0  0  0  0  0  0  0
  147.6786  136.6534  155.0337 C   0  0  0  0  0  0  0  0  0  0  0  0
  151.2216  142.5562  157.8579 S   0  0  0  0  0  0  0  0  0  0  0  0
  152.3645  145.3983  159.3878 H   0  0  0  0  0  0  0  0  0  0  0  0
  151.7335  144.6131  160.8473 H   0  0  0  0  0  0  0  0  0  0  0  0
  150.6691  144.8874  159.4588 H   0  0  0  0  0  0  0  0  0  0  0  0
  152.0134  138.1566  155.9516 H   0  0  0  0  0  0  0  0  0  0  0  0
  151.0745  139.5452  153.5909 H   0  0  0  0  0  0  0  0  0  0  0  0
  151.3851  137.8170  153.7237 H   0  0  0  0  0  0  0  0  0  0  0  0
  148.8946  138.7175  153.4855 H   0  0  0  0  0  0  0  0  0  0  0  0
  149.0740  140.2973  155.4645 H   0  0  0  0  0  0  0  0  0  0  0  0
  149.2562  138.9108  156.5272 H   0  0  0  0  0  0  0  0  0  0  0  0
  147.7540  139.1930  155.6519 H   0  0  0  0  0  0  0  0  0  0  0  0
  151.0531  136.3453  155.1588 H   0  0  0  0  0  0  0  0  0  0  0  0
  149.9944  136.7340  156.4990 H   0  0  0  0  0  0  0  0  0  0  0  0
  149.8412  134.2442  154.7023 H   0  0  0  0  0  0  0  0  0  0  0  0
  150.3856  134.2964  156.3678 H   0  0  0  0  0  0  0  0  0  0  0  0
  147.5172  134.6295  154.2382 H   0  0  0  0  0  0  0  0  0  0  0  0
  146.4333  134.9621  155.5741 H   0  0  0  0  0  0  0  0  0  0  0  0
  147.4728  137.1711  155.9720 H   0  0  0  0  0  0  0  0  0  0  0  0
  146.9600  137.0091  154.2968 H   0  0  0  0  0  0  0  0  0  0  0  0
  149.1768  136.5048  153.6943 H   0  0  0  0  0  0  0  0  0  0  0  0
  1  2  1  0  0  0  0
  1 20  1  0  0  0  0
  1 21  1  0  0  0  0
  1 22  1  0  0  0  0
  2 19  1  0  0  0  0
  2  3  2  0  0  0  0
  3  4  1  0  0  0  0
  4  5  2  0  0  0  0
  5  6  1  0  0  0  0
  5 19  1  0  0  0  0
  6  7  1  0  0  0  0
  7  8  2  0  0  0  0
  7  9  1  0  0  0  0
  9 10  1  0  0  0  0
  9 23  1  0  0  0  0
 10 11  1  0  0  0  0
 10 24  1  0  0  0  0
 10 25  1  0  0  0  0
 11 12  1  0  0  0  0
 11 13  1  0  0  0  0
 11 26  1  0  0  0  0
 12 27  1  0  0  0  0
 12 28  1  0  0  0  0
 12 29  1  0  0  0  0
 13 18  1  0  0  0  0
 13 14  1  0  0  0  0
 13 38  1  0  0  0  0
 14 15  1  0  0  0  0
 14 30  1  0  0  0  0
 14 31  1  0  0  0  0
 15 16  1  0  0  0  0
 15 32  1  0  0  0  0
 15 33  1  0  0  0  0
 16 17  1  0  0  0  0
 17 18  1  0  0  0  0
 17 34  1  0  0  0  0
 17 35  1  0  0  0  0
 18 36  1  0  0  0  0
 18 37  1  0  0  0  0
M  CHG  1   6  -1
M  CHG  1  13   1
M  END
> <s_m_source_file>
AV-unprocessed.smi

> <i_m_source_file_index>
2069

> <i_lp_mmshare_version>
43012

> <i_f3d_flags>
0

> <s_epik_input>
W0NIM11jMW5uYyhzMSlbTkhdQyg9TylbTkhdW0NIMl1bQ0BIXShbQ0gzXSlOMltDSDJdW0NIMl1PW0NIMl1bQ0gyXTI=

> <s_epik_cmdline>
J2VwaWtfcHl0aG9uJywgJy1waCcsICc3LjAnLCAnLXRuJywgJzgnLCAnLW1hJywgJzIwMCcsICctbWV0YWxfYmluZGluZycsICctaW1hZScsICc8aW5maWxlLm1hZT4nLCAnLW9tYWUnLCAnPG91dGZpbGUubWFlPic=

> <r_lp_tautomer_probability>
1

> <r_epik_Ionization_Penalty>
3.53072

> <r_epik_Ionization_Penalty_Charging>
3.4216

> <r_epik_Ionization_Penalty_Neutral>
0.109115

> <r_epik_State_Penalty>
3.61496

> <r_epik_Charging_Adjusted_Penalty>
7.03656

> <i_epik_Tot_Q>
0

> <i_epik_Tot_abs_Q>
2

> <r_epik_Metal_State_Penalty>
1.13918

> <b_epik_Metal_Only>
1

> <s_lp_Force_Field>
OPLS_2005

> <r_lp_Energy>
13.5119

> <b_lp_Chiralities_Consistent>
1

> <s_lp_Variant>
AV-unprocessed.smi:2069-7

> <Gold.Version>
5.8.1

> <Gold.Id.Protein>
6NUR|6NUR_protein|mol2

> <Gold.PLP.Fitness>
37.7414

> <Gold.PLP.PLP>
-26.1794

> <Gold.PLP.part.hbond>
-3.0000

> <Gold.PLP.part.metal>
0.0000

> <Gold.PLP.part.buried>
-3.0086

> <Gold.PLP.part.nonpolar>
-17.9976

> <Gold.PLP.part.repulsive>
0.2091

> <Gold.PLP.ligand.clash>
0.2372

> <Gold.PLP.ligand.torsion>
0.8794

> <Gold.PLP.Chemscore.Hbond>
4.4969

> <Gold.PLP.Chemscore.CHOScore>
0.0000

> <Gold.PLP.Chemscore.Metal>
0.0000

> <Gold.Chemscore.Hbonds>
donor molecule, donor type, donor heavy atom, donor atom, acceptor molecule, acceptor atom, score
      L1  H    13    38       P1  7948  2.00
      P1  H  7989  7998       L1     8  0.53
      P1  H  7997  8009       L1     6  1.54

> <Gold.PLP.Chemscore.Internal.Correction>
0.0674

> <Gold.Rescore>
     Score         DG    S(hbond)    S(metal)    S(lipo)     H(rot)  DE(clash)    DE(int)     intcor
     10.55     -13.90       1.54        0.00      63.45       1.62       0.37       2.98       ----

> <Gold.Chemscore.Fitness>
10.5463

> <Gold.Chemscore.DG>
-13.8989

> <Gold.Chemscore.ZeroCoef>
-5.4800

> <Gold.Chemscore.Hbond>
1.5392

> <Gold.Chemscore.Metal>
0.0000

> <Gold.Chemscore.Lipo>
63.4465

> <Gold.Chemscore.Internal_Hbond>
0.0000

> <Gold.Chemscore.DEClash>
0.3723

> <Gold.Chemscore.DEInternal>
2.9803

> <Gold.Chemscore.Rot>
1.6192

> <Gold.Chemscore.Internal.Correction>
   9.000000E+99

> <Gold.Chemscore.Hbonds>
donor molecule, donor type, donor heavy atom, donor atom, acceptor molecule, acceptor atom, score
      L1  H    13    38       P1  7948  0.96
      P1  H  7989  7998       L1     8  0.23
      P1  H  7997  8009       L1     6  0.08

> <Gold.Chemscore.Hbond.Weighted>
-5.1409

> <Gold.Chemscore.Metal.Weighted>
-0.0000

> <Gold.Chemscore.Lipo.Weighted>
-7.4232

> <Gold.Chemscore.Internal_Hbond.Weighted>
0.0000

> <Gold.Chemscore.DEClash.Weighted>
0.3723

> <Gold.Chemscore.DEInternal.Weighted>
2.9803

> <Gold.Chemscore.Rot.Weighted>
4.1452

> <Gold.Chemscore.Internal.Correction.Weighted>
   9.000000E+99

> <Gold.Protein.RotatedTorsions>
[ 6907 6896 6895 6894 ] final  167.72 input  -60.11 | X-H torsion
[ 7974 7965 7964 7962 ] final   96.78 input  175.53 | X-H torsion
[ 8008 7997 7996 7995 ] final  177.20 input   59.86 | X-H torsion
[ 10167 10162 10161 10158 ] final  170.19 input  -65.29 | X-H torsion
[ 10718 10713 10712 10709 ] final   24.80 input   66.30 | X-H torsion
[ 10763 10752 10751 10750 ] final  -44.78 input  -60.55 | X-H torsion
[ 11005 11000 10999 10996 ] final -133.30 input  -57.11 | X-H torsion

> <Gold.Protein.ActiveResidues>
 VAL166  LYS551  ARG553  GLY616  TRP617  ASP618  TYR619  PRO620  LYS621  CYS622 
 ASP623  PHE694  ASN695  SER759  ASP760  ASP761  ALA762  ILE779  LEU786  VAL792 
 PHE793  MET794  SER795  GLU796  ALA797  LYS798  CYS799  TRP800  GLU811  SER814 

> <Gold.Protein.RotatedAtoms>
  151.8588  133.3453  159.3696 H   0  0  0  0  0  0  0  0  0  0  0  0  # atno 6907 bound_to 6896
  150.7185  134.5226  159.5670 H   0  0  0  0  0  0  0  0  0  0  0  0  # atno 6908 bound_to 6896
  152.2735  134.7907  160.0461 H   0  0  0  0  0  0  0  0  0  0  0  0  # atno 6909 bound_to 6896
  145.4343  139.2307  143.3127 H   0  0  0  0  0  0  0  0  0  0  0  0  # atno 7974 bound_to 7965
  156.0683  140.1364  156.9860 H   0  0  0  0  0  0  0  0  0  0  0  0  # atno 8008 bound_to 7997
  154.4518  140.0977  156.6691 H   0  0  0  0  0  0  0  0  0  0  0  0  # atno 8009 bound_to 7997
  155.5269  140.3457  155.4420 H   0  0  0  0  0  0  0  0  0  0  0  0  # atno 8010 bound_to 7997
  139.5012  144.3624  151.9811 H   0  0  0  0  0  0  0  0  0  0  0  0  # atno 10167 bound_to 10162
  157.1848  130.6819  149.6127 H   0  0  0  0  0  0  0  0  0  0  0  0  # atno 10718 bound_to 10713
  154.0178  135.6673  153.4770 H   0  0  0  0  0  0  0  0  0  0  0  0  # atno 10763 bound_to 10752
  153.0593  135.5037  154.8052 H   0  0  0  0  0  0  0  0  0  0  0  0  # atno 10764 bound_to 10752
  154.6956  135.3069  154.9380 H   0  0  0  0  0  0  0  0  0  0  0  0  # atno 10765 bound_to 10752
  140.9093  134.1589  157.4402 H   0  0  0  0  0  0  0  0  0  0  0  0  # atno 11005 bound_to 11000
  146.2590  140.5084  142.8861 LP  0  0  0  0  0  0  0  0  0  0  0  0  # atno 17320 bound_to 7965
  144.8162  140.6472  143.6382 LP  0  0  0  0  0  0  0  0  0  0  0  0  # atno 17321 bound_to 7965
  140.3060  144.3592  150.6047 LP  0  0  0  0  0  0  0  0  0  0  0  0  # atno 17342 bound_to 10162
  140.5836  143.2171  151.7383 LP  0  0  0  0  0  0  0  0  0  0  0  0  # atno 17343 bound_to 10162
  155.9719  130.4634  150.6182 LP  0  0  0  0  0  0  0  0  0  0  0  0  # atno 17370 bound_to 10713
  157.3918  131.0797  151.1387 LP  0  0  0  0  0  0  0  0  0  0  0  0  # atno 17371 bound_to 10713
  139.8754  134.9929  156.5620 LP  0  0  0  0  0  0  0  0  0  0  0  0  # atno 17394 bound_to 11000
  140.8131  133.8413  155.8827 LP  0  0  0  0  0  0  0  0  0  0  0  0  # atno 17395 bound_to 11000

$$$$
