#       Name:                AV-unprocessed.smi:111
#       Creating user name   scv26
#       Creation time:       Thu Mar 26 18:16:49 2020


#       File generated by GOLD software.
#

@<TRIPOS>MOLECULE
AV-unprocessed.smi:111
    54    56     1
SMALL
NO_CHARGES


@<TRIPOS>ATOM
      1 ****        -1.0289  -0.6358  -3.2226 O.2            1 S1                 0.0000
      2 ****        -1.0766  -0.1730  -2.0814 C.2            1 S1                 0.0000
      3 ****        -0.9972   1.2544  -1.7931 C.2            1 S1                 0.0000
      4 ****        -0.8836   2.1316  -2.8046 F              1 S1                 0.0000
      5 ****        -1.0295   1.7113  -0.5234 C.2            1 S1                 0.0000
      6 ****        -1.1376   0.8776   0.5764 N.am           1 S1                 0.0000
      7 ****        -1.1482   1.4349   1.9819 C.3            1 S1                 0.0000
      8 ****        -2.5856   1.7254   2.4266 C.3            1 S1                 0.0000
      9 ****        -2.7231   3.1964   2.0984 C.3            1 S1                 0.0000
     10 ****        -1.3149   3.7068   2.3817 C.3            1 S1                 0.0000
     11 ****        -0.4461   2.6447   1.9973 O.3            1 S1                 0.0000
     12 ****        -1.2508  -0.5178   0.3915 C.2            1 S1                 0.0000
     13 ****        -1.3802  -1.2702   1.3596 O.2            1 S1                 0.0000
     14 ****        -1.2076  -1.0012  -0.9388 N.am           1 S1                 0.0000
     15 ****        -1.2765  -2.4386  -1.1630 C.3            1 S1                 0.0000
     16 ****         0.0906  -3.0956  -1.4690 C.3            1 S1                 0.0000
     17 ****        -0.1555  -4.3627  -2.0439 O.3            1 S1                 0.0000
     18 ****         1.0126  -3.2691  -0.2379 C.3            1 S1                 0.0000
     19 ****         2.4267  -2.6935  -0.4287 C.3            1 S1                 0.0000
     20 ****         2.4519  -1.1757  -0.4914 C.ar           1 S1                 0.0000
     21 ****         2.5945  -0.5131  -1.7291 C.ar           1 S1                 0.0000
     22 ****         2.6157   0.8942  -1.7805 C.ar           1 S1                 0.0000
     23 ****         2.4989   1.6450  -0.5948 C.ar           1 S1                 0.0000
     24 ****         2.3601   0.9877   0.6426 C.ar           1 S1                 0.0000
     25 ****         2.3365  -0.4195   0.6942 C.ar           1 S1                 0.0000
     26 ****        -0.9653   2.7786  -0.3739 H              1 S1                 0.0000
     27 ****        -0.6285   0.7071   2.6071 H              1 S1                 0.0000
     28 ****        -3.3140   1.0858   1.9264 H              1 S1                 0.0000
     29 ****        -2.6547   1.5663   3.5033 H              1 S1                 0.0000
     30 ****        -2.9698   3.3272   1.0441 H              1 S1                 0.0000
     31 ****        -3.4865   3.6988   2.6927 H              1 S1                 0.0000
     32 ****        -1.0843   4.6267   1.8439 H              1 S1                 0.0000
     33 ****        -1.1870   3.8945   3.4487 H              1 S1                 0.0000
     34 ****        -1.7719  -2.9131  -0.3153 H              1 S1                 0.0000
     35 ****        -1.9713  -2.5742  -1.9946 H              1 S1                 0.0000
     36 ****         0.6022  -2.5217  -2.2408 H              1 S1                 0.0000
     37 ****         0.6705  -4.7378  -2.3085 H              1 S1                 0.0000
     38 ****         0.5670  -2.8231   0.6492 H              1 S1                 0.0000
     39 ****         1.1035  -4.3286   0.0062 H              1 S1                 0.0000
     40 ****         3.0586  -3.0070   0.4030 H              1 S1                 0.0000
     41 ****         2.8836  -3.1104  -1.3272 H              1 S1                 0.0000
     42 ****         2.6822  -1.0813  -2.6435 H              1 S1                 0.0000
     43 ****         2.7183   1.3977  -2.7304 H              1 S1                 0.0000
     44 ****         2.5114   2.7242  -0.6348 H              1 S1                 0.0000
     45 ****         2.2651   1.5626   1.5519 H              1 S1                 0.0000
     46 ****         2.2237  -0.9174   1.6460 H              1 S1                 0.0000
     47 ****        -1.0830  -1.6243  -3.3640 LP             1 S1                 0.0000
     48 ****        -0.9361  -0.0228  -4.0073 LP             1 S1                 0.0000
     49 ****        -0.0823   2.8283   1.0840 LP             1 S1                 0.0000
     50 ****         0.3087   2.5814   2.6501 LP             1 S1                 0.0000
     51 ****        -1.4057  -0.8936   2.2856 LP             1 S1                 0.0000
     52 ****        -1.4596  -2.2570   1.2188 LP             1 S1                 0.0000
     53 ****        -0.7507  -4.2615  -2.8411 LP             1 S1                 0.0000
     54 ****        -0.5964  -4.9579  -1.3722 LP             1 S1                 0.0000
@<TRIPOS>BOND
    1    1    2 2     
    2    2   14 am    
    3    2    3 1     
    4    3    4 1     
    5    3    5 2     
    6    5    6 1     
    7    5   26 1     
    8    6    7 1     
    9    6   12 am    
   10    7   11 1     
   11    7    8 1     
   12    7   27 1     
   13    8    9 1     
   14    8   28 1     
   15    8   29 1     
   16    9   10 1     
   17    9   30 1     
   18    9   31 1     
   19   10   11 1     
   20   10   32 1     
   21   10   33 1     
   22   12   13 2     
   23   12   14 am    
   24   14   15 1     
   25   15   16 1     
   26   15   34 1     
   27   15   35 1     
   28   16   17 1     
   29   16   18 1     
   30   16   36 1     
   31   17   37 1     
   32   18   19 1     
   33   18   38 1     
   34   18   39 1     
   35   19   20 1     
   36   19   40 1     
   37   19   41 1     
   38   20   25 ar    
   39   20   21 ar    
   40   21   22 ar    
   41   21   42 1     
   42   22   23 ar    
   43   22   43 1     
   44   23   24 ar    
   45   23   44 1     
   46   24   25 ar    
   47   24   45 1     
   48   25   46 1     
   49    1   47 1     
   50    1   48 1     
   51   11   49 1     
   52   11   50 1     
   53   13   51 1     
   54   13   52 1     
   55   17   53 1     
   56   17   54 1     
@<TRIPOS>SUBSTRUCTURE
      1 S1             1
@<TRIPOS>SET
LONE_PAIRS      STATIC     ATOMS    <user>   **** ""
8 47 48 49 50 51 52 53 54
DONOR_HYDROGENS      STATIC     ATOMS    <user>   **** ""
1 37
ATOM$BLUE        STATIC     ATOMS    COLORGROUP SYSTEM
8 47 48 49 50 51 52 53 54
ATOM$RED        STATIC     ATOMS    COLORGROUP SYSTEM
1 37
