#       Name:                AV-unprocessed.smi:1813
#       Creating user name   scv26
#       Creation time:       Fri Mar 27 09:00:42 2020


#       File generated by GOLD software.
#

@<TRIPOS>MOLECULE
AV-unprocessed.smi:1813
    45    46     1
SMALL
NO_CHARGES


@<TRIPOS>ATOM
      1 ****        -4.6354   3.7919  -1.8137 C.3            1 S1                 0.0000
      2 ****        -3.9725   2.5327  -1.4955 N.pl3          1 S1                -1.0000
      3 ****        -3.2404   1.8224  -2.3952 C.2            1 S1                 0.0000
      4 ****        -2.9817   2.0484  -3.5821 O.2            1 S1                 0.0000
      5 ****        -2.6509   0.5605  -1.7547 C.3            1 S1                 0.0000
      6 ****        -1.1735   0.6728  -1.6678 N.4            1 S1                 1.0000
      7 ****        -0.5102  -0.6552  -1.6371 C.3            1 S1                 0.0000
      8 ****         1.0209  -0.5140  -1.6975 C.3            1 S1                 0.0000
      9 ****         1.5629   0.3887  -0.5715 C.3            1 S1                 0.0000
     10 ****         1.4551  -0.2506   0.7398 N.am           1 S1                 0.0000
     11 ****         2.2762  -1.2021   1.2078 C.2            1 S1                 0.0000
     12 ****         3.2241  -1.6551   0.5656 O.2            1 S1                 0.0000
     13 ****         1.9234  -1.5836   2.4481 N.am           1 S1                 0.0000
     14 ****         2.5349  -2.5658   3.2710 C.2            1 S1                 0.0000
     15 ****         3.5996  -3.2933   2.9136 N.2            1 S1                 0.0000
     16 ****         3.9873  -4.1838   3.9180 C.2            1 S1                 0.0000
     17 ****         3.1995  -4.1217   5.0405 C.2            1 S1                 0.0000
     18 ****         1.9338  -2.9331   4.8811 S.3            1 S1                 0.0000
     19 ****         0.8122   1.7314  -0.5796 C.3            1 S1                 0.0000
     20 ****        -0.7152   1.5409  -0.5494 C.3            1 S1                 0.0000
     21 ****        -5.2106   4.1717  -0.9697 H              1 S1                 0.0000
     22 ****        -5.3336   3.6978  -2.6458 H              1 S1                 0.0000
     23 ****        -3.9271   4.5762  -2.0826 H              1 S1                 0.0000
     24 ****        -3.0768   0.3424  -0.7726 H              1 S1                 0.0000
     25 ****        -2.9238  -0.2759  -2.3998 H              1 S1                 0.0000
     26 ****        -0.8089  -1.1926  -0.7357 H              1 S1                 0.0000
     27 ****        -0.8445  -1.2525  -2.4862 H              1 S1                 0.0000
     28 ****         1.4891  -1.4983  -1.6628 H              1 S1                 0.0000
     29 ****         1.2986  -0.0855  -2.6615 H              1 S1                 0.0000
     30 ****         2.6190   0.5912  -0.7598 H              1 S1                 0.0000
     31 ****         0.7057   0.0638   1.3390 H              1 S1                 0.0000
     32 ****         1.1238  -1.1187   2.8519 H              1 S1                 0.0000
     33 ****         4.8380  -4.8277   3.7491 H              1 S1                 0.0000
     34 ****         3.2876  -4.7004   5.9480 H              1 S1                 0.0000
     35 ****         1.1298   2.3486   0.2618 H              1 S1                 0.0000
     36 ****         1.0817   2.2862  -1.4794 H              1 S1                 0.0000
     37 ****        -1.1911   2.5197  -0.6115 H              1 S1                 0.0000
     38 ****        -1.0246   1.1039   0.4011 H              1 S1                 0.0000
     39 ****        -0.8814   1.1183  -2.5261 H              1 S1                 0.0000
     40 ****        -4.0608   2.1724  -0.5668 LP             1 S1                 0.0000
     41 ****        -3.3361   2.8732  -4.0228 LP             1 S1                 0.0000
     42 ****        -2.4180   1.4066  -4.1019 LP             1 S1                 0.0000
     43 ****         3.4134  -1.3131  -0.3548 LP             1 S1                 0.0000
     44 ****         3.8046  -2.3649   0.9645 LP             1 S1                 0.0000
     45 ****         4.0632  -3.2095   2.0315 LP             1 S1                 0.0000
@<TRIPOS>BOND
    1    1    2 1     
    2    1   21 1     
    3    1   22 1     
    4    1   23 1     
    5    2    3 1     
    6    3    4 2     
    7    3    5 1     
    8    5    6 1     
    9    5   24 1     
   10    5   25 1     
   11    6   20 1     
   12    6    7 1     
   13    6   39 1     
   14    7    8 1     
   15    7   26 1     
   16    7   27 1     
   17    8    9 1     
   18    8   28 1     
   19    8   29 1     
   20    9   10 1     
   21    9   19 1     
   22    9   30 1     
   23   10   11 am    
   24   10   31 1     
   25   11   12 2     
   26   11   13 am    
   27   13   14 1     
   28   13   32 1     
   29   14   18 1     
   30   14   15 2     
   31   15   16 1     
   32   16   17 2     
   33   16   33 1     
   34   17   18 1     
   35   17   34 1     
   36   19   20 1     
   37   19   35 1     
   38   19   36 1     
   39   20   37 1     
   40   20   38 1     
   41    2   40 1     
   42    4   41 1     
   43    4   42 1     
   44   12   43 1     
   45   12   44 1     
   46   15   45 1     
@<TRIPOS>SUBSTRUCTURE
      1 S1             1
@<TRIPOS>SET
LONE_PAIRS      STATIC     ATOMS    <user>   **** ""
6 40 41 42 43 44 45
DONOR_HYDROGENS      STATIC     ATOMS    <user>   **** ""
3 39 31 32
ATOM$BLUE        STATIC     ATOMS    COLORGROUP SYSTEM
6 40 41 42 43 44 45
ATOM$RED        STATIC     ATOMS    COLORGROUP SYSTEM
3 39 31 32
