AV-unprocessed.smi:1240|AV-procd|sdf|5197|dock4
  -GOLD-   22720 4283D 1   1.00000     0.00000
 Structure written by MMmdl.
 47 49  0  0  0  0  0  0  0  0  1 V2000
  144.6722  136.8449  152.6561 O   0  0  0  0  0  0  0  0  0  0  0  0
  145.8874  136.6979  152.5262 C   0  0  0  0  0  0  0  0  0  0  0  0
  146.7839  137.6306  152.8777 N   0  0  0  0  0  0  0  0  0  0  0  0
  146.4562  138.9374  153.4420 C   0  0  0  0  0  0  0  0  0  0  0  0
  146.8011  139.0662  154.9596 C   0  0  2  0  0  0  0  0  0  0  0  0
  145.7773  140.0428  155.6343 C   0  0  1  0  0  0  0  0  0  0  0  0
  145.6533  141.4740  155.1400 C   0  0  0  0  0  0  0  0  0  0  0  0
  144.3772  141.9246  155.8399 C   0  0  0  0  0  0  0  0  0  0  0  0
  143.5356  140.7765  155.8421 O   0  0  0  0  0  0  0  0  0  0  0  0
  144.3077  139.6068  155.5788 C   0  0  0  0  0  0  0  0  0  0  0  0
  148.2196  139.3895  155.2585 N   0  0  0  0  0  0  0  0  0  0  0  0
  149.1432  138.5043  154.5362 C   0  0  0  0  0  0  0  0  0  0  0  0
  150.6107  138.7577  154.9176 C   0  0  0  0  0  0  0  0  0  0  0  0
  150.9420  140.1115  154.6338 O   0  0  0  0  0  0  0  0  0  0  0  0
  150.0981  141.0317  155.3152 C   0  0  0  0  0  0  0  0  0  0  0  0
  148.6269  140.7640  154.9492 C   0  0  0  0  0  0  0  0  0  0  0  0
  146.4922  135.6173  152.0031 N   0  0  0  0  0  0  0  0  0  0  0  0
  145.9032  134.4303  151.4889 C   0  0  0  0  0  0  0  0  0  0  0  0
  144.4998  134.4009  151.3535 C   0  0  0  0  0  0  0  0  0  0  0  0
  143.8914  133.2411  150.8335 C   0  0  0  0  0  0  0  0  0  0  0  0
  144.5849  132.1504  150.4460 N   0  0  0  0  0  0  0  0  0  0  0  0
  145.9293  132.1853  150.5626 C   0  0  0  0  0  0  0  0  0  0  0  0
  146.6363  133.2938  151.0699 C   0  0  0  0  0  0  0  0  0  0  0  0
  147.7629  137.4295  152.7351 H   0  0  0  0  0  0  0  0  0  0  0  0
  146.9923  139.6813  152.8514 H   0  0  0  0  0  0  0  0  0  0  0  0
  145.3951  139.1203  153.2723 H   0  0  0  0  0  0  0  0  0  0  0  0
  146.6072  138.0783  155.3800 H   0  0  0  0  0  0  0  0  0  0  0  0
  146.0487  140.1221  156.6881 H   0  0  0  0  0  0  0  0  0  0  0  0
  146.5149  142.0965  155.3827 H   0  0  0  0  0  0  0  0  0  0  0  0
  145.4746  141.5110  154.0655 H   0  0  0  0  0  0  0  0  0  0  0  0
  144.5864  142.2103  156.8714 H   0  0  0  0  0  0  0  0  0  0  0  0
  143.9007  142.7695  155.3422 H   0  0  0  0  0  0  0  0  0  0  0  0
  144.0498  139.2377  154.5853 H   0  0  0  0  0  0  0  0  0  0  0  0
  144.0753  138.8237  156.3007 H   0  0  0  0  0  0  0  0  0  0  0  0
  148.9174  137.4550  154.6960 H   0  0  0  0  0  0  0  0  0  0  0  0
  149.0303  138.6616  153.4622 H   0  0  0  0  0  0  0  0  0  0  0  0
  150.7798  138.5427  155.9738 H   0  0  0  0  0  0  0  0  0  0  0  0
  151.2698  138.1040  154.3461 H   0  0  0  0  0  0  0  0  0  0  0  0
  150.2485  140.9424  156.3922 H   0  0  0  0  0  0  0  0  0  0  0  0
  150.3799  142.0469  155.0360 H   0  0  0  0  0  0  0  0  0  0  0  0
  148.4725  140.9713  153.8891 H   0  0  0  0  0  0  0  0  0  0  0  0
  148.0193  141.4751  155.5082 H   0  0  0  0  0  0  0  0  0  0  0  0
  147.4942  135.6796  151.9002 H   0  0  0  0  0  0  0  0  0  0  0  0
  143.8953  135.2467  151.6472 H   0  0  0  0  0  0  0  0  0  0  0  0
  142.8181  133.1896  150.7248 H   0  0  0  0  0  0  0  0  0  0  0  0
  146.4603  131.3040  150.2347 H   0  0  0  0  0  0  0  0  0  0  0  0
  147.7135  133.2523  151.1144 H   0  0  0  0  0  0  0  0  0  0  0  0
  1  2  2  0  0  0  0
  2  3  1  0  0  0  0
  2 17  1  0  0  0  0
  3  4  1  0  0  0  0
  3 24  1  0  0  0  0
  4  5  1  0  0  0  0
  4 25  1  0  0  0  0
  4 26  1  0  0  0  0
  5  6  1  0  0  0  0
  5 11  1  0  0  0  0
  5 27  1  0  0  0  0
  6 10  1  0  0  0  0
  6  7  1  0  0  0  0
  6 28  1  0  0  0  0
  7  8  1  0  0  0  0
  7 29  1  0  0  0  0
  7 30  1  0  0  0  0
  8  9  1  0  0  0  0
  8 31  1  0  0  0  0
  8 32  1  0  0  0  0
  9 10  1  0  0  0  0
 10 33  1  0  0  0  0
 10 34  1  0  0  0  0
 11 16  1  0  0  0  0
 11 12  1  0  0  0  0
 12 13  1  0  0  0  0
 12 35  1  0  0  0  0
 12 36  1  0  0  0  0
 13 14  1  0  0  0  0
 13 37  1  0  0  0  0
 13 38  1  0  0  0  0
 14 15  1  0  0  0  0
 15 16  1  0  0  0  0
 15 39  1  0  0  0  0
 15 40  1  0  0  0  0
 16 41  1  0  0  0  0
 16 42  1  0  0  0  0
 17 18  1  0  0  0  0
 17 43  1  0  0  0  0
 18 23  1  0  0  0  0
 18 19  2  0  0  0  0
 19 20  1  0  0  0  0
 19 44  1  0  0  0  0
 20 21  2  0  0  0  0
 20 45  1  0  0  0  0
 21 22  1  0  0  0  0
 22 23  2  0  0  0  0
 22 46  1  0  0  0  0
 23 47  1  0  0  0  0
M  END
> <s_m_source_file>
AV-unprocessed.smi

> <i_m_source_file_index>
1240

> <i_lp_mmshare_version>
43012

> <i_f3d_flags>
0

> <s_epik_input>
W2NIXTFbY0hdbltjSF1bY0hdYzFbTkhdQyg9TylbTkhdW0NIMl1bQ0BIXShbQ0BASF0yW0NIMl1bQ0gyXU9bQ0gyXTIpTjNbQ0gyXVtDSDJdT1tDSDJdW0NIMl0z

> <s_epik_cmdline>
J2VwaWtfcHl0aG9uJywgJy1waCcsICc3LjAnLCAnLXRuJywgJzgnLCAnLW1hJywgJzIwMCcsICctbWV0YWxfYmluZGluZycsICctaW1hZScsICc8aW5maWxlLm1hZT4nLCAnLW9tYWUnLCAnPG91dGZpbGUubWFlPic=

> <r_epik_Ionization_Penalty>
0.238664

> <r_epik_Ionization_Penalty_Charging>
0

> <r_epik_Ionization_Penalty_Neutral>
0.238664

> <r_epik_State_Penalty>
0.217087

> <r_epik_Charging_Adjusted_Penalty>
0.217087

> <i_epik_Tot_Q>
0

> <i_epik_Tot_abs_Q>
0

> <r_epik_Metal_State_Penalty>
0.199194

> <b_epik_Metal_Only>
0

> <s_lp_Force_Field>
OPLS_2005

> <r_lp_Energy>
60.4564

> <b_lp_Chiralities_Consistent>
1

> <s_lp_Variant>
AV-unprocessed.smi:1240-3

> <Gold.Version>
5.8.1

> <Gold.Id.Protein>
6NUR|6NUR_protein|mol2

> <Gold.PLP.Fitness>
43.6981

> <Gold.PLP.PLP>
-30.0799

> <Gold.PLP.part.hbond>
-2.8758

> <Gold.PLP.part.metal>
0.0000

> <Gold.PLP.part.buried>
-5.5385

> <Gold.PLP.part.nonpolar>
-23.3539

> <Gold.PLP.part.repulsive>
0.6689

> <Gold.PLP.ligand.clash>
0.0000

> <Gold.PLP.ligand.torsion>
0.5281

> <Gold.PLP.Chemscore.Hbond>
2.8303

> <Gold.PLP.Chemscore.CHOScore>
1.9866

> <Gold.PLP.Chemscore.Metal>
0.0000

> <Gold.Chemscore.Hbonds>
donor molecule, donor type, donor heavy atom, donor atom, acceptor molecule, acceptor atom, score
      L1  H     3    24       P1  7948  0.86
      L1  H    17    43       P1  7948  0.99
      P1  H  7989  7998       L1    14  0.99
      L1  C    20    45       P1 10186  1.00
      L1  C    22    46       P1 10747  0.95

> <Gold.PLP.Chemscore.Internal.Correction>
0.2239

> <Gold.Rescore>
     Score         DG    S(hbond)    S(metal)    S(lipo)     H(rot)  DE(clash)    DE(int)     intcor
     16.29     -19.03       2.85        0.00      70.53       1.65       0.04       2.71       ----

> <Gold.Chemscore.Fitness>
16.2851

> <Gold.Chemscore.DG>
-19.0311

> <Gold.Chemscore.ZeroCoef>
-5.4800

> <Gold.Chemscore.Hbond>
2.8518

> <Gold.Chemscore.Metal>
0.0000

> <Gold.Chemscore.Lipo>
70.5313

> <Gold.Chemscore.Internal_Hbond>
0.0000

> <Gold.Chemscore.DEClash>
0.0354

> <Gold.Chemscore.DEInternal>
2.7106

> <Gold.Chemscore.Rot>
1.6508

> <Gold.Chemscore.Internal.Correction>
   9.000000E+99

> <Gold.Chemscore.Hbonds>
donor molecule, donor type, donor heavy atom, donor atom, acceptor molecule, acceptor atom, score
      L1  H     3    24       P1  7948  0.85
      L1  H    17    43       P1  7948  0.92
      P1  H  7989  7998       L1    14  0.61

> <Gold.Chemscore.Hbond.Weighted>
-9.5251

> <Gold.Chemscore.Metal.Weighted>
-0.0000

> <Gold.Chemscore.Lipo.Weighted>
-8.2522

> <Gold.Chemscore.Internal_Hbond.Weighted>
0.0000

> <Gold.Chemscore.DEClash.Weighted>
0.0354

> <Gold.Chemscore.DEInternal.Weighted>
2.7106

> <Gold.Chemscore.Rot.Weighted>
4.2262

> <Gold.Chemscore.Internal.Correction.Weighted>
   9.000000E+99

> <Gold.Protein.RotatedTorsions>
[ 6907 6896 6895 6894 ] final  -19.44 input  -60.11 | X-H torsion
[ 7974 7965 7964 7962 ] final  -24.93 input  175.53 | X-H torsion
[ 8008 7997 7996 7995 ] final -143.57 input   59.86 | X-H torsion
[ 10167 10162 10161 10158 ] final -115.41 input  -65.29 | X-H torsion
[ 10718 10713 10712 10709 ] final  -66.66 input   66.30 | X-H torsion
[ 10763 10752 10751 10750 ] final   45.38 input  -60.55 | X-H torsion
[ 11005 11000 10999 10996 ] final   57.50 input  -57.11 | X-H torsion

> <Gold.Protein.ActiveResidues>
 VAL166  LYS551  ARG553  GLY616  TRP617  ASP618  TYR619  PRO620  LYS621  CYS622 
 ASP623  PHE694  ASN695  SER759  ASP760  ASP761  ALA762  ILE779  LEU786  VAL792 
 PHE793  MET794  SER795  GLU796  ALA797  LYS798  CYS799  TRP800  GLU811  SER814 

> <Gold.Protein.RotatedAtoms>
  151.2631  135.0660  159.9105 H   0  0  0  0  0  0  0  0  0  0  0  0  # atno 6907 bound_to 6896
  152.5363  134.0210  159.7992 H   0  0  0  0  0  0  0  0  0  0  0  0  # atno 6908 bound_to 6896
  151.0436  133.5635  159.2680 H   0  0  0  0  0  0  0  0  0  0  0  0  # atno 6909 bound_to 6896
  146.1523  140.4818  142.8606 H   0  0  0  0  0  0  0  0  0  0  0  0  # atno 7974 bound_to 7965
  155.5128  140.0585  157.2920 H   0  0  0  0  0  0  0  0  0  0  0  0  # atno 8008 bound_to 7997
  154.4546  140.1966  156.0366 H   0  0  0  0  0  0  0  0  0  0  0  0  # atno 8009 bound_to 7997
  156.0773  140.3252  155.7653 H   0  0  0  0  0  0  0  0  0  0  0  0  # atno 8010 bound_to 7997
  140.0904  143.4705  152.1873 H   0  0  0  0  0  0  0  0  0  0  0  0  # atno 10167 bound_to 10162
  156.0600  130.4265  150.1741 H   0  0  0  0  0  0  0  0  0  0  0  0  # atno 10718 bound_to 10713
  152.9825  135.6041  154.3427 H   0  0  0  0  0  0  0  0  0  0  0  0  # atno 10763 bound_to 10752
  154.3122  135.2771  155.2562 H   0  0  0  0  0  0  0  0  0  0  0  0  # atno 10764 bound_to 10752
  154.4766  135.5928  153.6415 H   0  0  0  0  0  0  0  0  0  0  0  0  # atno 10765 bound_to 10752
  140.0448  134.5821  155.9336 H   0  0  0  0  0  0  0  0  0  0  0  0  # atno 11005 bound_to 11000
  144.7920  140.6049  143.6535 LP  0  0  0  0  0  0  0  0  0  0  0  0  # atno 17320 bound_to 7965
  145.4793  139.1497  143.3771 LP  0  0  0  0  0  0  0  0  0  0  0  0  # atno 17321 bound_to 7965
  139.5728  144.7472  151.3845 LP  0  0  0  0  0  0  0  0  0  0  0  0  # atno 17342 bound_to 10162
  140.7031  143.7581  150.7437 LP  0  0  0  0  0  0  0  0  0  0  0  0  # atno 17343 bound_to 10162
  156.9811  130.9864  151.3437 LP  0  0  0  0  0  0  0  0  0  0  0  0  # atno 17370 bound_to 10713
  157.5601  130.8240  149.8255 LP  0  0  0  0  0  0  0  0  0  0  0  0  # atno 17371 bound_to 10713
  141.1901  133.6567  156.5398 LP  0  0  0  0  0  0  0  0  0  0  0  0  # atno 17394 bound_to 11000
  140.4011  134.7355  157.4780 LP  0  0  0  0  0  0  0  0  0  0  0  0  # atno 17395 bound_to 11000

$$$$
