AV-unprocessed.smi:2346|AV-procd|sdf|9365|dock5
  -GOLD-   2272012593D 1   1.00000     0.00000
 Structure written by MMmdl.
 44 46  0  0  0  0  0  0  0  0  1 V2000
  146.1493  143.7205  161.6184 C   0  0  0  0  0  0  0  0  0  0  0  0
  146.8148  143.1110  160.5218 O   0  0  0  0  0  0  0  0  0  0  0  0
  146.3018  143.3012  159.2550 C   0  0  0  0  0  0  0  0  0  0  0  0
  145.2298  144.1841  158.9670 C   0  0  0  0  0  0  0  0  0  0  0  0
  144.7569  144.3305  157.6485 C   0  0  0  0  0  0  0  0  0  0  0  0
  143.6582  145.2385  157.3644 C   0  0  0  0  0  0  0  0  0  0  0  0
  142.7835  145.9612  157.1381 N   0  0  0  0  0  0  0  0  0  0  0  0
  145.3506  143.5954  156.6065 C   0  0  0  0  0  0  0  0  0  0  0  0
  146.4135  142.7167  156.8820 C   0  0  0  0  0  0  0  0  0  0  0  0
  146.8973  142.5627  158.2060 C   0  0  0  0  0  0  0  0  0  0  0  0
  147.9353  141.7200  158.5474 O   0  0  0  0  0  0  0  0  0  0  0  0
  148.4928  140.8891  157.5393 C   0  0  0  0  0  0  0  0  0  0  0  0
  149.6593  141.6364  156.8823 C   0  0  0  0  0  0  0  0  0  0  0  0
  150.9435  141.2400  157.4422 N   0  0  0  0  0  0  0  0  0  0  0  0
  151.7513  140.2086  157.0775 C   0  0  0  0  0  0  0  0  0  0  0  0
  151.4056  139.2446  155.9741 C   0  0  2  0  0  0  0  0  0  0  0  0
  152.5635  138.2849  155.6655 C   0  0  0  0  0  0  0  0  0  0  0  0
  151.0534  139.9115  154.7793 O   0  0  0  0  0  0  0  0  0  0  0  0
  152.8870  140.0959  157.7704 N   0  0  0  0  0  0  0  0  0  0  0  0
  152.8047  141.1383  158.6710 C   0  0  0  0  0  0  0  0  0  0  0  0
  153.7012  141.5488  159.6834 C   0  0  0  0  0  0  0  0  0  0  0  0
  153.3990  142.6608  160.4963 C   0  0  0  0  0  0  0  0  0  0  0  0
  152.1984  143.3756  160.3093 C   0  0  0  0  0  0  0  0  0  0  0  0
  151.2920  142.9832  159.3054 C   0  0  0  0  0  0  0  0  0  0  0  0
  151.5990  141.8731  158.4950 C   0  0  0  0  0  0  0  0  0  0  0  0
  146.6750  143.4724  162.5403 H   0  0  0  0  0  0  0  0  0  0  0  0
  145.1255  143.3566  161.7154 H   0  0  0  0  0  0  0  0  0  0  0  0
  146.1408  144.8075  161.5272 H   0  0  0  0  0  0  0  0  0  0  0  0
  144.7561  144.7605  159.7479 H   0  0  0  0  0  0  0  0  0  0  0  0
  144.9957  143.7004  155.5911 H   0  0  0  0  0  0  0  0  0  0  0  0
  146.8417  142.1706  156.0554 H   0  0  0  0  0  0  0  0  0  0  0  0
  148.8524  139.9560  157.9761 H   0  0  0  0  0  0  0  0  0  0  0  0
  147.7358  140.6494  156.7925 H   0  0  0  0  0  0  0  0  0  0  0  0
  149.6685  141.4819  155.8038 H   0  0  0  0  0  0  0  0  0  0  0  0
  149.5331  142.7099  157.0250 H   0  0  0  0  0  0  0  0  0  0  0  0
  150.5396  138.6490  156.2553 H   0  0  0  0  0  0  0  0  0  0  0  0
  152.8509  137.7147  156.5488 H   0  0  0  0  0  0  0  0  0  0  0  0
  153.4459  138.8253  155.3207 H   0  0  0  0  0  0  0  0  0  0  0  0
  152.2867  137.5718  154.8884 H   0  0  0  0  0  0  0  0  0  0  0  0
  150.1807  139.6446  154.5345 H   0  0  0  0  0  0  0  0  0  0  0  0
  154.6226  141.0066  159.8351 H   0  0  0  0  0  0  0  0  0  0  0  0
  154.0914  142.9665  161.2671 H   0  0  0  0  0  0  0  0  0  0  0  0
  151.9738  144.2255  160.9370 H   0  0  0  0  0  0  0  0  0  0  0  0
  150.3724  143.5304  159.1624 H   0  0  0  0  0  0  0  0  0  0  0  0
  1  2  1  0  0  0  0
  1 26  1  0  0  0  0
  1 27  1  0  0  0  0
  1 28  1  0  0  0  0
  2  3  1  0  0  0  0
  3 10  1  0  0  0  0
  3  4  2  0  0  0  0
  4  5  1  0  0  0  0
  4 29  1  0  0  0  0
  5  6  1  0  0  0  0
  5  8  2  0  0  0  0
  6  7  3  0  0  0  0
  8  9  1  0  0  0  0
  8 30  1  0  0  0  0
  9 10  2  0  0  0  0
  9 31  1  0  0  0  0
 10 11  1  0  0  0  0
 11 12  1  0  0  0  0
 12 13  1  0  0  0  0
 12 32  1  0  0  0  0
 12 33  1  0  0  0  0
 13 14  1  0  0  0  0
 13 34  1  0  0  0  0
 13 35  1  0  0  0  0
 14 25  1  0  0  0  0
 14 15  1  0  0  0  0
 15 16  1  0  0  0  0
 15 19  2  0  0  0  0
 16 17  1  0  0  0  0
 16 18  1  0  0  0  0
 16 36  1  0  0  0  0
 17 37  1  0  0  0  0
 17 38  1  0  0  0  0
 17 39  1  0  0  0  0
 18 40  1  0  0  0  0
 19 20  1  0  0  0  0
 20 25  2  0  0  0  0
 20 21  1  0  0  0  0
 21 22  2  0  0  0  0
 21 41  1  0  0  0  0
 22 23  1  0  0  0  0
 22 42  1  0  0  0  0
 23 24  2  0  0  0  0
 23 43  1  0  0  0  0
 24 25  1  0  0  0  0
 24 44  1  0  0  0  0
M  END
> <s_m_source_file>
AV-unprocessed.smi

> <i_m_source_file_index>
2346

> <i_lp_mmshare_version>
43012

> <i_f3d_flags>
0

> <s_epik_input>
W0NIM11PYzFbY0hdYyhDI04pW2NIXVtjSF1jMU9bQ0gyXVtDSDJdbihjKG4yKVtDQEhdKFtDSDNdKVtPSF0pYyhjMjMpW2NIXVtjSF1bY0hdW2NIXTM=

> <s_epik_cmdline>
J2VwaWtfcHl0aG9uJywgJy1waCcsICc3LjAnLCAnLXRuJywgJzgnLCAnLW1hJywgJzIwMCcsICctbWV0YWxfYmluZGluZycsICctaW1hZScsICc8aW5maWxlLm1hZT4nLCAnLW9tYWUnLCAnPG91dGZpbGUubWFlPic=

> <r_epik_Ionization_Penalty>
0.0419826

> <r_epik_Ionization_Penalty_Charging>
0

> <r_epik_Ionization_Penalty_Neutral>
0.0419826

> <r_epik_State_Penalty>
0.0354317

> <r_epik_Charging_Adjusted_Penalty>
0.0354317

> <i_epik_Tot_Q>
0

> <i_epik_Tot_abs_Q>
0

> <r_epik_Metal_State_Penalty>
3.65115e-05

> <b_epik_Metal_Only>
0

> <s_lp_Force_Field>
OPLS_2005

> <r_lp_Energy>
19.3722

> <b_lp_Chiralities_Consistent>
1

> <s_lp_Variant>
AV-unprocessed.smi:2346-1

> <Gold.Version>
5.8.1

> <Gold.Id.Protein>
6NUR|6NUR_protein|mol2

> <Gold.PLP.Fitness>
51.8759

> <Gold.PLP.PLP>
-42.3223

> <Gold.PLP.part.hbond>
-5.0000

> <Gold.PLP.part.metal>
0.0000

> <Gold.PLP.part.buried>
-6.2890

> <Gold.PLP.part.nonpolar>
-31.7150

> <Gold.PLP.part.repulsive>
0.0782

> <Gold.PLP.ligand.clash>
0.0000

> <Gold.PLP.ligand.torsion>
1.0099

> <Gold.PLP.Chemscore.Hbond>
3.8247

> <Gold.PLP.Chemscore.CHOScore>
0.0000

> <Gold.PLP.Chemscore.Metal>
0.0000

> <Gold.Chemscore.Hbonds>
donor molecule, donor type, donor heavy atom, donor atom, acceptor molecule, acceptor atom, score
      P1  H  6933  6944       L1     2  0.94
      P1  H  6934  6946       L1     2  0.41
      P1  H  7989  7998       L1    18  1.00
      P1  H  7997  8008       L1    19  1.00

> <Gold.PLP.Chemscore.Internal.Correction>
0.0994

> <Gold.Rescore>
     Score         DG    S(hbond)    S(metal)    S(lipo)     H(rot)  DE(clash)    DE(int)     intcor
     17.00     -19.27       2.73        0.00      96.12       2.57       0.02       2.24       ----

> <Gold.Chemscore.Fitness>
17.0006

> <Gold.Chemscore.DG>
-19.2658

> <Gold.Chemscore.ZeroCoef>
-5.4800

> <Gold.Chemscore.Hbond>
2.7287

> <Gold.Chemscore.Metal>
0.0000

> <Gold.Chemscore.Lipo>
96.1204

> <Gold.Chemscore.Internal_Hbond>
0.0000

> <Gold.Chemscore.DEClash>
0.0212

> <Gold.Chemscore.DEInternal>
2.2440

> <Gold.Chemscore.Rot>
2.5681

> <Gold.Chemscore.Internal.Correction>
   9.000000E+99

> <Gold.Chemscore.Hbonds>
donor molecule, donor type, donor heavy atom, donor atom, acceptor molecule, acceptor atom, score
      P1  H  6933  6944       L1     2  0.26
      P1  H  6934  6946       L1     2  0.15
      P1  H  7989  7998       L1    18  0.55
      P1  H  7997  8008       L1    19  0.76

> <Gold.Chemscore.Hbond.Weighted>
-9.1140

> <Gold.Chemscore.Metal.Weighted>
-0.0000

> <Gold.Chemscore.Lipo.Weighted>
-11.2461

> <Gold.Chemscore.Internal_Hbond.Weighted>
0.0000

> <Gold.Chemscore.DEClash.Weighted>
0.0212

> <Gold.Chemscore.DEInternal.Weighted>
2.2440

> <Gold.Chemscore.Rot.Weighted>
6.5743

> <Gold.Chemscore.Internal.Correction.Weighted>
   9.000000E+99

> <Gold.Protein.RotatedTorsions>
[ 6907 6896 6895 6894 ] final   76.97 input  -60.11 | X-H torsion
[ 7974 7965 7964 7962 ] final -128.40 input  175.53 | X-H torsion
[ 8008 7997 7996 7995 ] final  -66.72 input   59.86 | X-H torsion
[ 10167 10162 10161 10158 ] final   66.97 input  -65.29 | X-H torsion
[ 10718 10713 10712 10709 ] final -157.77 input   66.30 | X-H torsion
[ 10763 10752 10751 10750 ] final -139.41 input  -60.55 | X-H torsion
[ 11005 11000 10999 10996 ] final  161.34 input  -57.11 | X-H torsion

> <Gold.Protein.ActiveResidues>
 VAL166  LYS551  ARG553  GLY616  TRP617  ASP618  TYR619  PRO620  LYS621  CYS622 
 ASP623  PHE694  ASN695  SER759  ASP760  ASP761  ALA762  ILE779  LEU786  VAL792 
 PHE793  MET794  SER795  GLU796  ALA797  LYS798  CYS799  TRP800  GLU811  SER814 

> <Gold.Protein.RotatedAtoms>
  152.5097  134.3888  159.9376 H   0  0  0  0  0  0  0  0  0  0  0  0  # atno 6907 bound_to 6896
  151.3847  133.3803  159.2722 H   0  0  0  0  0  0  0  0  0  0  0  0  # atno 6908 bound_to 6896
  150.9478  134.8901  159.7711 H   0  0  0  0  0  0  0  0  0  0  0  0  # atno 6909 bound_to 6896
  144.9674  140.7510  143.4691 H   0  0  0  0  0  0  0  0  0  0  0  0  # atno 7974 bound_to 7965
  154.4752  140.0907  156.7245 H   0  0  0  0  0  0  0  0  0  0  0  0  # atno 8008 bound_to 7997
  155.4615  140.3461  155.4295 H   0  0  0  0  0  0  0  0  0  0  0  0  # atno 8009 bound_to 7997
  156.1105  140.1446  156.9333 H   0  0  0  0  0  0  0  0  0  0  0  0  # atno 8010 bound_to 7997
  140.0947  144.4957  150.7076 H   0  0  0  0  0  0  0  0  0  0  0  0  # atno 10167 bound_to 10162
  156.5449  130.8579  151.2761 H   0  0  0  0  0  0  0  0  0  0  0  0  # atno 10718 bound_to 10713
  154.8610  135.3583  154.5541 H   0  0  0  0  0  0  0  0  0  0  0  0  # atno 10763 bound_to 10752
  153.6159  135.7008  153.5334 H   0  0  0  0  0  0  0  0  0  0  0  0  # atno 10764 bound_to 10752
  153.3170  135.4162  155.1345 H   0  0  0  0  0  0  0  0  0  0  0  0  # atno 10765 bound_to 10752
  140.2148  134.8240  157.3159 H   0  0  0  0  0  0  0  0  0  0  0  0  # atno 11005 bound_to 11000
  145.2609  139.1993  143.4892 LP  0  0  0  0  0  0  0  0  0  0  0  0  # atno 17320 bound_to 7965
  146.3372  140.2539  142.8599 LP  0  0  0  0  0  0  0  0  0  0  0  0  # atno 17321 bound_to 7965
  140.7010  143.2435  151.4864 LP  0  0  0  0  0  0  0  0  0  0  0  0  # atno 17342 bound_to 10162
  139.5705  144.1940  152.1829 LP  0  0  0  0  0  0  0  0  0  0  0  0  # atno 17343 bound_to 10162
  157.7398  130.9839  150.2340 LP  0  0  0  0  0  0  0  0  0  0  0  0  # atno 17370 bound_to 10713
  156.2938  130.3749  149.7816 LP  0  0  0  0  0  0  0  0  0  0  0  0  # atno 17371 bound_to 10713
  140.1912  134.4369  155.7715 LP  0  0  0  0  0  0  0  0  0  0  0  0  # atno 17394 bound_to 11000
  141.2225  133.7028  156.8030 LP  0  0  0  0  0  0  0  0  0  0  0  0  # atno 17395 bound_to 11000

$$$$
