AV-unprocessed.smi:2227|AV-procd|sdf|9022|dock6
  -GOLD-   2272012223D 1   1.00000     0.00000
 Structure written by MMmdl.
 42 44  0  0  0  0  0  0  0  0  1 V2000
  151.3201  137.4364  155.4875 C   0  0  0  0  0  0  0  0  0  0  0  0
  151.6509  138.5894  154.5293 C   0  0  0  0  0  0  0  0  0  0  0  0
  153.1486  138.9290  154.5323 C   0  0  0  0  0  0  0  0  0  0  0  0
  150.8038  139.8000  154.8152 C   0  0  0  0  0  0  0  0  0  0  0  0
  149.9305  140.2979  153.9428 N   0  0  0  0  0  0  0  0  0  0  0  0
  149.3847  141.4106  154.5707 C   0  0  0  0  0  0  0  0  0  0  0  0
  149.9550  141.5558  155.8108 C   0  0  0  0  0  0  0  0  0  0  0  0
  150.8710  140.5207  155.9571 N   0  0  0  0  0  0  0  0  0  0  0  0
  151.7091  140.3073  157.1285 C   0  0  0  0  0  0  0  0  0  0  0  0
  151.3175  141.2394  158.2782 C   0  0  0  0  0  0  0  0  0  0  0  0
  150.1556  141.2650  158.6835 O   0  0  0  0  0  0  0  0  0  0  0  0
  152.2974  142.0042  158.7844 N   0  0  0  0  0  0  0  0  0  0  0  0
  152.1488  142.9844  159.8542 C   0  0  0  0  0  0  0  0  0  0  0  0
  152.0182  144.3912  159.2994 C   0  0  0  0  0  0  0  0  0  0  0  0
  151.2289  144.6751  158.0431 C   0  0  0  0  0  0  0  0  0  0  0  0
  152.7354  144.8023  158.0361 C   0  0  0  0  0  0  0  0  0  0  0  0
  153.2811  142.9214  160.8668 C   0  0  0  0  0  0  0  0  0  0  0  0
  153.6093  141.6463  161.6081 C   0  0  0  0  0  0  0  0  0  0  0  0
  153.0054  142.8165  162.3487 C   0  0  0  0  0  0  0  0  0  0  0  0
  150.2653  137.1670  155.4237 H   0  0  0  0  0  0  0  0  0  0  0  0
  151.5325  137.7058  156.5226 H   0  0  0  0  0  0  0  0  0  0  0  0
  151.9034  136.5468  155.2488 H   0  0  0  0  0  0  0  0  0  0  0  0
  151.4263  138.2337  153.5259 H   0  0  0  0  0  0  0  0  0  0  0  0
  153.3747  139.7074  153.8030 H   0  0  0  0  0  0  0  0  0  0  0  0
  153.7498  138.0554  154.2789 H   0  0  0  0  0  0  0  0  0  0  0  0
  153.4753  139.2831  155.5106 H   0  0  0  0  0  0  0  0  0  0  0  0
  148.6331  142.0156  154.0856 H   0  0  0  0  0  0  0  0  0  0  0  0
  149.7936  142.2961  156.5806 H   0  0  0  0  0  0  0  0  0  0  0  0
  151.5962  139.2746  157.4604 H   0  0  0  0  0  0  0  0  0  0  0  0
  152.7560  140.4316  156.8492 H   0  0  0  0  0  0  0  0  0  0  0  0
  153.2199  141.9104  158.3854 H   0  0  0  0  0  0  0  0  0  0  0  0
  151.2192  142.7665  160.3846 H   0  0  0  0  0  0  0  0  0  0  0  0
  151.9554  145.1554  160.0723 H   0  0  0  0  0  0  0  0  0  0  0  0
  150.7998  143.8320  157.5056 H   0  0  0  0  0  0  0  0  0  0  0  0
  150.6457  145.5931  158.0133 H   0  0  0  0  0  0  0  0  0  0  0  0
  153.1580  145.8044  158.0022 H   0  0  0  0  0  0  0  0  0  0  0  0
  153.2965  144.0409  157.4986 H   0  0  0  0  0  0  0  0  0  0  0  0
  154.1342  143.5411  160.5966 H   0  0  0  0  0  0  0  0  0  0  0  0
  152.9723  140.7800  161.4429 H   0  0  0  0  0  0  0  0  0  0  0  0
  154.6599  141.4250  161.7848 H   0  0  0  0  0  0  0  0  0  0  0  0
  153.6528  143.3770  163.0199 H   0  0  0  0  0  0  0  0  0  0  0  0
  151.9714  142.7178  162.6720 H   0  0  0  0  0  0  0  0  0  0  0  0
  1  2  1  0  0  0  0
  1 20  1  0  0  0  0
  1 21  1  0  0  0  0
  1 22  1  0  0  0  0
  2  3  1  0  0  0  0
  2  4  1  0  0  0  0
  2 23  1  0  0  0  0
  3 24  1  0  0  0  0
  3 25  1  0  0  0  0
  3 26  1  0  0  0  0
  4  8  1  0  0  0  0
  4  5  2  0  0  0  0
  5  6  1  0  0  0  0
  6  7  2  0  0  0  0
  6 27  1  0  0  0  0
  7  8  1  0  0  0  0
  7 28  1  0  0  0  0
  8  9  1  0  0  0  0
  9 10  1  0  0  0  0
  9 29  1  0  0  0  0
  9 30  1  0  0  0  0
 10 11  2  0  0  0  0
 10 12  1  0  0  0  0
 12 13  1  0  0  0  0
 12 31  1  0  0  0  0
 13 14  1  0  0  0  0
 13 17  1  0  0  0  0
 13 32  1  0  0  0  0
 14 16  1  0  0  0  0
 14 15  1  0  0  0  0
 14 33  1  0  0  0  0
 15 16  1  0  0  0  0
 15 34  1  0  0  0  0
 15 35  1  0  0  0  0
 16 36  1  0  0  0  0
 16 37  1  0  0  0  0
 17 19  1  0  0  0  0
 17 18  1  0  0  0  0
 17 38  1  0  0  0  0
 18 19  1  0  0  0  0
 18 39  1  0  0  0  0
 18 40  1  0  0  0  0
 19 41  1  0  0  0  0
 19 42  1  0  0  0  0
M  END
> <s_m_source_file>
AV-unprocessed.smi

> <i_m_source_file_index>
2227

> <i_lp_mmshare_version>
43012

> <i_f3d_flags>
0

> <s_epik_input>
W0NIM11bQ0hdKFtDSDNdKWMxbltjSF1bY0hdbjFbQ0gyXUMoPU8pW05IXVtDSF0oW0NIXTJbQ0gyXVtDSDJdMilbQ0hdM1tDSDJdW0NIMl0z

> <s_epik_cmdline>
J2VwaWtfcHl0aG9uJywgJy1waCcsICc3LjAnLCAnLXRuJywgJzgnLCAnLW1hJywgJzIwMCcsICctbWV0YWxfYmluZGluZycsICctaW1hZScsICc8aW5maWxlLm1hZT4nLCAnLW9tYWUnLCAnPG91dGZpbGUubWFlPic=

> <r_lp_tautomer_probability>
1

> <r_epik_Ionization_Penalty>
0.615412

> <r_epik_Ionization_Penalty_Charging>
0.615412

> <r_epik_Ionization_Penalty_Neutral>
4.7269e-08

> <r_epik_State_Penalty>
0.630977

> <r_epik_Charging_Adjusted_Penalty>
1.24639

> <i_epik_Tot_Q>
0

> <i_epik_Tot_abs_Q>
0

> <r_epik_Metal_State_Penalty>
0.305199

> <b_epik_Metal_Only>
0

> <s_lp_Force_Field>
OPLS_2005

> <r_lp_Energy>
23.5493

> <b_lp_Chiralities_Consistent>
1

> <s_lp_Variant>
AV-unprocessed.smi:2227-2

> <Gold.Version>
5.8.1

> <Gold.Id.Protein>
6NUR|6NUR_protein|mol2

> <Gold.PLP.Fitness>
50.5642

> <Gold.PLP.PLP>
-50.5385

> <Gold.PLP.part.hbond>
-1.6664

> <Gold.PLP.part.metal>
0.0000

> <Gold.PLP.part.buried>
-5.0119

> <Gold.PLP.part.nonpolar>
-45.6164

> <Gold.PLP.part.repulsive>
1.7663

> <Gold.PLP.ligand.clash>
0.0000

> <Gold.PLP.ligand.torsion>
1.6052

> <Gold.PLP.Chemscore.Hbond>
0.0000

> <Gold.PLP.Chemscore.CHOScore>
0.3485

> <Gold.PLP.Chemscore.Metal>
0.0000

> <Gold.Chemscore.Hbonds>
donor molecule, donor type, donor heavy atom, donor atom, acceptor molecule, acceptor atom, score
      L1  C     7    28       P1  8028  0.32

> <Gold.PLP.Chemscore.Internal.Correction>
2.1906

> <Gold.Rescore>
     Score         DG    S(hbond)    S(metal)    S(lipo)     H(rot)  DE(clash)    DE(int)     intcor
     13.66     -16.64       0.00        0.00     131.73       1.66       0.28       2.70       ----

> <Gold.Chemscore.Fitness>
13.6581

> <Gold.Chemscore.DG>
-16.6356

> <Gold.Chemscore.ZeroCoef>
-5.4800

> <Gold.Chemscore.Hbond>
0.0000

> <Gold.Chemscore.Metal>
0.0000

> <Gold.Chemscore.Lipo>
131.7276

> <Gold.Chemscore.Internal_Hbond>
0.0000

> <Gold.Chemscore.DEClash>
0.2760

> <Gold.Chemscore.DEInternal>
2.7016

> <Gold.Chemscore.Rot>
1.6627

> <Gold.Chemscore.Internal.Correction>
   9.000000E+99

> <Gold.Chemscore.Hbond.Weighted>
-0.0000

> <Gold.Chemscore.Metal.Weighted>
-0.0000

> <Gold.Chemscore.Lipo.Weighted>
-15.4121

> <Gold.Chemscore.Internal_Hbond.Weighted>
0.0000

> <Gold.Chemscore.DEClash.Weighted>
0.2760

> <Gold.Chemscore.DEInternal.Weighted>
2.7016

> <Gold.Chemscore.Rot.Weighted>
4.2565

> <Gold.Chemscore.Internal.Correction.Weighted>
   9.000000E+99

> <Gold.Protein.RotatedTorsions>
[ 6907 6896 6895 6894 ] final -171.03 input  -60.11 | X-H torsion
[ 7974 7965 7964 7962 ] final -115.24 input  175.53 | X-H torsion
[ 8008 7997 7996 7995 ] final -118.77 input   59.86 | X-H torsion
[ 10167 10162 10161 10158 ] final   10.66 input  -65.29 | X-H torsion
[ 10718 10713 10712 10709 ] final -114.20 input   66.30 | X-H torsion
[ 10763 10752 10751 10750 ] final   98.36 input  -60.55 | X-H torsion
[ 11005 11000 10999 10996 ] final -118.84 input  -57.11 | X-H torsion

> <Gold.Protein.ActiveResidues>
 VAL166  LYS551  ARG553  GLY616  TRP617  ASP618  TYR619  PRO620  LYS621  CYS622 
 ASP623  PHE694  ASN695  SER759  ASP760  ASP761  ALA762  ILE779  LEU786  VAL792 
 PHE793  MET794  SER795  GLU796  ALA797  LYS798  CYS799  TRP800  GLU811  SER814 

> <Gold.Protein.RotatedAtoms>
  151.5173  133.3473  159.2894 H   0  0  0  0  0  0  0  0  0  0  0  0  # atno 6907 bound_to 6896
  150.8674  134.8043  159.7140 H   0  0  0  0  0  0  0  0  0  0  0  0  # atno 6908 bound_to 6896
  152.4674  134.5052  159.9788 H   0  0  0  0  0  0  0  0  0  0  0  0  # atno 6909 bound_to 6896
  145.1107  140.8610  143.3871 H   0  0  0  0  0  0  0  0  0  0  0  0  # atno 7974 bound_to 7965
  155.1050  140.0396  157.2708 H   0  0  0  0  0  0  0  0  0  0  0  0  # atno 8008 bound_to 7997
  154.6729  140.2616  155.6963 H   0  0  0  0  0  0  0  0  0  0  0  0  # atno 8009 bound_to 7997
  156.2665  140.2794  156.1245 H   0  0  0  0  0  0  0  0  0  0  0  0  # atno 8010 bound_to 7997
  140.6180  143.8265  150.7141 H   0  0  0  0  0  0  0  0  0  0  0  0  # atno 10167 bound_to 10162
  156.0815  130.6014  150.8743 H   0  0  0  0  0  0  0  0  0  0  0  0  # atno 10718 bound_to 10713
  153.2881  135.4151  155.1141 H   0  0  0  0  0  0  0  0  0  0  0  0  # atno 10763 bound_to 10752
  154.8511  135.3511  154.6019 H   0  0  0  0  0  0  0  0  0  0  0  0  # atno 10764 bound_to 10752
  153.6441  135.7055  153.5289 H   0  0  0  0  0  0  0  0  0  0  0  0  # atno 10765 bound_to 10752
  141.0257  134.0057  157.3217 H   0  0  0  0  0  0  0  0  0  0  0  0  # atno 11005 bound_to 11000
  145.0850  139.2932  143.5764 LP  0  0  0  0  0  0  0  0  0  0  0  0  # atno 17320 bound_to 7965
  146.3526  140.0369  142.8646 LP  0  0  0  0  0  0  0  0  0  0  0  0  # atno 17321 bound_to 7965
  140.1849  143.4084  152.1906 LP  0  0  0  0  0  0  0  0  0  0  0  0  # atno 17342 bound_to 10162
  139.5415  144.7260  151.4719 LP  0  0  0  0  0  0  0  0  0  0  0  0  # atno 17343 bound_to 10162
  157.5933  131.0944  150.9083 LP  0  0  0  0  0  0  0  0  0  0  0  0  # atno 17370 bound_to 10713
  156.9254  130.5330  149.5279 LP  0  0  0  0  0  0  0  0  0  0  0  0  # atno 17371 bound_to 10713
  139.9175  135.0198  156.7936 LP  0  0  0  0  0  0  0  0  0  0  0  0  # atno 17394 bound_to 11000
  140.6495  133.9745  155.7748 LP  0  0  0  0  0  0  0  0  0  0  0  0  # atno 17395 bound_to 11000

$$$$
