AV-unprocessed.smi:798|AV-procd|sdf|3784|dock3
  -GOLD-   22720 1223D 1   1.00000     0.00000
 Structure written by MMmdl.
 33 35  0  0  0  0  0  0  0  0  2 V2000
  150.5158  141.0754  157.6111 O   0  0  0  0  0  0  0  0  0  0  0  0
  150.2295  142.1334  157.0457 C   0  0  0  0  0  0  0  0  0  0  0  0
  150.7910  143.3423  157.2757 N   0  5  0  0  0  0  0  0  0  0  0  0
  151.0312  143.7413  158.5355 C   0  0  0  0  0  0  0  0  0  0  0  0
  150.6710  143.0111  159.6033 N   0  0  0  0  0  0  0  0  0  0  0  0
  151.0164  143.6028  160.8110 N   0  0  0  0  0  0  0  0  0  0  0  0
  151.6383  144.7663  160.6214 C   0  0  0  0  0  0  0  0  0  0  0  0
  151.8621  145.2431  158.9516 S   0  0  0  0  0  0  0  0  0  0  0  0
  149.2697  142.1527  156.1103 N   0  0  0  0  0  0  0  0  0  0  0  0
  148.4781  141.0023  155.6760 C   0  0  1  0  0  0  0  0  0  0  0  0
  146.9527  141.1835  155.8909 C   0  0  1  0  0  0  0  0  0  0  0  0
  146.4539  142.5213  155.3038 C   0  0  0  0  0  0  0  0  0  0  0  0
  146.5814  142.2897  153.7868 C   0  0  0  0  0  0  0  0  0  0  0  0
  147.0971  140.8393  153.7051 C   0  0  2  0  0  0  0  0  0  0  0  0
  146.3797  140.1937  154.8851 C   0  0  0  0  0  0  0  0  0  0  0  0
  148.5804  140.7941  154.1410 C   0  0  2  0  0  0  0  0  0  0  0  0
  149.2752  139.4768  153.7437 C   0  0  0  0  0  0  0  0  0  0  0  0
  150.6215  139.4836  154.1688 O   0  0  0  0  0  0  0  0  0  0  0  0
  151.9705  145.3457  161.4697 H   0  0  0  0  0  0  0  0  0  0  0  0
  149.0700  143.0377  155.6682 H   0  0  0  0  0  0  0  0  0  0  0  0
  148.8192  140.1094  156.2034 H   0  0  0  0  0  0  0  0  0  0  0  0
  146.6361  141.0179  156.9211 H   0  0  0  0  0  0  0  0  0  0  0  0
  145.4106  142.6891  155.5744 H   0  0  0  0  0  0  0  0  0  0  0  0
  147.0194  143.3876  155.6471 H   0  0  0  0  0  0  0  0  0  0  0  0
  145.6088  142.3855  153.3026 H   0  0  0  0  0  0  0  0  0  0  0  0
  147.2606  142.9996  153.3134 H   0  0  0  0  0  0  0  0  0  0  0  0
  146.9064  140.3710  152.7390 H   0  0  0  0  0  0  0  0  0  0  0  0
  146.6807  139.1624  155.0739 H   0  0  0  0  0  0  0  0  0  0  0  0
  145.2918  140.2358  154.8063 H   0  0  0  0  0  0  0  0  0  0  0  0
  149.1171  141.6157  153.6627 H   0  0  0  0  0  0  0  0  0  0  0  0
  148.7685  138.6116  154.1709 H   0  0  0  0  0  0  0  0  0  0  0  0
  149.2613  139.3553  152.6604 H   0  0  0  0  0  0  0  0  0  0  0  0
  150.8379  138.6250  154.4984 H   0  0  0  0  0  0  0  0  0  0  0  0
  1  2  2  0  0  0  0
  2  3  1  0  0  0  0
  2  9  1  0  0  0  0
  3  4  1  0  0  0  0
  4  8  1  0  0  0  0
  4  5  2  0  0  0  0
  5  6  1  0  0  0  0
  6  7  2  0  0  0  0
  7  8  1  0  0  0  0
  7 19  1  0  0  0  0
  9 10  1  0  0  0  0
  9 20  1  0  0  0  0
 10 16  1  0  0  0  0
 10 11  1  0  0  0  0
 10 21  1  0  0  0  0
 11 15  1  0  0  0  0
 11 12  1  0  0  0  0
 11 22  1  0  0  0  0
 12 13  1  0  0  0  0
 12 23  1  0  0  0  0
 12 24  1  0  0  0  0
 13 14  1  0  0  0  0
 13 25  1  0  0  0  0
 13 26  1  0  0  0  0
 14 15  1  0  0  0  0
 14 16  1  0  0  0  0
 14 27  1  0  0  0  0
 15 28  1  0  0  0  0
 15 29  1  0  0  0  0
 16 17  1  0  0  0  0
 16 30  1  0  0  0  0
 17 18  1  0  0  0  0
 17 31  1  0  0  0  0
 17 32  1  0  0  0  0
 18 33  1  0  0  0  0
M  CHG  1   3  -1
M  END
> <s_m_source_file>
AV-unprocessed.smi

> <i_m_source_file_index>
798

> <i_lp_mmshare_version>
43012

> <i_f3d_flags>
0

> <s_epik_input>
W0NIMl0xW0NIMl1bQ0BASF0oW0NIMl0yKVtDQEBIXShbQ0gyXVtPSF0pW0NAQEhdKFtDQEhdMTIpW05IXUMoPU8pW05IXWMzbm5bY0hdczM=

> <s_epik_cmdline>
J2VwaWtfcHl0aG9uJywgJy1waCcsICc3LjAnLCAnLXRuJywgJzgnLCAnLW1hJywgJzIwMCcsICctbWV0YWxfYmluZGluZycsICctaW1hZScsICc8aW5maWxlLm1hZT4nLCAnLW9tYWUnLCAnPG91dGZpbGUubWFlPic=

> <r_lp_tautomer_probability>
1

> <r_epik_Ionization_Penalty>
4.53732

> <r_epik_Ionization_Penalty_Charging>
4.48632

> <r_epik_Ionization_Penalty_Neutral>
0.0510007

> <r_epik_State_Penalty>
4.48602

> <r_epik_Charging_Adjusted_Penalty>
8.97234

> <i_epik_Tot_Q>
-1

> <i_epik_Tot_abs_Q>
1

> <r_epik_Metal_State_Penalty>
0.812492

> <b_epik_Metal_Only>
1

> <s_lp_Force_Field>
OPLS_2005

> <r_lp_Energy>
46.8423

> <b_lp_Chiralities_Consistent>
1

> <s_lp_Variant>
AV-unprocessed.smi:798-16

> <Gold.Version>
5.8.1

> <Gold.Id.Protein>
6NUR|6NUR_protein|mol2

> <Gold.PLP.Fitness>
37.5283

> <Gold.PLP.PLP>
-32.2396

> <Gold.PLP.part.hbond>
-4.4210

> <Gold.PLP.part.metal>
0.0000

> <Gold.PLP.part.buried>
-1.4122

> <Gold.PLP.part.nonpolar>
-26.9739

> <Gold.PLP.part.repulsive>
0.9009

> <Gold.PLP.ligand.clash>
0.0000

> <Gold.PLP.ligand.torsion>
0.3691

> <Gold.PLP.Chemscore.Hbond>
2.0000

> <Gold.PLP.Chemscore.CHOScore>
0.0000

> <Gold.PLP.Chemscore.Metal>
0.0000

> <Gold.Chemscore.Hbonds>
donor molecule, donor type, donor heavy atom, donor atom, acceptor molecule, acceptor atom, score
      L1  H     9    20       P1  8028  1.00
      P1  H  7989  7998       L1    18  1.00

> <Gold.PLP.Chemscore.Internal.Correction>
0.0270

> <Gold.Rescore>
     Score         DG    S(hbond)    S(metal)    S(lipo)     H(rot)  DE(clash)    DE(int)     intcor
     11.58     -15.05       1.94        0.00      68.51       1.92       1.66       1.81       ----

> <Gold.Chemscore.Fitness>
11.5790

> <Gold.Chemscore.DG>
-15.0488

> <Gold.Chemscore.ZeroCoef>
-5.4800

> <Gold.Chemscore.Hbond>
1.9372

> <Gold.Chemscore.Metal>
0.0000

> <Gold.Chemscore.Lipo>
68.5090

> <Gold.Chemscore.Internal_Hbond>
0.0000

> <Gold.Chemscore.DEClash>
1.6597

> <Gold.Chemscore.DEInternal>
1.8101

> <Gold.Chemscore.Rot>
1.9207

> <Gold.Chemscore.Internal.Correction>
   9.000000E+99

> <Gold.Chemscore.Hbonds>
donor molecule, donor type, donor heavy atom, donor atom, acceptor molecule, acceptor atom, score
      L1  H     9    20       P1  8028  0.98
      P1  H  7989  7998       L1    18  0.88

> <Gold.Chemscore.Hbond.Weighted>
-6.4701

> <Gold.Chemscore.Metal.Weighted>
-0.0000

> <Gold.Chemscore.Lipo.Weighted>
-8.0155

> <Gold.Chemscore.Internal_Hbond.Weighted>
0.0000

> <Gold.Chemscore.DEClash.Weighted>
1.6597

> <Gold.Chemscore.DEInternal.Weighted>
1.8101

> <Gold.Chemscore.Rot.Weighted>
4.9169

> <Gold.Chemscore.Internal.Correction.Weighted>
   9.000000E+99

> <Gold.Protein.RotatedTorsions>
[ 6907 6896 6895 6894 ] final -127.68 input  -60.11 | X-H torsion
[ 7974 7965 7964 7962 ] final -117.29 input  175.53 | X-H torsion
[ 8008 7997 7996 7995 ] final  177.59 input   59.86 | X-H torsion
[ 10167 10162 10161 10158 ] final -118.65 input  -65.29 | X-H torsion
[ 10718 10713 10712 10709 ] final   35.13 input   66.30 | X-H torsion
[ 10763 10752 10751 10750 ] final -171.58 input  -60.55 | X-H torsion
[ 11005 11000 10999 10996 ] final  -44.00 input  -57.11 | X-H torsion

> <Gold.Protein.ActiveResidues>
 VAL166  LYS551  ARG553  GLY616  TRP617  ASP618  TYR619  PRO620  LYS621  CYS622 
 ASP623  PHE694  ASN695  SER759  ASP760  ASP761  ALA762  ILE779  LEU786  VAL792 
 PHE793  MET794  SER795  GLU796  ALA797  LYS798  CYS799  TRP800  GLU811  SER814 

> <Gold.Protein.RotatedAtoms>
  150.9099  133.7011  159.2857 H   0  0  0  0  0  0  0  0  0  0  0  0  # atno 6907 bound_to 6896
  151.4501  135.1027  159.9705 H   0  0  0  0  0  0  0  0  0  0  0  0  # atno 6908 bound_to 6896
  152.4924  133.8487  159.7245 H   0  0  0  0  0  0  0  0  0  0  0  0  # atno 6909 bound_to 6896
  145.0869  140.8464  143.4005 H   0  0  0  0  0  0  0  0  0  0  0  0  # atno 7974 bound_to 7965
  156.0640  140.1354  156.9907 H   0  0  0  0  0  0  0  0  0  0  0  0  # atno 8008 bound_to 7997
  154.4496  140.0985  156.6631 H   0  0  0  0  0  0  0  0  0  0  0  0  # atno 8009 bound_to 7997
  155.5333  140.3459  155.4433 H   0  0  0  0  0  0  0  0  0  0  0  0  # atno 8010 bound_to 7997
  140.0552  143.5021  152.2061 H   0  0  0  0  0  0  0  0  0  0  0  0  # atno 10167 bound_to 10162
  157.3189  130.7438  149.6772 H   0  0  0  0  0  0  0  0  0  0  0  0  # atno 10718 bound_to 10713
  154.6289  135.2884  155.0240 H   0  0  0  0  0  0  0  0  0  0  0  0  # atno 10763 bound_to 10752
  154.1408  135.6519  153.4945 H   0  0  0  0  0  0  0  0  0  0  0  0  # atno 10764 bound_to 10752
  153.0270  135.5332  154.7108 H   0  0  0  0  0  0  0  0  0  0  0  0  # atno 10765 bound_to 10752
  141.0421  133.6776  156.2811 H   0  0  0  0  0  0  0  0  0  0  0  0  # atno 11005 bound_to 11000
  145.1112  139.2756  143.5636 LP  0  0  0  0  0  0  0  0  0  0  0  0  # atno 17320 bound_to 7965
  146.3531  140.0708  142.8623 LP  0  0  0  0  0  0  0  0  0  0  0  0  # atno 17321 bound_to 7965
  139.5928  144.7556  151.3359 LP  0  0  0  0  0  0  0  0  0  0  0  0  # atno 17342 bound_to 10162
  140.7198  143.7167  150.7727 LP  0  0  0  0  0  0  0  0  0  0  0  0  # atno 17343 bound_to 10162
  155.9684  130.4229  150.4537 LP  0  0  0  0  0  0  0  0  0  0  0  0  # atno 17370 bound_to 10713
  157.2549  131.0554  151.2356 LP  0  0  0  0  0  0  0  0  0  0  0  0  # atno 17371 bound_to 10713
  140.6215  134.5357  157.5548 LP  0  0  0  0  0  0  0  0  0  0  0  0  # atno 17394 bound_to 11000
  139.9284  134.8012  156.1002 LP  0  0  0  0  0  0  0  0  0  0  0  0  # atno 17395 bound_to 11000

$$$$
