#       Name:                AV-unprocessed.smi:59
#       Creating user name   scv26
#       Creation time:       Thu Mar 26 16:48:32 2020


#       File generated by GOLD software.
#

@<TRIPOS>MOLECULE
AV-unprocessed.smi:59
    38    39     1
SMALL
NO_CHARGES


@<TRIPOS>ATOM
      1 ****        -1.2310   2.1456   1.4551 C.3            1 S1                 0.0000
      2 ****        -1.2501   1.2595   0.2975 N.am           1 S1                 0.0000
      3 ****        -1.7447   1.5696  -0.9057 C.2            1 S1                 0.0000
      4 ****        -2.2255   2.6550  -1.2327 O.2            1 S1                 0.0000
      5 ****        -1.6422   0.3818  -1.8524 C.3            1 S1                 0.0000
      6 ****        -2.8375   0.2306  -2.6007 O.3            1 S1                 0.0000
      7 ****        -1.2480  -0.7911  -0.9138 C.3            1 S1                 0.0000
      8 ****        -2.4173  -1.7488  -0.5976 C.2            1 S1                 0.0000
      9 ****        -3.3620  -1.3134   0.0988 O.co2          1 S1                 0.0000
     10 ****        -2.3356  -2.9098  -1.0552 O.co2          1 S1                -1.0000
     11 ****        -0.7210  -0.0985   0.3724 C.3            1 S1                 0.0000
     12 ****         0.7884  -0.1542   0.4553 C.2            1 S1                 0.0000
     13 ****         1.7392   0.8862   0.2376 C.2            1 S1                 0.0000
     14 ****         2.9904   0.4839   0.3885 N.2            1 S1                 0.0000
     15 ****         2.8854  -0.8228   0.7037 N.pl3          1 S1                 0.0000
     16 ****         4.0842  -1.5981   0.9403 C.3            1 S1                 0.0000
     17 ****         1.5714  -1.2346   0.7510 C.2            1 S1                 0.0000
     18 ****        -0.8283   0.5788  -2.5508 H              1 S1                 0.0000
     19 ****        -0.4613  -1.3853  -1.3827 H              1 S1                 0.0000
     20 ****        -1.1401  -0.5634   1.2670 H              1 S1                 0.0000
     21 ****        -0.6771   3.0575   1.2299 H              1 S1                 0.0000
     22 ****        -0.7569   1.6655   2.3116 H              1 S1                 0.0000
     23 ****        -2.2468   2.4206   1.7405 H              1 S1                 0.0000
     24 ****        -2.9642   1.0097  -3.1199 H              1 S1                 0.0000
     25 ****         1.5570   1.9176  -0.0260 H              1 S1                 0.0000
     26 ****         3.8216  -2.6288   1.1802 H              1 S1                 0.0000
     27 ****         4.6414  -1.1707   1.7745 H              1 S1                 0.0000
     28 ****         4.7107  -1.5902   0.0478 H              1 S1                 0.0000
     29 ****         1.3006  -2.2534   0.9866 H              1 S1                 0.0000
     30 ****        -2.2705   3.4021  -0.5695 LP             1 S1                 0.0000
     31 ****        -2.5710   2.7894  -2.1615 LP             1 S1                 0.0000
     32 ****        -3.6118   0.1088  -1.9797 LP             1 S1                 0.0000
     33 ****        -2.7624  -0.5663  -3.2001 LP             1 S1                 0.0000
     34 ****        -4.1304  -1.9107   0.3286 LP             1 S1                 0.0000
     35 ****        -3.3483  -0.3682   0.4252 LP             1 S1                 0.0000
     36 ****        -3.0625  -3.5717  -0.8721 LP             1 S1                 0.0000
     37 ****        -1.5434  -3.1762  -1.6043 LP             1 S1                 0.0000
     38 ****         3.8249   1.0261   0.2909 LP             1 S1                 0.0000
@<TRIPOS>BOND
    1    1    2 1     
    2    1   21 1     
    3    1   22 1     
    4    1   23 1     
    5    2   11 1     
    6    2    3 am    
    7    3    4 2     
    8    3    5 1     
    9    5   18 1     
   10    5    6 1     
   11    5    7 1     
   12    6   24 1     
   13    7   19 1     
   14    7    8 1     
   15    7   11 1     
   16    8    9 ar    
   17    8   10 ar    
   18   11   20 1     
   19   11   12 1     
   20   12   17 2     
   21   12   13 1     
   22   13   14 2     
   23   13   25 1     
   24   14   15 1     
   25   15   16 1     
   26   15   17 1     
   27   16   26 1     
   28   16   27 1     
   29   16   28 1     
   30   17   29 1     
   31    4   30 1     
   32    4   31 1     
   33    6   32 1     
   34    6   33 1     
   35    9   34 1     
   36    9   35 1     
   37   10   36 1     
   38   10   37 1     
   39   14   38 1     
@<TRIPOS>SUBSTRUCTURE
      1 S1             1
@<TRIPOS>SET
LONE_PAIRS      STATIC     ATOMS    <user>   **** ""
9 30 31 32 33 34 35 36 37 38
DONOR_HYDROGENS      STATIC     ATOMS    <user>   **** ""
1 24
ATOM$BLUE        STATIC     ATOMS    COLORGROUP SYSTEM
9 30 31 32 33 34 35 36 37 38
ATOM$RED        STATIC     ATOMS    COLORGROUP SYSTEM
1 24
