#       Name:                AV-unprocessed.smi:557
#       Creating user name   scv26
#       Creation time:       Thu Mar 26 23:40:56 2020


#       File generated by GOLD software.
#

@<TRIPOS>MOLECULE
AV-unprocessed.smi:557
    50    52     1
SMALL
NO_CHARGES


@<TRIPOS>ATOM
      1 ****        -8.0219  -4.9177   1.8567 C.3            1 S1                 0.0000
      2 ****        -7.0648  -4.0401   1.2180 N.pl3          1 S1                 0.0000
      3 ****        -5.9953  -3.3790   1.7822 C.2            1 S1                 0.0000
      4 ****        -5.3813  -2.6698   0.7884 C.2            1 S1                 0.0000
      5 ****        -4.1677  -1.7877   0.8761 C.3            1 S1                 0.0000
      6 ****        -2.8721  -2.6057   0.7972 C.3            1 S1                 0.0000
      7 ****        -1.7059  -1.7313   0.8860 N.am           1 S1                 0.0000
      8 ****        -0.4132  -2.0969   0.8598 C.2            1 S1                 0.0000
      9 ****        -0.0692  -3.2720   0.7490 O.2            1 S1                 0.0000
     10 ****         0.4582  -1.0791   0.9602 N.am           1 S1                 0.0000
     11 ****         1.9107  -1.2247   0.9541 C.3            1 S1                 0.0000
     12 ****         2.6453   0.0160   1.4444 C.3            1 S1                 0.0000
     13 ****         4.0664  -0.1921   0.9103 C.3            1 S1                 0.0000
     14 ****         3.9517  -1.0492  -0.2958 N.4            1 S1                 1.0000
     15 ****         4.5682  -0.4622  -1.5159 C.3            1 S1                 0.0000
     16 ****         4.0728  -1.1773  -2.7815 C.3            1 S1                 0.0000
     17 ****         2.5497  -1.0245  -2.9549 C.3            1 S1                 0.0000
     18 ****         1.8281  -0.7576  -1.6198 C.3            1 S1                 0.0000
     19 ****         2.5283  -1.4696  -0.4359 C.3            1 S1                 0.0000
     20 ****        -6.1665  -2.9656  -0.3622 C.2            1 S1                 0.0000
     21 ****        -7.1722  -3.7850  -0.1023 N.2            1 S1                 0.0000
     22 ****        -7.6565  -5.2156   2.8398 H              1 S1                 0.0000
     23 ****        -8.1712  -5.8115   1.2501 H              1 S1                 0.0000
     24 ****        -8.9740  -4.3994   1.9730 H              1 S1                 0.0000
     25 ****        -5.7602  -3.4674   2.8327 H              1 S1                 0.0000
     26 ****        -4.1761  -1.0483   0.0743 H              1 S1                 0.0000
     27 ****        -4.1789  -1.2171   1.8056 H              1 S1                 0.0000
     28 ****        -2.8424  -3.3342   1.6094 H              1 S1                 0.0000
     29 ****        -2.8406  -3.1608  -0.1419 H              1 S1                 0.0000
     30 ****        -1.8985  -0.7451   0.9897 H              1 S1                 0.0000
     31 ****         0.0888  -0.1437   1.0509 H              1 S1                 0.0000
     32 ****         2.1853  -2.0532   1.6108 H              1 S1                 0.0000
     33 ****         2.2114   0.9138   1.0012 H              1 S1                 0.0000
     34 ****         2.6149   0.1280   2.5288 H              1 S1                 0.0000
     35 ****         4.5644   0.7591   0.7172 H              1 S1                 0.0000
     36 ****         4.6671  -0.7284   1.6456 H              1 S1                 0.0000
     37 ****         4.3247   0.5992  -1.5877 H              1 S1                 0.0000
     38 ****         5.6532  -0.5322  -1.4339 H              1 S1                 0.0000
     39 ****         4.5881  -0.7965  -3.6639 H              1 S1                 0.0000
     40 ****         4.3284  -2.2357  -2.7129 H              1 S1                 0.0000
     41 ****         2.3314  -0.2081  -3.6441 H              1 S1                 0.0000
     42 ****         2.1537  -1.9277  -3.4207 H              1 S1                 0.0000
     43 ****         1.8053   0.3167  -1.4312 H              1 S1                 0.0000
     44 ****         0.7877  -1.0703  -1.7112 H              1 S1                 0.0000
     45 ****         2.5123  -2.5409  -0.6427 H              1 S1                 0.0000
     46 ****        -6.0346  -2.6116  -1.3741 H              1 S1                 0.0000
     47 ****         4.4660  -1.8943  -0.0913 H              1 S1                 0.0000
     48 ****        -0.7607  -3.9905   0.6750 LP             1 S1                 0.0000
     49 ****         0.9021  -3.5092   0.7330 LP             1 S1                 0.0000
     50 ****        -7.8573  -4.1360  -0.7406 LP             1 S1                 0.0000
@<TRIPOS>BOND
    1    1    2 1     
    2    1   22 1     
    3    1   23 1     
    4    1   24 1     
    5    2   21 1     
    6    2    3 1     
    7    3    4 2     
    8    3   25 1     
    9    4    5 1     
   10    4   20 1     
   11    5    6 1     
   12    5   26 1     
   13    5   27 1     
   14    6    7 1     
   15    6   28 1     
   16    6   29 1     
   17    7    8 am    
   18    7   30 1     
   19    8    9 2     
   20    8   10 am    
   21   10   11 1     
   22   10   31 1     
   23   11   19 1     
   24   11   12 1     
   25   11   32 1     
   26   12   13 1     
   27   12   33 1     
   28   12   34 1     
   29   13   14 1     
   30   13   35 1     
   31   13   36 1     
   32   14   19 1     
   33   14   15 1     
   34   14   47 1     
   35   15   16 1     
   36   15   37 1     
   37   15   38 1     
   38   16   17 1     
   39   16   39 1     
   40   16   40 1     
   41   17   18 1     
   42   17   41 1     
   43   17   42 1     
   44   18   19 1     
   45   18   43 1     
   46   18   44 1     
   47   19   45 1     
   48   20   21 2     
   49   20   46 1     
   50    9   48 1     
   51    9   49 1     
   52   21   50 1     
@<TRIPOS>SUBSTRUCTURE
      1 S1             1
@<TRIPOS>SET
LONE_PAIRS      STATIC     ATOMS    <user>   **** ""
3 48 49 50
DONOR_HYDROGENS      STATIC     ATOMS    <user>   **** ""
3 30 31 47
ATOM$BLUE        STATIC     ATOMS    COLORGROUP SYSTEM
3 48 49 50
ATOM$RED        STATIC     ATOMS    COLORGROUP SYSTEM
3 30 31 47
