#       Name:                AV-unprocessed.smi:2289
#       Creating user name   scv26
#       Creation time:       Fri Mar 27 12:42:47 2020


#       File generated by GOLD software.
#

@<TRIPOS>MOLECULE
AV-unprocessed.smi:2289
    45    46     1
SMALL
NO_CHARGES


@<TRIPOS>ATOM
      1 ****        -3.2306   4.6849  -0.9826 C.3            1 S1                 0.0000
      2 ****        -2.8093   3.2554  -0.6918 C.2            1 S1                 0.0000
      3 ****        -2.1871   2.5827  -1.7473 N.2            1 S1                 0.0000
      4 ****        -1.7914   1.3622  -1.5891 C.2            1 S1                 0.0000
      5 ****        -1.9689   0.6788  -0.3742 N.am           1 S1                 0.0000
      6 ****        -1.4607  -0.7031  -0.3223 C.3            1 S1                 0.0000
      7 ****         0.0463  -0.7570   0.0182 C.3            1 S1                 0.0000
      8 ****         0.1936  -0.6592   1.4201 O.3            1 S1                 0.0000
      9 ****         0.6863  -2.0863  -0.4359 C.3            1 S1                 0.0000
     10 ****         2.2123  -2.0617  -0.4129 C.ar           1 S1                 0.0000
     11 ****         2.8674  -1.2179  -1.3375 C.ar           1 S1                 0.0000
     12 ****         4.2705  -1.1401  -1.3759 C.ar           1 S1                 0.0000
     13 ****         5.0358  -1.9138  -0.4882 C.ar           1 S1                 0.0000
     14 ****         4.3963  -2.7653   0.4311 C.ar           1 S1                 0.0000
     15 ****         2.9846  -2.8550   0.4824 C.ar           1 S1                 0.0000
     16 ****         2.3366  -3.8105   1.4858 C.3            1 S1                 0.0000
     17 ****         3.2451  -4.4079   2.2581 F              1 S1                 0.0000
     18 ****         1.5006  -3.1520   2.2873 F              1 S1                 0.0000
     19 ****         1.6670  -4.7643   0.8383 F              1 S1                 0.0000
     20 ****        -2.5643   1.2619   0.7062 C.2            1 S1                 0.0000
     21 ****        -2.7122   0.6583   1.7702 O.2            1 S1                 0.0000
     22 ****        -3.0123   2.6504   0.5105 C.2            1 S1                 0.0000
     23 ****        -3.6839   3.3337   1.6954 C.3            1 S1                 0.0000
     24 ****        -4.3124   4.7891  -0.8967 H              1 S1                 0.0000
     25 ****        -2.9443   4.9862  -1.9909 H              1 S1                 0.0000
     26 ****        -2.7567   5.3734  -0.2824 H              1 S1                 0.0000
     27 ****        -1.2953   0.7940  -2.3781 H              1 S1                 0.0000
     28 ****        -2.0332  -1.3233   0.3703 H              1 S1                 0.0000
     29 ****        -1.6313  -1.1699  -1.2946 H              1 S1                 0.0000
     30 ****         0.5599   0.0794  -0.4568 H              1 S1                 0.0000
     31 ****         1.1148  -0.6843   1.6297 H              1 S1                 0.0000
     32 ****         0.2711  -2.9168   0.1315 H              1 S1                 0.0000
     33 ****         0.4029  -2.2823  -1.4708 H              1 S1                 0.0000
     34 ****         2.2890  -0.6204  -2.0271 H              1 S1                 0.0000
     35 ****         4.7581  -0.4886  -2.0862 H              1 S1                 0.0000
     36 ****         6.1142  -1.8583  -0.5144 H              1 S1                 0.0000
     37 ****         5.0108  -3.3537   1.0959 H              1 S1                 0.0000
     38 ****        -2.9893   3.3998   2.5332 H              1 S1                 0.0000
     39 ****        -4.5512   2.7581   2.0199 H              1 S1                 0.0000
     40 ****        -4.0278   4.3422   1.4723 H              1 S1                 0.0000
     41 ****        -2.0483   3.0447  -2.6233 LP             1 S1                 0.0000
     42 ****        -0.2733  -1.4252   1.8619 LP             1 S1                 0.0000
     43 ****        -0.2014   0.2017   1.7409 LP             1 S1                 0.0000
     44 ****        -2.3921  -0.2849   1.8586 LP             1 S1                 0.0000
     45 ****        -3.1524   1.1117   2.5452 LP             1 S1                 0.0000
@<TRIPOS>BOND
    1    1    2 1     
    2    1   24 1     
    3    1   25 1     
    4    1   26 1     
    5    2   22 2     
    6    2    3 1     
    7    3    4 2     
    8    4    5 1     
    9    4   27 1     
   10    5    6 1     
   11    5   20 am    
   12    6    7 1     
   13    6   28 1     
   14    6   29 1     
   15    7    8 1     
   16    7    9 1     
   17    7   30 1     
   18    8   31 1     
   19    9   10 1     
   20    9   32 1     
   21    9   33 1     
   22   10   15 ar    
   23   10   11 ar    
   24   11   12 ar    
   25   11   34 1     
   26   12   13 ar    
   27   12   35 1     
   28   13   14 ar    
   29   13   36 1     
   30   14   15 ar    
   31   14   37 1     
   32   15   16 1     
   33   16   17 1     
   34   16   18 1     
   35   16   19 1     
   36   20   21 2     
   37   20   22 1     
   38   22   23 1     
   39   23   38 1     
   40   23   39 1     
   41   23   40 1     
   42    3   41 1     
   43    8   42 1     
   44    8   43 1     
   45   21   44 1     
   46   21   45 1     
@<TRIPOS>SUBSTRUCTURE
      1 S1             1
@<TRIPOS>SET
LONE_PAIRS      STATIC     ATOMS    <user>   **** ""
5 41 42 43 44 45
DONOR_HYDROGENS      STATIC     ATOMS    <user>   **** ""
1 31
ATOM$BLUE        STATIC     ATOMS    COLORGROUP SYSTEM
5 41 42 43 44 45
ATOM$RED        STATIC     ATOMS    COLORGROUP SYSTEM
1 31
