AV-unprocessed.smi:3205|AV-procd|sdf|12254|dock1
  -GOLD-   2272018 93D 1   1.00000     0.00000
 Structure written by MMmdl.
 38 39  0  0  0  0  0  0  0  0  2 V2000
  151.0002  145.3068  159.0396 C   0  0  0  0  0  0  0  0  0  0  0  0
  151.5708  143.9531  158.5701 C   0  0  2  0  0  0  0  0  0  0  0  0
  150.5932  143.2791  157.6833 N   0  3  0  0  0  0  0  0  0  0  0  0
  151.1165  142.1302  156.9147 C   0  0  0  0  0  0  0  0  0  0  0  0
  150.1049  141.6804  155.8503 C   0  0  0  0  0  0  0  0  0  0  0  0
  150.5026  140.4398  155.2126 N   0  0  0  0  0  0  0  0  0  0  0  0
  151.6051  139.6544  155.4765 C   0  0  0  0  0  0  0  0  0  0  0  0
  151.5649  138.5961  154.6146 C   0  0  0  0  0  0  0  0  0  0  0  0
  150.3882  138.8273  153.8491 C   0  0  0  0  0  0  0  0  0  0  0  0
  149.7565  139.9338  154.2072 N   0  0  0  0  0  0  0  0  0  0  0  0
  151.9394  143.0145  159.7502 C   0  0  0  0  0  0  0  0  0  0  0  0
  152.3203  143.7784  161.0364 C   0  0  0  0  0  0  0  0  0  0  0  0
  152.7690  142.8163  162.1491 C   0  0  0  0  0  0  0  0  0  0  0  0
  153.8584  142.0222  161.6979 O   0  0  0  0  0  0  0  0  0  0  0  0
  153.5140  141.1995  160.5911 C   0  0  0  0  0  0  0  0  0  0  0  0
  153.1134  142.0764  159.3942 C   0  0  0  0  0  0  0  0  0  0  0  0
  151.7351  145.8811  159.6029 H   0  0  0  0  0  0  0  0  0  0  0  0
  150.1246  145.1690  159.6750 H   0  0  0  0  0  0  0  0  0  0  0  0
  150.7034  145.9356  158.2010 H   0  0  0  0  0  0  0  0  0  0  0  0
  152.4794  144.1414  157.9957 H   0  0  0  0  0  0  0  0  0  0  0  0
  149.8509  142.9253  158.2700 H   0  0  0  0  0  0  0  0  0  0  0  0
  152.0581  142.3992  156.4360 H   0  0  0  0  0  0  0  0  0  0  0  0
  151.3257  141.3078  157.6003 H   0  0  0  0  0  0  0  0  0  0  0  0
  149.1188  141.5383  156.2947 H   0  0  0  0  0  0  0  0  0  0  0  0
  149.9989  142.4464  155.0808 H   0  0  0  0  0  0  0  0  0  0  0  0
  152.3187  139.9098  156.2460 H   0  0  0  0  0  0  0  0  0  0  0  0
  152.2701  137.7815  154.5403 H   0  0  0  0  0  0  0  0  0  0  0  0
  149.9783  138.2291  153.0489 H   0  0  0  0  0  0  0  0  0  0  0  0
  151.0699  142.3953  159.9778 H   0  0  0  0  0  0  0  0  0  0  0  0
  153.1236  144.4853  160.8243 H   0  0  0  0  0  0  0  0  0  0  0  0
  151.4782  144.3621  161.4068 H   0  0  0  0  0  0  0  0  0  0  0  0
  153.0863  143.3809  163.0260 H   0  0  0  0  0  0  0  0  0  0  0  0
  151.9440  142.1763  162.4660 H   0  0  0  0  0  0  0  0  0  0  0  0
  154.3743  140.5825  160.3315 H   0  0  0  0  0  0  0  0  0  0  0  0
  152.7057  140.5196  160.8646 H   0  0  0  0  0  0  0  0  0  0  0  0
  152.8547  141.4297  158.5556 H   0  0  0  0  0  0  0  0  0  0  0  0
  153.9752  142.6656  159.0773 H   0  0  0  0  0  0  0  0  0  0  0  0
  150.2007  143.9596  157.0484 H   0  0  0  0  0  0  0  0  0  0  0  0
  1  2  1  0  0  0  0
  1 17  1  0  0  0  0
  1 18  1  0  0  0  0
  1 19  1  0  0  0  0
  2  3  1  0  0  0  0
  2 11  1  0  0  0  0
  2 20  1  0  0  0  0
  3  4  1  0  0  0  0
  3 21  1  0  0  0  0
  3 38  1  0  0  0  0
  4  5  1  0  0  0  0
  4 22  1  0  0  0  0
  4 23  1  0  0  0  0
  5  6  1  0  0  0  0
  5 24  1  0  0  0  0
  5 25  1  0  0  0  0
  6 10  1  0  0  0  0
  6  7  1  0  0  0  0
  7  8  2  0  0  0  0
  7 26  1  0  0  0  0
  8  9  1  0  0  0  0
  8 27  1  0  0  0  0
  9 10  2  0  0  0  0
  9 28  1  0  0  0  0
 11 16  1  0  0  0  0
 11 12  1  0  0  0  0
 11 29  1  0  0  0  0
 12 13  1  0  0  0  0
 12 30  1  0  0  0  0
 12 31  1  0  0  0  0
 13 14  1  0  0  0  0
 13 32  1  0  0  0  0
 13 33  1  0  0  0  0
 14 15  1  0  0  0  0
 15 16  1  0  0  0  0
 15 34  1  0  0  0  0
 15 35  1  0  0  0  0
 16 36  1  0  0  0  0
 16 37  1  0  0  0  0
M  CHG  1   3   1
M  END
> <s_m_source_file>
AV-unprocessed.smi

> <i_m_source_file_index>
3205

> <i_lp_mmshare_version>
43012

> <i_f3d_flags>
0

> <s_epik_input>
W0NIMl0xW0NIMl1PW0NIMl1bQ0gyXVtDSF0xW0NASF0oW0NIM10pW05IXVtDSDJdW0NIMl1uMltjSF1bY0hdW2NIXW4y

> <s_epik_cmdline>
J2VwaWtfcHl0aG9uJywgJy1waCcsICc3LjAnLCAnLXRuJywgJzgnLCAnLW1hJywgJzIwMCcsICctbWV0YWxfYmluZGluZycsICctaW1hZScsICc8aW5maWxlLm1hZT4nLCAnLW9tYWUnLCAnPG91dGZpbGUubWFlPic=

> <r_lp_tautomer_probability>
1

> <r_epik_Ionization_Penalty>
0.00310903

> <r_epik_Ionization_Penalty_Charging>
0.00310601

> <r_epik_Ionization_Penalty_Neutral>
3.02836e-06

> <r_epik_State_Penalty>
-0

> <r_epik_Charging_Adjusted_Penalty>
0.00310601

> <i_epik_Tot_Q>
1

> <i_epik_Tot_abs_Q>
1

> <r_epik_Metal_State_Penalty>
-0

> <b_epik_Metal_Only>
0

> <s_lp_Force_Field>
OPLS_2005

> <r_lp_Energy>
15.8656

> <b_lp_Chiralities_Consistent>
1

> <s_lp_Variant>
AV-unprocessed.smi:3205-1

> <Gold.Version>
5.8.1

> <Gold.Id.Protein>
6NUR|6NUR_protein|mol2

> <Gold.PLP.Fitness>
51.9349

> <Gold.PLP.PLP>
-43.7171

> <Gold.PLP.part.hbond>
-2.1144

> <Gold.PLP.part.metal>
0.0000

> <Gold.PLP.part.buried>
-2.3568

> <Gold.PLP.part.nonpolar>
-39.0138

> <Gold.PLP.part.repulsive>
0.4202

> <Gold.PLP.ligand.clash>
0.0000

> <Gold.PLP.ligand.torsion>
0.8548

> <Gold.PLP.Chemscore.Hbond>
1.9825

> <Gold.PLP.Chemscore.CHOScore>
1.3036

> <Gold.PLP.Chemscore.Metal>
0.0000

> <Gold.Chemscore.Hbonds>
donor molecule, donor type, donor heavy atom, donor atom, acceptor molecule, acceptor atom, score
      L1  H     3    38       P1  8028  1.95
      L1  C     9    28       P1  7948  1.00
      L1  C     9    28       P1  7957  0.35

> <Gold.PLP.Chemscore.Internal.Correction>
0.0690

> <Gold.Rescore>
     Score         DG    S(hbond)    S(metal)    S(lipo)     H(rot)  DE(clash)    DE(int)     intcor
     17.06     -18.02       0.99        0.00     115.21       1.66       0.06       0.90       ----

> <Gold.Chemscore.Fitness>
17.0580

> <Gold.Chemscore.DG>
-18.0174

> <Gold.Chemscore.ZeroCoef>
-5.4800

> <Gold.Chemscore.Hbond>
0.9899

> <Gold.Chemscore.Metal>
0.0000

> <Gold.Chemscore.Lipo>
115.2089

> <Gold.Chemscore.Internal_Hbond>
0.0000

> <Gold.Chemscore.DEClash>
0.0642

> <Gold.Chemscore.DEInternal>
0.8952

> <Gold.Chemscore.Rot>
1.6594

> <Gold.Chemscore.Internal.Correction>
   9.000000E+99

> <Gold.Chemscore.Hbonds>
donor molecule, donor type, donor heavy atom, donor atom, acceptor molecule, acceptor atom, score
      L1  H     3    38       P1  8028  0.88

> <Gold.Chemscore.Hbond.Weighted>
-3.3061

> <Gold.Chemscore.Metal.Weighted>
-0.0000

> <Gold.Chemscore.Lipo.Weighted>
-13.4794

> <Gold.Chemscore.Internal_Hbond.Weighted>
0.0000

> <Gold.Chemscore.DEClash.Weighted>
0.0642

> <Gold.Chemscore.DEInternal.Weighted>
0.8952

> <Gold.Chemscore.Rot.Weighted>
4.2482

> <Gold.Chemscore.Internal.Correction.Weighted>
   9.000000E+99

> <Gold.Protein.RotatedTorsions>
[ 6907 6896 6895 6894 ] final  126.25 input  -60.11 | X-H torsion
[ 7974 7965 7964 7962 ] final -106.00 input  175.53 | X-H torsion
[ 8008 7997 7996 7995 ] final  -74.78 input   59.86 | X-H torsion
[ 10167 10162 10161 10158 ] final   96.02 input  -65.29 | X-H torsion
[ 10718 10713 10712 10709 ] final  160.17 input   66.30 | X-H torsion
[ 10763 10752 10751 10750 ] final  132.50 input  -60.55 | X-H torsion
[ 11005 11000 10999 10996 ] final   30.86 input  -57.11 | X-H torsion

> <Gold.Protein.ActiveResidues>
 VAL166  LYS551  ARG553  GLY616  TRP617  ASP618  TYR619  PRO620  LYS621  CYS622 
 ASP623  PHE694  ASN695  SER759  ASP760  ASP761  ALA762  ILE779  LEU786  VAL792 
 PHE793  MET794  SER795  GLU796  ALA797  LYS798  CYS799  TRP800  GLU811  SER814 

> <Gold.Protein.RotatedAtoms>
  152.3920  133.6693  159.6245 H   0  0  0  0  0  0  0  0  0  0  0  0  # atno 6907 bound_to 6896
  150.7827  133.8937  159.3330 H   0  0  0  0  0  0  0  0  0  0  0  0  # atno 6908 bound_to 6896
  151.6722  135.0976  160.0251 H   0  0  0  0  0  0  0  0  0  0  0  0  # atno 6909 bound_to 6896
  145.2234  140.9143  143.3246 H   0  0  0  0  0  0  0  0  0  0  0  0  # atno 7974 bound_to 7965
  154.5360  140.0755  156.8427 H   0  0  0  0  0  0  0  0  0  0  0  0  # atno 8008 bound_to 7997
  155.3278  140.3400  155.4222 H   0  0  0  0  0  0  0  0  0  0  0  0  # atno 8009 bound_to 7997
  156.1828  140.1658  156.8228 H   0  0  0  0  0  0  0  0  0  0  0  0  # atno 8010 bound_to 7997
  139.7934  144.6843  150.9862 H   0  0  0  0  0  0  0  0  0  0  0  0  # atno 10167 bound_to 10162
  157.1541  131.0571  151.2265 H   0  0  0  0  0  0  0  0  0  0  0  0  # atno 10718 bound_to 10713
  153.7917  135.3154  155.3379 H   0  0  0  0  0  0  0  0  0  0  0  0  # atno 10763 bound_to 10752
  154.8123  135.4659  154.0552 H   0  0  0  0  0  0  0  0  0  0  0  0  # atno 10764 bound_to 10752
  153.1872  135.6903  153.8486 H   0  0  0  0  0  0  0  0  0  0  0  0  # atno 10765 bound_to 10752
  140.2899  134.2876  155.7778 H   0  0  0  0  0  0  0  0  0  0  0  0  # atno 11005 bound_to 11000
  144.9744  139.3847  143.6293 LP  0  0  0  0  0  0  0  0  0  0  0  0  # atno 17320 bound_to 7965
  146.3370  139.8857  142.8817 LP  0  0  0  0  0  0  0  0  0  0  0  0  # atno 17321 bound_to 7965
  140.7820  143.4357  151.0627 LP  0  0  0  0  0  0  0  0  0  0  0  0  # atno 17342 bound_to 10162
  139.8033  143.8053  152.3165 LP  0  0  0  0  0  0  0  0  0  0  0  0  # atno 17343 bound_to 10162
  157.4193  130.7428  149.6900 LP  0  0  0  0  0  0  0  0  0  0  0  0  # atno 17370 bound_to 10713
  155.9765  130.4074  150.3774 LP  0  0  0  0  0  0  0  0  0  0  0  0  # atno 17371 bound_to 10713
  141.2148  133.7578  156.9609 LP  0  0  0  0  0  0  0  0  0  0  0  0  # atno 17394 bound_to 11000
  140.1205  134.9420  157.2196 LP  0  0  0  0  0  0  0  0  0  0  0  0  # atno 17395 bound_to 11000

$$$$
