AV-unprocessed.smi:1686|AV-procd|sdf|6764|dock7
  -GOLD-   22720 7523D 1   1.00000     0.00000
 Structure written by MMmdl.
 41 43  0  0  0  0  0  0  0  0  1 V2000
  149.8361  135.2861  156.6235 C   0  0  0  0  0  0  0  0  0  0  0  0
  150.2096  133.8331  156.5550 C   0  0  0  0  0  0  0  0  0  0  0  0
  150.8203  133.2689  157.5890 N   0  0  0  0  0  0  0  0  0  0  0  0
  151.0388  131.9321  157.2365 O   0  0  0  0  0  0  0  0  0  0  0  0
  150.5370  131.7639  155.9917 C   0  0  0  0  0  0  0  0  0  0  0  0
  150.5994  130.2545  155.1723 Cl  0  0  0  0  0  0  0  0  0  0  0  0
  149.9938  132.9111  155.4892 C   0  0  0  0  0  0  0  0  0  0  0  0
  149.3380  133.1578  154.1547 C   0  0  0  0  0  0  0  0  0  0  0  0
  148.0056  132.4115  154.0979 C   0  0  0  0  0  0  0  0  0  0  0  0
  147.1435  132.6267  154.9498 O   0  0  0  0  0  0  0  0  0  0  0  0
  147.8450  131.5496  153.0820 N   0  0  0  0  0  0  0  0  0  0  0  0
  146.6292  130.7896  152.8020 C   0  0  2  0  0  0  0  0  0  0  0  0
  146.9102  129.2834  152.9460 C   0  0  0  0  0  0  0  0  0  0  0  0
  146.0984  131.1434  151.3924 C   0  0  1  0  0  0  0  0  0  0  0  0
  144.6056  130.8144  151.1658 C   0  0  0  0  0  0  0  0  0  0  0  0
  144.0448  132.1268  150.5865 C   0  0  1  0  0  0  0  0  0  0  0  0
  143.9439  133.1735  151.7117 C   0  0  0  0  0  0  0  0  0  0  0  0
  145.4170  133.5440  151.9621 C   0  0  0  0  0  0  0  0  0  0  0  0
  146.1701  132.6330  150.9711 C   0  0  2  0  0  0  0  0  0  0  0  0
  145.2239  132.6497  149.7750 C   0  0  0  0  0  0  0  0  0  0  0  0
  149.8734  135.7499  155.6378 H   0  0  0  0  0  0  0  0  0  0  0  0
  150.5124  135.8435  157.2727 H   0  0  0  0  0  0  0  0  0  0  0  0
  148.8249  135.4102  157.0108 H   0  0  0  0  0  0  0  0  0  0  0  0
  149.1760  134.2227  153.9812 H   0  0  0  0  0  0  0  0  0  0  0  0
  149.9657  132.8119  153.3328 H   0  0  0  0  0  0  0  0  0  0  0  0
  148.6089  131.4393  152.4311 H   0  0  0  0  0  0  0  0  0  0  0  0
  145.8694  131.0607  153.5368 H   0  0  0  0  0  0  0  0  0  0  0  0
  146.0159  128.6924  152.7484 H   0  0  0  0  0  0  0  0  0  0  0  0
  147.2436  129.0376  153.9547 H   0  0  0  0  0  0  0  0  0  0  0  0
  147.6843  128.9552  152.2517 H   0  0  0  0  0  0  0  0  0  0  0  0
  146.6846  130.5775  150.6658 H   0  0  0  0  0  0  0  0  0  0  0  0
  144.4992  129.9946  150.4543 H   0  0  0  0  0  0  0  0  0  0  0  0
  144.0870  130.5257  152.0809 H   0  0  0  0  0  0  0  0  0  0  0  0
  143.1185  131.9970  150.0262 H   0  0  0  0  0  0  0  0  0  0  0  0
  143.3802  134.0471  151.3821 H   0  0  0  0  0  0  0  0  0  0  0  0
  143.4565  132.7778  152.6035 H   0  0  0  0  0  0  0  0  0  0  0  0
  145.5894  134.5931  151.7181 H   0  0  0  0  0  0  0  0  0  0  0  0
  145.7200  133.4010  152.9989 H   0  0  0  0  0  0  0  0  0  0  0  0
  147.1803  132.9738  150.7455 H   0  0  0  0  0  0  0  0  0  0  0  0
  145.5271  131.9785  148.9695 H   0  0  0  0  0  0  0  0  0  0  0  0
  145.0588  133.6480  149.3655 H   0  0  0  0  0  0  0  0  0  0  0  0
  1  2  1  0  0  0  0
  1 21  1  0  0  0  0
  1 22  1  0  0  0  0
  1 23  1  0  0  0  0
  2  7  1  0  0  0  0
  2  3  2  0  0  0  0
  3  4  1  0  0  0  0
  4  5  1  0  0  0  0
  5  6  1  0  0  0  0
  5  7  2  0  0  0  0
  7  8  1  0  0  0  0
  8  9  1  0  0  0  0
  8 24  1  0  0  0  0
  8 25  1  0  0  0  0
  9 10  2  0  0  0  0
  9 11  1  0  0  0  0
 11 12  1  0  0  0  0
 11 26  1  0  0  0  0
 12 13  1  0  0  0  0
 12 14  1  0  0  0  0
 12 27  1  0  0  0  0
 13 28  1  0  0  0  0
 13 29  1  0  0  0  0
 13 30  1  0  0  0  0
 14 19  1  0  0  0  0
 14 15  1  0  0  0  0
 14 31  1  0  0  0  0
 15 16  1  0  0  0  0
 15 32  1  0  0  0  0
 15 33  1  0  0  0  0
 16 20  1  0  0  0  0
 16 17  1  0  0  0  0
 16 34  1  0  0  0  0
 17 18  1  0  0  0  0
 17 35  1  0  0  0  0
 17 36  1  0  0  0  0
 18 19  1  0  0  0  0
 18 37  1  0  0  0  0
 18 38  1  0  0  0  0
 19 20  1  0  0  0  0
 19 39  1  0  0  0  0
 20 40  1  0  0  0  0
 20 41  1  0  0  0  0
M  END
> <s_m_source_file>
AV-unprocessed.smi

> <i_m_source_file_index>
1686

> <i_lp_mmshare_version>
43012

> <i_f3d_flags>
0

> <s_epik_input>
W0NIM11jMW5vYyhDbCljMVtDSDJdQyg9TylbTkhdW0NASF0oW0NIM10pW0NASF0oW0NIMl1bQ0BIXTIzKVtDQEhdKFtDSDJdMylbQ0gyXVtDSDJdMg==

> <s_epik_cmdline>
J2VwaWtfcHl0aG9uJywgJy1waCcsICc3LjAnLCAnLXRuJywgJzgnLCAnLW1hJywgJzIwMCcsICctbWV0YWxfYmluZGluZycsICctaW1hZScsICc8aW5maWxlLm1hZT4nLCAnLW9tYWUnLCAnPG91dGZpbGUubWFlPic=

> <r_lp_tautomer_probability>
1

> <r_epik_Ionization_Penalty>
2.01576e-08

> <r_epik_Ionization_Penalty_Charging>
0

> <r_epik_Ionization_Penalty_Neutral>
2.01576e-08

> <r_epik_State_Penalty>
-0

> <r_epik_Charging_Adjusted_Penalty>
0

> <i_epik_Tot_Q>
0

> <i_epik_Tot_abs_Q>
0

> <r_epik_Metal_State_Penalty>
-0

> <b_epik_Metal_Only>
0

> <s_lp_Force_Field>
OPLS_2005

> <r_lp_Energy>
45.5839

> <b_lp_Chiralities_Consistent>
1

> <s_lp_Variant>
AV-unprocessed.smi:1686-7

> <Gold.Version>
5.8.1

> <Gold.Id.Protein>
6NUR|6NUR_protein|mol2

> <Gold.PLP.Fitness>
41.1852

> <Gold.PLP.PLP>
-36.2747

> <Gold.PLP.part.hbond>
-2.0000

> <Gold.PLP.part.metal>
0.0000

> <Gold.PLP.part.buried>
-3.6517

> <Gold.PLP.part.nonpolar>
-31.3214

> <Gold.PLP.part.repulsive>
0.0172

> <Gold.PLP.ligand.clash>
0.0000

> <Gold.PLP.ligand.torsion>
0.4335

> <Gold.PLP.Chemscore.Hbond>
1.9200

> <Gold.PLP.Chemscore.CHOScore>
0.0000

> <Gold.PLP.Chemscore.Metal>
0.0000

> <Gold.Chemscore.Hbonds>
donor molecule, donor type, donor heavy atom, donor atom, acceptor molecule, acceptor atom, score
      L1  H    11    26       P1 10747  0.38
      P1  H  6896  6908       L1     3  0.61

> <Gold.PLP.Chemscore.Internal.Correction>
0.0174

> <Gold.Rescore>
     Score         DG    S(hbond)    S(metal)    S(lipo)     H(rot)  DE(clash)    DE(int)     intcor
     19.37     -20.06       1.90        0.00     102.29       1.46       0.05       0.63       ----

> <Gold.Chemscore.Fitness>
19.3749

> <Gold.Chemscore.DG>
-20.0586

> <Gold.Chemscore.ZeroCoef>
-5.4800

> <Gold.Chemscore.Hbond>
1.9044

> <Gold.Chemscore.Metal>
0.0000

> <Gold.Chemscore.Lipo>
102.2885

> <Gold.Chemscore.Internal_Hbond>
0.0000

> <Gold.Chemscore.DEClash>
0.0491

> <Gold.Chemscore.DEInternal>
0.6345

> <Gold.Chemscore.Rot>
1.4648

> <Gold.Chemscore.Internal.Correction>
   9.000000E+99

> <Gold.Chemscore.Hbonds>
donor molecule, donor type, donor heavy atom, donor atom, acceptor molecule, acceptor atom, score
      L1  H    11    26       P1 10747  0.37
      P1  H  6896  6908       L1     3  0.21

> <Gold.Chemscore.Hbond.Weighted>
-6.3608

> <Gold.Chemscore.Metal.Weighted>
-0.0000

> <Gold.Chemscore.Lipo.Weighted>
-11.9678

> <Gold.Chemscore.Internal_Hbond.Weighted>
0.0000

> <Gold.Chemscore.DEClash.Weighted>
0.0491

> <Gold.Chemscore.DEInternal.Weighted>
0.6345

> <Gold.Chemscore.Rot.Weighted>
3.7500

> <Gold.Chemscore.Internal.Correction.Weighted>
   9.000000E+99

> <Gold.Protein.RotatedTorsions>
[ 6907 6896 6895 6894 ] final   67.73 input  -60.11 | X-H torsion
[ 7974 7965 7964 7962 ] final  -38.77 input  175.53 | X-H torsion
[ 8008 7997 7996 7995 ] final -124.53 input   59.86 | X-H torsion
[ 10167 10162 10161 10158 ] final -152.72 input  -65.29 | X-H torsion
[ 10718 10713 10712 10709 ] final   45.45 input   66.30 | X-H torsion
[ 10763 10752 10751 10750 ] final  -79.70 input  -60.55 | X-H torsion
[ 11005 11000 10999 10996 ] final   33.71 input  -57.11 | X-H torsion

> <Gold.Protein.ActiveResidues>
 VAL166  LYS551  ARG553  GLY616  TRP617  ASP618  TYR619  PRO620  LYS621  CYS622 
 ASP623  PHE694  ASN695  SER759  ASP760  ASP761  ALA762  ILE779  LEU786  VAL792 
 PHE793  MET794  SER795  GLU796  ALA797  LYS798  CYS799  TRP800  GLU811  SER814 

> <Gold.Protein.RotatedAtoms>
  152.4572  134.5264  159.9797 H   0  0  0  0  0  0  0  0  0  0  0  0  # atno 6907 bound_to 6896
  151.5322  133.3441  159.2928 H   0  0  0  0  0  0  0  0  0  0  0  0  # atno 6908 bound_to 6896
  150.8521  134.7879  159.7079 H   0  0  0  0  0  0  0  0  0  0  0  0  # atno 6909 bound_to 6896
  146.0456  140.6550  142.9066 H   0  0  0  0  0  0  0  0  0  0  0  0  # atno 7974 bound_to 7965
  155.1984  140.0415  157.2913 H   0  0  0  0  0  0  0  0  0  0  0  0  # atno 8008 bound_to 7997
  154.6091  140.2472  155.7663 H   0  0  0  0  0  0  0  0  0  0  0  0  # atno 8009 bound_to 7997
  156.2368  140.2918  156.0345 H   0  0  0  0  0  0  0  0  0  0  0  0  # atno 8010 bound_to 7997
  139.7158  143.9036  152.2485 H   0  0  0  0  0  0  0  0  0  0  0  0  # atno 10167 bound_to 10162
  157.4377  130.8062  149.7664 H   0  0  0  0  0  0  0  0  0  0  0  0  # atno 10718 bound_to 10713
  154.5419  135.5686  153.6847 H   0  0  0  0  0  0  0  0  0  0  0  0  # atno 10763 bound_to 10752
  152.9966  135.6230  154.2490 H   0  0  0  0  0  0  0  0  0  0  0  0  # atno 10764 bound_to 10752
  154.2422  135.2862  155.2829 H   0  0  0  0  0  0  0  0  0  0  0  0  # atno 10765 bound_to 10752
  140.2603  134.3200  155.7860 H   0  0  0  0  0  0  0  0  0  0  0  0  # atno 11005 bound_to 11000
  144.7096  140.3988  143.7091 LP  0  0  0  0  0  0  0  0  0  0  0  0  # atno 17320 bound_to 7965
  145.6811  139.1618  143.2700 LP  0  0  0  0  0  0  0  0  0  0  0  0  # atno 17321 bound_to 7965
  139.8918  144.6961  150.8762 LP  0  0  0  0  0  0  0  0  0  0  0  0  # atno 17342 bound_to 10162
  140.7743  143.3580  151.1883 LP  0  0  0  0  0  0  0  0  0  0  0  0  # atno 17343 bound_to 10162
  155.9937  130.3923  150.2891 LP  0  0  0  0  0  0  0  0  0  0  0  0  # atno 17370 bound_to 10713
  157.1053  131.0207  151.3069 LP  0  0  0  0  0  0  0  0  0  0  0  0  # atno 17371 bound_to 10713
  141.2191  133.7405  156.9176 LP  0  0  0  0  0  0  0  0  0  0  0  0  # atno 17394 bound_to 11000
  140.1471  134.9255  157.2544 LP  0  0  0  0  0  0  0  0  0  0  0  0  # atno 17395 bound_to 11000

$$$$
