#       Name:                AV-unprocessed.smi:2596
#       Creating user name   scv26
#       Creation time:       Fri Mar 27 14:18:23 2020


#       File generated by GOLD software.
#

@<TRIPOS>MOLECULE
AV-unprocessed.smi:2596
    36    37     1
SMALL
NO_CHARGES


@<TRIPOS>ATOM
      1 ****        -0.3890   1.5259   2.1767 O.2            1 S1                 0.0000
      2 ****         0.3550   0.5943   1.8722 C.2            1 S1                 0.0000
      3 ****         1.8608   0.8343   1.7230 C.3            1 S1                 0.0000
      4 ****         2.2832   0.7908   0.3136 N.am           1 S1                 0.0000
      5 ****         2.8298  -0.4212  -0.1543 C.2            1 S1                 0.0000
      6 ****         3.2321  -0.5678  -1.4259 C.2            1 S1                 0.0000
      7 ****         3.7441  -1.7339  -1.8517 F              1 S1                 0.0000
      8 ****         3.0993   0.5501  -2.3281 C.2            1 S1                 0.0000
      9 ****         2.5764   1.7124  -1.8895 C.2            1 S1                 0.0000
     10 ****         2.1310   1.8819  -0.5007 C.2            1 S1                 0.0000
     11 ****         1.6500   2.9402  -0.0956 O.2            1 S1                 0.0000
     12 ****        -0.0773  -0.6536   1.6324 N.am           1 S1                 0.0000
     13 ****        -1.4723  -1.0758   1.6242 C.3            1 S1                 0.0000
     14 ****        -2.0330  -1.0493   0.2051 C.3            1 S1                 0.0000
     15 ****        -2.2355   0.2905  -0.5206 C.3            1 S1                 0.0000
     16 ****        -3.4745  -0.3123  -1.1876 C.3            1 S1                 0.0000
     17 ****        -3.5284  -1.3107  -0.0278 C.3            1 S1                 0.0000
     18 ****         2.1222   1.7948   2.1713 H              1 S1                 0.0000
     19 ****         2.3969   0.0897   2.3137 H              1 S1                 0.0000
     20 ****         2.8915  -1.2137   0.5775 H              1 S1                 0.0000
     21 ****         3.4189   0.4554  -3.3556 H              1 S1                 0.0000
     22 ****         2.4823   2.5417  -2.5752 H              1 S1                 0.0000
     23 ****         0.6093  -1.3542   1.3933 H              1 S1                 0.0000
     24 ****        -1.5198  -2.0875   2.0272 H              1 S1                 0.0000
     25 ****        -2.0719  -0.4556   2.2926 H              1 S1                 0.0000
     26 ****        -1.4607  -1.7138  -0.4461 H              1 S1                 0.0000
     27 ****        -2.4797   1.1085   0.1591 H              1 S1                 0.0000
     28 ****        -1.4312   0.5639  -1.2044 H              1 S1                 0.0000
     29 ****        -4.3309   0.3592  -1.2542 H              1 S1                 0.0000
     30 ****        -3.2520  -0.7857  -2.1452 H              1 S1                 0.0000
     31 ****        -3.7739  -2.3335  -0.3152 H              1 S1                 0.0000
     32 ****        -4.1539  -0.9635   0.7963 H              1 S1                 0.0000
     33 ****        -0.0107   2.4393   2.3267 LP             1 S1                 0.0000
     34 ****        -1.3718   1.3695   2.2741 LP             1 S1                 0.0000
     35 ****         1.3555   3.0235   0.8564 LP             1 S1                 0.0000
     36 ****         1.5539   3.7165  -0.7185 LP             1 S1                 0.0000
@<TRIPOS>BOND
    1    1    2 2     
    2    2    3 1     
    3    2   12 am    
    4    3    4 1     
    5    3   18 1     
    6    3   19 1     
    7    4   10 am    
    8    4    5 1     
    9    5    6 2     
   10    5   20 1     
   11    6    7 1     
   12    6    8 1     
   13    8    9 2     
   14    8   21 1     
   15    9   10 1     
   16    9   22 1     
   17   10   11 2     
   18   12   13 1     
   19   12   23 1     
   20   13   14 1     
   21   13   24 1     
   22   13   25 1     
   23   14   17 1     
   24   14   15 1     
   25   14   26 1     
   26   15   16 1     
   27   15   27 1     
   28   15   28 1     
   29   16   17 1     
   30   16   29 1     
   31   16   30 1     
   32   17   31 1     
   33   17   32 1     
   34    1   33 1     
   35    1   34 1     
   36   11   35 1     
   37   11   36 1     
@<TRIPOS>SUBSTRUCTURE
      1 S1             1
@<TRIPOS>SET
LONE_PAIRS      STATIC     ATOMS    <user>   **** ""
4 33 34 35 36
DONOR_HYDROGENS      STATIC     ATOMS    <user>   **** ""
1 23
ATOM$BLUE        STATIC     ATOMS    COLORGROUP SYSTEM
4 33 34 35 36
ATOM$RED        STATIC     ATOMS    COLORGROUP SYSTEM
1 23
