AV-unprocessed.smi:1270|AV-procd|sdf|5331|dock9
  -GOLD-   22720 4463D 1   1.00000     0.00000
 Structure written by MMmdl.
 42 43  0  0  0  0  0  0  0  0  1 V2000
  146.9100  132.3103  152.1102 C   0  0  0  0  0  0  0  0  0  0  0  0
  147.9704  133.0955  152.6448 O   0  0  0  0  0  0  0  0  0  0  0  0
  148.7553  132.5515  153.6439 C   0  0  0  0  0  0  0  0  0  0  0  0
  148.6466  131.2230  153.8974 N   0  0  0  0  0  0  0  0  0  0  0  0
  149.4070  130.6907  154.8759 C   0  0  0  0  0  0  0  0  0  0  0  0
  150.3036  131.4476  155.6519 C   0  0  0  0  0  0  0  0  0  0  0  0
  150.4182  132.8256  155.3912 C   0  0  0  0  0  0  0  0  0  0  0  0
  149.6368  133.3973  154.3574 C   0  0  0  0  0  0  0  0  0  0  0  0
  149.6572  134.7798  154.0216 N   0  0  0  0  0  0  0  0  0  0  0  0
  150.2563  135.7952  154.6666 C   0  0  0  0  0  0  0  0  0  0  0  0
  150.9386  135.6906  155.6855 O   0  0  0  0  0  0  0  0  0  0  0  0
  150.0337  136.9613  154.0438 N   0  0  0  0  0  0  0  0  0  0  0  0
  150.5342  138.2598  154.4856 C   0  0  0  0  0  0  0  0  0  0  0  0
  151.9900  138.1252  154.9557 C   0  0  0  0  0  0  0  0  0  0  0  0
  152.5371  139.4639  155.4820 C   0  0  0  0  0  0  0  0  0  0  0  0
  151.6681  140.0340  156.5313 N   0  0  0  0  0  0  0  0  0  0  0  0
  152.1132  139.8839  158.2073 S   0  0  0  0  0  0  0  0  0  0  0  0
  151.0222  138.5471  158.8442 C   0  0  0  0  0  0  0  0  0  0  0  0
  153.5034  139.4067  158.2628 O   0  0  0  0  0  0  0  0  0  0  0  0
  151.7453  141.1369  158.8843 O   0  0  0  0  0  0  0  0  0  0  0  0
  150.2453  140.1533  156.1543 C   0  0  0  0  0  0  0  0  0  0  0  0
  149.6800  138.8195  155.6360 C   0  0  0  0  0  0  0  0  0  0  0  0
  146.3928  132.8809  151.3390 H   0  0  0  0  0  0  0  0  0  0  0  0
  146.1786  132.0528  152.8776 H   0  0  0  0  0  0  0  0  0  0  0  0
  147.2835  131.3945  151.6492 H   0  0  0  0  0  0  0  0  0  0  0  0
  149.2918  129.6311  155.0506 H   0  0  0  0  0  0  0  0  0  0  0  0
  150.8862  130.9826  156.4334 H   0  0  0  0  0  0  0  0  0  0  0  0
  151.0887  133.4130  155.9987 H   0  0  0  0  0  0  0  0  0  0  0  0
  149.2007  135.0152  153.1525 H   0  0  0  0  0  0  0  0  0  0  0  0
  149.4682  136.9526  153.2075 H   0  0  0  0  0  0  0  0  0  0  0  0
  150.5061  138.9570  153.6457 H   0  0  0  0  0  0  0  0  0  0  0  0
  152.0610  137.3643  155.7323 H   0  0  0  0  0  0  0  0  0  0  0  0
  152.6156  137.7779  154.1325 H   0  0  0  0  0  0  0  0  0  0  0  0
  153.5528  139.3383  155.8557 H   0  0  0  0  0  0  0  0  0  0  0  0
  152.5990  140.1793  154.6612 H   0  0  0  0  0  0  0  0  0  0  0  0
  151.2406  138.3835  159.8992 H   0  0  0  0  0  0  0  0  0  0  0  0
  151.2083  137.6243  158.2981 H   0  0  0  0  0  0  0  0  0  0  0  0
  149.9786  138.8393  158.7416 H   0  0  0  0  0  0  0  0  0  0  0  0
  149.6569  140.5126  156.9979 H   0  0  0  0  0  0  0  0  0  0  0  0
  150.1587  140.9113  155.3750 H   0  0  0  0  0  0  0  0  0  0  0  0
  148.6529  138.9715  155.3025 H   0  0  0  0  0  0  0  0  0  0  0  0
  149.6301  138.0947  156.4480 H   0  0  0  0  0  0  0  0  0  0  0  0
  1  2  1  0  0  0  0
  1 23  1  0  0  0  0
  1 24  1  0  0  0  0
  1 25  1  0  0  0  0
  2  3  1  0  0  0  0
  3  8  1  0  0  0  0
  3  4  2  0  0  0  0
  4  5  1  0  0  0  0
  5  6  2  0  0  0  0
  5 26  1  0  0  0  0
  6  7  1  0  0  0  0
  6 27  1  0  0  0  0
  7  8  2  0  0  0  0
  7 28  1  0  0  0  0
  8  9  1  0  0  0  0
  9 10  1  0  0  0  0
  9 29  1  0  0  0  0
 10 11  2  0  0  0  0
 10 12  1  0  0  0  0
 12 13  1  0  0  0  0
 12 30  1  0  0  0  0
 13 22  1  0  0  0  0
 13 14  1  0  0  0  0
 13 31  1  0  0  0  0
 14 15  1  0  0  0  0
 14 32  1  0  0  0  0
 14 33  1  0  0  0  0
 15 16  1  0  0  0  0
 15 34  1  0  0  0  0
 15 35  1  0  0  0  0
 16 17  1  0  0  0  0
 16 21  1  0  0  0  0
 17 18  1  0  0  0  0
 17 19  2  0  0  0  0
 17 20  2  0  0  0  0
 18 36  1  0  0  0  0
 18 37  1  0  0  0  0
 18 38  1  0  0  0  0
 21 22  1  0  0  0  0
 21 39  1  0  0  0  0
 21 40  1  0  0  0  0
 22 41  1  0  0  0  0
 22 42  1  0  0  0  0
M  END
> <s_m_source_file>
AV-unprocessed.smi

> <i_m_source_file_index>
1270

> <i_lp_mmshare_version>
43012

> <i_f3d_flags>
0

> <s_epik_input>
W0NIM11PYzFuW2NIXVtjSF1bY0hdYzFbTkhdQyg9TylbTkhdW0NIXTJbQ0gyXVtDSDJdTihTKD1PKSg9TylbQ0gzXSlbQ0gyXVtDSDJdMg==

> <s_epik_cmdline>
J2VwaWtfcHl0aG9uJywgJy1waCcsICc3LjAnLCAnLXRuJywgJzgnLCAnLW1hJywgJzIwMCcsICctbWV0YWxfYmluZGluZycsICctaW1hZScsICc8aW5maWxlLm1hZT4nLCAnLW9tYWUnLCAnPG91dGZpbGUubWFlPic=

> <r_lp_tautomer_probability>
1

> <r_epik_Ionization_Penalty>
9.27336e-05

> <r_epik_Ionization_Penalty_Charging>
0

> <r_epik_Ionization_Penalty_Neutral>
9.27336e-05

> <r_epik_State_Penalty>
-0

> <r_epik_Charging_Adjusted_Penalty>
0

> <i_epik_Tot_Q>
0

> <i_epik_Tot_abs_Q>
0

> <r_epik_Metal_State_Penalty>
-0

> <b_epik_Metal_Only>
0

> <s_lp_Force_Field>
OPLS_2005

> <r_lp_Energy>
1.71558

> <b_lp_Chiralities_Consistent>
1

> <s_lp_Variant>
AV-unprocessed.smi:1270-1

> <Gold.Version>
5.8.1

> <Gold.Id.Protein>
6NUR|6NUR_protein|mol2

> <Gold.PLP.Fitness>
43.2248

> <Gold.PLP.PLP>
-33.0975

> <Gold.PLP.part.hbond>
-5.4994

> <Gold.PLP.part.metal>
0.0000

> <Gold.PLP.part.buried>
0.5886

> <Gold.PLP.part.nonpolar>
-27.7683

> <Gold.PLP.part.repulsive>
0.4341

> <Gold.PLP.ligand.clash>
0.0000

> <Gold.PLP.ligand.torsion>
1.4703

> <Gold.PLP.Chemscore.Hbond>
3.6704

> <Gold.PLP.Chemscore.CHOScore>
0.0000

> <Gold.PLP.Chemscore.Metal>
0.0000

> <Gold.Chemscore.Hbonds>
donor molecule, donor type, donor heavy atom, donor atom, acceptor molecule, acceptor atom, score
      L1  H     9    29       P1  7948  0.61
      L1  H    12    30       P1  7948  1.00
      P1  H  7997  8010       L1    19  0.98
      P1  H 10752 10764       L1    11  0.49

> <Gold.PLP.Chemscore.Internal.Correction>
2.0568

> <Gold.Rescore>
     Score         DG    S(hbond)    S(metal)    S(lipo)     H(rot)  DE(clash)    DE(int)     intcor
     12.75     -18.03       2.58        0.00      61.85       1.29       1.22       4.07       ----

> <Gold.Chemscore.Fitness>
12.7505

> <Gold.Chemscore.DG>
-18.0341

> <Gold.Chemscore.ZeroCoef>
-5.4800

> <Gold.Chemscore.Hbond>
2.5800

> <Gold.Chemscore.Metal>
0.0000

> <Gold.Chemscore.Lipo>
61.8545

> <Gold.Chemscore.Internal_Hbond>
0.0000

> <Gold.Chemscore.DEClash>
1.2180

> <Gold.Chemscore.DEInternal>
4.0656

> <Gold.Chemscore.Rot>
1.2890

> <Gold.Chemscore.Internal.Correction>
   9.000000E+99

> <Gold.Chemscore.Hbonds>
donor molecule, donor type, donor heavy atom, donor atom, acceptor molecule, acceptor atom, score
      L1  H     9    29       P1  7948  0.05
      L1  H    12    30       P1  7948  0.75
      P1  H  7997  8010       L1    19  0.93
      P1  H 10752 10764       L1    11  0.17

> <Gold.Chemscore.Hbond.Weighted>
-8.6171

> <Gold.Chemscore.Metal.Weighted>
-0.0000

> <Gold.Chemscore.Lipo.Weighted>
-7.2370

> <Gold.Chemscore.Internal_Hbond.Weighted>
0.0000

> <Gold.Chemscore.DEClash.Weighted>
1.2180

> <Gold.Chemscore.DEInternal.Weighted>
4.0656

> <Gold.Chemscore.Rot.Weighted>
3.2999

> <Gold.Chemscore.Internal.Correction.Weighted>
   9.000000E+99

> <Gold.Protein.RotatedTorsions>
[ 6907 6896 6895 6894 ] final -153.90 input  -60.11 | X-H torsion
[ 7974 7965 7964 7962 ] final  175.08 input  175.53 | X-H torsion
[ 8008 7997 7996 7995 ] final    8.52 input   59.86 | X-H torsion
[ 10167 10162 10161 10158 ] final   32.21 input  -65.29 | X-H torsion
[ 10718 10713 10712 10709 ] final  -53.54 input   66.30 | X-H torsion
[ 10763 10752 10751 10750 ] final  -44.57 input  -60.55 | X-H torsion
[ 11005 11000 10999 10996 ] final  164.68 input  -57.11 | X-H torsion

> <Gold.Protein.ActiveResidues>
 VAL166  LYS551  ARG553  GLY616  TRP617  ASP618  TYR619  PRO620  LYS621  CYS622 
 ASP623  PHE694  ASN695  SER759  ASP760  ASP761  ALA762  ILE779  LEU786  VAL792 
 PHE793  MET794  SER795  GLU796  ALA797  LYS798  CYS799  TRP800  GLU811  SER814 

> <Gold.Protein.RotatedAtoms>
  151.2495  133.4357  159.2610 H   0  0  0  0  0  0  0  0  0  0  0  0  # atno 6907 bound_to 6896
  151.0630  134.9749  159.8280 H   0  0  0  0  0  0  0  0  0  0  0  0  # atno 6908 bound_to 6896
  152.5401  134.2444  159.8927 H   0  0  0  0  0  0  0  0  0  0  0  0  # atno 6909 bound_to 6896
  144.7209  139.9893  143.6439 H   0  0  0  0  0  0  0  0  0  0  0  0  # atno 7974 bound_to 7965
  154.7679  140.2796  155.6161 H   0  0  0  0  0  0  0  0  0  0  0  0  # atno 8008 bound_to 7997
  156.2928  140.2647  156.2402 H   0  0  0  0  0  0  0  0  0  0  0  0  # atno 8009 bound_to 7997
  154.9936  140.0373  157.2320 H   0  0  0  0  0  0  0  0  0  0  0  0  # atno 8010 bound_to 7997
  140.4519  144.1035  150.6193 H   0  0  0  0  0  0  0  0  0  0  0  0  # atno 10167 bound_to 10162
  156.1526  130.4151  149.9920 H   0  0  0  0  0  0  0  0  0  0  0  0  # atno 10718 bound_to 10713
  154.0143  135.6677  153.4767 H   0  0  0  0  0  0  0  0  0  0  0  0  # atno 10763 bound_to 10752
  153.0607  135.5029  154.8083 H   0  0  0  0  0  0  0  0  0  0  0  0  # atno 10764 bound_to 10752
  154.6976  135.3073  154.9352 H   0  0  0  0  0  0  0  0  0  0  0  0  # atno 10765 bound_to 10752
  140.2484  134.7996  157.3478 H   0  0  0  0  0  0  0  0  0  0  0  0  # atno 11005 bound_to 11000
  146.0425  139.3435  143.0689 LP  0  0  0  0  0  0  0  0  0  0  0  0  # atno 17320 bound_to 7965
  145.8317  140.9627  143.0845 LP  0  0  0  0  0  0  0  0  0  0  0  0  # atno 17321 bound_to 7965
  140.4197  143.2617  151.9731 LP  0  0  0  0  0  0  0  0  0  0  0  0  # atno 17342 bound_to 10162
  139.4797  144.5842  151.7881 LP  0  0  0  0  0  0  0  0  0  0  0  0  # atno 17343 bound_to 10162
  156.7773  130.9208  151.3645 LP  0  0  0  0  0  0  0  0  0  0  0  0  # atno 17370 bound_to 10713
  157.6669  130.9016  149.9953 LP  0  0  0  0  0  0  0  0  0  0  0  0  # atno 17371 bound_to 10713
  140.1582  134.4762  155.7913 LP  0  0  0  0  0  0  0  0  0  0  0  0  # atno 17394 bound_to 11000
  141.2204  133.6890  156.7499 LP  0  0  0  0  0  0  0  0  0  0  0  0  # atno 17395 bound_to 11000

$$$$
