#       Name:                AV-unprocessed.smi:1531
#       Creating user name   scv26
#       Creation time:       Fri Mar 27 06:30:38 2020


#       File generated by GOLD software.
#

@<TRIPOS>MOLECULE
AV-unprocessed.smi:1531
    49    50     1
SMALL
NO_CHARGES


@<TRIPOS>ATOM
      1 ****        -2.5364   0.2374  -2.5907 C.3            1 S1                 0.0000
      2 ****        -2.1863  -1.2215  -2.2658 C.3            1 S1                 0.0000
      3 ****        -2.7061  -1.7063  -0.8930 C.3            1 S1                 0.0000
      4 ****        -2.4560  -3.2200  -0.7149 C.3            1 S1                 0.0000
      5 ****        -3.0117  -3.7404   0.6202 C.3            1 S1                 0.0000
      6 ****        -2.4319  -2.9596   1.8079 C.3            1 S1                 0.0000
      7 ****        -2.6794  -1.4505   1.6514 C.3            1 S1                 0.0000
      8 ****        -2.1426  -0.9062   0.3117 C.3            1 S1                 0.0000
      9 ****        -0.6789  -0.9081   0.3105 N.am           1 S1                 0.0000
     10 ****         0.1104   0.1511   0.5376 C.2            1 S1                 0.0000
     11 ****        -0.3119   1.2798   0.7894 O.2            1 S1                 0.0000
     12 ****         1.4075  -0.1865   0.4548 N.am           1 S1                 0.0000
     13 ****         2.5300   0.6672   0.5965 C.2            1 S1                 0.0000
     14 ****         3.8826   0.2463   0.5144 C.2            1 S1                 0.0000
     15 ****         4.7122   1.2654   0.6782 N.2            1 S1                 0.0000
     16 ****         3.9120   2.3453   0.8639 N.pl3          1 S1                 0.0000
     17 ****         4.5059   3.6544   1.0687 C.3            1 S1                 0.0000
     18 ****         4.5922   4.4342  -0.2449 C.2            1 S1                 0.0000
     19 ****         3.5117   5.1267  -0.6163 N.am           1 S1                 0.0000
     20 ****         5.6217   4.4134  -0.9160 O.2            1 S1                 0.0000
     21 ****         2.5715   2.0139   0.8217 C.2            1 S1                 0.0000
     22 ****        -2.2301   0.4895  -3.6061 H              1 S1                 0.0000
     23 ****        -2.0319   0.9313  -1.9182 H              1 S1                 0.0000
     24 ****        -3.6097   0.4128  -2.5148 H              1 S1                 0.0000
     25 ****        -2.6144  -1.8527  -3.0453 H              1 S1                 0.0000
     26 ****        -1.1068  -1.3594  -2.3346 H              1 S1                 0.0000
     27 ****        -3.7880  -1.5637  -0.8948 H              1 S1                 0.0000
     28 ****        -2.9169  -3.7722  -1.5346 H              1 S1                 0.0000
     29 ****        -1.3870  -3.4297  -0.7704 H              1 S1                 0.0000
     30 ****        -4.0991  -3.6544   0.6218 H              1 S1                 0.0000
     31 ****        -2.7859  -4.8017   0.7284 H              1 S1                 0.0000
     32 ****        -2.8780  -3.3135   2.7376 H              1 S1                 0.0000
     33 ****        -1.3613  -3.1526   1.8875 H              1 S1                 0.0000
     34 ****        -3.7518  -1.2596   1.7089 H              1 S1                 0.0000
     35 ****        -2.2321  -0.9100   2.4867 H              1 S1                 0.0000
     36 ****        -2.4972   0.1217   0.2223 H              1 S1                 0.0000
     37 ****        -0.2339  -1.7928   0.1143 H              1 S1                 0.0000
     38 ****         1.6139  -1.1547   0.2573 H              1 S1                 0.0000
     39 ****         4.2822  -0.7425   0.3440 H              1 S1                 0.0000
     40 ****         3.9061   4.2040   1.7955 H              1 S1                 0.0000
     41 ****         5.5021   3.5384   1.4990 H              1 S1                 0.0000
     42 ****         3.5219   5.6597  -1.4738 H              1 S1                 0.0000
     43 ****         2.6870   5.1166  -0.0333 H              1 S1                 0.0000
     44 ****         1.7942   2.7528   0.9485 H              1 S1                 0.0000
     45 ****        -1.2969   1.4467   0.8338 LP             1 S1                 0.0000
     46 ****         0.3300   2.0296   0.9495 LP             1 S1                 0.0000
     47 ****         5.7119   1.2437   0.6674 LP             1 S1                 0.0000
     48 ****         6.4109   3.8841  -0.6046 LP             1 S1                 0.0000
     49 ****         5.6700   4.9258  -1.7734 LP             1 S1                 0.0000
@<TRIPOS>BOND
    1    1    2 1     
    2    1   22 1     
    3    1   23 1     
    4    1   24 1     
    5    2    3 1     
    6    2   25 1     
    7    2   26 1     
    8    3    8 1     
    9    3    4 1     
   10    3   27 1     
   11    4    5 1     
   12    4   28 1     
   13    4   29 1     
   14    5    6 1     
   15    5   30 1     
   16    5   31 1     
   17    6    7 1     
   18    6   32 1     
   19    6   33 1     
   20    7    8 1     
   21    7   34 1     
   22    7   35 1     
   23    8    9 1     
   24    8   36 1     
   25    9   10 am    
   26    9   37 1     
   27   10   11 2     
   28   10   12 am    
   29   12   13 1     
   30   12   38 1     
   31   13   21 2     
   32   13   14 1     
   33   14   15 2     
   34   14   39 1     
   35   15   16 1     
   36   16   17 1     
   37   16   21 1     
   38   17   18 1     
   39   17   40 1     
   40   17   41 1     
   41   18   19 am    
   42   18   20 2     
   43   19   42 1     
   44   19   43 1     
   45   21   44 1     
   46   11   45 1     
   47   11   46 1     
   48   15   47 1     
   49   20   48 1     
   50   20   49 1     
@<TRIPOS>SUBSTRUCTURE
      1 S1             1
@<TRIPOS>SET
LONE_PAIRS      STATIC     ATOMS    <user>   **** ""
5 45 46 47 48 49
DONOR_HYDROGENS      STATIC     ATOMS    <user>   **** ""
4 37 38 42 43
ATOM$BLUE        STATIC     ATOMS    COLORGROUP SYSTEM
5 45 46 47 48 49
ATOM$RED        STATIC     ATOMS    COLORGROUP SYSTEM
4 37 38 42 43
