#       Name:                AV-unprocessed.smi:3185
#       Creating user name   scv26
#       Creation time:       Fri Mar 27 18:01:04 2020


#       File generated by GOLD software.
#

@<TRIPOS>MOLECULE
AV-unprocessed.smi:3185
    40    41     1
SMALL
NO_CHARGES


@<TRIPOS>ATOM
      1 ****        -6.1619   0.4430  -1.5109 N.1            1 S1                 0.0000
      2 ****        -5.0110   0.4400  -1.6286 C.1            1 S1                 0.0000
      3 ****        -3.5481   0.4356  -1.7776 C.3            1 S1                 0.0000
      4 ****        -2.9153  -0.8852  -1.3211 C.3            1 S1                 0.0000
      5 ****        -1.3884  -0.9034  -1.4708 C.3            1 S1                 0.0000
      6 ****        -0.7898  -0.0104  -0.4894 N.3            1 S1                 0.0000
      7 ****         0.6674  -0.1064  -0.4748 C.3            1 S1                 0.0000
      8 ****         1.2657   0.6597  -1.6770 C.3            1 S1                 0.0000
      9 ****         2.8013   0.6791  -1.6301 C.3            1 S1                 0.0000
     10 ****         3.3110   1.2662  -0.3068 C.3            1 S1                 0.0000
     11 ****         2.7365   0.4970   0.8911 C.3            1 S1                 0.0000
     12 ****         1.1940   0.4773   0.8628 C.3            1 S1                 0.0000
     13 ****         0.6668  -0.2344   2.0215 N.pl3          1 S1                 0.0000
     14 ****        -0.1009   0.2702   3.0508 C.2            1 S1                 0.0000
     15 ****        -0.3627  -0.7589   3.9090 C.2            1 S1                 0.0000
     16 ****         0.2980  -1.8699   3.3152 C.2            1 S1                 0.0000
     17 ****         0.9122  -1.5543   2.1868 N.2            1 S1                 0.0000
     18 ****        -3.3173   0.6290  -2.8254 H              1 S1                 0.0000
     19 ****        -3.1554   1.2719  -1.1989 H              1 S1                 0.0000
     20 ****        -3.1924  -1.0958  -0.2872 H              1 S1                 0.0000
     21 ****        -3.3346  -1.6962  -1.9172 H              1 S1                 0.0000
     22 ****        -1.0247  -1.9175  -1.3008 H              1 S1                 0.0000
     23 ****        -1.1053  -0.6203  -2.4843 H              1 S1                 0.0000
     24 ****        -1.1349  -0.2665   0.4250 H              1 S1                 0.0000
     25 ****         0.9609  -1.1558  -0.5332 H              1 S1                 0.0000
     26 ****         0.9512   0.2102  -2.6183 H              1 S1                 0.0000
     27 ****         0.8936   1.6853  -1.6853 H              1 S1                 0.0000
     28 ****         3.1828  -0.3353  -1.7516 H              1 S1                 0.0000
     29 ****         3.1913   1.2582  -2.4676 H              1 S1                 0.0000
     30 ****         4.4007   1.2334  -0.2811 H              1 S1                 0.0000
     31 ****         3.0301   2.3179  -0.2381 H              1 S1                 0.0000
     32 ****         3.1251  -0.5223   0.8799 H              1 S1                 0.0000
     33 ****         3.0866   0.9505   1.8190 H              1 S1                 0.0000
     34 ****         0.8516   1.5111   0.9409 H              1 S1                 0.0000
     35 ****        -0.3962   1.3086   3.0859 H              1 S1                 0.0000
     36 ****        -0.9380  -0.7231   4.8223 H              1 S1                 0.0000
     37 ****         0.3488  -2.8895   3.6676 H              1 S1                 0.0000
     38 ****        -7.1567   0.4456  -1.4092 LP             1 S1                 0.0000
     39 ****        -1.0363   0.9280  -0.7317 LP             1 S1                 0.0000
     40 ****         1.4404  -2.1573   1.5890 LP             1 S1                 0.0000
@<TRIPOS>BOND
    1    1    2 3     
    2    2    3 1     
    3    3    4 1     
    4    3   18 1     
    5    3   19 1     
    6    4    5 1     
    7    4   20 1     
    8    4   21 1     
    9    5    6 1     
   10    5   22 1     
   11    5   23 1     
   12    6    7 1     
   13    6   24 1     
   14    7   12 1     
   15    7    8 1     
   16    7   25 1     
   17    8    9 1     
   18    8   26 1     
   19    8   27 1     
   20    9   10 1     
   21    9   28 1     
   22    9   29 1     
   23   10   11 1     
   24   10   30 1     
   25   10   31 1     
   26   11   12 1     
   27   11   32 1     
   28   11   33 1     
   29   12   13 1     
   30   12   34 1     
   31   13   17 1     
   32   13   14 1     
   33   14   15 2     
   34   14   35 1     
   35   15   16 1     
   36   15   36 1     
   37   16   17 2     
   38   16   37 1     
   39    1   38 1     
   40    6   39 1     
   41   17   40 1     
@<TRIPOS>SUBSTRUCTURE
      1 S1             1
@<TRIPOS>SET
LONE_PAIRS      STATIC     ATOMS    <user>   **** ""
3 38 39 40
DONOR_HYDROGENS      STATIC     ATOMS    <user>   **** ""
1 24
ATOM$BLUE        STATIC     ATOMS    COLORGROUP SYSTEM
3 38 39 40
ATOM$RED        STATIC     ATOMS    COLORGROUP SYSTEM
1 24
