AV-unprocessed.smi:848|AV-procd|sdf|3941|dock1
  -GOLD-   22720 1403D 1   1.00000     0.00000
 Structure written by MMmdl.
 47 49  0  0  0  0  0  0  0  0  2 V2000
  153.6690  140.9679  160.5108 C   0  0  0  0  0  0  0  0  0  0  0  0
  152.8442  141.9094  159.6575 C   0  0  0  0  0  0  0  0  0  0  0  0
  152.6164  143.2348  160.0779 C   0  0  0  0  0  0  0  0  0  0  0  0
  151.8476  144.1055  159.2818 C   0  0  0  0  0  0  0  0  0  0  0  0
  151.6071  145.5291  159.7407 C   0  0  0  0  0  0  0  0  0  0  0  0
  151.3064  143.6455  158.0638 C   0  0  0  0  0  0  0  0  0  0  0  0
  151.5245  142.3222  157.6286 C   0  0  0  0  0  0  0  0  0  0  0  0
  150.9552  141.9581  156.4269 O   0  0  0  0  0  0  0  0  0  0  0  0
  151.2539  140.6711  155.9020 C   0  0  0  0  0  0  0  0  0  0  0  0
  150.0544  140.1740  155.0818 C   0  0  2  0  0  0  0  0  0  0  0  0
  150.0567  140.8425  153.8360 O   0  0  0  0  0  0  0  0  0  0  0  0
  148.7098  140.3986  155.8031 C   0  0  0  0  0  0  0  0  0  0  0  0
  147.5567  139.9334  155.0157 N   0  0  0  0  0  0  0  0  0  0  0  0
  146.5187  140.6410  154.4837 C   0  0  0  0  0  0  0  0  0  0  0  0
  146.3010  142.1155  154.5704 C   0  0  0  0  0  0  0  0  0  0  0  0
  147.4476  142.8478  154.1991 O   0  0  0  0  0  0  0  0  0  0  0  0
  145.7112  139.7523  153.8396 N   0  3  0  0  0  0  0  0  0  0  0  0
  146.2339  138.4644  153.9620 C   0  0  0  0  0  0  0  0  0  0  0  0
  145.7689  137.2441  153.4812 C   0  0  0  0  0  0  0  0  0  0  0  0
  146.5445  136.1066  153.7865 C   0  0  0  0  0  0  0  0  0  0  0  0
  147.7314  136.2085  154.5406 C   0  0  0  0  0  0  0  0  0  0  0  0
  148.1941  137.4514  155.0207 C   0  0  0  0  0  0  0  0  0  0  0  0
  147.4211  138.5721  154.7159 C   0  0  0  0  0  0  0  0  0  0  0  0
  152.3017  141.4555  158.4378 C   0  0  0  0  0  0  0  0  0  0  0  0
  154.0205  141.4578  161.4194 H   0  0  0  0  0  0  0  0  0  0  0  0
  154.5388  140.6178  159.9545 H   0  0  0  0  0  0  0  0  0  0  0  0
  153.0744  140.1011  160.7998 H   0  0  0  0  0  0  0  0  0  0  0  0
  153.0303  143.5868  161.0118 H   0  0  0  0  0  0  0  0  0  0  0  0
  151.0019  146.0834  159.0228 H   0  0  0  0  0  0  0  0  0  0  0  0
  152.5561  146.0520  159.8616 H   0  0  0  0  0  0  0  0  0  0  0  0
  151.0881  145.5342  160.6995 H   0  0  0  0  0  0  0  0  0  0  0  0
  150.7157  144.3121  157.4526 H   0  0  0  0  0  0  0  0  0  0  0  0
  152.1480  140.7074  155.2771 H   0  0  0  0  0  0  0  0  0  0  0  0
  151.4424  139.9789  156.7249 H   0  0  0  0  0  0  0  0  0  0  0  0
  150.1845  139.1108  154.8775 H   0  0  0  0  0  0  0  0  0  0  0  0
  149.8181  140.2237  153.1630 H   0  0  0  0  0  0  0  0  0  0  0  0
  148.6957  139.8483  156.7445 H   0  0  0  0  0  0  0  0  0  0  0  0
  148.5703  141.4467  156.0675 H   0  0  0  0  0  0  0  0  0  0  0  0
  145.4721  142.3988  153.9212 H   0  0  0  0  0  0  0  0  0  0  0  0
  146.0179  142.3868  155.5875 H   0  0  0  0  0  0  0  0  0  0  0  0
  147.5362  143.5855  154.7834 H   0  0  0  0  0  0  0  0  0  0  0  0
  144.8597  137.1637  152.9035 H   0  0  0  0  0  0  0  0  0  0  0  0
  146.2219  135.1365  153.4366 H   0  0  0  0  0  0  0  0  0  0  0  0
  148.2988  135.3148  154.7562 H   0  0  0  0  0  0  0  0  0  0  0  0
  149.1033  137.5146  155.5994 H   0  0  0  0  0  0  0  0  0  0  0  0
  152.4942  140.4346  158.1443 H   0  0  0  0  0  0  0  0  0  0  0  0
  144.8653  140.0128  153.3494 H   0  0  0  0  0  0  0  0  0  0  0  0
  1  2  1  0  0  0  0
  1 25  1  0  0  0  0
  1 26  1  0  0  0  0
  1 27  1  0  0  0  0
  2 24  1  0  0  0  0
  2  3  2  0  0  0  0
  3  4  1  0  0  0  0
  3 28  1  0  0  0  0
  4  5  1  0  0  0  0
  4  6  2  0  0  0  0
  5 29  1  0  0  0  0
  5 30  1  0  0  0  0
  5 31  1  0  0  0  0
  6  7  1  0  0  0  0
  6 32  1  0  0  0  0
  7  8  1  0  0  0  0
  7 24  2  0  0  0  0
  8  9  1  0  0  0  0
  9 10  1  0  0  0  0
  9 33  1  0  0  0  0
  9 34  1  0  0  0  0
 10 11  1  0  0  0  0
 10 12  1  0  0  0  0
 10 35  1  0  0  0  0
 11 36  1  0  0  0  0
 12 13  1  0  0  0  0
 12 37  1  0  0  0  0
 12 38  1  0  0  0  0
 13 23  1  0  0  0  0
 13 14  1  0  0  0  0
 14 15  1  0  0  0  0
 14 17  2  0  0  0  0
 15 16  1  0  0  0  0
 15 39  1  0  0  0  0
 15 40  1  0  0  0  0
 16 41  1  0  0  0  0
 17 18  1  0  0  0  0
 17 47  1  0  0  0  0
 18 23  2  0  0  0  0
 18 19  1  0  0  0  0
 19 20  2  0  0  0  0
 19 42  1  0  0  0  0
 20 21  1  0  0  0  0
 20 43  1  0  0  0  0
 21 22  2  0  0  0  0
 21 44  1  0  0  0  0
 22 23  1  0  0  0  0
 22 45  1  0  0  0  0
 24 46  1  0  0  0  0
M  CHG  1  17   1
M  END
> <s_m_source_file>
AV-unprocessed.smi

> <i_m_source_file_index>
848

> <i_lp_mmshare_version>
43012

> <i_f3d_flags>
0

> <s_epik_input>
W0NIM11jMVtjSF1jKFtDSDNdKVtjSF1jKFtjSF0xKU9bQ0gyXVtDQEhdKFtPSF0pW0NIMl1uKGMobjIpW0NIMl1bT0hdKWMoYzIzKVtjSF1bY0hdW2NIXVtjSF0z

> <s_epik_cmdline>
J2VwaWtfcHl0aG9uJywgJy1waCcsICc3LjAnLCAnLXRuJywgJzgnLCAnLW1hJywgJzIwMCcsICctbWV0YWxfYmluZGluZycsICctaW1hZScsICc8aW5maWxlLm1hZT4nLCAnLW9tYWUnLCAnPG91dGZpbGUubWFlPic=

> <r_lp_tautomer_probability>
1

> <r_epik_Ionization_Penalty>
1.43292

> <r_epik_Ionization_Penalty_Charging>
1.43206

> <r_epik_Ionization_Penalty_Neutral>
0.000858184

> <r_epik_State_Penalty>
1.51673

> <r_epik_Charging_Adjusted_Penalty>
2.94879

> <i_epik_Tot_Q>
1

> <i_epik_Tot_abs_Q>
1

> <r_epik_Metal_State_Penalty>
5.56186

> <b_epik_Metal_Only>
0

> <s_lp_Force_Field>
OPLS_2005

> <r_lp_Energy>
18.3298

> <b_lp_Chiralities_Consistent>
1

> <s_lp_Variant>
AV-unprocessed.smi:848-3

> <Gold.Version>
5.8.1

> <Gold.Id.Protein>
6NUR|6NUR_protein|mol2

> <Gold.PLP.Fitness>
56.6226

> <Gold.PLP.PLP>
-44.2879

> <Gold.PLP.part.hbond>
-5.4142

> <Gold.PLP.part.metal>
0.0000

> <Gold.PLP.part.buried>
-2.9705

> <Gold.PLP.part.nonpolar>
-34.6349

> <Gold.PLP.part.repulsive>
0.0728

> <Gold.PLP.ligand.clash>
0.0000

> <Gold.PLP.ligand.torsion>
0.4438

> <Gold.PLP.Chemscore.Hbond>
4.3849

> <Gold.PLP.Chemscore.CHOScore>
0.0000

> <Gold.PLP.Chemscore.Metal>
0.0000

> <Gold.Chemscore.Hbonds>
donor molecule, donor type, donor heavy atom, donor atom, acceptor molecule, acceptor atom, score
      L1  H    11    36       P1  7957  0.83
      L1  H    16    41       P1  8028  0.73
      L1  H    17    47       P1 10175  2.00
      P1  H  7989  7998       L1    11  0.40
      P1  H  8011  8017       L1    11  0.19

> <Gold.PLP.Chemscore.Internal.Correction>
0.0677

> <Gold.Rescore>
     Score         DG    S(hbond)    S(metal)    S(lipo)     H(rot)  DE(clash)    DE(int)     intcor
     17.67     -18.23       2.11        0.00     115.32       3.05       0.05       0.50       ----

> <Gold.Chemscore.Fitness>
17.6734

> <Gold.Chemscore.DG>
-18.2289

> <Gold.Chemscore.ZeroCoef>
-5.4800

> <Gold.Chemscore.Hbond>
2.1132

> <Gold.Chemscore.Metal>
0.0000

> <Gold.Chemscore.Lipo>
115.3217

> <Gold.Chemscore.Internal_Hbond>
0.0000

> <Gold.Chemscore.DEClash>
0.0516

> <Gold.Chemscore.DEInternal>
0.5039

> <Gold.Chemscore.Rot>
3.0476

> <Gold.Chemscore.Internal.Correction>
   9.000000E+99

> <Gold.Chemscore.Hbonds>
donor molecule, donor type, donor heavy atom, donor atom, acceptor molecule, acceptor atom, score
      L1  H    11    36       P1  7957  0.79
      L1  H    16    41       P1  8028  0.12
      L1  H    17    47       P1 10175  0.94
      P1  H  7989  7998       L1    11  0.02

> <Gold.Chemscore.Hbond.Weighted>
-7.0580

> <Gold.Chemscore.Metal.Weighted>
-0.0000

> <Gold.Chemscore.Lipo.Weighted>
-13.4926

> <Gold.Chemscore.Internal_Hbond.Weighted>
0.0000

> <Gold.Chemscore.DEClash.Weighted>
0.0516

> <Gold.Chemscore.DEInternal.Weighted>
0.5039

> <Gold.Chemscore.Rot.Weighted>
7.8018

> <Gold.Chemscore.Internal.Correction.Weighted>
   9.000000E+99

> <Gold.Protein.RotatedTorsions>
[ 6907 6896 6895 6894 ] final   63.26 input  -60.11 | X-H torsion
[ 7974 7965 7964 7962 ] final -168.86 input  175.53 | X-H torsion
[ 8008 7997 7996 7995 ] final -144.45 input   59.86 | X-H torsion
[ 10167 10162 10161 10158 ] final -167.25 input  -65.29 | X-H torsion
[ 10718 10713 10712 10709 ] final  -75.45 input   66.30 | X-H torsion
[ 10763 10752 10751 10750 ] final -145.27 input  -60.55 | X-H torsion
[ 11005 11000 10999 10996 ] final -103.97 input  -57.11 | X-H torsion

> <Gold.Protein.ActiveResidues>
 VAL166  LYS551  ARG553  GLY616  TRP617  ASP618  TYR619  PRO620  LYS621  CYS622 
 ASP623  PHE694  ASN695  SER759  ASP760  ASP761  ALA762  ILE779  LEU786  VAL792 
 PHE793  MET794  SER795  GLU796  ALA797  LYS798  CYS799  TRP800  GLU811  SER814 

> <Gold.Protein.RotatedAtoms>
  152.4238  134.5905  159.9972 H   0  0  0  0  0  0  0  0  0  0  0  0  # atno 6907 bound_to 6896
  151.6048  133.3347  159.3063 H   0  0  0  0  0  0  0  0  0  0  0  0  # atno 6908 bound_to 6896
  150.8127  134.7329  159.6768 H   0  0  0  0  0  0  0  0  0  0  0  0  # atno 6909 bound_to 6896
  144.7195  140.2307  143.6304 H   0  0  0  0  0  0  0  0  0  0  0  0  # atno 7974 bound_to 7965
  155.5271  140.0596  157.2896 H   0  0  0  0  0  0  0  0  0  0  0  0  # atno 8008 bound_to 7997
  154.4497  140.1942  156.0502 H   0  0  0  0  0  0  0  0  0  0  0  0  # atno 8009 bound_to 7997
  156.0678  140.3264  155.7543 H   0  0  0  0  0  0  0  0  0  0  0  0  # atno 8010 bound_to 7997
  139.6062  144.0909  152.1795 H   0  0  0  0  0  0  0  0  0  0  0  0  # atno 10167 bound_to 10162
  156.0207  130.4441  150.3044 H   0  0  0  0  0  0  0  0  0  0  0  0  # atno 10718 bound_to 10713
  154.8391  135.3418  154.6477 H   0  0  0  0  0  0  0  0  0  0  0  0  # atno 10763 bound_to 10752
  153.7089  135.6965  153.5047 H   0  0  0  0  0  0  0  0  0  0  0  0  # atno 10764 bound_to 10752
  153.2466  135.4367  155.0708 H   0  0  0  0  0  0  0  0  0  0  0  0  # atno 10765 bound_to 10752
  141.1122  133.8684  157.1552 H   0  0  0  0  0  0  0  0  0  0  0  0  # atno 11005 bound_to 11000
  145.8413  139.2131  143.1825 LP  0  0  0  0  0  0  0  0  0  0  0  0  # atno 17320 bound_to 7965
  146.0343  140.8227  142.9860 LP  0  0  0  0  0  0  0  0  0  0  0  0  # atno 17321 bound_to 7965
  140.0517  144.5927  150.7331 LP  0  0  0  0  0  0  0  0  0  0  0  0  # atno 17342 bound_to 10162
  140.7286  143.2664  151.4032 LP  0  0  0  0  0  0  0  0  0  0  0  0  # atno 17343 bound_to 10162
  157.1147  131.0230  151.3034 LP  0  0  0  0  0  0  0  0  0  0  0  0  # atno 17370 bound_to 10713
  157.4676  130.7690  149.7294 LP  0  0  0  0  0  0  0  0  0  0  0  0  # atno 17371 bound_to 10713
  140.0022  135.0023  157.0215 LP  0  0  0  0  0  0  0  0  0  0  0  0  # atno 17394 bound_to 11000
  140.4745  134.1353  155.7207 LP  0  0  0  0  0  0  0  0  0  0  0  0  # atno 17395 bound_to 11000

$$$$
