AV-unprocessed.smi:1535|AV-procd|sdf|6176|dock6
  -GOLD-   22720 6333D 1   1.00000     0.00000
 Structure written by MMmdl.
 47 48  0  0  0  0  0  0  0  0  2 V2000
  153.3107  142.8585  161.4358 C   0  0  0  0  0  0  0  0  0  0  0  0
  152.6862  142.4249  160.1206 C   0  0  0  0  0  0  0  0  0  0  0  0
  152.9395  141.1159  159.6523 C   0  0  0  0  0  0  0  0  0  0  0  0
  152.3542  140.7491  158.4462 C   0  0  0  0  0  0  0  0  0  0  0  0
  152.4123  139.5524  157.7290 N   0  3  0  0  0  0  0  0  0  0  0  0
  151.6699  139.6666  156.5933 C   0  0  0  0  0  0  0  0  0  0  0  0
  151.1368  140.9183  156.5750 N   0  0  0  0  0  0  0  0  0  0  0  0
  150.2606  141.5493  155.5781 C   0  0  0  0  0  0  0  0  0  0  0  0
  149.5926  140.5221  154.6418 C   0  0  2  0  0  0  0  0  0  0  0  0
  149.1711  141.1374  153.4408 O   0  0  0  0  0  0  0  0  0  0  0  0
  148.4055  139.7274  155.2330 C   0  0  0  0  0  0  0  0  0  0  0  0
  147.9777  138.5555  154.4607 N   0  0  0  0  0  0  0  0  0  0  0  0
  148.6241  137.3494  154.9692 C   0  0  0  0  0  0  0  0  0  0  0  0
  146.5205  138.3900  154.4683 C   0  0  0  0  0  0  0  0  0  0  0  0
  145.9648  137.5305  153.3184 C   0  0  1  0  0  0  0  0  0  0  0  0
  144.4392  137.4043  153.4073 C   0  0  0  0  0  0  0  0  0  0  0  0
  146.3638  138.0745  152.0095 C   0  0  0  0  0  0  0  0  0  0  0  0
  146.6767  138.5038  150.9814 N   0  0  0  0  0  0  0  0  0  0  0  0
  151.5398  141.6320  157.7105 C   0  0  0  0  0  0  0  0  0  0  0  0
  151.2839  142.9266  158.1569 C   0  0  0  0  0  0  0  0  0  0  0  0
  151.8688  143.3189  159.3817 C   0  0  0  0  0  0  0  0  0  0  0  0
  151.6022  144.7243  159.8929 C   0  0  0  0  0  0  0  0  0  0  0  0
  153.9082  142.0600  161.8767 H   0  0  0  0  0  0  0  0  0  0  0  0
  152.5380  143.1324  162.1547 H   0  0  0  0  0  0  0  0  0  0  0  0
  153.9639  143.7178  161.2842 H   0  0  0  0  0  0  0  0  0  0  0  0
  153.5619  140.4303  160.2086 H   0  0  0  0  0  0  0  0  0  0  0  0
  151.5297  138.9022  155.8425 H   0  0  0  0  0  0  0  0  0  0  0  0
  149.4985  142.1021  156.1283 H   0  0  0  0  0  0  0  0  0  0  0  0
  150.8393  142.2842  155.0201 H   0  0  0  0  0  0  0  0  0  0  0  0
  150.3533  139.7940  154.3578 H   0  0  0  0  0  0  0  0  0  0  0  0
  149.0809  140.4675  152.7800 H   0  0  0  0  0  0  0  0  0  0  0  0
  148.7131  139.4134  156.2320 H   0  0  0  0  0  0  0  0  0  0  0  0
  147.5562  140.3927  155.3966 H   0  0  0  0  0  0  0  0  0  0  0  0
  148.3653  136.4760  154.3721 H   0  0  0  0  0  0  0  0  0  0  0  0
  148.3376  137.1538  156.0035 H   0  0  0  0  0  0  0  0  0  0  0  0
  149.7096  137.4483  154.9329 H   0  0  0  0  0  0  0  0  0  0  0  0
  146.2107  137.9645  155.4241 H   0  0  0  0  0  0  0  0  0  0  0  0
  146.0264  139.3573  154.4221 H   0  0  0  0  0  0  0  0  0  0  0  0
  146.3837  136.5265  153.3728 H   0  0  0  0  0  0  0  0  0  0  0  0
  144.0520  136.7751  152.6053 H   0  0  0  0  0  0  0  0  0  0  0  0
  143.9573  138.3793  153.3270 H   0  0  0  0  0  0  0  0  0  0  0  0
  144.1361  136.9573  154.3544 H   0  0  0  0  0  0  0  0  0  0  0  0
  150.6675  143.6118  157.5950 H   0  0  0  0  0  0  0  0  0  0  0  0
  150.9665  145.2850  159.2066 H   0  0  0  0  0  0  0  0  0  0  0  0
  152.5361  145.2751  160.0061 H   0  0  0  0  0  0  0  0  0  0  0  0
  151.0995  144.6906  160.8598 H   0  0  0  0  0  0  0  0  0  0  0  0
  152.9212  138.7184  157.9922 H   0  0  0  0  0  0  0  0  0  0  0  0
  1  2  1  0  0  0  0
  1 23  1  0  0  0  0
  1 24  1  0  0  0  0
  1 25  1  0  0  0  0
  2 21  1  0  0  0  0
  2  3  2  0  0  0  0
  3  4  1  0  0  0  0
  3 26  1  0  0  0  0
  4 19  2  0  0  0  0
  4  5  1  0  0  0  0
  5  6  2  0  0  0  0
  5 47  1  0  0  0  0
  6  7  1  0  0  0  0
  6 27  1  0  0  0  0
  7  8  1  0  0  0  0
  7 19  1  0  0  0  0
  8  9  1  0  0  0  0
  8 28  1  0  0  0  0
  8 29  1  0  0  0  0
  9 10  1  0  0  0  0
  9 11  1  0  0  0  0
  9 30  1  0  0  0  0
 10 31  1  0  0  0  0
 11 12  1  0  0  0  0
 11 32  1  0  0  0  0
 11 33  1  0  0  0  0
 12 13  1  0  0  0  0
 12 14  1  0  0  0  0
 13 34  1  0  0  0  0
 13 35  1  0  0  0  0
 13 36  1  0  0  0  0
 14 15  1  0  0  0  0
 14 37  1  0  0  0  0
 14 38  1  0  0  0  0
 15 16  1  0  0  0  0
 15 17  1  0  0  0  0
 15 39  1  0  0  0  0
 16 40  1  0  0  0  0
 16 41  1  0  0  0  0
 16 42  1  0  0  0  0
 17 18  3  0  0  0  0
 19 20  1  0  0  0  0
 20 21  2  0  0  0  0
 20 43  1  0  0  0  0
 21 22  1  0  0  0  0
 22 44  1  0  0  0  0
 22 45  1  0  0  0  0
 22 46  1  0  0  0  0
M  CHG  1   5   1
M  END
> <s_m_source_file>
AV-unprocessed.smi

> <i_m_source_file_index>
1535

> <i_lp_mmshare_version>
43012

> <i_f3d_flags>
0

> <s_epik_input>
W0NIM11jKFtjSF0xKWMoW0NIM10pW2NIXWMoYzEyKW4oW2NIXW4yKVtDSDJdW0NASF0oW09IXSlbQ0gyXU4oW0NIM10pW0NIMl1bQ0BIXShbQ0gzXSlDI04=

> <s_epik_cmdline>
J2VwaWtfcHl0aG9uJywgJy1waCcsICc3LjAnLCAnLXRuJywgJzgnLCAnLW1hJywgJzIwMCcsICctbWV0YWxfYmluZGluZycsICctaW1hZScsICc8aW5maWxlLm1hZT4nLCAnLW9tYWUnLCAnPG91dGZpbGUubWFlPic=

> <r_epik_Ionization_Penalty>
1.22846

> <r_epik_Ionization_Penalty_Charging>
1.21333

> <r_epik_Ionization_Penalty_Neutral>
0.0151341

> <r_epik_State_Penalty>
1.27012

> <r_epik_Charging_Adjusted_Penalty>
2.48344

> <i_epik_Tot_Q>
1

> <i_epik_Tot_abs_Q>
1

> <r_epik_Metal_State_Penalty>
5.28751

> <b_epik_Metal_Only>
0

> <s_lp_Force_Field>
OPLS_2005

> <r_lp_Energy>
31.5295

> <b_lp_Chiralities_Consistent>
1

> <s_lp_Variant>
AV-unprocessed.smi:1535-7

> <Gold.Version>
5.8.1

> <Gold.Id.Protein>
6NUR|6NUR_protein|mol2

> <Gold.PLP.Fitness>
49.0386

> <Gold.PLP.PLP>
-42.9179

> <Gold.PLP.part.hbond>
-3.9006

> <Gold.PLP.part.metal>
0.0000

> <Gold.PLP.part.buried>
-4.6988

> <Gold.PLP.part.nonpolar>
-35.0944

> <Gold.PLP.part.repulsive>
0.6576

> <Gold.PLP.ligand.clash>
0.0000

> <Gold.PLP.ligand.torsion>
1.1281

> <Gold.PLP.Chemscore.Hbond>
2.7660

> <Gold.PLP.Chemscore.CHOScore>
0.0000

> <Gold.PLP.Chemscore.Metal>
0.0000

> <Gold.Chemscore.Hbonds>
donor molecule, donor type, donor heavy atom, donor atom, acceptor molecule, acceptor atom, score
      L1  H    10    31       P1  7957  0.83
      P1  H  7954  7966       L1    18  1.00
      P1  H  8011  8017       L1    10  0.80

> <Gold.PLP.Chemscore.Internal.Correction>
0.0790

> <Gold.Rescore>
     Score         DG    S(hbond)    S(metal)    S(lipo)     H(rot)  DE(clash)    DE(int)     intcor
     15.73     -18.63       2.15        0.00     107.68       2.59       1.69       1.20       ----

> <Gold.Chemscore.Fitness>
15.7326

> <Gold.Chemscore.DG>
-18.6304

> <Gold.Chemscore.ZeroCoef>
-5.4800

> <Gold.Chemscore.Hbond>
2.1516

> <Gold.Chemscore.Metal>
0.0000

> <Gold.Chemscore.Lipo>
107.6842

> <Gold.Chemscore.Internal_Hbond>
0.0000

> <Gold.Chemscore.DEClash>
1.6940

> <Gold.Chemscore.DEInternal>
1.2038

> <Gold.Chemscore.Rot>
2.5918

> <Gold.Chemscore.Internal.Correction>
   9.000000E+99

> <Gold.Chemscore.Hbonds>
donor molecule, donor type, donor heavy atom, donor atom, acceptor molecule, acceptor atom, score
      L1  H    10    31       P1  7957  0.83
      P1  H  7954  7966       L1    18  0.94
      P1  H  8011  8017       L1    10  0.11

> <Gold.Chemscore.Hbond.Weighted>
-7.1865

> <Gold.Chemscore.Metal.Weighted>
-0.0000

> <Gold.Chemscore.Lipo.Weighted>
-12.5990

> <Gold.Chemscore.Internal_Hbond.Weighted>
0.0000

> <Gold.Chemscore.DEClash.Weighted>
1.6940

> <Gold.Chemscore.DEInternal.Weighted>
1.2038

> <Gold.Chemscore.Rot.Weighted>
6.6351

> <Gold.Chemscore.Internal.Correction.Weighted>
   9.000000E+99

> <Gold.Protein.RotatedTorsions>
[ 6907 6896 6895 6894 ] final   92.38 input  -60.11 | X-H torsion
[ 7974 7965 7964 7962 ] final  -65.65 input  175.53 | X-H torsion
[ 8008 7997 7996 7995 ] final   67.86 input   59.86 | X-H torsion
[ 10167 10162 10161 10158 ] final  172.55 input  -65.29 | X-H torsion
[ 10718 10713 10712 10709 ] final  179.89 input   66.30 | X-H torsion
[ 10763 10752 10751 10750 ] final -102.88 input  -60.55 | X-H torsion
[ 11005 11000 10999 10996 ] final   91.09 input  -57.11 | X-H torsion

> <Gold.Protein.ActiveResidues>
 VAL166  LYS551  ARG553  GLY616  TRP617  ASP618  TYR619  PRO620  LYS621  CYS622 
 ASP623  PHE694  ASN695  SER759  ASP760  ASP761  ALA762  ILE779  LEU786  VAL792 
 PHE793  MET794  SER795  GLU796  ALA797  LYS798  CYS799  TRP800  GLU811  SER814 

> <Gold.Protein.RotatedAtoms>
  152.5452  134.1511  159.8518 H   0  0  0  0  0  0  0  0  0  0  0  0  # atno 6907 bound_to 6896
  151.1538  133.4883  159.2602 H   0  0  0  0  0  0  0  0  0  0  0  0  # atno 6908 bound_to 6896
  151.1444  135.0207  159.8695 H   0  0  0  0  0  0  0  0  0  0  0  0  # atno 6909 bound_to 6896
  145.7517  140.8905  143.0476 H   0  0  0  0  0  0  0  0  0  0  0  0  # atno 7974 bound_to 7965
  155.6994  140.3495  155.4926 H   0  0  0  0  0  0  0  0  0  0  0  0  # atno 8008 bound_to 7997
  155.9454  140.1109  157.1043 H   0  0  0  0  0  0  0  0  0  0  0  0  # atno 8009 bound_to 7997
  154.4111  140.1204  156.4968 H   0  0  0  0  0  0  0  0  0  0  0  0  # atno 8010 bound_to 7997
  139.5080  144.3361  152.0064 H   0  0  0  0  0  0  0  0  0  0  0  0  # atno 10167 bound_to 10162
  156.8690  130.9777  151.3075 H   0  0  0  0  0  0  0  0  0  0  0  0  # atno 10718 bound_to 10713
  154.7767  135.4844  153.9758 H   0  0  0  0  0  0  0  0  0  0  0  0  # atno 10763 bound_to 10752
  153.1438  135.6778  153.8994 H   0  0  0  0  0  0  0  0  0  0  0  0  # atno 10764 bound_to 10752
  153.8660  135.3149  155.3418 H   0  0  0  0  0  0  0  0  0  0  0  0  # atno 10765 bound_to 10752
  139.8844  134.8653  156.3379 H   0  0  0  0  0  0  0  0  0  0  0  0  # atno 11005 bound_to 11000
  144.6848  139.9600  143.7480 LP  0  0  0  0  0  0  0  0  0  0  0  0  # atno 17320 bound_to 7965
  146.0351  139.3370  143.0732 LP  0  0  0  0  0  0  0  0  0  0  0  0  # atno 17321 bound_to 7965
  140.2799  144.3871  150.6122 LP  0  0  0  0  0  0  0  0  0  0  0  0  # atno 17342 bound_to 10162
  140.6025  143.2167  151.7044 LP  0  0  0  0  0  0  0  0  0  0  0  0  # atno 17343 bound_to 10162
  157.6206  130.8652  149.9103 LP  0  0  0  0  0  0  0  0  0  0  0  0  # atno 17370 bound_to 10713
  156.0736  130.3682  150.0724 LP  0  0  0  0  0  0  0  0  0  0  0  0  # atno 17371 bound_to 10713
  140.9679  133.7346  156.0492 LP  0  0  0  0  0  0  0  0  0  0  0  0  # atno 17394 bound_to 11000
  140.7908  134.3620  157.5465 LP  0  0  0  0  0  0  0  0  0  0  0  0  # atno 17395 bound_to 11000

$$$$
