AV-unprocessed.smi:3014|AV-procd|sdf|11469|dock2
  -GOLD-   2272016403D 1   1.00000     0.00000
 Structure written by MMmdl.
 45 46  0  0  0  0  0  0  0  0  1 V2000
  153.6082  141.0972  160.5166 C   0  0  0  0  0  0  0  0  0  0  0  0
  152.6822  142.2948  160.2604 C   0  0  1  0  0  0  0  0  0  0  0  0
  152.3001  142.9996  161.5761 C   0  0  0  0  0  0  0  0  0  0  0  0
  151.3809  144.2054  161.3265 C   0  0  0  0  0  0  0  0  0  0  0  0
  152.0149  145.1972  160.3371 C   0  0  0  0  0  0  0  0  0  0  0  0
  152.4019  144.5147  159.0134 C   0  0  2  0  0  0  0  0  0  0  0  0
  151.1978  144.1332  158.3577 O   0  0  0  0  0  0  0  0  0  0  0  0
  151.3500  143.7788  156.9883 C   0  0  0  0  0  0  0  0  0  0  0  0
  150.9657  142.3113  156.7892 C   0  0  0  0  0  0  0  0  0  0  0  0
  151.4198  141.4657  157.5599 O   0  0  0  0  0  0  0  0  0  0  0  0
  150.1508  142.0402  155.7516 N   0  0  0  0  0  0  0  0  0  0  0  0
  149.6517  140.7800  155.3319 C   0  0  0  0  0  0  0  0  0  0  0  0
  148.5663  140.8169  154.4305 C   0  0  0  0  0  0  0  0  0  0  0  0
  148.0520  139.5804  153.9949 C   0  0  0  0  0  0  0  0  0  0  0  0
  148.5699  138.4083  154.4147 N   0  0  0  0  0  0  0  0  0  0  0  0
  149.5993  138.4614  155.2687 C   0  0  0  0  0  0  0  0  0  0  0  0
  150.1410  137.2486  155.7040 N   0  0  0  0  0  0  0  0  0  0  0  0
  149.5195  135.9740  155.3562 C   0  0  0  0  0  0  0  0  0  0  0  0
  151.3469  137.2121  156.5267 C   0  0  0  0  0  0  0  0  0  0  0  0
  150.1525  139.5875  155.7375 N   0  0  0  0  0  0  0  0  0  0  0  0
  153.3165  143.2984  159.2761 C   0  0  0  0  0  0  0  0  0  0  0  0
  154.5480  141.4115  160.9720 H   0  0  0  0  0  0  0  0  0  0  0  0
  153.8456  140.5778  159.5878 H   0  0  0  0  0  0  0  0  0  0  0  0
  153.1392  140.3755  161.1859 H   0  0  0  0  0  0  0  0  0  0  0  0
  151.7681  141.9094  159.8062 H   0  0  0  0  0  0  0  0  0  0  0  0
  151.8044  142.2962  162.2461 H   0  0  0  0  0  0  0  0  0  0  0  0
  153.2019  143.3325  162.0918 H   0  0  0  0  0  0  0  0  0  0  0  0
  150.4225  143.8595  160.9373 H   0  0  0  0  0  0  0  0  0  0  0  0
  151.1662  144.7089  162.2695 H   0  0  0  0  0  0  0  0  0  0  0  0
  151.3290  146.0231  160.1459 H   0  0  0  0  0  0  0  0  0  0  0  0
  152.9046  145.6365  160.7898 H   0  0  0  0  0  0  0  0  0  0  0  0
  152.9306  145.2447  158.3981 H   0  0  0  0  0  0  0  0  0  0  0  0
  150.7064  144.3965  156.3606 H   0  0  0  0  0  0  0  0  0  0  0  0
  152.3789  143.9237  156.6591 H   0  0  0  0  0  0  0  0  0  0  0  0
  149.8492  142.8345  155.2060 H   0  0  0  0  0  0  0  0  0  0  0  0
  148.1429  141.7490  154.0857 H   0  0  0  0  0  0  0  0  0  0  0  0
  147.2220  139.5322  153.3057 H   0  0  0  0  0  0  0  0  0  0  0  0
  148.4802  135.9534  155.6860 H   0  0  0  0  0  0  0  0  0  0  0  0
  150.0307  135.1309  155.8208 H   0  0  0  0  0  0  0  0  0  0  0  0
  149.5413  135.8246  154.2763 H   0  0  0  0  0  0  0  0  0  0  0  0
  151.1678  137.7024  157.4841 H   0  0  0  0  0  0  0  0  0  0  0  0
  152.1671  137.7268  156.0251 H   0  0  0  0  0  0  0  0  0  0  0  0
  151.6720  136.1917  156.7289 H   0  0  0  0  0  0  0  0  0  0  0  0
  154.2624  143.6530  159.6877 H   0  0  0  0  0  0  0  0  0  0  0  0
  153.5722  142.7981  158.3427 H   0  0  0  0  0  0  0  0  0  0  0  0
  1  2  1  0  0  0  0
  1 22  1  0  0  0  0
  1 23  1  0  0  0  0
  1 24  1  0  0  0  0
  2 21  1  0  0  0  0
  2  3  1  0  0  0  0
  2 25  1  0  0  0  0
  3  4  1  0  0  0  0
  3 26  1  0  0  0  0
  3 27  1  0  0  0  0
  4  5  1  0  0  0  0
  4 28  1  0  0  0  0
  4 29  1  0  0  0  0
  5  6  1  0  0  0  0
  5 30  1  0  0  0  0
  5 31  1  0  0  0  0
  6  7  1  0  0  0  0
  6 21  1  0  0  0  0
  6 32  1  0  0  0  0
  7  8  1  0  0  0  0
  8  9  1  0  0  0  0
  8 33  1  0  0  0  0
  8 34  1  0  0  0  0
  9 10  2  0  0  0  0
  9 11  1  0  0  0  0
 11 12  1  0  0  0  0
 11 35  1  0  0  0  0
 12 20  1  0  0  0  0
 12 13  2  0  0  0  0
 13 14  1  0  0  0  0
 13 36  1  0  0  0  0
 14 15  2  0  0  0  0
 14 37  1  0  0  0  0
 15 16  1  0  0  0  0
 16 17  1  0  0  0  0
 16 20  2  0  0  0  0
 17 18  1  0  0  0  0
 17 19  1  0  0  0  0
 18 38  1  0  0  0  0
 18 39  1  0  0  0  0
 18 40  1  0  0  0  0
 19 41  1  0  0  0  0
 19 42  1  0  0  0  0
 19 43  1  0  0  0  0
 21 44  1  0  0  0  0
 21 45  1  0  0  0  0
M  END
> <s_m_source_file>
AV-unprocessed.smi

> <i_m_source_file_index>
3014

> <i_lp_mmshare_version>
43012

> <i_f3d_flags>
0

> <s_epik_input>
W0NIM11bQ0BASF0xW0NIMl1bQ0gyXVtDSDJdW0NASF0oW0NIMl0xKU9bQ0gyXUMoPU8pW05IXWMyW2NIXVtjSF1uYyhuMilOKFtDSDNdKVtDSDNd

> <s_epik_cmdline>
J2VwaWtfcHl0aG9uJywgJy1waCcsICc3LjAnLCAnLXRuJywgJzgnLCAnLW1hJywgJzIwMCcsICctbWV0YWxfYmluZGluZycsICctaW1hZScsICc8aW5maWxlLm1hZT4nLCAnLW9tYWUnLCAnPG91dGZpbGUubWFlPic=

> <r_lp_tautomer_probability>
1

> <r_epik_Ionization_Penalty>
0.000308195

> <r_epik_Ionization_Penalty_Charging>
0

> <r_epik_Ionization_Penalty_Neutral>
0.000308195

> <r_epik_State_Penalty>
-0

> <r_epik_Charging_Adjusted_Penalty>
0

> <i_epik_Tot_Q>
0

> <i_epik_Tot_abs_Q>
0

> <r_epik_Metal_State_Penalty>
-0

> <b_epik_Metal_Only>
0

> <s_lp_Force_Field>
OPLS_2005

> <r_lp_Energy>
6.78662

> <b_lp_Chiralities_Consistent>
1

> <s_lp_Variant>
AV-unprocessed.smi:3014-4

> <Gold.Version>
5.8.1

> <Gold.Id.Protein>
6NUR|6NUR_protein|mol2

> <Gold.PLP.Fitness>
44.9030

> <Gold.PLP.PLP>
-43.7968

> <Gold.PLP.part.hbond>
-1.0000

> <Gold.PLP.part.metal>
0.0000

> <Gold.PLP.part.buried>
-1.8067

> <Gold.PLP.part.nonpolar>
-41.5334

> <Gold.PLP.part.repulsive>
0.5443

> <Gold.PLP.ligand.clash>
0.0000

> <Gold.PLP.ligand.torsion>
0.6760

> <Gold.PLP.Chemscore.Hbond>
0.8089

> <Gold.PLP.Chemscore.CHOScore>
0.0000

> <Gold.PLP.Chemscore.Metal>
0.0000

> <Gold.Chemscore.Hbonds>
donor molecule, donor type, donor heavy atom, donor atom, acceptor molecule, acceptor atom, score
      L1  H    11    35       P1  8028  0.49

> <Gold.PLP.Chemscore.Internal.Correction>
0.0315

> <Gold.Rescore>
     Score         DG    S(hbond)    S(metal)    S(lipo)     H(rot)  DE(clash)    DE(int)     intcor
     16.80     -18.69       0.99        0.00     115.95       1.43       0.06       1.83       ----

> <Gold.Chemscore.Fitness>
16.8050

> <Gold.Chemscore.DG>
-18.6937

> <Gold.Chemscore.ZeroCoef>
-5.4800

> <Gold.Chemscore.Hbond>
0.9912

> <Gold.Chemscore.Metal>
0.0000

> <Gold.Chemscore.Lipo>
115.9518

> <Gold.Chemscore.Internal_Hbond>
0.0000

> <Gold.Chemscore.DEClash>
0.0563

> <Gold.Chemscore.DEInternal>
1.8325

> <Gold.Chemscore.Rot>
1.4310

> <Gold.Chemscore.Internal.Correction>
   9.000000E+99

> <Gold.Chemscore.Hbonds>
donor molecule, donor type, donor heavy atom, donor atom, acceptor molecule, acceptor atom, score
      L1  H    11    35       P1  8028  0.49

> <Gold.Chemscore.Hbond.Weighted>
-3.3106

> <Gold.Chemscore.Metal.Weighted>
-0.0000

> <Gold.Chemscore.Lipo.Weighted>
-13.5664

> <Gold.Chemscore.Internal_Hbond.Weighted>
0.0000

> <Gold.Chemscore.DEClash.Weighted>
0.0563

> <Gold.Chemscore.DEInternal.Weighted>
1.8325

> <Gold.Chemscore.Rot.Weighted>
3.6632

> <Gold.Chemscore.Internal.Correction.Weighted>
   9.000000E+99

> <Gold.Protein.RotatedTorsions>
[ 6907 6896 6895 6894 ] final  113.11 input  -60.11 | X-H torsion
[ 7974 7965 7964 7962 ] final   78.08 input  175.53 | X-H torsion
[ 8008 7997 7996 7995 ] final  -84.00 input   59.86 | X-H torsion
[ 10167 10162 10161 10158 ] final  102.47 input  -65.29 | X-H torsion
[ 10718 10713 10712 10709 ] final  128.66 input   66.30 | X-H torsion
[ 10763 10752 10751 10750 ] final -175.99 input  -60.55 | X-H torsion
[ 11005 11000 10999 10996 ] final  160.95 input  -57.11 | X-H torsion

> <Gold.Protein.ActiveResidues>
 VAL166  LYS551  ARG553  GLY616  TRP617  ASP618  TYR619  PRO620  LYS621  CYS622 
 ASP623  PHE694  ASN695  SER759  ASP760  ASP761  ALA762  ILE779  LEU786  VAL792 
 PHE793  MET794  SER795  GLU796  ALA797  LYS798  CYS799  TRP800  GLU811  SER814 

> <Gold.Protein.RotatedAtoms>
  152.4879  133.8422  159.7158 H   0  0  0  0  0  0  0  0  0  0  0  0  # atno 6907 bound_to 6896
  150.8982  133.7144  159.2892 H   0  0  0  0  0  0  0  0  0  0  0  0  # atno 6908 bound_to 6896
  151.4594  135.1041  159.9772 H   0  0  0  0  0  0  0  0  0  0  0  0  # atno 6909 bound_to 6896
  145.6818  139.2526  143.1810 H   0  0  0  0  0  0  0  0  0  0  0  0  # atno 7974 bound_to 7965
  154.6250  140.0611  156.9663 H   0  0  0  0  0  0  0  0  0  0  0  0  # atno 8008 bound_to 7997
  155.1756  140.3294  155.4366 H   0  0  0  0  0  0  0  0  0  0  0  0  # atno 8009 bound_to 7997
  156.2452  140.1906  156.6855 H   0  0  0  0  0  0  0  0  0  0  0  0  # atno 8010 bound_to 7997
  139.7347  144.7027  151.0668 H   0  0  0  0  0  0  0  0  0  0  0  0  # atno 10167 bound_to 10162
  157.5225  131.1098  150.9132 H   0  0  0  0  0  0  0  0  0  0  0  0  # atno 10718 bound_to 10713
  154.5777  135.2833  155.0764 H   0  0  0  0  0  0  0  0  0  0  0  0  # atno 10763 bound_to 10752
  154.2112  135.6407  153.5119 H   0  0  0  0  0  0  0  0  0  0  0  0  # atno 10764 bound_to 10752
  153.0078  135.5492  154.6421 H   0  0  0  0  0  0  0  0  0  0  0  0  # atno 10765 bound_to 10752
  140.2110  134.8267  157.3120 H   0  0  0  0  0  0  0  0  0  0  0  0  # atno 11005 bound_to 11000
  146.0958  140.7602  142.9573 LP  0  0  0  0  0  0  0  0  0  0  0  0  # atno 17320 bound_to 7965
  144.7024  140.3709  143.7145 LP  0  0  0  0  0  0  0  0  0  0  0  0  # atno 17321 bound_to 7965
  140.7777  143.4999  150.9784 LP  0  0  0  0  0  0  0  0  0  0  0  0  # atno 17342 bound_to 10162
  139.8687  143.7220  152.3168 LP  0  0  0  0  0  0  0  0  0  0  0  0  # atno 17343 bound_to 10162
  156.9739  130.5501  149.5292 LP  0  0  0  0  0  0  0  0  0  0  0  0  # atno 17370 bound_to 10713
  156.0363  130.5450  150.8662 LP  0  0  0  0  0  0  0  0  0  0  0  0  # atno 17371 bound_to 10713
  140.1951  134.4324  155.7694 LP  0  0  0  0  0  0  0  0  0  0  0  0  # atno 17394 bound_to 11000
  141.2226  133.7045  156.8091 LP  0  0  0  0  0  0  0  0  0  0  0  0  # atno 17395 bound_to 11000

$$$$
