AV-unprocessed.smi:1867|AV-procd|sdf|7579|dock6
  -GOLD-   22720 9293D 1   1.00000     0.00000
 Structure written by MMmdl.
 52 55  0  0  0  0  0  0  0  0  4 V2000
  145.1908  135.9791  154.4080 O   0  0  0  0  0  0  0  0  0  0  0  0
  144.7763  134.9262  153.9271 C   0  0  0  0  0  0  0  0  0  0  0  0
  143.4514  134.7960  153.6694 N   0  0  0  0  0  0  0  0  0  0  0  0
  142.4133  135.7576  153.7969 C   0  0  0  0  0  0  0  0  0  0  0  0
  141.0897  135.3336  153.5581 C   0  0  0  0  0  0  0  0  0  0  0  0
  140.0302  136.2592  153.6520 C   0  0  0  0  0  0  0  0  0  0  0  0
  140.3053  137.6086  153.9768 C   0  0  0  0  0  0  0  0  0  0  0  0
  139.2994  138.5875  154.0864 N   0  0  0  0  0  0  0  0  0  0  0  0
  137.9167  138.2914  153.7446 C   0  0  0  0  0  0  0  0  0  0  0  0
  137.2077  139.6437  153.7961 C   0  0  0  0  0  0  0  0  0  0  0  0
  138.2962  140.6217  153.3548 C   0  0  0  0  0  0  0  0  0  0  0  0
  139.5944  139.9989  153.8818 C   0  0  0  0  0  0  0  0  0  0  0  0
  141.5938  137.9759  154.1739 N   0  3  0  0  0  0  0  0  0  0  0  0
  142.6375  137.1224  154.0953 C   0  0  0  0  0  0  0  0  0  0  0  0
  145.6240  133.8847  153.6708 N   0  5  0  0  0  0  0  0  0  0  0  0
  147.0118  133.9113  153.1771 C   0  0  1  0  0  0  0  0  0  0  0  0
  147.8878  132.9746  154.0190 C   0  0  0  0  0  0  0  0  0  0  0  0
  147.7256  131.5768  153.3916 C   0  0  0  0  0  0  0  0  0  0  0  0
  147.1671  131.7665  152.0282 N   0  3  1  0  0  0  0  0  0  0  0  0
  145.8835  131.0335  151.8273 C   0  0  0  0  0  0  0  0  0  0  0  0
  145.1920  131.4161  150.5135 C   0  0  0  0  0  0  0  0  0  0  0  0
  144.8957  132.9171  150.4996 C   0  0  0  0  0  0  0  0  0  0  0  0
  146.2089  133.7013  150.6235 C   0  0  0  0  0  0  0  0  0  0  0  0
  147.1226  133.2374  151.7928 C   0  0  1  0  0  0  0  0  0  0  0  0
  143.1554  133.8733  153.3862 H   0  0  0  0  0  0  0  0  0  0  0  0
  140.8833  134.3033  153.3077 H   0  0  0  0  0  0  0  0  0  0  0  0
  139.0210  135.9233  153.4662 H   0  0  0  0  0  0  0  0  0  0  0  0
  137.8704  137.8716  152.7387 H   0  0  0  0  0  0  0  0  0  0  0  0
  137.4736  137.5773  154.4396 H   0  0  0  0  0  0  0  0  0  0  0  0
  136.3179  139.6808  153.1670 H   0  0  0  0  0  0  0  0  0  0  0  0
  136.9069  139.8656  154.8210 H   0  0  0  0  0  0  0  0  0  0  0  0
  138.3269  140.6627  152.2651 H   0  0  0  0  0  0  0  0  0  0  0  0
  138.1333  141.6351  153.7228 H   0  0  0  0  0  0  0  0  0  0  0  0
  139.8742  140.4419  154.8382 H   0  0  0  0  0  0  0  0  0  0  0  0
  140.4131  140.1556  153.1792 H   0  0  0  0  0  0  0  0  0  0  0  0
  143.6061  137.5699  154.2609 H   0  0  0  0  0  0  0  0  0  0  0  0
  147.4255  134.9204  153.1514 H   0  0  0  0  0  0  0  0  0  0  0  0
  148.9293  133.2869  153.9296 H   0  0  0  0  0  0  0  0  0  0  0  0
  147.6429  132.9886  155.0822 H   0  0  0  0  0  0  0  0  0  0  0  0
  148.6847  131.0615  153.3338 H   0  0  0  0  0  0  0  0  0  0  0  0
  147.0703  130.9578  154.0079 H   0  0  0  0  0  0  0  0  0  0  0  0
  146.0840  129.9619  151.8449 H   0  0  0  0  0  0  0  0  0  0  0  0
  145.2028  131.2358  152.6559 H   0  0  0  0  0  0  0  0  0  0  0  0
  145.8199  131.1458  149.6633 H   0  0  0  0  0  0  0  0  0  0  0  0
  144.2633  130.8549  150.4077 H   0  0  0  0  0  0  0  0  0  0  0  0
  144.3830  133.1914  149.5774 H   0  0  0  0  0  0  0  0  0  0  0  0
  144.2204  133.1731  151.3167 H   0  0  0  0  0  0  0  0  0  0  0  0
  146.7597  133.5562  149.6931 H   0  0  0  0  0  0  0  0  0  0  0  0
  146.0074  134.7732  150.6697 H   0  0  0  0  0  0  0  0  0  0  0  0
  148.1341  133.4800  151.4610 H   0  0  0  0  0  0  0  0  0  0  0  0
  147.8211  131.3855  151.3603 H   0  0  0  0  0  0  0  0  0  0  0  0
  141.7901  138.9525  154.3930 H   0  0  0  0  0  0  0  0  0  0  0  0
  1  2  2  0  0  0  0
  2  3  1  0  0  0  0
  2 15  1  0  0  0  0
  3  4  1  0  0  0  0
  3 25  1  0  0  0  0
  4 14  1  0  0  0  0
  4  5  2  0  0  0  0
  5  6  1  0  0  0  0
  5 26  1  0  0  0  0
  6  7  2  0  0  0  0
  6 27  1  0  0  0  0
  7  8  1  0  0  0  0
  7 13  1  0  0  0  0
  8 12  1  0  0  0  0
  8  9  1  0  0  0  0
  9 10  1  0  0  0  0
  9 28  1  0  0  0  0
  9 29  1  0  0  0  0
 10 11  1  0  0  0  0
 10 30  1  0  0  0  0
 10 31  1  0  0  0  0
 11 12  1  0  0  0  0
 11 32  1  0  0  0  0
 11 33  1  0  0  0  0
 12 34  1  0  0  0  0
 12 35  1  0  0  0  0
 13 14  2  0  0  0  0
 13 52  1  0  0  0  0
 14 36  1  0  0  0  0
 15 16  1  0  0  0  0
 16 24  1  0  0  0  0
 16 17  1  0  0  0  0
 16 37  1  0  0  0  0
 17 18  1  0  0  0  0
 17 38  1  0  0  0  0
 17 39  1  0  0  0  0
 18 19  1  0  0  0  0
 18 40  1  0  0  0  0
 18 41  1  0  0  0  0
 19 24  1  0  0  0  0
 19 20  1  0  0  0  0
 19 51  1  0  0  0  0
 20 21  1  0  0  0  0
 20 42  1  0  0  0  0
 20 43  1  0  0  0  0
 21 22  1  0  0  0  0
 21 44  1  0  0  0  0
 21 45  1  0  0  0  0
 22 23  1  0  0  0  0
 22 46  1  0  0  0  0
 22 47  1  0  0  0  0
 23 24  1  0  0  0  0
 23 48  1  0  0  0  0
 23 49  1  0  0  0  0
 24 50  1  0  0  0  0
M  CHG  1  13   1
M  CHG  1  15  -1
M  CHG  1  19   1
M  END
> <s_m_source_file>
AV-unprocessed.smi

> <i_m_source_file_index>
1867

> <i_lp_mmshare_version>
43012

> <i_f3d_flags>
0

> <s_epik_input>
W0NIMl0xW0NIMl1bQ0gyXVtDSDJdW0NASF0oTjEyKVtDQEBIXShbQ0gyXVtDSDJdMilbTkhdQyg9TylbTkhdYzNbY0hdW2NIXWMobltjSF0zKU40W0NIMl1bQ0gyXVtDSDJdW0NIMl00

> <s_epik_cmdline>
J2VwaWtfcHl0aG9uJywgJy1waCcsICc3LjAnLCAnLXRuJywgJzgnLCAnLW1hJywgJzIwMCcsICctbWV0YWxfYmluZGluZycsICctaW1hZScsICc8aW5maWxlLm1hZT4nLCAnLW9tYWUnLCAnPG91dGZpbGUubWFlPic=

> <r_lp_tautomer_probability>
0.999994

> <r_epik_Ionization_Penalty>
8.56137

> <r_epik_Ionization_Penalty_Charging>
8.56136

> <r_epik_Ionization_Penalty_Neutral>
3.91889e-06

> <r_epik_State_Penalty>
8.16255

> <r_epik_Charging_Adjusted_Penalty>
16.7239

> <i_epik_Tot_Q>
1

> <i_epik_Tot_abs_Q>
3

> <r_epik_Metal_State_Penalty>
4.14279

> <b_epik_Metal_Only>
1

> <s_lp_Force_Field>
OPLS_2005

> <r_lp_Energy>
73.5992

> <b_lp_Chiralities_Consistent>
1

> <s_lp_Variant>
AV-unprocessed.smi:1867-20

> <Gold.Version>
5.8.1

> <Gold.Id.Protein>
6NUR|6NUR_protein|mol2

> <Gold.PLP.Fitness>
40.8855

> <Gold.PLP.PLP>
-38.6091

> <Gold.PLP.part.hbond>
-1.0000

> <Gold.PLP.part.metal>
0.0000

> <Gold.PLP.part.buried>
-5.3034

> <Gold.PLP.part.nonpolar>
-32.1106

> <Gold.PLP.part.repulsive>
0.1124

> <Gold.PLP.ligand.clash>
0.0000

> <Gold.PLP.ligand.torsion>
0.4992

> <Gold.PLP.Chemscore.Hbond>
1.0000

> <Gold.PLP.Chemscore.CHOScore>
0.0000

> <Gold.PLP.Chemscore.Metal>
0.0000

> <Gold.Chemscore.Hbonds>
donor molecule, donor type, donor heavy atom, donor atom, acceptor molecule, acceptor atom, score
      L1  H    19    51       P1 10747  1.00

> <Gold.PLP.Chemscore.Internal.Correction>
0.2747

> <Gold.Rescore>
     Score         DG    S(hbond)    S(metal)    S(lipo)     H(rot)  DE(clash)    DE(int)     intcor
     16.67     -18.50       1.00        0.00     104.67       1.00       0.03       1.81       ----

> <Gold.Chemscore.Fitness>
16.6673

> <Gold.Chemscore.DG>
-18.5033

> <Gold.Chemscore.ZeroCoef>
-5.4800

> <Gold.Chemscore.Hbond>
0.9992

> <Gold.Chemscore.Metal>
0.0000

> <Gold.Chemscore.Lipo>
104.6655

> <Gold.Chemscore.Internal_Hbond>
0.0000

> <Gold.Chemscore.DEClash>
0.0271

> <Gold.Chemscore.DEInternal>
1.8089

> <Gold.Chemscore.Rot>
1.0000

> <Gold.Chemscore.Internal.Correction>
   9.000000E+99

> <Gold.Chemscore.Hbonds>
donor molecule, donor type, donor heavy atom, donor atom, acceptor molecule, acceptor atom, score
      L1  H    19    51       P1 10747  1.00

> <Gold.Chemscore.Hbond.Weighted>
-3.3374

> <Gold.Chemscore.Metal.Weighted>
-0.0000

> <Gold.Chemscore.Lipo.Weighted>
-12.2459

> <Gold.Chemscore.Internal_Hbond.Weighted>
0.0000

> <Gold.Chemscore.DEClash.Weighted>
0.0271

> <Gold.Chemscore.DEInternal.Weighted>
1.8089

> <Gold.Chemscore.Rot.Weighted>
2.5600

> <Gold.Chemscore.Internal.Correction.Weighted>
   9.000000E+99

> <Gold.Protein.RotatedTorsions>
[ 6907 6896 6895 6894 ] final  -19.85 input  -60.11 | X-H torsion
[ 7974 7965 7964 7962 ] final  157.75 input  175.53 | X-H torsion
[ 8008 7997 7996 7995 ] final  -91.66 input   59.86 | X-H torsion
[ 10167 10162 10161 10158 ] final    2.34 input  -65.29 | X-H torsion
[ 10718 10713 10712 10709 ] final   61.00 input   66.30 | X-H torsion
[ 10763 10752 10751 10750 ] final   67.85 input  -60.55 | X-H torsion
[ 11005 11000 10999 10996 ] final   21.57 input  -57.11 | X-H torsion

> <Gold.Protein.ActiveResidues>
 VAL166  LYS551  ARG553  GLY616  TRP617  ASP618  TYR619  PRO620  LYS621  CYS622 
 ASP623  PHE694  ASN695  SER759  ASP760  ASP761  ALA762  ILE779  LEU786  VAL792 
 PHE793  MET794  SER795  GLU796  ALA797  LYS798  CYS799  TRP800  GLU811  SER814 

> <Gold.Protein.RotatedAtoms>
  151.2570  135.0641  159.9083 H   0  0  0  0  0  0  0  0  0  0  0  0  # atno 6907 bound_to 6896
  152.5372  134.0271  159.8018 H   0  0  0  0  0  0  0  0  0  0  0  0  # atno 6908 bound_to 6896
  151.0488  133.5592  159.2675 H   0  0  0  0  0  0  0  0  0  0  0  0  # atno 6909 bound_to 6896
  144.7885  139.7384  143.6231 H   0  0  0  0  0  0  0  0  0  0  0  0  # atno 7974 bound_to 7965
  154.7135  140.0517  157.0573 H   0  0  0  0  0  0  0  0  0  0  0  0  # atno 8008 bound_to 7997
  155.0523  140.3180  155.4669 H   0  0  0  0  0  0  0  0  0  0  0  0  # atno 8009 bound_to 7997
  156.2796  140.2113  156.5648 H   0  0  0  0  0  0  0  0  0  0  0  0  # atno 8010 bound_to 7997
  140.6640  143.7230  150.7791 H   0  0  0  0  0  0  0  0  0  0  0  0  # atno 10167 bound_to 10162
  157.5796  130.8970  149.9407 H   0  0  0  0  0  0  0  0  0  0  0  0  # atno 10718 bound_to 10713
  153.0206  135.5269  154.7044 H   0  0  0  0  0  0  0  0  0  0  0  0  # atno 10763 bound_to 10752
  154.6144  135.2882  155.0399 H   0  0  0  0  0  0  0  0  0  0  0  0  # atno 10764 bound_to 10752
  154.1408  135.6578  153.4994 H   0  0  0  0  0  0  0  0  0  0  0  0  # atno 10765 bound_to 10752
  140.3901  134.1828  155.7662 H   0  0  0  0  0  0  0  0  0  0  0  0  # atno 11005 bound_to 11000
  146.2127  139.5494  142.9670 LP  0  0  0  0  0  0  0  0  0  0  0  0  # atno 17320 bound_to 7965
  145.5858  141.0376  143.2097 LP  0  0  0  0  0  0  0  0  0  0  0  0  # atno 17321 bound_to 7965
  140.0903  143.4884  152.2482 LP  0  0  0  0  0  0  0  0  0  0  0  0  # atno 17342 bound_to 10162
  139.5882  144.7539  151.3466 LP  0  0  0  0  0  0  0  0  0  0  0  0  # atno 17343 bound_to 10162
  156.0841  130.3670  150.0522 LP  0  0  0  0  0  0  0  0  0  0  0  0  # atno 17370 bound_to 10713
  156.8663  130.9509  151.3613 LP  0  0  0  0  0  0  0  0  0  0  0  0  # atno 17371 bound_to 10713
  141.1894  133.8240  157.0959 LP  0  0  0  0  0  0  0  0  0  0  0  0  # atno 17394 bound_to 11000
  140.0413  134.9853  157.0967 LP  0  0  0  0  0  0  0  0  0  0  0  0  # atno 17395 bound_to 11000

$$$$
