AV-unprocessed.smi:1107|AV-procd|sdf|4783|dock9
  -GOLD-   22720 3323D 1   1.00000     0.00000
 Structure written by MMmdl.
 49 50  0  0  0  0  0  0  0  0  2 V2000
  151.1671  143.1374  157.5959 C   0  0  0  0  0  0  0  0  0  0  0  0
  150.8960  141.8788  156.8009 C   0  0  0  0  0  0  0  0  0  0  0  0
  149.8147  141.9860  155.9418 N   0  0  0  0  0  0  0  0  0  0  0  0
  149.4900  140.8852  155.1689 C   0  0  0  0  0  0  0  0  0  0  0  0
  148.2855  141.0800  154.2651 C   0  0  0  0  0  0  0  0  0  0  0  0
  150.2079  139.7363  155.2478 C   0  0  0  0  0  0  0  0  0  0  0  0
  149.8740  138.4876  154.4296 C   0  0  0  0  0  0  0  0  0  0  0  0
  149.1804  137.3361  155.1665 C   0  0  0  0  0  0  0  0  0  0  0  0
  148.8551  137.4816  156.3437 O   0  0  0  0  0  0  0  0  0  0  0  0
  148.9314  136.2137  154.4703 N   0  0  0  0  0  0  0  0  0  0  0  0
  148.2361  135.0248  154.9606 C   0  0  2  0  0  0  0  0  0  0  0  0
  148.8424  134.6129  156.3088 C   0  0  0  0  0  0  0  0  0  0  0  0
  148.3178  133.8743  153.9314 C   0  0  0  0  0  0  0  0  0  0  0  0
  147.4639  134.1036  152.7375 N   0  3  0  0  0  0  0  0  0  0  0  0
  147.2354  132.8694  151.9433 C   0  0  0  0  0  0  0  0  0  0  0  0
  146.4905  133.1872  150.6357 C   0  0  0  0  0  0  0  0  0  0  0  0
  145.1679  133.9130  150.9165 C   0  0  0  0  0  0  0  0  0  0  0  0
  145.4250  135.1605  151.7722 C   0  0  0  0  0  0  0  0  0  0  0  0
  146.1886  134.7979  153.0563 C   0  0  0  0  0  0  0  0  0  0  0  0
  151.3478  139.6779  156.1929 C   0  0  0  0  0  0  0  0  0  0  0  0
  152.0178  138.6547  156.3279 O   0  0  0  0  0  0  0  0  0  0  0  0
  151.6382  140.8236  156.9506 N   0  0  0  0  0  0  0  0  0  0  0  0
  149.2565  142.8228  155.8500 H   0  0  0  0  0  0  0  0  0  0  0  0
  152.0249  143.0049  158.2564 H   0  0  0  0  0  0  0  0  0  0  0  0
  150.3021  143.3945  158.2082 H   0  0  0  0  0  0  0  0  0  0  0  0
  151.3787  143.9717  156.9265 H   0  0  0  0  0  0  0  0  0  0  0  0
  148.5788  141.0006  153.2182 H   0  0  0  0  0  0  0  0  0  0  0  0
  147.8272  142.0592  154.4105 H   0  0  0  0  0  0  0  0  0  0  0  0
  147.5285  140.3225  154.4706 H   0  0  0  0  0  0  0  0  0  0  0  0
  150.7798  138.0997  153.9621 H   0  0  0  0  0  0  0  0  0  0  0  0
  149.2340  138.7707  153.5939 H   0  0  0  0  0  0  0  0  0  0  0  0
  149.2425  136.1866  153.5096 H   0  0  0  0  0  0  0  0  0  0  0  0
  147.1893  135.2690  155.1452 H   0  0  0  0  0  0  0  0  0  0  0  0
  148.3311  133.7414  156.7188 H   0  0  0  0  0  0  0  0  0  0  0  0
  148.7572  135.4174  157.0401 H   0  0  0  0  0  0  0  0  0  0  0  0
  149.8994  134.3630  156.2111 H   0  0  0  0  0  0  0  0  0  0  0  0
  149.3580  133.7824  153.6145 H   0  0  0  0  0  0  0  0  0  0  0  0
  148.0584  132.9203  154.3932 H   0  0  0  0  0  0  0  0  0  0  0  0
  148.1915  132.4030  151.7022 H   0  0  0  0  0  0  0  0  0  0  0  0
  146.6699  132.1506  152.5383 H   0  0  0  0  0  0  0  0  0  0  0  0
  147.1208  133.8088  149.9982 H   0  0  0  0  0  0  0  0  0  0  0  0
  146.3005  132.2681  150.0806 H   0  0  0  0  0  0  0  0  0  0  0  0
  144.6832  134.1908  149.9801 H   0  0  0  0  0  0  0  0  0  0  0  0
  144.4828  133.2429  151.4372 H   0  0  0  0  0  0  0  0  0  0  0  0
  146.0003  135.8882  151.1982 H   0  0  0  0  0  0  0  0  0  0  0  0
  144.4793  135.6419  152.0232 H   0  0  0  0  0  0  0  0  0  0  0  0
  145.5730  134.1601  153.6925 H   0  0  0  0  0  0  0  0  0  0  0  0
  146.3860  135.7087  153.6210 H   0  0  0  0  0  0  0  0  0  0  0  0
  147.9890  134.7242  152.1378 H   0  0  0  0  0  0  0  0  0  0  0  0
  1 24  1  0  0  0  0
  1 25  1  0  0  0  0
  1 26  1  0  0  0  0
  1  2  1  0  0  0  0
  2  3  1  0  0  0  0
  2 22  2  0  0  0  0
  3  4  1  0  0  0  0
  3 23  1  0  0  0  0
  4  6  2  0  0  0  0
  4  5  1  0  0  0  0
  5 27  1  0  0  0  0
  5 28  1  0  0  0  0
  5 29  1  0  0  0  0
  6 20  1  0  0  0  0
  6  7  1  0  0  0  0
  7  8  1  0  0  0  0
  7 30  1  0  0  0  0
  7 31  1  0  0  0  0
  8  9  2  0  0  0  0
  8 10  1  0  0  0  0
 10 11  1  0  0  0  0
 10 32  1  0  0  0  0
 11 12  1  0  0  0  0
 11 13  1  0  0  0  0
 11 33  1  0  0  0  0
 12 34  1  0  0  0  0
 12 35  1  0  0  0  0
 12 36  1  0  0  0  0
 13 14  1  0  0  0  0
 13 37  1  0  0  0  0
 13 38  1  0  0  0  0
 14 19  1  0  0  0  0
 14 15  1  0  0  0  0
 14 49  1  0  0  0  0
 15 16  1  0  0  0  0
 15 39  1  0  0  0  0
 15 40  1  0  0  0  0
 16 17  1  0  0  0  0
 16 41  1  0  0  0  0
 16 42  1  0  0  0  0
 17 18  1  0  0  0  0
 17 43  1  0  0  0  0
 17 44  1  0  0  0  0
 18 19  1  0  0  0  0
 18 45  1  0  0  0  0
 18 46  1  0  0  0  0
 19 47  1  0  0  0  0
 19 48  1  0  0  0  0
 20 21  2  0  0  0  0
 20 22  1  0  0  0  0
M  CHG  1  14   1
M  END
> <s_m_source_file>
AV-unprocessed.smi

> <i_m_source_file_index>
1107

> <i_lp_mmshare_version>
43012

> <i_f3d_flags>
0

> <s_epik_input>
W0NIM11jMW5jKFtDSDNdKWMoYyg9TylbbkhdMSlbQ0gyXUMoPU8pW05IXVtDQEhdKFtDSDNdKVtDSDJdTjJbQ0gyXVtDSDJdW0NIMl1bQ0gyXVtDSDJdMg==

> <s_epik_cmdline>
J2VwaWtfcHl0aG9uJywgJy1waCcsICc3LjAnLCAnLXRuJywgJzgnLCAnLW1hJywgJzIwMCcsICctbWV0YWxfYmluZGluZycsICctaW1hZScsICc8aW5maWxlLm1hZT4nLCAnLW9tYWUnLCAnPG91dGZpbGUubWFlPic=

> <r_lp_tautomer_probability>
0.156392

> <r_epik_Ionization_Penalty>
0.0190033

> <r_epik_Ionization_Penalty_Charging>
0.0189172

> <r_epik_Ionization_Penalty_Neutral>
8.60838e-05

> <r_epik_State_Penalty>
1.15342

> <r_epik_Charging_Adjusted_Penalty>
1.17233

> <i_epik_Tot_Q>
1

> <i_epik_Tot_abs_Q>
1

> <r_epik_Metal_State_Penalty>
1.34593

> <b_epik_Metal_Only>
0

> <s_lp_Force_Field>
OPLS_2005

> <r_lp_Energy>
27.2894

> <b_lp_Chiralities_Consistent>
1

> <s_lp_Variant>
AV-unprocessed.smi:1107-3

> <Gold.Version>
5.8.1

> <Gold.Id.Protein>
6NUR|6NUR_protein|mol2

> <Gold.PLP.Fitness>
46.4587

> <Gold.PLP.PLP>
-35.5498

> <Gold.PLP.part.hbond>
-3.0000

> <Gold.PLP.part.metal>
0.0000

> <Gold.PLP.part.buried>
-3.1193

> <Gold.PLP.part.nonpolar>
-29.9685

> <Gold.PLP.part.repulsive>
0.1694

> <Gold.PLP.ligand.clash>
0.0000

> <Gold.PLP.ligand.torsion>
0.5766

> <Gold.PLP.Chemscore.Hbond>
4.0000

> <Gold.PLP.Chemscore.CHOScore>
0.0000

> <Gold.PLP.Chemscore.Metal>
0.0000

> <Gold.Chemscore.Hbonds>
donor molecule, donor type, donor heavy atom, donor atom, acceptor molecule, acceptor atom, score
      L1  H     3    23       P1  8028  1.00
      L1  H    10    32       P1  7948  1.00
      L1  H    14    49       P1  7948  2.00

> <Gold.PLP.Chemscore.Internal.Correction>
0.0621

> <Gold.Rescore>
     Score         DG    S(hbond)    S(metal)    S(lipo)     H(rot)  DE(clash)    DE(int)     intcor
     18.51     -18.91       2.96        0.00      73.59       1.98       0.06       0.35       ----

> <Gold.Chemscore.Fitness>
18.5053

> <Gold.Chemscore.DG>
-18.9098

> <Gold.Chemscore.ZeroCoef>
-5.4800

> <Gold.Chemscore.Hbond>
2.9635

> <Gold.Chemscore.Metal>
0.0000

> <Gold.Chemscore.Lipo>
73.5890

> <Gold.Chemscore.Internal_Hbond>
0.0000

> <Gold.Chemscore.DEClash>
0.0591

> <Gold.Chemscore.DEInternal>
0.3455

> <Gold.Chemscore.Rot>
1.9837

> <Gold.Chemscore.Internal.Correction>
   9.000000E+99

> <Gold.Chemscore.Hbonds>
donor molecule, donor type, donor heavy atom, donor atom, acceptor molecule, acceptor atom, score
      L1  H     3    23       P1  8028  0.98
      L1  H    10    32       P1  7948  0.83
      L1  H    14    49       P1  7948  0.38

> <Gold.Chemscore.Hbond.Weighted>
-9.8982

> <Gold.Chemscore.Metal.Weighted>
-0.0000

> <Gold.Chemscore.Lipo.Weighted>
-8.6099

> <Gold.Chemscore.Internal_Hbond.Weighted>
0.0000

> <Gold.Chemscore.DEClash.Weighted>
0.0591

> <Gold.Chemscore.DEInternal.Weighted>
0.3455

> <Gold.Chemscore.Rot.Weighted>
5.0783

> <Gold.Chemscore.Internal.Correction.Weighted>
   9.000000E+99

> <Gold.Protein.RotatedTorsions>
[ 6907 6896 6895 6894 ] final -171.14 input  -60.11 | X-H torsion
[ 7974 7965 7964 7962 ] final   81.70 input  175.53 | X-H torsion
[ 8008 7997 7996 7995 ] final  -75.07 input   59.86 | X-H torsion
[ 10167 10162 10161 10158 ] final  -38.52 input  -65.29 | X-H torsion
[ 10718 10713 10712 10709 ] final  129.06 input   66.30 | X-H torsion
[ 10763 10752 10751 10750 ] final -170.40 input  -60.55 | X-H torsion
[ 11005 11000 10999 10996 ] final   52.25 input  -57.11 | X-H torsion

> <Gold.Protein.ActiveResidues>
 VAL166  LYS551  ARG553  GLY616  TRP617  ASP618  TYR619  PRO620  LYS621  CYS622 
 ASP623  PHE694  ASN695  SER759  ASP760  ASP761  ALA762  ILE779  LEU786  VAL792 
 PHE793  MET794  SER795  GLU796  ALA797  LYS798  CYS799  TRP800  GLU811  SER814 

> <Gold.Protein.RotatedAtoms>
  151.5191  133.3470  159.2897 H   0  0  0  0  0  0  0  0  0  0  0  0  # atno 6907 bound_to 6896
  150.8664  134.8030  159.7132 H   0  0  0  0  0  0  0  0  0  0  0  0  # atno 6908 bound_to 6896
  152.4667  134.5068  159.9793 H   0  0  0  0  0  0  0  0  0  0  0  0  # atno 6909 bound_to 6896
  145.6347  139.2412  143.2065 H   0  0  0  0  0  0  0  0  0  0  0  0  # atno 7974 bound_to 7965
  154.5384  140.0750  156.8468 H   0  0  0  0  0  0  0  0  0  0  0  0  # atno 8008 bound_to 7997
  155.3230  140.3397  155.4222 H   0  0  0  0  0  0  0  0  0  0  0  0  # atno 8009 bound_to 7997
  156.1851  140.1666  156.8187 H   0  0  0  0  0  0  0  0  0  0  0  0  # atno 8010 bound_to 7997
  140.7090  143.3272  151.2653 H   0  0  0  0  0  0  0  0  0  0  0  0  # atno 10167 bound_to 10162
  157.5188  131.1098  150.9184 H   0  0  0  0  0  0  0  0  0  0  0  0  # atno 10718 bound_to 10713
  154.6419  135.2900  155.0093 H   0  0  0  0  0  0  0  0  0  0  0  0  # atno 10763 bound_to 10752
  154.1216  135.6547  153.4908 H   0  0  0  0  0  0  0  0  0  0  0  0  # atno 10764 bound_to 10752
  153.0331  135.5289  154.7290 H   0  0  0  0  0  0  0  0  0  0  0  0  # atno 10765 bound_to 10752
  140.0865  134.5267  155.8894 H   0  0  0  0  0  0  0  0  0  0  0  0  # atno 11005 bound_to 11000
  146.1329  140.7162  142.9404 LP  0  0  0  0  0  0  0  0  0  0  0  0  # atno 17320 bound_to 7965
  144.7180  140.4277  143.7029 LP  0  0  0  0  0  0  0  0  0  0  0  0  # atno 17321 bound_to 7965
  139.6743  143.9965  152.2772 LP  0  0  0  0  0  0  0  0  0  0  0  0  # atno 17342 bound_to 10162
  139.9574  144.6580  150.8113 LP  0  0  0  0  0  0  0  0  0  0  0  0  # atno 17343 bound_to 10162
  156.9802  130.5524  149.5296 LP  0  0  0  0  0  0  0  0  0  0  0  0  # atno 17370 bound_to 10713
  156.0339  130.5428  150.8604 LP  0  0  0  0  0  0  0  0  0  0  0  0  # atno 17371 bound_to 10713
  141.2064  133.6655  156.6241 LP  0  0  0  0  0  0  0  0  0  0  0  0  # atno 17394 bound_to 11000
  140.3413  134.7847  157.4399 LP  0  0  0  0  0  0  0  0  0  0  0  0  # atno 17395 bound_to 11000

$$$$
