AV-unprocessed.smi:2368|AV-procd|sdf|9425|dock2
  -GOLD-   2272013 63D 1   1.00000     0.00000
 Structure written by MMmdl.
 35 36  0  0  0  0  0  0  0  0  1 V2000
  146.1667  130.2557  151.4966 C   0  0  0  0  0  0  0  0  0  0  0  0
  145.5724  131.6233  151.2155 C   0  0  0  0  0  0  0  0  0  0  0  0
  144.4186  131.6260  150.5129 N   0  0  0  0  0  0  0  0  0  0  0  0
  143.8440  132.8153  150.2412 C   0  0  0  0  0  0  0  0  0  0  0  0
  144.3878  134.0492  150.6466 C   0  0  0  0  0  0  0  0  0  0  0  0
  145.6057  134.0516  151.3680 C   0  0  0  0  0  0  0  0  0  0  0  0
  146.2332  135.2383  151.8400 N   0  0  0  0  0  0  0  0  0  0  0  0
  145.6645  136.3421  152.3543 C   0  0  0  0  0  0  0  0  0  0  0  0
  144.4556  136.5189  152.5052 O   0  0  0  0  0  0  0  0  0  0  0  0
  146.5889  137.2579  152.6761 N   0  0  0  0  0  0  0  0  0  0  0  0
  146.2989  138.5690  153.2460 C   0  0  2  0  0  0  0  0  0  0  0  0
  146.6719  139.6586  152.2785 C   0  0  0  0  0  0  0  0  0  0  0  0
  147.5200  140.5412  152.8008 C   0  0  0  0  0  0  0  0  0  0  0  0
  147.8974  140.2193  154.2245 C   0  0  2  0  0  0  0  0  0  0  0  0
  149.4186  140.1204  154.4320 C   0  0  0  0  0  0  0  0  0  0  0  0
  149.9595  139.0682  153.6608 O   0  0  0  0  0  0  0  0  0  0  0  0
  147.1582  138.8848  154.4990 C   0  0  0  0  0  0  0  0  0  0  0  0
  146.2030  132.8051  151.6708 C   0  0  0  0  0  0  0  0  0  0  0  0
  147.6790  132.7264  152.5742 Cl  0  0  0  0  0  0  0  0  0  0  0  0
  145.2346  138.6580  153.4701 H   0  0  0  0  0  0  0  0  0  0  0  0
  147.4882  141.0013  154.8660 H   0  0  0  0  0  0  0  0  0  0  0  0
  147.1632  130.1795  151.0609 H   0  0  0  0  0  0  0  0  0  0  0  0
  145.5538  129.4571  151.0763 H   0  0  0  0  0  0  0  0  0  0  0  0
  146.2454  130.0900  152.5713 H   0  0  0  0  0  0  0  0  0  0  0  0
  142.9165  132.7830  149.6889 H   0  0  0  0  0  0  0  0  0  0  0  0
  143.8579  134.9585  150.4088 H   0  0  0  0  0  0  0  0  0  0  0  0
  147.2321  135.2793  151.7002 H   0  0  0  0  0  0  0  0  0  0  0  0
  147.5605  137.0351  152.5161 H   0  0  0  0  0  0  0  0  0  0  0  0
  146.2666  139.7044  151.2783 H   0  0  0  0  0  0  0  0  0  0  0  0
  147.9054  141.4091  152.2863 H   0  0  0  0  0  0  0  0  0  0  0  0
  149.9021  141.0511  154.1332 H   0  0  0  0  0  0  0  0  0  0  0  0
  149.6581  139.9542  155.4831 H   0  0  0  0  0  0  0  0  0  0  0  0
  150.0611  139.3696  152.7707 H   0  0  0  0  0  0  0  0  0  0  0  0
  146.5306  138.9638  155.3874 H   0  0  0  0  0  0  0  0  0  0  0  0
  147.8732  138.0840  154.6950 H   0  0  0  0  0  0  0  0  0  0  0  0
  1  2  1  0  0  0  0
  1 22  1  0  0  0  0
  1 23  1  0  0  0  0
  1 24  1  0  0  0  0
  2 18  1  0  0  0  0
  2  3  2  0  0  0  0
  3  4  1  0  0  0  0
  4  5  2  0  0  0  0
  4 25  1  0  0  0  0
  5  6  1  0  0  0  0
  5 26  1  0  0  0  0
  6  7  1  0  0  0  0
  6 18  2  0  0  0  0
  7  8  1  0  0  0  0
  7 27  1  0  0  0  0
  8  9  2  0  0  0  0
  8 10  1  0  0  0  0
 10 11  1  0  0  0  0
 10 28  1  0  0  0  0
 11 20  1  0  0  0  0
 11 17  1  0  0  0  0
 11 12  1  0  0  0  0
 12 13  2  0  0  0  0
 12 29  1  0  0  0  0
 13 14  1  0  0  0  0
 13 30  1  0  0  0  0
 14 21  1  0  0  0  0
 14 15  1  0  0  0  0
 14 17  1  0  0  0  0
 15 16  1  0  0  0  0
 15 31  1  0  0  0  0
 15 32  1  0  0  0  0
 16 33  1  0  0  0  0
 17 34  1  0  0  0  0
 17 35  1  0  0  0  0
 18 19  1  0  0  0  0
M  END
> <s_m_source_file>
AV-unprocessed.smi

> <i_m_source_file_index>
2368

> <i_lp_mmshare_version>
43012

> <i_f3d_flags>
0

> <s_epik_input>
W0NIM11jMW5bY0hdW2NIXWMoYzFDbClbTkhdQyg9TylbTkhdW0NAQEhdMltDSF09W0NIXVtDQEBIXShbQ0gyXTIpW0NIMl1bT0hd

> <s_epik_cmdline>
J2VwaWtfcHl0aG9uJywgJy1waCcsICc3LjAnLCAnLXRuJywgJzgnLCAnLW1hJywgJzIwMCcsICctbWV0YWxfYmluZGluZycsICctaW1hZScsICc8aW5maWxlLm1hZT4nLCAnLW9tYWUnLCAnPG91dGZpbGUubWFlPic=

> <r_epik_Ionization_Penalty>
0.00964582

> <r_epik_Ionization_Penalty_Charging>
0

> <r_epik_Ionization_Penalty_Neutral>
0.00964582

> <r_epik_State_Penalty>
0.00730775

> <r_epik_Charging_Adjusted_Penalty>
0.00730775

> <i_epik_Tot_Q>
0

> <i_epik_Tot_abs_Q>
0

> <r_epik_Metal_State_Penalty>
0.00719079

> <b_epik_Metal_Only>
0

> <s_lp_Force_Field>
OPLS_2005

> <r_lp_Energy>
20.8925

> <b_lp_Chiralities_Consistent>
1

> <s_lp_Variant>
AV-unprocessed.smi:2368-1

> <Gold.Version>
5.8.1

> <Gold.Id.Protein>
6NUR|6NUR_protein|mol2

> <Gold.PLP.Fitness>
43.2385

> <Gold.PLP.PLP>
-32.1216

> <Gold.PLP.part.hbond>
-3.3248

> <Gold.PLP.part.metal>
0.0000

> <Gold.PLP.part.buried>
-0.0895

> <Gold.PLP.part.nonpolar>
-29.2967

> <Gold.PLP.part.repulsive>
0.3797

> <Gold.PLP.ligand.clash>
0.0000

> <Gold.PLP.ligand.torsion>
0.3832

> <Gold.PLP.Chemscore.Hbond>
2.9920

> <Gold.PLP.Chemscore.CHOScore>
0.9634

> <Gold.PLP.Chemscore.Metal>
0.0000

> <Gold.Chemscore.Hbonds>
donor molecule, donor type, donor heavy atom, donor atom, acceptor molecule, acceptor atom, score
      L1  H     7    27       P1  7948  1.00
      L1  H    10    28       P1  7948  1.00
      L1  H    16    33       P1  7957  1.00
      L1  C     4    25       P1 10186  1.00

> <Gold.PLP.Chemscore.Internal.Correction>
0.0170

> <Gold.Rescore>
     Score         DG    S(hbond)    S(metal)    S(lipo)     H(rot)  DE(clash)    DE(int)     intcor
     19.52     -21.47       2.91        0.00      92.66       1.78       1.54       0.41       ----

> <Gold.Chemscore.Fitness>
19.5204

> <Gold.Chemscore.DG>
-21.4724

> <Gold.Chemscore.ZeroCoef>
-5.4800

> <Gold.Chemscore.Hbond>
2.9064

> <Gold.Chemscore.Metal>
0.0000

> <Gold.Chemscore.Lipo>
92.6571

> <Gold.Chemscore.Internal_Hbond>
0.0000

> <Gold.Chemscore.DEClash>
1.5448

> <Gold.Chemscore.DEInternal>
0.4071

> <Gold.Chemscore.Rot>
1.7796

> <Gold.Chemscore.Internal.Correction>
   9.000000E+99

> <Gold.Chemscore.Hbonds>
donor molecule, donor type, donor heavy atom, donor atom, acceptor molecule, acceptor atom, score
      L1  H     7    27       P1  7948  0.93
      L1  H    10    28       P1  7948  0.99
      L1  H    16    33       P1  7957  0.92

> <Gold.Chemscore.Hbond.Weighted>
-9.7074

> <Gold.Chemscore.Metal.Weighted>
-0.0000

> <Gold.Chemscore.Lipo.Weighted>
-10.8409

> <Gold.Chemscore.Internal_Hbond.Weighted>
0.0000

> <Gold.Chemscore.DEClash.Weighted>
1.5448

> <Gold.Chemscore.DEInternal.Weighted>
0.4071

> <Gold.Chemscore.Rot.Weighted>
4.5558

> <Gold.Chemscore.Internal.Correction.Weighted>
   9.000000E+99

> <Gold.Protein.RotatedTorsions>
[ 6907 6896 6895 6894 ] final -114.65 input  -60.11 | X-H torsion
[ 7974 7965 7964 7962 ] final  -32.35 input  175.53 | X-H torsion
[ 8008 7997 7996 7995 ] final  -34.89 input   59.86 | X-H torsion
[ 10167 10162 10161 10158 ] final  -71.42 input  -65.29 | X-H torsion
[ 10718 10713 10712 10709 ] final  125.55 input   66.30 | X-H torsion
[ 10763 10752 10751 10750 ] final  145.80 input  -60.55 | X-H torsion
[ 11005 11000 10999 10996 ] final   72.79 input  -57.11 | X-H torsion

> <Gold.Protein.ActiveResidues>
 VAL166  LYS551  ARG553  GLY616  TRP617  ASP618  TYR619  PRO620  LYS621  CYS622 
 ASP623  PHE694  ASN695  SER759  ASP760  ASP761  ALA762  ILE779  LEU786  VAL792 
 PHE793  MET794  SER795  GLU796  ALA797  LYS798  CYS799  TRP800  GLU811  SER814 

> <Gold.Protein.RotatedAtoms>
  150.7918  133.8770  159.3274 H   0  0  0  0  0  0  0  0  0  0  0  0  # atno 6907 bound_to 6896
  151.6606  135.0988  160.0188 H   0  0  0  0  0  0  0  0  0  0  0  0  # atno 6908 bound_to 6896
  152.3994  133.6756  159.6339 H   0  0  0  0  0  0  0  0  0  0  0  0  # atno 6909 bound_to 6896
  146.0997  140.5781  142.8827 H   0  0  0  0  0  0  0  0  0  0  0  0  # atno 7974 bound_to 7965
  154.4109  140.1672  156.2123 H   0  0  0  0  0  0  0  0  0  0  0  0  # atno 8008 bound_to 7997
  155.9434  140.3406  155.6323 H   0  0  0  0  0  0  0  0  0  0  0  0  # atno 8009 bound_to 7997
  155.6961  140.0739  157.2419 H   0  0  0  0  0  0  0  0  0  0  0  0  # atno 8010 bound_to 7997
  140.5275  143.2325  151.7322 H   0  0  0  0  0  0  0  0  0  0  0  0  # atno 10167 bound_to 10162
  157.5494  131.1094  150.8728 H   0  0  0  0  0  0  0  0  0  0  0  0  # atno 10718 bound_to 10713
  154.0114  135.2914  155.3392 H   0  0  0  0  0  0  0  0  0  0  0  0  # atno 10763 bound_to 10752
  154.7101  135.5153  153.8656 H   0  0  0  0  0  0  0  0  0  0  0  0  # atno 10764 bound_to 10752
  153.0721  135.6651  154.0345 H   0  0  0  0  0  0  0  0  0  0  0  0  # atno 10765 bound_to 10752
  139.9472  134.7291  156.0949 H   0  0  0  0  0  0  0  0  0  0  0  0  # atno 11005 bound_to 11000
  144.7423  140.4974  143.6861 LP  0  0  0  0  0  0  0  0  0  0  0  0  # atno 17320 bound_to 7965
  145.5879  139.1493  143.3198 LP  0  0  0  0  0  0  0  0  0  0  0  0  # atno 17321 bound_to 7965
  139.4943  144.4164  152.0025 LP  0  0  0  0  0  0  0  0  0  0  0  0  # atno 17342 bound_to 10162
  140.3264  144.3367  150.5997 LP  0  0  0  0  0  0  0  0  0  0  0  0  # atno 17343 bound_to 10162
  156.9257  130.5331  149.5279 LP  0  0  0  0  0  0  0  0  0  0  0  0  # atno 17370 bound_to 10713
  156.0563  130.5624  150.9099 LP  0  0  0  0  0  0  0  0  0  0  0  0  # atno 17371 bound_to 10713
  141.1126  133.6638  156.3016 LP  0  0  0  0  0  0  0  0  0  0  0  0  # atno 17394 bound_to 11000
  140.5805  134.5751  157.5478 LP  0  0  0  0  0  0  0  0  0  0  0  0  # atno 17395 bound_to 11000

$$$$
