AV-unprocessed.smi:695|AV-procd|sdf|3385|dock1
  -GOLD-   22720 0363D 1   1.00000     0.00000
 Structure written by MMmdl.
 39 40  0  0  0  0  0  0  0  0  2 V2000
  143.9236  145.5059  153.9881 C   0  0  0  0  0  0  0  0  0  0  0  0
  143.9292  144.3640  155.0149 C   0  0  0  0  0  0  0  0  0  0  0  0
  144.4772  143.1369  154.4487 N   0  0  0  0  0  0  0  0  0  0  0  0
  145.5846  142.5218  154.8852 C   0  0  0  0  0  0  0  0  0  0  0  0
  146.2495  142.9039  155.8489 O   0  0  0  0  0  0  0  0  0  0  0  0
  145.9071  141.4689  154.1190 N   0  0  0  0  0  0  0  0  0  0  0  0
  147.1132  140.6549  154.2663 C   0  0  0  0  0  0  0  0  0  0  0  0
  148.4040  141.4403  153.9519 C   0  0  0  0  0  0  0  0  0  0  0  0
  149.4908  141.2364  154.9673 C   0  0  0  0  0  0  0  0  0  0  0  0
  150.1149  140.0323  155.1828 C   0  0  0  0  0  0  0  0  0  0  0  0
  151.2587  140.1030  156.4908 S   0  0  0  0  0  0  0  0  0  0  0  0
  150.8926  141.7861  156.7254 C   0  0  0  0  0  0  0  0  0  0  0  0
  151.4038  142.5966  157.6665 N   0  0  0  0  0  0  0  0  0  0  0  0
  152.3300  142.0899  158.6629 C   0  0  0  0  0  0  0  0  0  0  0  0
  152.7968  143.3349  159.4161 C   0  0  0  0  0  0  0  0  0  0  0  0
  152.7700  144.4233  158.3414 C   0  0  0  0  0  0  0  0  0  0  0  0
  151.6081  144.0186  157.4265 C   0  0  0  0  0  0  0  0  0  0  0  0
  149.9695  142.2038  155.8468 N   0  3  0  0  0  0  0  0  0  0  0  0
  143.4731  146.4038  154.4114 H   0  0  0  0  0  0  0  0  0  0  0  0
  143.3521  145.2354  153.0999 H   0  0  0  0  0  0  0  0  0  0  0  0
  144.9349  145.7624  153.6712 H   0  0  0  0  0  0  0  0  0  0  0  0
  144.4922  144.6547  155.9034 H   0  0  0  0  0  0  0  0  0  0  0  0
  142.9104  144.1612  155.3449 H   0  0  0  0  0  0  0  0  0  0  0  0
  143.9968  142.7486  153.6502 H   0  0  0  0  0  0  0  0  0  0  0  0
  145.2930  141.2345  153.3526 H   0  0  0  0  0  0  0  0  0  0  0  0
  147.1666  140.2376  155.2732 H   0  0  0  0  0  0  0  0  0  0  0  0
  147.0321  139.8030  153.5910 H   0  0  0  0  0  0  0  0  0  0  0  0
  148.7610  141.1560  152.9613 H   0  0  0  0  0  0  0  0  0  0  0  0
  148.1646  142.5021  153.8830 H   0  0  0  0  0  0  0  0  0  0  0  0
  149.9494  139.0983  154.6661 H   0  0  0  0  0  0  0  0  0  0  0  0
  151.8533  141.3703  159.3293 H   0  0  0  0  0  0  0  0  0  0  0  0
  153.1700  141.6015  158.1670 H   0  0  0  0  0  0  0  0  0  0  0  0
  152.0832  143.5790  160.2045 H   0  0  0  0  0  0  0  0  0  0  0  0
  153.7779  143.2105  159.8754 H   0  0  0  0  0  0  0  0  0  0  0  0
  152.6543  145.4262  158.7533 H   0  0  0  0  0  0  0  0  0  0  0  0
  153.7038  144.3995  157.7778 H   0  0  0  0  0  0  0  0  0  0  0  0
  151.8355  144.2370  156.3823 H   0  0  0  0  0  0  0  0  0  0  0  0
  150.6981  144.5542  157.6979 H   0  0  0  0  0  0  0  0  0  0  0  0
  149.6218  143.1543  155.8439 H   0  0  0  0  0  0  0  0  0  0  0  0
  1  2  1  0  0  0  0
  1 19  1  0  0  0  0
  1 20  1  0  0  0  0
  1 21  1  0  0  0  0
  2  3  1  0  0  0  0
  2 22  1  0  0  0  0
  2 23  1  0  0  0  0
  3  4  1  0  0  0  0
  3 24  1  0  0  0  0
  4  5  2  0  0  0  0
  4  6  1  0  0  0  0
  6  7  1  0  0  0  0
  6 25  1  0  0  0  0
  7  8  1  0  0  0  0
  7 26  1  0  0  0  0
  7 27  1  0  0  0  0
  8  9  1  0  0  0  0
  8 28  1  0  0  0  0
  8 29  1  0  0  0  0
  9 18  1  0  0  0  0
  9 10  2  0  0  0  0
 10 11  1  0  0  0  0
 10 30  1  0  0  0  0
 11 12  1  0  0  0  0
 12 13  1  0  0  0  0
 12 18  2  0  0  0  0
 13 17  1  0  0  0  0
 13 14  1  0  0  0  0
 14 15  1  0  0  0  0
 14 31  1  0  0  0  0
 14 32  1  0  0  0  0
 15 16  1  0  0  0  0
 15 33  1  0  0  0  0
 15 34  1  0  0  0  0
 16 17  1  0  0  0  0
 16 35  1  0  0  0  0
 16 36  1  0  0  0  0
 17 37  1  0  0  0  0
 17 38  1  0  0  0  0
 18 39  1  0  0  0  0
M  CHG  1  18   1
M  END
> <s_m_source_file>
AV-unprocessed.smi

> <i_m_source_file_index>
695

> <i_lp_mmshare_version>
43012

> <i_f3d_flags>
0

> <s_epik_input>
W0NIM11bQ0gyXVtOSF1DKD1PKVtOSF1bQ0gyXVtDSDJdYzFbY0hdc2MobjEpTjJbQ0gyXVtDSDJdW0NIMl1bQ0gyXTI=

> <s_epik_cmdline>
J2VwaWtfcHl0aG9uJywgJy1waCcsICc3LjAnLCAnLXRuJywgJzgnLCAnLW1hJywgJzIwMCcsICctbWV0YWxfYmluZGluZycsICctaW1hZScsICc8aW5maWxlLm1hZT4nLCAnLW9tYWUnLCAnPG91dGZpbGUubWFlPic=

> <r_lp_tautomer_probability>
1

> <r_epik_Ionization_Penalty>
0.834564

> <r_epik_Ionization_Penalty_Charging>
0.834509

> <r_epik_Ionization_Penalty_Neutral>
5.51529e-05

> <r_epik_State_Penalty>
0.86869

> <r_epik_Charging_Adjusted_Penalty>
1.7032

> <i_epik_Tot_Q>
1

> <i_epik_Tot_abs_Q>
1

> <r_epik_Metal_State_Penalty>
1.00025

> <b_epik_Metal_Only>
0

> <s_lp_Force_Field>
OPLS_2005

> <r_lp_Energy>
27.3067

> <b_lp_Chiralities_Consistent>
1

> <s_lp_Variant>
AV-unprocessed.smi:695-2

> <Gold.Version>
5.8.1

> <Gold.Id.Protein>
6NUR|6NUR_protein|mol2

> <Gold.PLP.Fitness>
51.2103

> <Gold.PLP.PLP>
-41.8631

> <Gold.PLP.part.hbond>
-3.0000

> <Gold.PLP.part.metal>
0.0000

> <Gold.PLP.part.buried>
-4.4801

> <Gold.PLP.part.nonpolar>
-36.5442

> <Gold.PLP.part.repulsive>
0.3225

> <Gold.PLP.ligand.clash>
0.0000

> <Gold.PLP.ligand.torsion>
0.6176

> <Gold.PLP.Chemscore.Hbond>
3.4500

> <Gold.PLP.Chemscore.CHOScore>
0.0000

> <Gold.PLP.Chemscore.Metal>
0.0000

> <Gold.Chemscore.Hbonds>
donor molecule, donor type, donor heavy atom, donor atom, acceptor molecule, acceptor atom, score
      L1  H     3    24       P1 10174  0.40
      L1  H     6    25       P1 10175  1.00
      L1  H    18    39       P1  8028  2.00

> <Gold.PLP.Chemscore.Internal.Correction>
0.2324

> <Gold.Rescore>
     Score         DG    S(hbond)    S(metal)    S(lipo)     H(rot)  DE(clash)    DE(int)     intcor
     18.29     -18.91       1.91        0.00      98.42       1.75       0.07       0.56       ----

> <Gold.Chemscore.Fitness>
18.2853

> <Gold.Chemscore.DG>
-18.9110

> <Gold.Chemscore.ZeroCoef>
-5.4800

> <Gold.Chemscore.Hbond>
1.9128

> <Gold.Chemscore.Metal>
0.0000

> <Gold.Chemscore.Lipo>
98.4198

> <Gold.Chemscore.Internal_Hbond>
0.0000

> <Gold.Chemscore.DEClash>
0.0692

> <Gold.Chemscore.DEInternal>
0.5565

> <Gold.Chemscore.Rot>
1.7472

> <Gold.Chemscore.Internal.Correction>
   9.000000E+99

> <Gold.Chemscore.Hbonds>
donor molecule, donor type, donor heavy atom, donor atom, acceptor molecule, acceptor atom, score
      L1  H     3    24       P1 10174  0.01
      L1  H     6    25       P1 10175  0.25
      L1  H    18    39       P1  8028  1.00

> <Gold.Chemscore.Hbond.Weighted>
-6.3888

> <Gold.Chemscore.Metal.Weighted>
-0.0000

> <Gold.Chemscore.Lipo.Weighted>
-11.5151

> <Gold.Chemscore.Internal_Hbond.Weighted>
0.0000

> <Gold.Chemscore.DEClash.Weighted>
0.0692

> <Gold.Chemscore.DEInternal.Weighted>
0.5565

> <Gold.Chemscore.Rot.Weighted>
4.4729

> <Gold.Chemscore.Internal.Correction.Weighted>
   9.000000E+99

> <Gold.Protein.RotatedTorsions>
[ 6907 6896 6895 6894 ] final  131.36 input  -60.11 | X-H torsion
[ 7974 7965 7964 7962 ] final   89.52 input  175.53 | X-H torsion
[ 8008 7997 7996 7995 ] final   90.51 input   59.86 | X-H torsion
[ 10167 10162 10161 10158 ] final  114.36 input  -65.29 | X-H torsion
[ 10718 10713 10712 10709 ] final -114.72 input   66.30 | X-H torsion
[ 10763 10752 10751 10750 ] final  -11.96 input  -60.55 | X-H torsion
[ 11005 11000 10999 10996 ] final -103.29 input  -57.11 | X-H torsion

> <Gold.Protein.ActiveResidues>
 VAL166  LYS551  ARG553  GLY616  TRP617  ASP618  TYR619  PRO620  LYS621  CYS622 
 ASP623  PHE694  ASN695  SER759  ASP760  ASP761  ALA762  ILE779  LEU786  VAL792 
 PHE793  MET794  SER795  GLU796  ALA797  LYS798  CYS799  TRP800  GLU811  SER814 

> <Gold.Protein.RotatedAtoms>
  152.3434  133.6093  159.5892 H   0  0  0  0  0  0  0  0  0  0  0  0  # atno 6907 bound_to 6896
  150.7492  133.9687  159.3547 H   0  0  0  0  0  0  0  0  0  0  0  0  # atno 6908 bound_to 6896
  151.7548  135.0825  160.0387 H   0  0  0  0  0  0  0  0  0  0  0  0  # atno 6909 bound_to 6896
  145.5313  139.2283  143.2617 H   0  0  0  0  0  0  0  0  0  0  0  0  # atno 7974 bound_to 7965
  156.0128  140.3348  155.6958 H   0  0  0  0  0  0  0  0  0  0  0  0  # atno 8008 bound_to 7997
  155.6134  140.0667  157.2717 H   0  0  0  0  0  0  0  0  0  0  0  0  # atno 8009 bound_to 7997
  154.4287  140.1789  156.1283 H   0  0  0  0  0  0  0  0  0  0  0  0  # atno 8010 bound_to 7997
  139.6394  144.7122  151.2267 H   0  0  0  0  0  0  0  0  0  0  0  0  # atno 10167 bound_to 10162
  156.0848  130.6042  150.8812 H   0  0  0  0  0  0  0  0  0  0  0  0  # atno 10718 bound_to 10713
  153.4914  135.7017  153.5882 H   0  0  0  0  0  0  0  0  0  0  0  0  # atno 10763 bound_to 10752
  153.4053  135.3862  155.2015 H   0  0  0  0  0  0  0  0  0  0  0  0  # atno 10764 bound_to 10752
  154.8716  135.3891  154.4375 H   0  0  0  0  0  0  0  0  0  0  0  0  # atno 10765 bound_to 10752
  141.1152  133.8628  157.1468 H   0  0  0  0  0  0  0  0  0  0  0  0  # atno 11005 bound_to 11000
  146.2042  140.6129  142.9088 LP  0  0  0  0  0  0  0  0  0  0  0  0  # atno 17320 bound_to 7965
  144.7625  140.5454  143.6726 LP  0  0  0  0  0  0  0  0  0  0  0  0  # atno 17321 bound_to 7965
  140.7483  143.6338  150.8398 LP  0  0  0  0  0  0  0  0  0  0  0  0  # atno 17342 bound_to 10162
  139.9973  143.5781  152.2888 LP  0  0  0  0  0  0  0  0  0  0  0  0  # atno 17343 bound_to 10162
  157.5979  131.0942  150.9010 LP  0  0  0  0  0  0  0  0  0  0  0  0  # atno 17370 bound_to 10713
  156.9173  130.5302  149.5279 LP  0  0  0  0  0  0  0  0  0  0  0  0  # atno 17371 bound_to 10713
  140.0070  135.0004  157.0313 LP  0  0  0  0  0  0  0  0  0  0  0  0  # atno 17394 bound_to 11000
  140.4665  134.1430  155.7197 LP  0  0  0  0  0  0  0  0  0  0  0  0  # atno 17395 bound_to 11000

$$$$
