AV-unprocessed.smi:261|AV-procd|sdf|1989|dock6
  -GOLD-   2262021173D 1   1.00000     0.00000
 Structure written by MMmdl.
 51 54  0  0  0  0  0  0  0  0  1 V2000
  151.8695  140.9389  159.1058 C   0  0  0  0  0  0  0  0  0  0  0  0
  151.1947  139.6938  159.0318 O   0  0  0  0  0  0  0  0  0  0  0  0
  150.7728  139.3548  157.7188 C   0  0  1  0  0  0  0  0  0  0  0  0
  151.9341  139.0617  156.7643 C   0  0  0  0  0  0  0  0  0  0  0  0
  151.3255  138.1423  155.6914 C   0  0  2  0  0  0  0  0  0  0  0  0
  150.7610  138.9505  154.5086 C   0  0  0  0  0  0  0  0  0  0  0  0
  150.1915  138.2522  153.5236 N   0  0  0  0  0  0  0  0  0  0  0  0
  150.8444  140.1775  154.4743 O   0  0  0  0  0  0  0  0  0  0  0  0
  150.2770  137.4267  156.4193 N   0  0  0  0  0  0  0  0  0  0  0  0
  149.7443  136.2276  156.0523 C   0  0  0  0  0  0  0  0  0  0  0  0
  150.4094  135.1009  156.4230 N   0  0  0  0  0  0  0  0  0  0  0  0
  149.9452  133.8920  156.0979 C   0  0  0  0  0  0  0  0  0  0  0  0
  148.8459  133.5791  155.4131 N   0  0  0  0  0  0  0  0  0  0  0  0
  148.1670  134.6986  155.0342 C   0  0  0  0  0  0  0  0  0  0  0  0
  148.5380  136.0489  155.3066 C   0  0  0  0  0  0  0  0  0  0  0  0
  147.5890  136.9040  154.7536 N   0  0  0  0  0  0  0  0  0  0  0  0
  146.7161  136.1125  154.1952 C   0  0  0  0  0  0  0  0  0  0  0  0
  146.9888  134.7709  154.3122 N   0  0  0  0  0  0  0  0  0  0  0  0
  146.1930  133.6760  153.7843 C   0  0  0  0  0  0  0  0  0  0  0  0
  146.7855  133.0869  152.4888 C   0  0  1  0  0  0  0  0  0  0  0  0
  147.0192  131.7013  152.6612 O   0  0  0  0  0  0  0  0  0  0  0  0
  145.8663  133.3238  151.2728 C   0  0  2  0  0  0  0  0  0  0  0  0
  144.3756  132.9814  151.4527 C   0  0  0  0  0  0  0  0  0  0  0  0
  144.1041  131.9682  150.3546 C   0  0  0  0  0  0  0  0  0  0  0  0
  145.2034  132.2649  149.3428 C   0  0  0  0  0  0  0  0  0  0  0  0
  146.3218  132.5538  150.1651 O   0  0  0  0  0  0  0  0  0  0  0  0
  150.0082  138.0312  157.7205 C   0  0  0  0  0  0  0  0  0  0  0  0
  150.1325  140.1351  157.3026 H   0  0  0  0  0  0  0  0  0  0  0  0
  152.0963  137.4554  155.3406 H   0  0  0  0  0  0  0  0  0  0  0  0
  152.1431  141.1426  160.1408 H   0  0  0  0  0  0  0  0  0  0  0  0
  151.2321  141.7541  158.7613 H   0  0  0  0  0  0  0  0  0  0  0  0
  152.7854  140.9358  158.5143 H   0  0  0  0  0  0  0  0  0  0  0  0
  152.3825  139.9687  156.3561 H   0  0  0  0  0  0  0  0  0  0  0  0
  152.7193  138.5231  157.2971 H   0  0  0  0  0  0  0  0  0  0  0  0
  149.8114  138.7313  152.7204 H   0  0  0  0  0  0  0  0  0  0  0  0
  150.1501  137.2452  153.5836 H   0  0  0  0  0  0  0  0  0  0  0  0
  150.5405  133.0563  156.4351 H   0  0  0  0  0  0  0  0  0  0  0  0
  145.8464  136.4878  153.6756 H   0  0  0  0  0  0  0  0  0  0  0  0
  146.1035  132.9044  154.5498 H   0  0  0  0  0  0  0  0  0  0  0  0
  145.1848  134.0492  153.6020 H   0  0  0  0  0  0  0  0  0  0  0  0
  147.7466  133.5665  152.2987 H   0  0  0  0  0  0  0  0  0  0  0  0
  147.6270  131.4174  151.9954 H   0  0  0  0  0  0  0  0  0  0  0  0
  145.9468  134.3687  150.9680 H   0  0  0  0  0  0  0  0  0  0  0  0
  144.1279  132.5845  152.4378 H   0  0  0  0  0  0  0  0  0  0  0  0
  143.7700  133.8760  151.3017 H   0  0  0  0  0  0  0  0  0  0  0  0
  144.2278  130.9571  150.7451 H   0  0  0  0  0  0  0  0  0  0  0  0
  143.1019  132.0503  149.9329 H   0  0  0  0  0  0  0  0  0  0  0  0
  145.3998  131.4268  148.6739 H   0  0  0  0  0  0  0  0  0  0  0  0
  144.9548  133.1400  148.7400 H   0  0  0  0  0  0  0  0  0  0  0  0
  150.3842  137.3693  158.5023 H   0  0  0  0  0  0  0  0  0  0  0  0
  148.9425  138.1918  157.8885 H   0  0  0  0  0  0  0  0  0  0  0  0
  1  2  1  0  0  0  0
  1 30  1  0  0  0  0
  1 31  1  0  0  0  0
  1 32  1  0  0  0  0
  2  3  1  0  0  0  0
  3 28  1  0  0  0  0
  3 27  1  0  0  0  0
  3  4  1  0  0  0  0
  4  5  1  0  0  0  0
  4 33  1  0  0  0  0
  4 34  1  0  0  0  0
  5 29  1  0  0  0  0
  5  6  1  0  0  0  0
  5  9  1  0  0  0  0
  6  7  1  0  0  0  0
  6  8  2  0  0  0  0
  7 35  1  0  0  0  0
  7 36  1  0  0  0  0
  9 10  1  0  0  0  0
  9 27  1  0  0  0  0
 10 15  1  0  0  0  0
 10 11  2  0  0  0  0
 11 12  1  0  0  0  0
 12 13  2  0  0  0  0
 12 37  1  0  0  0  0
 13 14  1  0  0  0  0
 14 18  1  0  0  0  0
 14 15  2  0  0  0  0
 15 16  1  0  0  0  0
 16 17  2  0  0  0  0
 17 18  1  0  0  0  0
 17 38  1  0  0  0  0
 18 19  1  0  0  0  0
 19 20  1  0  0  0  0
 19 39  1  0  0  0  0
 19 40  1  0  0  0  0
 20 21  1  0  0  0  0
 20 22  1  0  0  0  0
 20 41  1  0  0  0  0
 21 42  1  0  0  0  0
 22 26  1  0  0  0  0
 22 23  1  0  0  0  0
 22 43  1  0  0  0  0
 23 24  1  0  0  0  0
 23 44  1  0  0  0  0
 23 45  1  0  0  0  0
 24 25  1  0  0  0  0
 24 46  1  0  0  0  0
 24 47  1  0  0  0  0
 25 26  1  0  0  0  0
 25 48  1  0  0  0  0
 25 49  1  0  0  0  0
 27 50  1  0  0  0  0
 27 51  1  0  0  0  0
M  END
> <s_m_source_file>
AV-unprocessed.smi

> <i_m_source_file_index>
261

> <i_lp_mmshare_version>
43012

> <i_f3d_flags>
0

> <s_epik_input>
W0NIM11PW0NASF0xW0NIMl1bQ0BASF0oQyg9TylbTkgyXSlOKFtDSDJdMSljKG5bY0hdbjIpYyhjMjMpbltjSF1uM1tDSDJdW0NASF0oW09IXSlbQ0BASF00W0NIMl1bQ0gyXVtDSDJdTzQ=

> <s_epik_cmdline>
J2VwaWtfcHl0aG9uJywgJy1waCcsICc3LjAnLCAnLXRuJywgJzgnLCAnLW1hJywgJzIwMCcsICctbWV0YWxfYmluZGluZycsICctaW1hZScsICc8aW5maWxlLm1hZT4nLCAnLW9tYWUnLCAnPG91dGZpbGUubWFlPic=

> <r_lp_tautomer_probability>
1

> <r_epik_Ionization_Penalty>
0.000713824

> <r_epik_Ionization_Penalty_Charging>
0

> <r_epik_Ionization_Penalty_Neutral>
0.000713824

> <r_epik_State_Penalty>
0.000402132

> <r_epik_Charging_Adjusted_Penalty>
0.000402132

> <i_epik_Tot_Q>
0

> <i_epik_Tot_abs_Q>
0

> <r_epik_Metal_State_Penalty>
-0

> <b_epik_Metal_Only>
0

> <s_lp_Force_Field>
OPLS_2005

> <r_lp_Energy>
44.9421

> <b_lp_Chiralities_Consistent>
1

> <s_lp_Variant>
AV-unprocessed.smi:261-7

> <Gold.Version>
5.8.1

> <Gold.Id.Protein>
6NUR|6NUR_protein|mol2

> <Gold.PLP.Fitness>
44.0231

> <Gold.PLP.PLP>
-38.1109

> <Gold.PLP.part.hbond>
-5.1508

> <Gold.PLP.part.metal>
0.0000

> <Gold.PLP.part.buried>
-6.8343

> <Gold.PLP.part.nonpolar>
-24.7702

> <Gold.PLP.part.repulsive>
0.5916

> <Gold.PLP.ligand.clash>
0.0000

> <Gold.PLP.ligand.torsion>
2.6713

> <Gold.PLP.Chemscore.Hbond>
3.7061

> <Gold.PLP.Chemscore.CHOScore>
0.0000

> <Gold.PLP.Chemscore.Metal>
0.0000

> <Gold.Chemscore.Hbonds>
donor molecule, donor type, donor heavy atom, donor atom, acceptor molecule, acceptor atom, score
      L1  H     7    35       P1  7957  1.00
      L1  H     7    36       P1  7948  0.10
      L1  H    21    42       P1 10747  0.44
      P1  H  7989  7998       L1     8  0.75

> <Gold.PLP.Chemscore.Internal.Correction>
0.1366

> <Gold.Rescore>
     Score         DG    S(hbond)    S(metal)    S(lipo)     H(rot)  DE(clash)    DE(int)     intcor
     13.15     -15.93       2.96        0.00      74.48       3.18       0.14       2.64       ----

> <Gold.Chemscore.Fitness>
13.1454

> <Gold.Chemscore.DG>
-15.9254

> <Gold.Chemscore.ZeroCoef>
-5.4800

> <Gold.Chemscore.Hbond>
2.9582

> <Gold.Chemscore.Metal>
0.0000

> <Gold.Chemscore.Lipo>
74.4763

> <Gold.Chemscore.Internal_Hbond>
0.0000

> <Gold.Chemscore.DEClash>
0.1447

> <Gold.Chemscore.DEInternal>
2.6354

> <Gold.Chemscore.Rot>
3.1831

> <Gold.Chemscore.Internal.Correction>
   9.000000E+99

> <Gold.Chemscore.Hbonds>
donor molecule, donor type, donor heavy atom, donor atom, acceptor molecule, acceptor atom, score
      L1  H     7    35       P1  7957  0.61
      L1  H     7    36       P1  7948  0.03
      L1  H    21    42       P1 10747  0.44
      P1  H  7989  7998       L1     8  0.74

> <Gold.Chemscore.Hbond.Weighted>
-9.8804

> <Gold.Chemscore.Metal.Weighted>
-0.0000

> <Gold.Chemscore.Lipo.Weighted>
-8.7137

> <Gold.Chemscore.Internal_Hbond.Weighted>
0.0000

> <Gold.Chemscore.DEClash.Weighted>
0.1447

> <Gold.Chemscore.DEInternal.Weighted>
2.6354

> <Gold.Chemscore.Rot.Weighted>
8.1486

> <Gold.Chemscore.Internal.Correction.Weighted>
   9.000000E+99

> <Gold.Protein.RotatedTorsions>
[ 6907 6896 6895 6894 ] final   70.96 input  -60.11 | X-H torsion
[ 7974 7965 7964 7962 ] final  -90.16 input  175.53 | X-H torsion
[ 8008 7997 7996 7995 ] final -118.22 input   59.86 | X-H torsion
[ 10167 10162 10161 10158 ] final  174.02 input  -65.29 | X-H torsion
[ 10718 10713 10712 10709 ] final  -77.03 input   66.30 | X-H torsion
[ 10763 10752 10751 10750 ] final   81.66 input  -60.55 | X-H torsion
[ 11005 11000 10999 10996 ] final -166.43 input  -57.11 | X-H torsion

> <Gold.Protein.ActiveResidues>
 VAL166  LYS551  ARG553  GLY616  TRP617  ASP618  TYR619  PRO620  LYS621  CYS622 
 ASP623  PHE694  ASN695  SER759  ASP760  ASP761  ALA762  ILE779  LEU786  VAL792 
 PHE793  MET794  SER795  GLU796  ALA797  LYS798  CYS799  TRP800  GLU811  SER814 

> <Gold.Protein.RotatedAtoms>
  152.4781  134.4791  159.9659 H   0  0  0  0  0  0  0  0  0  0  0  0  # atno 6907 bound_to 6896
  151.4803  133.3542  159.2845 H   0  0  0  0  0  0  0  0  0  0  0  0  # atno 6908 bound_to 6896
  150.8834  134.8254  159.7302 H   0  0  0  0  0  0  0  0  0  0  0  0  # atno 6909 bound_to 6896
  145.4301  140.9555  143.2133 H   0  0  0  0  0  0  0  0  0  0  0  0  # atno 7974 bound_to 7965
  155.0961  140.0395  157.2683 H   0  0  0  0  0  0  0  0  0  0  0  0  # atno 8008 bound_to 7997
  154.6794  140.2629  155.6899 H   0  0  0  0  0  0  0  0  0  0  0  0  # atno 8009 bound_to 7997
  156.2689  140.2781  156.1333 H   0  0  0  0  0  0  0  0  0  0  0  0  # atno 8010 bound_to 7997
  139.5128  144.3194  152.0217 H   0  0  0  0  0  0  0  0  0  0  0  0  # atno 10167 bound_to 10162
  156.0157  130.4481  150.3283 H   0  0  0  0  0  0  0  0  0  0  0  0  # atno 10718 bound_to 10713
  153.1136  135.4757  154.9076 H   0  0  0  0  0  0  0  0  0  0  0  0  # atno 10763 bound_to 10752
  154.7505  135.3105  154.8568 H   0  0  0  0  0  0  0  0  0  0  0  0  # atno 10764 bound_to 10752
  153.9151  135.6861  153.4803 H   0  0  0  0  0  0  0  0  0  0  0  0  # atno 10765 bound_to 10752
  140.5646  134.5299  157.5150 H   0  0  0  0  0  0  0  0  0  0  0  0  # atno 11005 bound_to 11000
  144.8188  139.5828  143.6996 LP  0  0  0  0  0  0  0  0  0  0  0  0  # atno 17320 bound_to 7965
  146.2611  139.6413  142.9361 LP  0  0  0  0  0  0  0  0  0  0  0  0  # atno 17321 bound_to 7965
  140.2636  144.4040  150.6176 LP  0  0  0  0  0  0  0  0  0  0  0  0  # atno 17342 bound_to 10162
  140.6139  143.2171  151.6831 LP  0  0  0  0  0  0  0  0  0  0  0  0  # atno 17343 bound_to 10162
  157.1382  131.0289  151.2939 LP  0  0  0  0  0  0  0  0  0  0  0  0  # atno 17370 bound_to 10713
  157.4494  130.7589  149.7138 LP  0  0  0  0  0  0  0  0  0  0  0  0  # atno 17371 bound_to 10713
  139.9391  134.7820  156.0725 LP  0  0  0  0  0  0  0  0  0  0  0  0  # atno 17394 bound_to 11000
  141.1093  133.6648  156.2941 LP  0  0  0  0  0  0  0  0  0  0  0  0  # atno 17395 bound_to 11000

$$$$
