AV-unprocessed.smi:103|AV-procd|sdf|990|dock10
  -GOLD-   2262017563D 1   1.00000     0.00000
 Structure written by MMmdl.
 53 55  0  0  0  0  0  0  0  0  1 V2000
  151.2895  144.2131  159.2797 C   0  0  0  0  0  0  0  0  0  0  0  0
  150.8023  142.9351  158.6090 C   0  0  0  0  0  0  0  0  0  0  0  0
  149.7213  142.4285  158.9101 O   0  0  0  0  0  0  0  0  0  0  0  0
  151.6722  142.4684  157.6970 O   0  0  0  0  0  0  0  0  0  0  0  0
  151.3927  141.2698  156.9890 C   0  0  0  0  0  0  0  0  0  0  0  0
  151.2377  140.1149  157.9869 C   0  0  1  0  0  0  0  0  0  0  0  0
  149.8435  139.8346  158.1366 O   0  0  0  0  0  0  0  0  0  0  0  0
  149.5756  138.4910  157.8903 C   0  0  1  0  0  0  0  0  0  0  0  0
  148.2577  138.3762  157.1949 N   0  0  0  0  0  0  0  0  0  0  0  0
  147.1129  137.7087  157.5819 C   0  0  0  0  0  0  0  0  0  0  0  0
  146.8763  136.7967  159.1032 S   0  0  0  0  0  0  0  0  0  0  0  0
  148.5417  136.0640  159.3685 C   0  0  0  0  0  0  0  0  0  0  0  0
  146.6056  137.7845  160.1596 O   0  0  0  0  0  0  0  0  0  0  0  0
  145.9126  135.7219  158.8219 O   0  0  0  0  0  0  0  0  0  0  0  0
  146.0705  137.8360  156.8060 N   0  0  0  0  0  0  0  0  0  0  0  0
  146.5512  138.6086  155.7582 C   0  0  0  0  0  0  0  0  0  0  0  0
  145.9808  139.1127  154.5622 C   0  0  0  0  0  0  0  0  0  0  0  0
  144.7084  138.8871  154.2076 N   0  0  0  0  0  0  0  0  0  0  0  0
  146.7556  139.8571  153.7389 N   0  0  0  0  0  0  0  0  0  0  0  0
  148.0282  140.0970  154.0707 C   0  0  0  0  0  0  0  0  0  0  0  0
  148.6984  139.6941  155.1532 N   0  0  0  0  0  0  0  0  0  0  0  0
  147.9169  138.9442  155.9837 C   0  0  0  0  0  0  0  0  0  0  0  0
  150.7027  137.9636  157.0122 C   0  0  2  0  0  0  0  0  0  0  0  0
  150.8786  136.5660  157.1994 O   0  0  0  0  0  0  0  0  0  0  0  0
  150.9923  135.7525  156.1392 C   0  0  0  0  0  0  0  0  0  0  0  0
  150.7245  134.2969  156.4963 C   0  0  0  0  0  0  0  0  0  0  0  0
  151.2811  136.0926  154.9919 O   0  0  0  0  0  0  0  0  0  0  0  0
  151.8863  138.8159  157.4660 C   0  0  2  0  0  0  0  0  0  0  0  0
  152.8165  138.1807  158.3567 O   0  0  0  0  0  0  0  0  0  0  0  0
  152.4748  137.4936  159.4718 C   0  0  0  0  0  0  0  0  0  0  0  0
  153.6855  137.1762  160.3386 C   0  0  0  0  0  0  0  0  0  0  0  0
  151.3455  137.1411  159.8063 O   0  0  0  0  0  0  0  0  0  0  0  0
  151.5284  144.0209  160.3255 H   0  0  0  0  0  0  0  0  0  0  0  0
  150.5160  144.9799  159.2370 H   0  0  0  0  0  0  0  0  0  0  0  0
  152.1828  144.5973  158.7865 H   0  0  0  0  0  0  0  0  0  0  0  0
  150.4933  141.3525  156.3782 H   0  0  0  0  0  0  0  0  0  0  0  0
  152.2218  141.0701  156.3097 H   0  0  0  0  0  0  0  0  0  0  0  0
  151.6576  140.4140  158.9474 H   0  0  0  0  0  0  0  0  0  0  0  0
  149.4621  137.9674  158.8356 H   0  0  0  0  0  0  0  0  0  0  0  0
  148.5364  135.4754  160.2854 H   0  0  0  0  0  0  0  0  0  0  0  0
  149.2793  136.8618  159.4533 H   0  0  0  0  0  0  0  0  0  0  0  0
  148.7990  135.4218  158.5266 H   0  0  0  0  0  0  0  0  0  0  0  0
  144.1103  138.3349  154.8053 H   0  0  0  0  0  0  0  0  0  0  0  0
  144.3507  139.2679  153.3434 H   0  0  0  0  0  0  0  0  0  0  0  0
  148.5897  140.6990  153.3711 H   0  0  0  0  0  0  0  0  0  0  0  0
  150.4593  138.2035  155.9759 H   0  0  0  0  0  0  0  0  0  0  0  0
  149.6661  134.1503  156.7124 H   0  0  0  0  0  0  0  0  0  0  0  0
  151.3013  134.0090  157.3753 H   0  0  0  0  0  0  0  0  0  0  0  0
  151.0038  133.6426  155.6704 H   0  0  0  0  0  0  0  0  0  0  0  0
  152.4817  139.0452  156.5819 H   0  0  0  0  0  0  0  0  0  0  0  0
  154.2070  138.0932  160.6129 H   0  0  0  0  0  0  0  0  0  0  0  0
  154.3780  136.5309  159.7981 H   0  0  0  0  0  0  0  0  0  0  0  0
  153.3797  136.6660  161.2522 H   0  0  0  0  0  0  0  0  0  0  0  0
  1  2  1  0  0  0  0
  1 33  1  0  0  0  0
  1 34  1  0  0  0  0
  1 35  1  0  0  0  0
  2  3  2  0  0  0  0
  2  4  1  0  0  0  0
  4  5  1  0  0  0  0
  5  6  1  0  0  0  0
  5 36  1  0  0  0  0
  5 37  1  0  0  0  0
  6 28  1  0  0  0  0
  6  7  1  0  0  0  0
  6 38  1  0  0  0  0
  7  8  1  0  0  0  0
  8  9  1  0  0  0  0
  8 23  1  0  0  0  0
  8 39  1  0  0  0  0
  9 22  1  0  0  0  0
  9 10  1  0  0  0  0
 10 11  1  0  0  0  0
 10 15  2  0  0  0  0
 11 12  1  0  0  0  0
 11 13  2  0  0  0  0
 11 14  2  0  0  0  0
 12 40  1  0  0  0  0
 12 41  1  0  0  0  0
 12 42  1  0  0  0  0
 15 16  1  0  0  0  0
 16 22  2  0  0  0  0
 16 17  1  0  0  0  0
 17 18  1  0  0  0  0
 17 19  2  0  0  0  0
 18 43  1  0  0  0  0
 18 44  1  0  0  0  0
 19 20  1  0  0  0  0
 20 21  2  0  0  0  0
 20 45  1  0  0  0  0
 21 22  1  0  0  0  0
 23 24  1  0  0  0  0
 23 28  1  0  0  0  0
 23 46  1  0  0  0  0
 24 25  1  0  0  0  0
 25 26  1  0  0  0  0
 25 27  2  0  0  0  0
 26 47  1  0  0  0  0
 26 48  1  0  0  0  0
 26 49  1  0  0  0  0
 28 29  1  0  0  0  0
 28 50  1  0  0  0  0
 29 30  1  0  0  0  0
 30 31  1  0  0  0  0
 30 32  2  0  0  0  0
 31 51  1  0  0  0  0
 31 52  1  0  0  0  0
 31 53  1  0  0  0  0
M  END
> <s_m_source_file>
AV-unprocessed.smi

> <i_m_source_file_index>
103

> <i_lp_mmshare_version>
43012

> <i_f3d_flags>
0

> <s_epik_input>
W0NIM11DKD1PKU9bQ0gyXVtDQEBIXTFPW0NASF0oW0NAQEhdKE9DKD1PKVtDSDNdKVtDQEhdMU9DKD1PKVtDSDNdKW4oYyhuMilTKD1PKSg9TylbQ0gzXSljKGMyMyluW2NIXW5jM1tOSDJd

> <s_epik_cmdline>
J2VwaWtfcHl0aG9uJywgJy1waCcsICc3LjAnLCAnLXRuJywgJzgnLCAnLW1hJywgJzIwMCcsICctbWV0YWxfYmluZGluZycsICctaW1hZScsICc8aW5maWxlLm1hZT4nLCAnLW9tYWUnLCAnPG91dGZpbGUubWFlPic=

> <r_lp_tautomer_probability>
1

> <r_epik_Ionization_Penalty>
1.51338e-05

> <r_epik_Ionization_Penalty_Charging>
0

> <r_epik_Ionization_Penalty_Neutral>
1.51338e-05

> <r_epik_State_Penalty>
-0

> <r_epik_Charging_Adjusted_Penalty>
0

> <i_epik_Tot_Q>
0

> <i_epik_Tot_abs_Q>
0

> <r_epik_Metal_State_Penalty>
-0

> <b_epik_Metal_Only>
0

> <s_epik_Chemistry_Notes>
This compound has an ester and may undergo hydrolysis at high or low pH. This compound contains an acetal/aminal-like group ( X-CH(R)-Y where X, Y are N, S, or O) that may be acid/base labile, releasing an aldehyde.

> <s_lp_Force_Field>
OPLS_2005

> <r_lp_Energy>
20.3067

> <b_lp_Chiralities_Consistent>
1

> <s_lp_Variant>
AV-unprocessed.smi:103-14

> <Gold.Version>
5.8.1

> <Gold.Id.Protein>
6NUR|6NUR_protein|mol2

> <Gold.PLP.Fitness>
39.7056

> <Gold.PLP.PLP>
-28.3354

> <Gold.PLP.part.hbond>
-4.9953

> <Gold.PLP.part.metal>
0.0000

> <Gold.PLP.part.buried>
-6.3907

> <Gold.PLP.part.nonpolar>
-17.9892

> <Gold.PLP.part.repulsive>
0.5005

> <Gold.PLP.ligand.clash>
0.0000

> <Gold.PLP.ligand.torsion>
2.8977

> <Gold.PLP.Chemscore.Hbond>
4.0000

> <Gold.PLP.Chemscore.CHOScore>
0.9862

> <Gold.PLP.Chemscore.Metal>
0.0000

> <Gold.Chemscore.Hbonds>
donor molecule, donor type, donor heavy atom, donor atom, acceptor molecule, acceptor atom, score
      L1  H    18    44       P1 10175  1.00
      P1  H  6896  6908       L1    32  1.00
      P1  H  6934  6947       L1    13  1.00
      P1  H 10752 10763       L1    27  0.99
      L1  C    20    45       P1  7957  0.99

> <Gold.PLP.Chemscore.Internal.Correction>
2.2068

> <Gold.Rescore>
     Score         DG    S(hbond)    S(metal)    S(lipo)     H(rot)  DE(clash)    DE(int)     intcor
      1.71     -12.29       3.78        0.00      43.16       4.25       0.04      10.53       ----

> <Gold.Chemscore.Fitness>
1.7133

> <Gold.Chemscore.DG>
-12.2870

> <Gold.Chemscore.ZeroCoef>
-5.4800

> <Gold.Chemscore.Hbond>
3.7802

> <Gold.Chemscore.Metal>
0.0000

> <Gold.Chemscore.Lipo>
43.1619

> <Gold.Chemscore.Internal_Hbond>
0.0000

> <Gold.Chemscore.DEClash>
0.0401

> <Gold.Chemscore.DEInternal>
10.5337

> <Gold.Chemscore.Rot>
4.2456

> <Gold.Chemscore.Internal.Correction>
   9.000000E+99

> <Gold.Chemscore.Hbonds>
donor molecule, donor type, donor heavy atom, donor atom, acceptor molecule, acceptor atom, score
      L1  H    18    44       P1 10175  0.95
      P1  H  6896  6908       L1    32  0.54
      P1  H  6934  6947       L1    13  0.95
      P1  H 10752 10763       L1    27  0.92

> <Gold.Chemscore.Hbond.Weighted>
-12.6257

> <Gold.Chemscore.Metal.Weighted>
-0.0000

> <Gold.Chemscore.Lipo.Weighted>
-5.0499

> <Gold.Chemscore.Internal_Hbond.Weighted>
0.0000

> <Gold.Chemscore.DEClash.Weighted>
0.0401

> <Gold.Chemscore.DEInternal.Weighted>
10.5337

> <Gold.Chemscore.Rot.Weighted>
10.8687

> <Gold.Chemscore.Internal.Correction.Weighted>
   9.000000E+99

> <Gold.Protein.RotatedTorsions>
[ 6907 6896 6895 6894 ] final -129.70 input  -60.11 | X-H torsion
[ 7974 7965 7964 7962 ] final  169.34 input  175.53 | X-H torsion
[ 8008 7997 7996 7995 ] final -175.34 input   59.86 | X-H torsion
[ 10167 10162 10161 10158 ] final   88.03 input  -65.29 | X-H torsion
[ 10718 10713 10712 10709 ] final -129.33 input   66.30 | X-H torsion
[ 10763 10752 10751 10750 ] final   39.77 input  -60.55 | X-H torsion
[ 11005 11000 10999 10996 ] final  -92.68 input  -57.11 | X-H torsion

> <Gold.Protein.ActiveResidues>
 VAL166  LYS551  ARG553  GLY616  TRP617  ASP618  TYR619  PRO620  LYS621  CYS622 
 ASP623  PHE694  ASN695  SER759  ASP760  ASP761  ALA762  ILE779  LEU786  VAL792 
 PHE793  MET794  SER795  GLU796  ALA797  LYS798  CYS799  TRP800  GLU811  SER814 

> <Gold.Protein.RotatedAtoms>
  150.9316  133.6760  159.2809 H   0  0  0  0  0  0  0  0  0  0  0  0  # atno 6907 bound_to 6896
  151.4180  135.0993  159.9615 H   0  0  0  0  0  0  0  0  0  0  0  0  # atno 6908 bound_to 6896
  152.5028  133.8774  159.7384 H   0  0  0  0  0  0  0  0  0  0  0  0  # atno 6909 bound_to 6896
  144.7358  139.9040  143.6411 H   0  0  0  0  0  0  0  0  0  0  0  0  # atno 7974 bound_to 7965
  155.9814  140.1182  157.0723 H   0  0  0  0  0  0  0  0  0  0  0  0  # atno 8008 bound_to 7997
  154.4184  140.1144  156.5508 H   0  0  0  0  0  0  0  0  0  0  0  0  # atno 8009 bound_to 7997
  155.6466  140.3473  155.4735 H   0  0  0  0  0  0  0  0  0  0  0  0  # atno 8010 bound_to 7997
  139.8714  144.6491  150.8945 H   0  0  0  0  0  0  0  0  0  0  0  0  # atno 10167 bound_to 10162
  156.2036  130.6873  151.0569 H   0  0  0  0  0  0  0  0  0  0  0  0  # atno 10718 bound_to 10713
  152.9956  135.6211  154.2519 H   0  0  0  0  0  0  0  0  0  0  0  0  # atno 10763 bound_to 10752
  154.2257  135.2794  155.2910 H   0  0  0  0  0  0  0  0  0  0  0  0  # atno 10764 bound_to 10752
  154.5491  135.5738  153.6964 H   0  0  0  0  0  0  0  0  0  0  0  0  # atno 10765 bound_to 10752
  141.1516  133.7837  157.0054 H   0  0  0  0  0  0  0  0  0  0  0  0  # atno 11005 bound_to 11000
  146.1051  139.4050  143.0323 LP  0  0  0  0  0  0  0  0  0  0  0  0  # atno 17320 bound_to 7965
  145.7524  140.9967  143.1243 LP  0  0  0  0  0  0  0  0  0  0  0  0  # atno 17321 bound_to 7965
  140.7760  143.3661  151.1737 LP  0  0  0  0  0  0  0  0  0  0  0  0  # atno 17342 bound_to 10162
  139.7280  143.9117  152.3009 LP  0  0  0  0  0  0  0  0  0  0  0  0  # atno 17343 bound_to 10162
  157.7000  131.0779  150.6850 LP  0  0  0  0  0  0  0  0  0  0  0  0  # atno 17370 bound_to 10713
  156.6908  130.4594  149.5600 LP  0  0  0  0  0  0  0  0  0  0  0  0  # atno 17371 bound_to 10713
  140.0912  134.9591  157.1779 LP  0  0  0  0  0  0  0  0  0  0  0  0  # atno 17394 bound_to 11000
  140.3443  134.2669  155.7207 LP  0  0  0  0  0  0  0  0  0  0  0  0  # atno 17395 bound_to 11000

$$$$
