#       Name:                AV-unprocessed.smi:2442
#       Creating user name   scv26
#       Creation time:       Fri Mar 27 13:26:02 2020


#       File generated by GOLD software.
#

@<TRIPOS>MOLECULE
AV-unprocessed.smi:2442
    51    52     1
SMALL
NO_CHARGES


@<TRIPOS>ATOM
      1 ****        -2.6581   0.1087  -2.6510 C.3            1 S1                 0.0000
      2 ****        -2.3947   0.7436  -1.4099 O.3            1 S1                 0.0000
      3 ****        -3.3317   0.4373  -0.3832 C.3            1 S1                 0.0000
      4 ****        -4.5870   1.3217  -0.5415 C.3            1 S1                 0.0000
      5 ****        -5.5661   1.1345   0.6268 C.3            1 S1                 0.0000
      6 ****        -4.8780   1.4099   1.9705 C.3            1 S1                 0.0000
      7 ****        -3.6398   0.5188   2.1460 C.3            1 S1                 0.0000
      8 ****        -2.6457   0.6868   0.9802 C.3            1 S1                 0.0000
      9 ****        -1.5414  -0.2520   1.1656 N.am           1 S1                 0.0000
     10 ****        -0.2447   0.0215   0.9659 C.2            1 S1                 0.0000
     11 ****         0.1886   1.1198   0.6163 O.2            1 S1                 0.0000
     12 ****         0.5281  -1.0511   1.1862 N.am           1 S1                 0.0000
     13 ****         1.9798  -1.0681   1.0519 C.3            1 S1                 0.0000
     14 ****         2.4140  -1.1490  -0.4221 C.3            1 S1                 0.0000
     15 ****         3.9264  -1.1169  -0.5771 C.ar           1 S1                 0.0000
     16 ****         4.6445  -2.3339  -0.5844 C.ar           1 S1                 0.0000
     17 ****         6.0464  -2.3124  -0.7228 C.ar           1 S1                 0.0000
     18 ****         6.6901  -1.1327  -0.8463 N.pl3          1 S1                 1.0000
     19 ****         6.0472   0.0546  -0.8436 C.ar           1 S1                 0.0000
     20 ****         4.6423   0.1022  -0.7077 C.ar           1 S1                 0.0000
     21 ****         3.9406   1.4492  -0.7084 C.3            1 S1                 0.0000
     22 ****        -1.8849   0.3825  -3.3685 H              1 S1                 0.0000
     23 ****        -3.6185   0.4106  -3.0683 H              1 S1                 0.0000
     24 ****        -2.6467  -0.9770  -2.5474 H              1 S1                 0.0000
     25 ****        -3.6194  -0.6147  -0.4381 H              1 S1                 0.0000
     26 ****        -4.2890   2.3696  -0.5987 H              1 S1                 0.0000
     27 ****        -5.1005   1.0964  -1.4757 H              1 S1                 0.0000
     28 ****        -6.4218   1.7989   0.5043 H              1 S1                 0.0000
     29 ****        -5.9592   0.1170   0.6170 H              1 S1                 0.0000
     30 ****        -4.5856   2.4593   2.0249 H              1 S1                 0.0000
     31 ****        -5.5776   1.2397   2.7893 H              1 S1                 0.0000
     32 ****        -3.1498   0.7565   3.0912 H              1 S1                 0.0000
     33 ****        -3.9558  -0.5232   2.2162 H              1 S1                 0.0000
     34 ****        -2.2749   1.7136   1.0046 H              1 S1                 0.0000
     35 ****        -1.7889  -1.1876   1.4520 H              1 S1                 0.0000
     36 ****         0.0825  -1.9114   1.4704 H              1 S1                 0.0000
     37 ****         2.4008  -0.1836   1.5319 H              1 S1                 0.0000
     38 ****         2.3637  -1.9285   1.6009 H              1 S1                 0.0000
     39 ****         2.0324  -2.0698  -0.8655 H              1 S1                 0.0000
     40 ****         1.9690  -0.3403  -1.0020 H              1 S1                 0.0000
     41 ****         4.1272  -3.2771  -0.4839 H              1 S1                 0.0000
     42 ****         6.6671  -3.1963  -0.7382 H              1 S1                 0.0000
     43 ****         6.6752   0.9273  -0.9495 H              1 S1                 0.0000
     44 ****         4.6605   2.2681  -0.6915 H              1 S1                 0.0000
     45 ****         3.2975   1.5552   0.1652 H              1 S1                 0.0000
     46 ****         3.3287   1.5588  -1.6041 H              1 S1                 0.0000
     47 ****         7.7057  -1.1381  -0.9459 H              1 S1                 0.0000
     48 ****        -2.4032   1.7328  -1.5564 LP             1 S1                 0.0000
     49 ****        -1.4871   0.4604  -1.1000 LP             1 S1                 0.0000
     50 ****        -0.4422   1.8803   0.4624 LP             1 S1                 0.0000
     51 ****         1.1714   1.2513   0.4862 LP             1 S1                 0.0000
@<TRIPOS>BOND
    1    1    2 1     
    2    1   22 1     
    3    1   23 1     
    4    1   24 1     
    5    2    3 1     
    6    3    8 1     
    7    3    4 1     
    8    3   25 1     
    9    4    5 1     
   10    4   26 1     
   11    4   27 1     
   12    5    6 1     
   13    5   28 1     
   14    5   29 1     
   15    6    7 1     
   16    6   30 1     
   17    6   31 1     
   18    7    8 1     
   19    7   32 1     
   20    7   33 1     
   21    8    9 1     
   22    8   34 1     
   23    9   10 am    
   24    9   35 1     
   25   10   11 2     
   26   10   12 am    
   27   12   13 1     
   28   12   36 1     
   29   13   14 1     
   30   13   37 1     
   31   13   38 1     
   32   14   15 1     
   33   14   39 1     
   34   14   40 1     
   35   15   20 ar    
   36   15   16 ar    
   37   16   17 ar    
   38   16   41 1     
   39   17   18 ar    
   40   17   42 1     
   41   18   19 ar    
   42   18   47 1     
   43   19   20 ar    
   44   19   43 1     
   45   20   21 1     
   46   21   44 1     
   47   21   45 1     
   48   21   46 1     
   49    2   48 1     
   50    2   49 1     
   51   11   50 1     
   52   11   51 1     
@<TRIPOS>SUBSTRUCTURE
      1 S1             1
@<TRIPOS>SET
LONE_PAIRS      STATIC     ATOMS    <user>   **** ""
4 48 49 50 51
DONOR_HYDROGENS      STATIC     ATOMS    <user>   **** ""
3 35 36 47
ATOM$BLUE        STATIC     ATOMS    COLORGROUP SYSTEM
4 48 49 50 51
ATOM$RED        STATIC     ATOMS    COLORGROUP SYSTEM
3 35 36 47
