AV-unprocessed.smi:247|AV-procd|sdf|1890|dock9
  -GOLD-   2262020553D 1   1.00000     0.00000
 Structure written by MMmdl.
 61 65  0  0  0  0  0  0  0  0  1 V2000
  143.8221  134.0740  154.4484 O   0  0  0  0  0  0  0  0  0  0  0  0
  145.0749  134.0117  153.7950 C   0  0  0  0  0  0  0  0  0  0  0  0
  144.9650  134.0037  152.2446 C   0  0  0  0  0  0  0  0  0  0  0  0
  144.4745  135.4100  151.7757 C   0  0  0  0  0  0  0  0  0  0  0  0
  145.1817  136.5398  152.3624 N   0  0  0  0  0  0  0  0  0  0  0  0
  146.0944  137.3576  151.7330 C   0  0  0  0  0  0  0  0  0  0  0  0
  146.5860  138.3170  152.4683 N   0  0  0  0  0  0  0  0  0  0  0  0
  145.9504  138.1594  153.6927 C   0  0  0  0  0  0  0  0  0  0  0  0
  146.0023  138.8618  154.9255 C   0  0  0  0  0  0  0  0  0  0  0  0
  146.8171  139.9311  155.0947 N   0  0  0  0  0  0  0  0  0  0  0  0
  146.1927  141.1207  154.5416 C   0  0  0  0  0  0  0  0  0  0  0  0
  147.2839  142.1791  154.5308 C   0  0  0  0  0  0  0  0  0  0  0  0
  148.5811  141.3773  154.4228 C   0  0  0  0  0  0  0  0  0  0  0  0
  148.1986  139.8892  154.5966 C   0  0  1  0  0  0  0  0  0  0  0  0
  149.2044  139.1035  155.5122 C   0  0  1  0  0  0  0  0  0  0  0  0
  150.6719  139.1034  155.0171 C   0  0  0  0  0  0  0  0  0  0  0  0
  151.2205  140.4173  155.0729 O   0  0  0  0  0  0  0  0  0  0  0  0
  151.3246  140.9261  156.3984 C   0  0  0  0  0  0  0  0  0  0  0  0
  149.9412  140.9763  157.0669 C   0  0  0  0  0  0  0  0  0  0  0  0
  149.2666  139.5994  156.9832 C   0  0  1  0  0  0  0  0  0  0  0  0
  148.0168  139.6250  157.6407 O   0  0  0  0  0  0  0  0  0  0  0  0
  145.2251  138.4082  155.9443 N   0  0  0  0  0  0  0  0  0  0  0  0
  144.4255  137.3537  155.7583 C   0  0  0  0  0  0  0  0  0  0  0  0
  144.2632  136.6122  154.6602 N   0  0  0  0  0  0  0  0  0  0  0  0
  145.0586  137.0525  153.6431 C   0  0  0  0  0  0  0  0  0  0  0  0
  146.3352  133.6284  151.6231 C   0  0  0  0  0  0  0  0  0  0  0  0
  146.2413  133.3758  150.1078 C   0  0  0  0  0  0  0  0  0  0  0  0
  145.2890  132.3520  149.8467 O   0  0  0  0  0  0  0  0  0  0  0  0
  143.9723  132.6941  150.2631 C   0  0  0  0  0  0  0  0  0  0  0  0
  143.9405  132.9340  151.7850 C   0  0  0  0  0  0  0  0  0  0  0  0
  143.3608  133.2645  154.2900 H   0  0  0  0  0  0  0  0  0  0  0  0
  145.6707  134.8619  154.1286 H   0  0  0  0  0  0  0  0  0  0  0  0
  145.5784  133.1134  154.1522 H   0  0  0  0  0  0  0  0  0  0  0  0
  144.5465  135.5162  150.6945 H   0  0  0  0  0  0  0  0  0  0  0  0
  143.4140  135.5253  152.0044 H   0  0  0  0  0  0  0  0  0  0  0  0
  146.3904  137.2175  150.7035 H   0  0  0  0  0  0  0  0  0  0  0  0
  145.8478  140.9270  153.5242 H   0  0  0  0  0  0  0  0  0  0  0  0
  145.3350  141.4374  155.1363 H   0  0  0  0  0  0  0  0  0  0  0  0
  147.1583  142.8956  153.7185 H   0  0  0  0  0  0  0  0  0  0  0  0
  147.2706  142.7324  155.4706 H   0  0  0  0  0  0  0  0  0  0  0  0
  149.0665  141.5391  153.4598 H   0  0  0  0  0  0  0  0  0  0  0  0
  149.2688  141.7173  155.1978 H   0  0  0  0  0  0  0  0  0  0  0  0
  148.1889  139.4381  153.6047 H   0  0  0  0  0  0  0  0  0  0  0  0
  148.8793  138.0621  155.5217 H   0  0  0  0  0  0  0  0  0  0  0  0
  151.2793  138.4368  155.6315 H   0  0  0  0  0  0  0  0  0  0  0  0
  150.7592  138.7084  154.0072 H   0  0  0  0  0  0  0  0  0  0  0  0
  152.0091  140.3039  156.9770 H   0  0  0  0  0  0  0  0  0  0  0  0
  151.7602  141.9246  156.3606 H   0  0  0  0  0  0  0  0  0  0  0  0
  150.0470  141.2851  158.1075 H   0  0  0  0  0  0  0  0  0  0  0  0
  149.3239  141.7332  156.5827 H   0  0  0  0  0  0  0  0  0  0  0  0
  149.8768  138.8950  157.5506 H   0  0  0  0  0  0  0  0  0  0  0  0
  147.9719  140.4067  158.1699 H   0  0  0  0  0  0  0  0  0  0  0  0
  143.8297  137.0637  156.6111 H   0  0  0  0  0  0  0  0  0  0  0  0
  147.0869  134.3877  151.8358 H   0  0  0  0  0  0  0  0  0  0  0  0
  146.7107  132.7135  152.0825 H   0  0  0  0  0  0  0  0  0  0  0  0
  145.9795  134.2829  149.5627 H   0  0  0  0  0  0  0  0  0  0  0  0
  147.2101  133.0528  149.7268 H   0  0  0  0  0  0  0  0  0  0  0  0
  143.6154  133.5615  149.7078 H   0  0  0  0  0  0  0  0  0  0  0  0
  143.3052  131.8710  150.0067 H   0  0  0  0  0  0  0  0  0  0  0  0
  144.1516  131.9786  152.2661 H   0  0  0  0  0  0  0  0  0  0  0  0
  142.9333  133.2104  152.0986 H   0  0  0  0  0  0  0  0  0  0  0  0
  1  2  1  0  0  0  0
  1 31  1  0  0  0  0
  2  3  1  0  0  0  0
  2 32  1  0  0  0  0
  2 33  1  0  0  0  0
  3 30  1  0  0  0  0
  3  4  1  0  0  0  0
  3 26  1  0  0  0  0
  4  5  1  0  0  0  0
  4 34  1  0  0  0  0
  4 35  1  0  0  0  0
  5 25  1  0  0  0  0
  5  6  1  0  0  0  0
  6  7  2  0  0  0  0
  6 36  1  0  0  0  0
  7  8  1  0  0  0  0
  8 25  2  0  0  0  0
  8  9  1  0  0  0  0
  9 10  1  0  0  0  0
  9 22  2  0  0  0  0
 10 14  1  0  0  0  0
 10 11  1  0  0  0  0
 11 12  1  0  0  0  0
 11 37  1  0  0  0  0
 11 38  1  0  0  0  0
 12 13  1  0  0  0  0
 12 39  1  0  0  0  0
 12 40  1  0  0  0  0
 13 14  1  0  0  0  0
 13 41  1  0  0  0  0
 13 42  1  0  0  0  0
 14 15  1  0  0  0  0
 14 43  1  0  0  0  0
 15 20  1  0  0  0  0
 15 16  1  0  0  0  0
 15 44  1  0  0  0  0
 16 17  1  0  0  0  0
 16 45  1  0  0  0  0
 16 46  1  0  0  0  0
 17 18  1  0  0  0  0
 18 19  1  0  0  0  0
 18 47  1  0  0  0  0
 18 48  1  0  0  0  0
 19 20  1  0  0  0  0
 19 49  1  0  0  0  0
 19 50  1  0  0  0  0
 20 21  1  0  0  0  0
 20 51  1  0  0  0  0
 21 52  1  0  0  0  0
 22 23  1  0  0  0  0
 23 24  2  0  0  0  0
 23 53  1  0  0  0  0
 24 25  1  0  0  0  0
 26 27  1  0  0  0  0
 26 54  1  0  0  0  0
 26 55  1  0  0  0  0
 27 28  1  0  0  0  0
 27 56  1  0  0  0  0
 27 57  1  0  0  0  0
 28 29  1  0  0  0  0
 29 30  1  0  0  0  0
 29 58  1  0  0  0  0
 29 59  1  0  0  0  0
 30 60  1  0  0  0  0
 30 61  1  0  0  0  0
M  END
> <s_m_source_file>
AV-unprocessed.smi

> <i_m_source_file_index>
247

> <i_lp_mmshare_version>
43012

> <i_f3d_flags>
0

> <s_epik_input>
W0NIMl0xW0NIMl1PW0NIMl1bQ0gyXUMxKFtDSDJdW09IXSlbQ0gyXW4oW2NIXW4yKWMoYzIzKW5bY0hdbmMzTjRbQ0gyXVtDSDJdW0NIMl1bQ0BIXTRbQ0BASF01W0NIMl1PW0NIMl1bQ0gyXVtDQEhdNVtPSF0=

> <s_epik_cmdline>
J2VwaWtfcHl0aG9uJywgJy1waCcsICc3LjAnLCAnLXRuJywgJzgnLCAnLW1hJywgJzIwMCcsICctbWV0YWxfYmluZGluZycsICctaW1hZScsICc8aW5maWxlLm1hZT4nLCAnLW9tYWUnLCAnPG91dGZpbGUubWFlPic=

> <r_lp_tautomer_probability>
1

> <r_epik_Ionization_Penalty>
0.00362597

> <r_epik_Ionization_Penalty_Charging>
0

> <r_epik_Ionization_Penalty_Neutral>
0.00362597

> <r_epik_State_Penalty>
0.00241433

> <r_epik_Charging_Adjusted_Penalty>
0.00241433

> <i_epik_Tot_Q>
0

> <i_epik_Tot_abs_Q>
0

> <r_epik_Metal_State_Penalty>
-0

> <b_epik_Metal_Only>
0

> <s_lp_Force_Field>
OPLS_2005

> <r_lp_Energy>
64.2344

> <b_lp_Chiralities_Consistent>
1

> <s_lp_Variant>
AV-unprocessed.smi:247-3

> <Gold.Version>
5.8.1

> <Gold.Id.Protein>
6NUR|6NUR_protein|mol2

> <Gold.PLP.Fitness>
41.2921

> <Gold.PLP.PLP>
-36.8813

> <Gold.PLP.part.hbond>
-2.0000

> <Gold.PLP.part.metal>
0.0000

> <Gold.PLP.part.buried>
-2.1506

> <Gold.PLP.part.nonpolar>
-33.7219

> <Gold.PLP.part.repulsive>
1.4537

> <Gold.PLP.ligand.clash>
0.0000

> <Gold.PLP.ligand.torsion>
0.8769

> <Gold.PLP.Chemscore.Hbond>
1.9920

> <Gold.PLP.Chemscore.CHOScore>
0.0371

> <Gold.PLP.Chemscore.Metal>
0.0000

> <Gold.Chemscore.Hbonds>
donor molecule, donor type, donor heavy atom, donor atom, acceptor molecule, acceptor atom, score
      L1  H     1    31       P1 10957  1.00
      P1  H  7989  7998       L1    17  1.00

> <Gold.PLP.Chemscore.Internal.Correction>
0.0774

> <Gold.Rescore>
     Score         DG    S(hbond)    S(metal)    S(lipo)     H(rot)  DE(clash)    DE(int)     intcor
      8.79     -14.44       1.92        0.00      92.38       3.23       1.00       4.65       ----

> <Gold.Chemscore.Fitness>
8.7881

> <Gold.Chemscore.DG>
-14.4401

> <Gold.Chemscore.ZeroCoef>
-5.4800

> <Gold.Chemscore.Hbond>
1.9206

> <Gold.Chemscore.Metal>
0.0000

> <Gold.Chemscore.Lipo>
92.3822

> <Gold.Chemscore.Internal_Hbond>
0.0000

> <Gold.Chemscore.DEClash>
1.0020

> <Gold.Chemscore.DEInternal>
4.6500

> <Gold.Chemscore.Rot>
3.2278

> <Gold.Chemscore.Internal.Correction>
   9.000000E+99

> <Gold.Chemscore.Hbonds>
donor molecule, donor type, donor heavy atom, donor atom, acceptor molecule, acceptor atom, score
      L1  H     1    31       P1 10957  0.97
      P1  H  7989  7998       L1    17  0.62

> <Gold.Chemscore.Hbond.Weighted>
-6.4147

> <Gold.Chemscore.Metal.Weighted>
-0.0000

> <Gold.Chemscore.Lipo.Weighted>
-10.8087

> <Gold.Chemscore.Internal_Hbond.Weighted>
0.0000

> <Gold.Chemscore.DEClash.Weighted>
1.0020

> <Gold.Chemscore.DEInternal.Weighted>
4.6500

> <Gold.Chemscore.Rot.Weighted>
8.2633

> <Gold.Chemscore.Internal.Correction.Weighted>
   9.000000E+99

> <Gold.Protein.RotatedTorsions>
[ 6907 6896 6895 6894 ] final  -37.58 input  -60.11 | X-H torsion
[ 7974 7965 7964 7962 ] final   38.09 input  175.53 | X-H torsion
[ 8008 7997 7996 7995 ] final  136.72 input   59.86 | X-H torsion
[ 10167 10162 10161 10158 ] final  -62.61 input  -65.29 | X-H torsion
[ 10718 10713 10712 10709 ] final -150.49 input   66.30 | X-H torsion
[ 10763 10752 10751 10750 ] final -171.42 input  -60.55 | X-H torsion
[ 11005 11000 10999 10996 ] final   55.55 input  -57.11 | X-H torsion

> <Gold.Protein.ActiveResidues>
 VAL166  LYS551  ARG553  GLY616  TRP617  ASP618  TYR619  PRO620  LYS621  CYS622 
 ASP623  PHE694  ASN695  SER759  ASP760  ASP761  ALA762  ILE779  LEU786  VAL792 
 PHE793  MET794  SER795  GLU796  ALA797  LYS798  CYS799  TRP800  GLU811  SER814 

> <Gold.Protein.RotatedAtoms>
  151.0130  134.9411  159.8017 H   0  0  0  0  0  0  0  0  0  0  0  0  # atno 6907 bound_to 6896
  152.5307  134.3004  159.9086 H   0  0  0  0  0  0  0  0  0  0  0  0  # atno 6908 bound_to 6896
  151.3010  133.4080  159.2674 H   0  0  0  0  0  0  0  0  0  0  0  0  # atno 6909 bound_to 6896
  146.1088  139.5814  142.9366 H   0  0  0  0  0  0  0  0  0  0  0  0  # atno 7974 bound_to 7965
  156.3003  140.2438  156.3793 H   0  0  0  0  0  0  0  0  0  0  0  0  # atno 8008 bound_to 7997
  154.8716  140.0416  157.1748 H   0  0  0  0  0  0  0  0  0  0  0  0  # atno 8009 bound_to 7997
  154.8789  140.2946  155.5441 H   0  0  0  0  0  0  0  0  0  0  0  0  # atno 8010 bound_to 7997
  140.5927  143.2345  151.6104 H   0  0  0  0  0  0  0  0  0  0  0  0  # atno 10167 bound_to 10162
  156.4468  130.8148  151.2379 H   0  0  0  0  0  0  0  0  0  0  0  0  # atno 10718 bound_to 10713
  154.6307  135.2886  155.0220 H   0  0  0  0  0  0  0  0  0  0  0  0  # atno 10763 bound_to 10752
  154.1382  135.6523  153.4940 H   0  0  0  0  0  0  0  0  0  0  0  0  # atno 10764 bound_to 10752
  153.0278  135.5326  154.7133 H   0  0  0  0  0  0  0  0  0  0  0  0  # atno 10765 bound_to 10752
  140.0598  134.5618  155.9165 H   0  0  0  0  0  0  0  0  0  0  0  0  # atno 11005 bound_to 11000
  145.5706  141.0394  143.2176 LP  0  0  0  0  0  0  0  0  0  0  0  0  # atno 17320 bound_to 7965
  144.7493  139.7235  143.7279 LP  0  0  0  0  0  0  0  0  0  0  0  0  # atno 17321 bound_to 7965
  139.5238  144.3123  152.0982 LP  0  0  0  0  0  0  0  0  0  0  0  0  # atno 17342 bound_to 10162
  140.2290  144.4388  150.6308 LP  0  0  0  0  0  0  0  0  0  0  0  0  # atno 17343 bound_to 10162
  157.7504  131.0150  150.3489 LP  0  0  0  0  0  0  0  0  0  0  0  0  # atno 17370 bound_to 10713
  156.3858  130.3889  149.7067 LP  0  0  0  0  0  0  0  0  0  0  0  0  # atno 17371 bound_to 10713
  141.1968  133.6593  156.5711 LP  0  0  0  0  0  0  0  0  0  0  0  0  # atno 17394 bound_to 11000
  140.3787  134.7542  157.4647 LP  0  0  0  0  0  0  0  0  0  0  0  0  # atno 17395 bound_to 11000

$$$$
