AV-unprocessed.smi:2799|AV-procd|sdf|10791|dock4
  -GOLD-   2272015223D 1   1.00000     0.00000
 Structure written by MMmdl.
 52 53  0  0  0  0  0  0  0  0  2 V2000
  143.6745  132.5017  149.2741 C   0  0  0  0  0  0  0  0  0  0  0  0
  144.8993  132.7879  150.1558 C   0  0  0  0  0  0  0  0  0  0  0  0
  146.1573  132.1423  149.5507 C   0  0  0  0  0  0  0  0  0  0  0  0
  144.6431  132.3133  151.6038 C   0  0  0  0  0  0  0  0  0  0  0  0
  143.8536  133.2659  152.4341 N   0  3  2  0  0  0  0  0  0  0  0  0
  142.5172  133.5434  151.8398 C   0  0  0  0  0  0  0  0  0  0  0  0
  141.6196  134.3245  152.8123 C   0  0  0  0  0  0  0  0  0  0  0  0
  142.3000  135.6170  153.2740 C   0  0  0  0  0  0  0  0  0  0  0  0
  143.6772  135.2924  153.8667 C   0  0  0  0  0  0  0  0  0  0  0  0
  144.5684  134.5073  152.8742 C   0  0  2  0  0  0  0  0  0  0  0  0
  145.1022  135.3586  151.6900 C   0  0  0  0  0  0  0  0  0  0  0  0
  146.1208  136.3175  152.1101 N   0  0  0  0  0  0  0  0  0  0  0  0
  145.8834  137.5376  152.6137 C   0  0  0  0  0  0  0  0  0  0  0  0
  144.7518  137.9900  152.7840 O   0  0  0  0  0  0  0  0  0  0  0  0
  147.0350  138.1615  152.9218 N   0  0  0  0  0  0  0  0  0  0  0  0
  147.2338  139.4471  153.4545 C   0  0  0  0  0  0  0  0  0  0  0  0
  146.4208  140.5092  153.2259 C   0  0  0  0  0  0  0  0  0  0  0  0
  146.7063  141.7999  153.8050 C   0  0  0  0  0  0  0  0  0  0  0  0
  147.8010  141.9281  154.5677 C   0  0  0  0  0  0  0  0  0  0  0  0
  148.6624  140.8446  154.8092 N   0  0  0  0  0  0  0  0  0  0  0  0
  149.8336  141.0848  155.6560 C   0  0  0  0  0  0  0  0  0  0  0  0
  148.4416  139.6006  154.2888 C   0  0  0  0  0  0  0  0  0  0  0  0
  149.2162  138.6672  154.5144 O   0  0  0  0  0  0  0  0  0  0  0  0
  143.4673  131.4325  149.2152 H   0  0  0  0  0  0  0  0  0  0  0  0
  143.8269  132.8666  148.2579 H   0  0  0  0  0  0  0  0  0  0  0  0
  142.7833  132.9920  149.6671 H   0  0  0  0  0  0  0  0  0  0  0  0
  145.0325  133.8692  150.1485 H   0  0  0  0  0  0  0  0  0  0  0  0
  146.0761  131.0550  149.5330 H   0  0  0  0  0  0  0  0  0  0  0  0
  147.0524  132.4007  150.1168 H   0  0  0  0  0  0  0  0  0  0  0  0
  146.3154  132.4789  148.5257 H   0  0  0  0  0  0  0  0  0  0  0  0
  144.1635  131.3345  151.6068 H   0  0  0  0  0  0  0  0  0  0  0  0
  145.6121  132.1630  152.0824 H   0  0  0  0  0  0  0  0  0  0  0  0
  142.6274  134.0884  150.9020 H   0  0  0  0  0  0  0  0  0  0  0  0
  142.0246  132.6024  151.5921 H   0  0  0  0  0  0  0  0  0  0  0  0
  140.6656  134.5545  152.3369 H   0  0  0  0  0  0  0  0  0  0  0  0
  141.3911  133.7021  153.6785 H   0  0  0  0  0  0  0  0  0  0  0  0
  142.4014  136.3050  152.4345 H   0  0  0  0  0  0  0  0  0  0  0  0
  141.6814  136.1225  154.0161 H   0  0  0  0  0  0  0  0  0  0  0  0
  144.1664  136.2063  154.2029 H   0  0  0  0  0  0  0  0  0  0  0  0
  143.5375  134.6914  154.7665 H   0  0  0  0  0  0  0  0  0  0  0  0
  145.4353  134.1973  153.4562 H   0  0  0  0  0  0  0  0  0  0  0  0
  145.5811  134.7185  150.9503 H   0  0  0  0  0  0  0  0  0  0  0  0
  144.2886  135.8626  151.1677 H   0  0  0  0  0  0  0  0  0  0  0  0
  147.0834  136.0291  152.0101 H   0  0  0  0  0  0  0  0  0  0  0  0
  147.8828  137.6277  152.7948 H   0  0  0  0  0  0  0  0  0  0  0  0
  145.5499  140.4338  152.5950 H   0  0  0  0  0  0  0  0  0  0  0  0
  146.0533  142.6418  153.6282 H   0  0  0  0  0  0  0  0  0  0  0  0
  148.0826  142.8600  155.0360 H   0  0  0  0  0  0  0  0  0  0  0  0
  149.8008  140.4500  156.5427 H   0  0  0  0  0  0  0  0  0  0  0  0
  149.9020  142.1181  155.9985 H   0  0  0  0  0  0  0  0  0  0  0  0
  150.7528  140.8624  155.1116 H   0  0  0  0  0  0  0  0  0  0  0  0
  143.6563  132.7629  153.2874 H   0  0  0  0  0  0  0  0  0  0  0  0
  1  2  1  0  0  0  0
  1 24  1  0  0  0  0
  1 25  1  0  0  0  0
  1 26  1  0  0  0  0
  2  3  1  0  0  0  0
  2  4  1  0  0  0  0
  2 27  1  0  0  0  0
  3 28  1  0  0  0  0
  3 29  1  0  0  0  0
  3 30  1  0  0  0  0
  4  5  1  0  0  0  0
  4 31  1  0  0  0  0
  4 32  1  0  0  0  0
  5 10  1  0  0  0  0
  5  6  1  0  0  0  0
  5 52  1  0  0  0  0
  6  7  1  0  0  0  0
  6 33  1  0  0  0  0
  6 34  1  0  0  0  0
  7  8  1  0  0  0  0
  7 35  1  0  0  0  0
  7 36  1  0  0  0  0
  8  9  1  0  0  0  0
  8 37  1  0  0  0  0
  8 38  1  0  0  0  0
  9 10  1  0  0  0  0
  9 39  1  0  0  0  0
  9 40  1  0  0  0  0
 10 11  1  0  0  0  0
 10 41  1  0  0  0  0
 11 12  1  0  0  0  0
 11 42  1  0  0  0  0
 11 43  1  0  0  0  0
 12 13  1  0  0  0  0
 12 44  1  0  0  0  0
 13 14  2  0  0  0  0
 13 15  1  0  0  0  0
 15 16  1  0  0  0  0
 15 45  1  0  0  0  0
 16 22  1  0  0  0  0
 16 17  2  0  0  0  0
 17 18  1  0  0  0  0
 17 46  1  0  0  0  0
 18 19  2  0  0  0  0
 18 47  1  0  0  0  0
 19 20  1  0  0  0  0
 19 48  1  0  0  0  0
 20 21  1  0  0  0  0
 20 22  1  0  0  0  0
 21 49  1  0  0  0  0
 21 50  1  0  0  0  0
 21 51  1  0  0  0  0
 22 23  2  0  0  0  0
M  CHG  1   5   1
M  END
> <s_m_source_file>
AV-unprocessed.smi

> <i_m_source_file_index>
2799

> <i_lp_mmshare_version>
43012

> <i_f3d_flags>
0

> <s_epik_input>
W0NIM11bQ0hdKFtDSDNdKVtDSDJdTjFbQ0gyXVtDSDJdW0NIMl1bQ0gyXVtDQEhdMVtDSDJdW05IXUMoPU8pW05IXWMyW2NIXVtjSF1bY0hdbihbQ0gzXSljMj1P

> <s_epik_cmdline>
J2VwaWtfcHl0aG9uJywgJy1waCcsICc3LjAnLCAnLXRuJywgJzgnLCAnLW1hJywgJzIwMCcsICctbWV0YWxfYmluZGluZycsICctaW1hZScsICc8aW5maWxlLm1hZT4nLCAnLW9tYWUnLCAnPG91dGZpbGUubWFlPic=

> <r_lp_tautomer_probability>
1

> <r_epik_Ionization_Penalty>
0.0010885

> <r_epik_Ionization_Penalty_Charging>
0.00106921

> <r_epik_Ionization_Penalty_Neutral>
1.92865e-05

> <r_epik_State_Penalty>
0.000697184

> <r_epik_Charging_Adjusted_Penalty>
0.0017664

> <i_epik_Tot_Q>
1

> <i_epik_Tot_abs_Q>
1

> <r_epik_Metal_State_Penalty>
-0

> <b_epik_Metal_Only>
0

> <s_lp_Force_Field>
OPLS_2005

> <r_lp_Energy>
36.9818

> <b_lp_Chiralities_Consistent>
1

> <s_lp_Variant>
AV-unprocessed.smi:2799-3

> <Gold.Version>
5.8.1

> <Gold.Id.Protein>
6NUR|6NUR_protein|mol2

> <Gold.PLP.Fitness>
54.6814

> <Gold.PLP.PLP>
-41.3731

> <Gold.PLP.part.hbond>
-2.7673

> <Gold.PLP.part.metal>
0.0000

> <Gold.PLP.part.buried>
-1.9658

> <Gold.PLP.part.nonpolar>
-39.3824

> <Gold.PLP.part.repulsive>
1.5095

> <Gold.PLP.ligand.clash>
0.0000

> <Gold.PLP.ligand.torsion>
0.7521

> <Gold.PLP.Chemscore.Hbond>
3.8800

> <Gold.PLP.Chemscore.CHOScore>
1.0000

> <Gold.PLP.Chemscore.Metal>
0.0000

> <Gold.Chemscore.Hbonds>
donor molecule, donor type, donor heavy atom, donor atom, acceptor molecule, acceptor atom, score
      L1  H     5    52       P1 10957  1.95
      L1  H    12    44       P1  7948  1.00
      L1  H    15    45       P1  7948  1.00
      L1  C    19    48       P1  8028  1.00

> <Gold.PLP.Chemscore.Internal.Correction>
0.1726

> <Gold.Rescore>
     Score         DG    S(hbond)    S(metal)    S(lipo)     H(rot)  DE(clash)    DE(int)     intcor
     17.33     -21.43       2.57        0.00      97.21       1.57       0.46       3.63       ----

> <Gold.Chemscore.Fitness>
17.3336

> <Gold.Chemscore.DG>
-21.4302

> <Gold.Chemscore.ZeroCoef>
-5.4800

> <Gold.Chemscore.Hbond>
2.5728

> <Gold.Chemscore.Metal>
0.0000

> <Gold.Chemscore.Lipo>
97.2055

> <Gold.Chemscore.Internal_Hbond>
0.0000

> <Gold.Chemscore.DEClash>
0.4628

> <Gold.Chemscore.DEInternal>
3.6338

> <Gold.Chemscore.Rot>
1.5688

> <Gold.Chemscore.Internal.Correction>
   9.000000E+99

> <Gold.Chemscore.Hbonds>
donor molecule, donor type, donor heavy atom, donor atom, acceptor molecule, acceptor atom, score
      L1  H     5    52       P1 10957  0.41
      L1  H    12    44       P1  7948  0.99
      L1  H    15    45       P1  7948  0.94

> <Gold.Chemscore.Hbond.Weighted>
-8.5932

> <Gold.Chemscore.Metal.Weighted>
-0.0000

> <Gold.Chemscore.Lipo.Weighted>
-11.3730

> <Gold.Chemscore.Internal_Hbond.Weighted>
0.0000

> <Gold.Chemscore.DEClash.Weighted>
0.4628

> <Gold.Chemscore.DEInternal.Weighted>
3.6338

> <Gold.Chemscore.Rot.Weighted>
4.0161

> <Gold.Chemscore.Internal.Correction.Weighted>
   9.000000E+99

> <Gold.Protein.RotatedTorsions>
[ 6907 6896 6895 6894 ] final -149.08 input  -60.11 | X-H torsion
[ 7974 7965 7964 7962 ] final  148.89 input  175.53 | X-H torsion
[ 8008 7997 7996 7995 ] final -170.87 input   59.86 | X-H torsion
[ 10167 10162 10161 10158 ] final   18.29 input  -65.29 | X-H torsion
[ 10718 10713 10712 10709 ] final   24.65 input   66.30 | X-H torsion
[ 10763 10752 10751 10750 ] final  -37.90 input  -60.55 | X-H torsion
[ 11005 11000 10999 10996 ] final  -22.68 input  -57.11 | X-H torsion

> <Gold.Protein.ActiveResidues>
 VAL166  LYS551  ARG553  GLY616  TRP617  ASP618  TYR619  PRO620  LYS621  CYS622 
 ASP623  PHE694  ASN695  SER759  ASP760  ASP761  ALA762  ILE779  LEU786  VAL792 
 PHE793  MET794  SER795  GLU796  ALA797  LYS798  CYS799  TRP800  GLU811  SER814 

> <Gold.Protein.RotatedAtoms>
  151.1791  133.4736  159.2593 H   0  0  0  0  0  0  0  0  0  0  0  0  # atno 6907 bound_to 6896
  151.1278  135.0114  159.8578 H   0  0  0  0  0  0  0  0  0  0  0  0  # atno 6908 bound_to 6896
  152.5459  134.1696  159.8644 H   0  0  0  0  0  0  0  0  0  0  0  0  # atno 6909 bound_to 6896
  144.8479  139.6211  143.5987 H   0  0  0  0  0  0  0  0  0  0  0  0  # atno 7974 bound_to 7965
  155.9241  140.1079  157.1184 H   0  0  0  0  0  0  0  0  0  0  0  0  # atno 8008 bound_to 7997
  154.4059  140.1250  156.4783 H   0  0  0  0  0  0  0  0  0  0  0  0  # atno 8009 bound_to 7997
  155.7160  140.3470  155.4997 H   0  0  0  0  0  0  0  0  0  0  0  0  # atno 8010 bound_to 7997
  140.5664  143.9243  150.6680 H   0  0  0  0  0  0  0  0  0  0  0  0  # atno 10167 bound_to 10162
  157.1826  130.6810  149.6119 H   0  0  0  0  0  0  0  0  0  0  0  0  # atno 10718 bound_to 10713
  153.9039  135.6799  153.4754 H   0  0  0  0  0  0  0  0  0  0  0  0  # atno 10763 bound_to 10752
  153.1114  135.4781  154.9040 H   0  0  0  0  0  0  0  0  0  0  0  0  # atno 10764 bound_to 10752
  154.7561  135.3198  154.8421 H   0  0  0  0  0  0  0  0  0  0  0  0  # atno 10765 bound_to 10752
  140.8680  133.7740  156.0153 H   0  0  0  0  0  0  0  0  0  0  0  0  # atno 11005 bound_to 11000
  146.2760  139.6754  142.9263 LP  0  0  0  0  0  0  0  0  0  0  0  0  # atno 17320 bound_to 7965
  145.4559  141.0430  143.2778 LP  0  0  0  0  0  0  0  0  0  0  0  0  # atno 17321 bound_to 7965
  140.2707  143.3458  152.1241 LP  0  0  0  0  0  0  0  0  0  0  0  0  # atno 17342 bound_to 10162
  139.5095  144.6868  151.5865 LP  0  0  0  0  0  0  0  0  0  0  0  0  # atno 17343 bound_to 10162
  155.9722  130.4641  150.6207 LP  0  0  0  0  0  0  0  0  0  0  0  0  # atno 17370 bound_to 10713
  157.3937  131.0799  151.1370 LP  0  0  0  0  0  0  0  0  0  0  0  0  # atno 17371 bound_to 10713
  140.8606  134.2845  157.5236 LP  0  0  0  0  0  0  0  0  0  0  0  0  # atno 17394 bound_to 11000
  139.8710  134.9516  156.4090 LP  0  0  0  0  0  0  0  0  0  0  0  0  # atno 17395 bound_to 11000

$$$$
