#       Name:                AV-unprocessed.smi:1768
#       Creating user name   scv26
#       Creation time:       Fri Mar 27 08:38:38 2020


#       File generated by GOLD software.
#

@<TRIPOS>MOLECULE
AV-unprocessed.smi:1768
    39    40     1
SMALL
NO_CHARGES


@<TRIPOS>ATOM
      1 ****        -5.5954   3.5000   0.4532 C.3            1 S1                 0.0000
      2 ****        -4.4949   2.7981  -0.2655 C.2            1 S1                 0.0000
      3 ****        -4.1025   3.1411  -1.4947 N.2            1 S1                 0.0000
      4 ****        -3.0611   2.3462  -1.9518 N.2            1 S1                 0.0000
      5 ****        -2.6755   1.4213  -1.0614 C.2            1 S1                 0.0000
      6 ****        -1.6843   0.5500  -1.3123 N.pl3          1 S1                -1.0000
      7 ****        -0.4486   0.7665  -0.8065 C.2            1 S1                 0.0000
      8 ****        -0.1066   1.7189  -0.1022 O.2            1 S1                 0.0000
      9 ****         0.4384  -0.1843  -1.1352 N.am           1 S1                 0.0000
     10 ****         1.8426  -0.2539  -0.7315 C.3            1 S1                 0.0000
     11 ****         2.7299  -0.1521  -1.9805 C.3            1 S1                 0.0000
     12 ****         2.0973  -1.5553   0.0530 C.3            1 S1                 0.0000
     13 ****         1.2472  -1.7202   1.3123 C.3            1 S1                 0.0000
     14 ****         2.0426  -2.7260   2.1235 C.3            1 S1                 0.0000
     15 ****         3.4760  -2.5613   1.6077 C.3            1 S1                 0.0000
     16 ****         3.4143  -1.5752   0.5834 O.3            1 S1                 0.0000
     17 ****        -3.6096   1.4532   0.4344 S.3            1 S1                 0.0000
     18 ****        -5.3256   4.5427   0.6216 H              1 S1                 0.0000
     19 ****        -5.7815   3.0270   1.4175 H              1 S1                 0.0000
     20 ****        -6.5119   3.4640  -0.1361 H              1 S1                 0.0000
     21 ****         0.1002  -0.9398  -1.7130 H              1 S1                 0.0000
     22 ****         2.0923   0.5842  -0.0791 H              1 S1                 0.0000
     23 ****         3.7872  -0.1815  -1.7159 H              1 S1                 0.0000
     24 ****         2.5509   0.7832  -2.5117 H              1 S1                 0.0000
     25 ****         2.5370  -0.9716  -2.6734 H              1 S1                 0.0000
     26 ****         1.9655  -2.4241  -0.5952 H              1 S1                 0.0000
     27 ****         1.1870  -0.7740   1.8519 H              1 S1                 0.0000
     28 ****         0.2309  -2.0537   1.1001 H              1 S1                 0.0000
     29 ****         1.9598  -2.5410   3.1948 H              1 S1                 0.0000
     30 ****         1.6888  -3.7391   1.9282 H              1 S1                 0.0000
     31 ****         4.1625  -2.2431   2.3928 H              1 S1                 0.0000
     32 ****         3.8468  -3.4991   1.1924 H              1 S1                 0.0000
     33 ****        -4.5115   3.8843  -2.0243 LP             1 S1                 0.0000
     34 ****        -2.6412   2.4524  -2.8532 LP             1 S1                 0.0000
     35 ****        -1.8600  -0.2590  -1.8733 LP             1 S1                 0.0000
     36 ****        -0.7725   2.4230   0.1442 LP             1 S1                 0.0000
     37 ****         0.8367   1.7872   0.2226 LP             1 S1                 0.0000
     38 ****         3.6374  -0.6783   0.9652 LP             1 S1                 0.0000
     39 ****         4.0659  -1.8005  -0.1410 LP             1 S1                 0.0000
@<TRIPOS>BOND
    1    1    2 1     
    2    1   18 1     
    3    1   19 1     
    4    1   20 1     
    5    2   17 1     
    6    2    3 2     
    7    3    4 1     
    8    4    5 2     
    9    5    6 1     
   10    5   17 1     
   11    6    7 1     
   12    7    8 2     
   13    7    9 am    
   14    9   10 1     
   15    9   21 1     
   16   10   11 1     
   17   10   12 1     
   18   10   22 1     
   19   11   23 1     
   20   11   24 1     
   21   11   25 1     
   22   12   16 1     
   23   12   13 1     
   24   12   26 1     
   25   13   14 1     
   26   13   27 1     
   27   13   28 1     
   28   14   15 1     
   29   14   29 1     
   30   14   30 1     
   31   15   16 1     
   32   15   31 1     
   33   15   32 1     
   34    3   33 1     
   35    4   34 1     
   36    6   35 1     
   37    8   36 1     
   38    8   37 1     
   39   16   38 1     
   40   16   39 1     
@<TRIPOS>SUBSTRUCTURE
      1 S1             1
@<TRIPOS>SET
LONE_PAIRS      STATIC     ATOMS    <user>   **** ""
7 33 34 35 36 37 38 39
DONOR_HYDROGENS      STATIC     ATOMS    <user>   **** ""
1 21
ATOM$BLUE        STATIC     ATOMS    COLORGROUP SYSTEM
7 33 34 35 36 37 38 39
ATOM$RED        STATIC     ATOMS    COLORGROUP SYSTEM
1 21
